# generated using pymatgen
data_Ba51Fe51Bi26
_symmetry_space_group_name_H-M   'P 1'
_cell_length_a   16.09230965
_cell_length_b   16.11922726
_cell_length_c   17.02427923
_cell_angle_alpha   90.32795012
_cell_angle_beta   87.32933696
_cell_angle_gamma   91.27626893
_symmetry_Int_Tables_number   1
_chemical_formula_structural   Ba51Fe51Bi26
_chemical_formula_sum   'Ba51 Fe51 Bi26'
_cell_volume   4410.08377613
_cell_formula_units_Z   1
loop_
 _symmetry_equiv_pos_site_id
 _symmetry_equiv_pos_as_xyz
  1  'x, y, z'
loop_
 _atom_site_type_symbol
 _atom_site_label
 _atom_site_symmetry_multiplicity
 _atom_site_fract_x
 _atom_site_fract_y
 _atom_site_fract_z
 _atom_site_occupancy
  Ba  Ba0  1  0.43708172  -0.01186341  0.74099021  1
  Ba  Ba1  1  -0.07561879  0.51773299  0.20617092  1
  Ba  Ba2  1  0.57521008  0.30732071  0.50105003  1
  Ba  Ba3  1  0.47169438  -0.05087232  0.47757017  1
  Ba  Ba4  1  0.00593751  0.33409154  0.49282588  1
  Ba  Ba5  1  0.77031612  0.50014753  -0.00435844  1
  Ba  Ba6  1  0.26620692  0.35670771  0.25760163  1
  Ba  Ba7  1  0.18504595  0.56725012  0.17775093  1
  Ba  Ba8  1  0.17362872  0.21861227  0.08780166  1
  Ba  Ba9  1  0.45658101  0.51816191  0.60861215  1
  Ba  Ba10  1  0.66326211  0.53924000  0.77229428  1
  Ba  Ba11  1  0.73038397  0.80499915  0.49918500  1
  Ba  Ba12  1  0.77800557  -0.01576908  0.31250569  1
  Ba  Ba13  1  0.05614170  -0.01648430  0.26736889  1
  Ba  Ba14  1  0.73420279  0.07572699  0.02296975  1
  Ba  Ba15  1  0.76315452  0.79600792  0.02079524  1
  Ba  Ba16  1  0.24630744  -0.14720167  0.19365913  1
  Ba  Ba17  1  0.00093516  0.28510079  0.26518213  1
  Ba  Ba18  1  0.80372491  0.43919759  0.62361019  1
  Ba  Ba19  1  0.09810730  0.07655271  0.76583181  1
  Ba  Ba20  1  -0.09328693  0.60766707  0.45016018  1
  Ba  Ba21  1  0.67432122  0.46512314  0.26468362  1
  Ba  Ba22  1  0.29174816  0.29794215  0.68133868  1
  Ba  Ba23  1  0.40610984  0.69822000  0.39804104  1
  Ba  Ba24  1  0.50325562  0.78770413  0.16722669  1
  Ba  Ba25  1  0.21418484  0.50721697  0.50914315  1
  Ba  Ba26  1  0.52515834  0.03949721  0.22547975  1
  Ba  Ba27  1  0.25904726  0.01481621  0.58706608  1
  Ba  Ba28  1  0.55453773  0.72757301  0.66525209  1
  Ba  Ba29  1  0.22689639  0.54467310  0.75584802  1
  Ba  Ba30  1  0.46034161  0.50918839  0.21502401  1
  Ba  Ba31  1  0.52163944  0.26590055  0.78970692  1
  Ba  Ba32  1  0.54922092  0.71796988  -0.05658539  1
  Ba  Ba33  1  0.79884551  0.17261988  0.50267620  1
  Ba  Ba34  1  0.75786543  0.04347836  0.74186472  1
  Ba  Ba35  1  0.53093429  0.47821617  -0.01199143  1
  Ba  Ba36  1  0.38070413  0.18332166  0.40690061  1
  Ba  Ba37  1  -0.04930954  0.83968436  0.76173219  1
  Ba  Ba38  1  0.01822318  0.56839403  -0.05673967  1
  Ba  Ba39  1  0.22980678  0.73572854  -0.00789158  1
  Ba  Ba40  1  0.36209156  0.75585425  0.81426501  1
  Ba  Ba41  1  0.72709082  0.23139672  0.26971144  1
  Ba  Ba42  1  0.12534082  0.74244027  0.41786533  1
  Ba  Ba43  1  0.78419390  0.72949695  0.25993264  1
  Ba  Ba44  1  0.29127706  0.00139605  0.94736941  1
  Ba  Ba45  1  -0.10345121  0.28856901  -0.00266176  1
  Ba  Ba46  1  0.18357478  0.35551836  -0.09975648  1
  Ba  Ba47  1  0.43928110  0.21872378  0.02909952  1
  Ba  Ba48  1  0.01855734  0.00433299  0.01069796  1
  Ba  Ba49  1  0.02308392  0.00937668  0.50710961  1
  Ba  Ba50  1  0.00103860  0.60204718  0.69937555  1
  Fe  Fe51  1  0.13263040  0.74844573  0.82663951  1
  Fe  Fe52  1  0.19357755  0.72779054  0.70062403  1
  Fe  Fe53  1  0.38552481  0.39430402  0.89899787  1
  Fe  Fe54  1  0.55461674  0.52900507  0.41594185  1
  Fe  Fe55  1  0.47765352  0.01474119  1.02592941  1
  Fe  Fe56  1  0.75936644  0.85588947  0.84193872  1
  Fe  Fe57  1  0.39355516  0.76931743  0.56901966  1
  Fe  Fe58  1  0.14376816  0.87501804  0.87635597  1
  Fe  Fe59  1  0.09500387  0.27543634  0.68474840  1
  Fe  Fe60  1  0.65020454  0.91978009  0.90621437  1
  Fe  Fe61  1  0.33769387  0.15054737  0.19454316  1
  Fe  Fe62  1  0.57831042  0.63750809  0.49528509  1
  Fe  Fe63  1  0.49500249  0.90864728  0.91255856  1
  Fe  Fe64  1  0.93235213  0.72764200  0.10617945  1
  Fe  Fe65  1  0.57046830  0.91630424  0.02362297  1
  Fe  Fe66  1  0.10678403  0.40916670  0.65078840  1
  Fe  Fe67  1  0.17842606  0.24341593  0.38278356  1
  Fe  Fe68  1  0.41433142  0.89274588  0.04014267  1
  Fe  Fe69  1  0.28355576  0.82783882  0.51833485  1
  Fe  Fe70  1  0.73828485  0.34265396  0.81473806  1
  Fe  Fe71  1  0.72537948  0.83911847  0.70886749  1
  Fe  Fe72  1  0.33285450  0.67594421  0.64464862  1
  Fe  Fe73  1  0.06068170  0.68870883  0.09098508  1
  Fe  Fe74  1  1.08309994  0.15127809  0.38448620  1
  Fe  Fe75  1  0.38758417  0.44066692  0.78162991  1
  Fe  Fe76  1  0.72338440  0.33271024  0.10560222  1
  Fe  Fe77  1  0.29574285  0.04388431  0.27120581  1
  Fe  Fe78  1  0.60282318  0.87017902  0.79511379  1
  Fe  Fe79  1  0.71185230  0.57460767  0.41989680  1
  Fe  Fe80  1  0.61972009  0.22687133  0.11663171  1
  Fe  Fe81  1  -0.00036140  0.26831722  0.79662462  1
  Fe  Fe82  1  0.68983034  0.74676324  0.80389177  1
  Fe  Fe83  1  0.19390448  0.87226153  0.75674129  1
  Fe  Fe84  1  0.75176712  0.21295281  0.84464552  1
  Fe  Fe85  1  0.34175816  0.52405532  -0.09424232  1
  Fe  Fe86  1  1.20486320  0.09019467  0.39090944  1
  Fe  Fe87  1  0.04711822  0.82174228  0.12060616  1
  Fe  Fe88  1  0.85774756  0.26318534  0.75790683  1
  Fe  Fe89  1  0.69224250  0.60659304  0.55551489  1
  Fe  Fe90  1  0.96559684  0.34979693  0.68336959  1
  Fe  Fe91  1  0.29719444  0.82952000  0.65503582  1
  Fe  Fe92  1  0.23785232  0.70688000  0.56544305  1
  Fe  Fe93  1  0.06056811  0.40739252  0.77115230  1
  Fe  Fe94  1  0.36192963  0.01336946  0.12752340  1
  Fe  Fe95  1  0.45315372  0.54870590  0.82747113  1
  Fe  Fe96  1  0.60375857  0.10728092  0.58672445  1
  Fe  Fe97  1  0.23196485  0.05256600  0.15591654  1
  Fe  Fe98  1  0.59184765  0.35752278  0.12208686  1
  Fe  Fe99  1  0.64261793  0.49070954  0.50714663  1
  Fe  Fe100  1  0.61548715  0.65534953  0.36922510  1
  Fe  Fe101  1  0.19679586  0.15699562  0.26737403  1
  Bi  Bi102  1  0.61674086  -0.05993339  0.62977997  1
  Bi  Bi103  1  0.02147598  0.71025935  0.24793660  1
  Bi  Bi104  1  0.56564204  0.06692908  -0.11037928  1
  Bi  Bi105  1  0.69982988  0.24601629  0.67635295  1
  Bi  Bi106  1  0.25931399  -0.07344503  0.38950013  1
  Bi  Bi107  1  0.48527395  0.27205766  0.23134502  1
  Bi  Bi108  1  0.65681354  0.29661547  -0.04014602  1
  Bi  Bi109  1  0.16759260  0.19746707  0.53685240  1
  Bi  Bi110  1  0.78654491  0.39997024  0.42188269  1
  Bi  Bi111  1  -0.10926981  0.43148866  0.82265151  1
  Bi  Bi112  1  0.79763927  0.68492125  0.65661773  1
  Bi  Bi113  1  0.11570378  0.84051079  0.60939811  1
  Bi  Bi114  1  0.01685910  0.78841620  -0.04292967  1
  Bi  Bi115  1  0.63841274  0.62393724  0.11810985  1
  Bi  Bi116  1  0.08348298  0.48390091  0.35196118  1
  Bi  Bi117  1  0.59503178  0.82613319  0.34167024  1
  Bi  Bi118  1  0.06508170  0.40447196  0.08638480  1
  Bi  Bi119  1  0.82737060  0.67364587  0.86108358  1
  Bi  Bi120  1  0.44053883  0.15735903  0.60948598  1
  Bi  Bi121  1  0.92605346  0.84277108  0.40254392  1
  Bi  Bi122  1  0.90390956  0.12410627  0.15967401  1
  Bi  Bi123  1  0.90551354  0.12656294  0.86631563  1
  Bi  Bi124  1  0.95392674  0.17433617  0.64478087  1
  Bi  Bi125  1  0.61386597  0.11033899  0.41652918  1
  Bi  Bi126  1  0.32254061  0.42181010  0.05589473  1
  Bi  Bi127  1  0.88960890  0.89828460  0.14982129  1
