# generated using pymatgen
data_Ba51Fe51Bi26
_symmetry_space_group_name_H-M   'P 1'
_cell_length_a   16.66823337
_cell_length_b   16.19210863
_cell_length_c   16.25335642
_cell_angle_alpha   87.51586556
_cell_angle_beta   90.82249105
_cell_angle_gamma   91.03266577
_symmetry_Int_Tables_number   1
_chemical_formula_structural   Ba51Fe51Bi26
_chemical_formula_sum   'Ba51 Fe51 Bi26'
_cell_volume   4381.44215969
_cell_formula_units_Z   1
loop_
 _symmetry_equiv_pos_site_id
 _symmetry_equiv_pos_as_xyz
  1  'x, y, z'
loop_
 _atom_site_type_symbol
 _atom_site_label
 _atom_site_symmetry_multiplicity
 _atom_site_fract_x
 _atom_site_fract_y
 _atom_site_fract_z
 _atom_site_occupancy
  Ba  Ba0  1  0.18952890  0.46310828  0.21794473  1
  Ba  Ba1  1  -0.02371994  0.07510931  0.55877542  1
  Ba  Ba2  1  0.41001089  0.50890878  0.34334131  1
  Ba  Ba3  1  0.39442383  0.52103406  -0.03705199  1
  Ba  Ba4  1  0.23650666  0.74943617  0.49465503  1
  Ba  Ba5  1  0.81541868  0.71388094  0.68761052  1
  Ba  Ba6  1  0.73706950  0.25225481  0.55411586  1
  Ba  Ba7  1  -0.03579073  0.49173380  0.76671798  1
  Ba  Ba8  1  0.66720920  0.50279017  0.77738952  1
  Ba  Ba9  1  0.78885340  0.00563414  -0.02117942  1
  Ba  Ba10  1  0.19031802  0.20587129  0.54148985  1
  Ba  Ba11  1  0.44792397  0.24134753  0.54868966  1
  Ba  Ba12  1  0.51554372  0.75703658  0.24392066  1
  Ba  Ba13  1  0.55596299  0.48481361  0.13420917  1
  Ba  Ba14  1  0.53624173  -0.00082214  0.82733672  1
  Ba  Ba15  1  0.46310902  0.76100983  -0.01315556  1
  Ba  Ba16  1  0.03963934  0.81694920  0.65884643  1
  Ba  Ba17  1  0.21648052  0.47851033  0.82483733  1
  Ba  Ba18  1  0.78939403  0.55367073  0.12360505  1
  Ba  Ba19  1  0.16399591  -0.00546996  0.09690204  1
  Ba  Ba20  1  0.57640654  0.04627358  0.22465721  1
  Ba  Ba21  1  0.55286485  0.24023339  0.76594785  1
  Ba  Ba22  1  0.84397534  0.06910869  0.30124147  1
  Ba  Ba23  1  0.02932125  0.52640289  0.53994853  1
  Ba  Ba24  1  0.01539985  0.07769601  0.81516039  1
  Ba  Ba25  1  -0.04354990  0.19326826  0.06379836  1
  Ba  Ba26  1  0.18046613  0.24646014  0.79917878  1
  Ba  Ba27  1  0.52191667  0.88757373  0.52214956  1
  Ba  Ba28  1  0.41916019  0.00909696  0.02954957  1
  Ba  Ba29  1  0.78328370  -0.04880804  0.56837902  1
  Ba  Ba30  1  0.27602986  0.45707386  0.59710248  1
  Ba  Ba31  1  0.69444842  0.72784737  0.45381300  1
  Ba  Ba32  1  0.76181104  0.76995653  -0.05925276  1
  Ba  Ba33  1  0.49049378  0.23015094  0.04997708  1
  Ba  Ba34  1  0.24248708  0.24263690  0.03143743  1
  Ba  Ba35  1  -0.02112431  0.75233000  0.18568968  1
  Ba  Ba36  1  -0.01877865  0.30006242  0.43435147  1
  Ba  Ba37  1  0.73681099  0.31810729  0.25989897  1
  Ba  Ba38  1  0.32895219  -0.06933090  0.33126715  1
  Ba  Ba39  1  0.55159605  0.74028603  0.75727445  1
  Ba  Ba40  1  0.52186565  0.50888960  0.57875161  1
  Ba  Ba41  1  0.18589652  0.69102259  0.05965289  1
  Ba  Ba42  1  0.76241599  0.83383780  0.21321826  1
  Ba  Ba43  1  0.26895706  0.74890651  0.79935151  1
  Ba  Ba44  1  0.02373200  0.85465437  -0.05115986  1
  Ba  Ba45  1  -0.00212633  0.45920488  0.00957802  1
  Ba  Ba46  1  0.77303757  0.50203584  0.46066552  1
  Ba  Ba47  1  0.46443672  0.25383781  0.30093721  1
  Ba  Ba48  1  0.76658632  0.10884711  0.77238485  1
  Ba  Ba49  1  -0.02639630  0.54401115  0.31062389  1
  Ba  Ba50  1  0.24435859  0.03723961  0.70568413  1
  Fe  Fe51  1  0.08854846  0.13817957  0.37093241  1
  Fe  Fe52  1  0.06973110  0.65709659  0.85135943  1
  Fe  Fe53  1  0.09658983  0.87880800  0.38008375  1
  Fe  Fe54  1  0.94651325  0.70401686  0.83962589  1
  Fe  Fe55  1  0.69542022  0.32621177  0.88374115  1
  Fe  Fe56  1  0.04116495  0.22420923  0.65345706  1
  Fe  Fe57  1  0.06958517  0.35452180  0.66340845  1
  Fe  Fe58  1  0.88505891  0.80157224  0.48814403  1
  Fe  Fe59  1  0.71722359  0.89039999  0.78129234  1
  Fe  Fe60  1  0.67582805  0.31432687  0.02619246  1
  Fe  Fe61  1  0.14753388  0.26772830  0.33067515  1
  Fe  Fe62  1  0.93867162  0.33932036  0.62549914  1
  Fe  Fe63  1  0.35536470  0.30326406  0.73816718  1
  Fe  Fe64  1  0.03685827  0.93074673  0.26072043  1
  Fe  Fe65  1  0.43368878  0.41275184  0.76653289  1
  Fe  Fe66  1  0.33799186  -0.06675724  0.85726075  1
  Fe  Fe67  1  0.80608236  0.35333678  0.05583800  1
  Fe  Fe68  1  0.24514305  0.14718422  0.35181407  1
  Fe  Fe69  1  0.61545551  0.07852607  0.01180719  1
  Fe  Fe70  1  0.30635305  0.07056615  0.47148624  1
  Fe  Fe71  1  0.63069003  0.08100337  0.44701379  1
  Fe  Fe72  1  0.66613127  0.62550610  0.28032756  1
  Fe  Fe73  1  0.25127934  0.03067845  0.91071163  1
  Fe  Fe74  1  0.59143400  0.57108307  0.38171711  1
  Fe  Fe75  1  0.40625859  0.04478617  0.58544995  1
  Fe  Fe76  1  1.15832265  0.14754777  0.22777447  1
  Fe  Fe77  1  -0.01583100  0.28808282  0.77106508  1
  Fe  Fe78  1  0.93729023  0.86477451  0.35421804  1
  Fe  Fe79  1  0.26278389  0.67232664  0.27891079  1
  Fe  Fe80  1  0.70176975  0.44994315  -0.02319136  1
  Fe  Fe81  1  0.18659368  0.92177440  0.86772039  1
  Fe  Fe82  1  0.65538090  0.49193636  0.30042175  1
  Fe  Fe83  1  0.15359246  0.01788085  0.32456991  1
  Fe  Fe84  1  0.66037560  0.18399300  0.94208613  1
  Fe  Fe85  1  0.87116787  0.72649765  0.36166627  1
  Fe  Fe86  1  0.88481788  0.66607055  0.48057332  1
  Fe  Fe87  1  0.13629551  0.66450051  0.29938616  1
  Fe  Fe88  1  0.97584848  0.65667409  -0.03894006  1
  Fe  Fe89  1  0.91015250  0.21551595  0.68254908  1
  Fe  Fe90  1  0.37794631  0.32790325  0.86741860  1
  Fe  Fe91  1  0.81641797  0.39717025  0.92208231  1
  Fe  Fe92  1  0.25728913  0.26217899  0.24110654  1
  Fe  Fe93  1  0.10890081  0.27966689  0.19250451  1
  Fe  Fe94  1  0.27132560  0.88139391  0.96823731  1
  Fe  Fe95  1  0.32464954  0.94940014  0.54230995  1
  Fe  Fe96  1  -0.00439152  0.89501902  0.47932695  1
  Fe  Fe97  1  1.01714604  0.21289308  0.26436860  1
  Fe  Fe98  1  1.01310172  1.00624946  0.38022173  1
  Fe  Fe99  1  1.03289721  0.07489579  0.23765111  1
  Fe  Fe100  1  0.79441070  0.24816629  0.95104654  1
  Fe  Fe101  1  0.63649711  0.91350438  0.68551551  1
  Bi  Bi102  1  -0.19080483  0.32815160  0.75689414  1
  Bi  Bi103  1  0.54336873  0.38746166  -0.08557519  1
  Bi  Bi104  1  0.83552430  0.57316048  -0.09550199  1
  Bi  Bi105  1  0.36945556  0.15322713  0.85877577  1
  Bi  Bi106  1  0.46684712  0.07178352  0.42153339  1
  Bi  Bi107  1  0.73502650  0.16766878  0.10922452  1
  Bi  Bi108  1  0.15791452  -0.03013739  0.50820201  1
  Bi  Bi109  1  0.03309900  0.72363942  0.43253377  1
  Bi  Bi110  1  0.32922422  0.11546772  0.19402699  1
  Bi  Bi111  1  0.29371148  0.32538520  0.39922992  1
  Bi  Bi112  1  -0.05911032  0.35932754  0.19961869  1
  Bi  Bi113  1  -0.06102185  -0.03086748  0.12632545  1
  Bi  Bi114  1  0.16920518  0.82123197  0.24384990  1
  Bi  Bi115  1  0.61172703  0.90666644  0.05950055  1
  Bi  Bi116  1  0.60555296  0.07912427  0.61862249  1
  Bi  Bi117  1  0.40428785  0.58004146  0.74246354  1
  Bi  Bi118  1  0.20282361  0.55302241  0.40926364  1
  Bi  Bi119  1  0.36494520  0.37516043  0.14688097  1
  Bi  Bi120  1  0.59441829  0.38097604  0.42594552  1
  Bi  Bi121  1  0.33340597  0.83885833  0.12839730  1
  Bi  Bi122  1  0.88368723  0.90218944  0.78297020  1
  Bi  Bi123  1  0.36976526  0.62039133  0.15770870  1
  Bi  Bi124  1  0.67870368  0.93612056  0.37780024  1
  Bi  Bi125  1  0.13425401  0.62735434  0.69184017  1
  Bi  Bi126  1  0.39766023  0.89476949  0.69512959  1
  Bi  Bi127  1  0.61412357  0.60907765  0.96022423  1
