# generated using pymatgen
data_Ba51Fe51Bi26
_symmetry_space_group_name_H-M   'P 1'
_cell_length_a   16.34626997
_cell_length_b   16.20971926
_cell_length_c   16.62271518
_cell_angle_alpha   88.86934445
_cell_angle_beta   89.36192723
_cell_angle_gamma   90.28134304
_symmetry_Int_Tables_number   1
_chemical_formula_structural   Ba51Fe51Bi26
_chemical_formula_sum   'Ba51 Fe51 Bi26'
_cell_volume   4403.30641976
_cell_formula_units_Z   1
loop_
 _symmetry_equiv_pos_site_id
 _symmetry_equiv_pos_as_xyz
  1  'x, y, z'
loop_
 _atom_site_type_symbol
 _atom_site_label
 _atom_site_symmetry_multiplicity
 _atom_site_fract_x
 _atom_site_fract_y
 _atom_site_fract_z
 _atom_site_occupancy
  Ba  Ba0  1  0.75779108  0.06290405  0.06706923  1
  Ba  Ba1  1  0.76162657  0.54666203  0.60164364  1
  Ba  Ba2  1  0.76444017  0.64041310  0.00697509  1
  Ba  Ba3  1  0.25678204  -0.11871030  0.01153328  1
  Ba  Ba4  1  0.53501789  0.46756709  0.43618379  1
  Ba  Ba5  1  0.76009131  0.19379439  0.73725462  1
  Ba  Ba6  1  0.55009216  0.82403711  0.74901387  1
  Ba  Ba7  1  0.82249413  0.75384464  0.76854906  1
  Ba  Ba8  1  -0.01438238  0.42915472  0.45696534  1
  Ba  Ba9  1  0.27152842  -0.12292111  0.25316811  1
  Ba  Ba10  1  0.75052146  0.10940644  0.29749222  1
  Ba  Ba11  1  -0.01377503  -0.00191480  0.01555911  1
  Ba  Ba12  1  0.07823235  0.54339072  0.25235272  1
  Ba  Ba13  1  0.31204946  0.48720061  0.17836465  1
  Ba  Ba14  1  0.02449517  0.76540883  0.10117497  1
  Ba  Ba15  1  0.82846896  0.36989511  -0.03364938  1
  Ba  Ba16  1  0.65373445  0.39979960  0.78252246  1
  Ba  Ba17  1  0.47342893  0.19383361  0.81105414  1
  Ba  Ba18  1  0.05561174  0.25206475  0.00859524  1
  Ba  Ba19  1  -0.10438878  0.71769812  0.30992976  1
  Ba  Ba20  1  0.06460520  0.06393639  0.23681518  1
  Ba  Ba21  1  0.77401407  -0.01577441  0.84434600  1
  Ba  Ba22  1  0.70404226  0.51414177  0.26082760  1
  Ba  Ba23  1  0.42656066  0.64298345  0.54175876  1
  Ba  Ba24  1  0.00149019  0.55826418  -0.05794375  1
  Ba  Ba25  1  0.52118498  -0.02471133  -0.04558800  1
  Ba  Ba26  1  0.26379242  0.50808175  0.77286085  1
  Ba  Ba27  1  0.60577701  0.80916130  0.46593184  1
  Ba  Ba28  1  0.34886385  0.03439703  0.46927122  1
  Ba  Ba29  1  0.05335517  0.76828463  0.70039587  1
  Ba  Ba30  1  0.49470771  0.00419483  0.24117278  1
  Ba  Ba31  1  0.50037107  0.57630220  0.81421617  1
  Ba  Ba32  1  0.22188049  0.78996152  0.48815884  1
  Ba  Ba33  1  0.00418222  0.50160157  0.68758939  1
  Ba  Ba34  1  0.68392365  0.82380928  0.19329594  1
  Ba  Ba35  1  0.07044639  0.30808667  0.24710697  1
  Ba  Ba36  1  0.33886076  0.30608509  0.51405518  1
  Ba  Ba37  1  -0.10619571  -0.04599914  0.42287235  1
  Ba  Ba38  1  0.33231479  0.23141389  0.26768416  1
  Ba  Ba39  1  0.68095738  0.31331175  0.11682023  1
  Ba  Ba40  1  0.52318353  0.61745321  0.12677390  1
  Ba  Ba41  1  0.17938879  0.00046840  0.69087086  1
  Ba  Ba42  1  0.01192667  0.20216311  0.75261256  1
  Ba  Ba43  1  0.25442847  0.25025188  0.83283659  1
  Ba  Ba44  1  0.29926429  0.79242184  0.76878786  1
  Ba  Ba45  1  0.74242422  0.32200159  0.46882236  1
  Ba  Ba46  1  0.47720857  0.19760555  0.07419407  1
  Ba  Ba47  1  0.02259040  0.17572109  0.51591822  1
  Ba  Ba48  1  0.21153298  0.51447190  0.51001151  1
  Ba  Ba49  1  0.73120577  0.01131116  0.57190914  1
  Ba  Ba50  1  0.53706211  0.18474223  0.57571307  1
  Fe  Fe51  1  0.44912281  0.39523741  0.74089165  1
  Fe  Fe52  1  0.17621933  0.20528824  0.39008439  1
  Fe  Fe53  1  0.42659278  0.00166686  0.68194888  1
  Fe  Fe54  1  0.31035662  0.09084769  0.97963214  1
  Fe  Fe55  1  0.57986225  0.79003514  0.01734140  1
  Fe  Fe56  1  0.93946325  0.62072353  0.47354053  1
  Fe  Fe57  1  0.83304875  0.72606643  0.50140985  1
  Fe  Fe58  1  0.52154044  0.97820876  0.59330529  1
  Fe  Fe59  1  0.42929491  0.61717629  0.31849717  1
  Fe  Fe60  1  0.18534899  0.63414779  0.06731441  1
  Fe  Fe61  1  0.64557040  0.30457841  0.30886760  1
  Fe  Fe62  1  0.53041923  0.49890390  0.64146376  1
  Fe  Fe63  1  0.91719439  0.67887700  0.59352329  1
  Fe  Fe64  1  0.36736481  0.70767845  0.22385155  1
  Fe  Fe65  1  0.59879044  0.69536059  0.92859541  1
  Fe  Fe66  1  0.07707758  0.65344918  0.40938444  1
  Fe  Fe67  1  0.10881512  0.89086024  0.87364306  1
  Fe  Fe68  1  0.15242566  0.31798919  0.44395615  1
  Fe  Fe69  1  0.68776492  0.87317417  0.00820098  1
  Fe  Fe70  1  0.21514529  0.69854928  0.18868486  1
  Fe  Fe71  1  0.86529223  -0.07383212  0.67707528  1
  Fe  Fe72  1  0.61211372  0.19204681  0.39710124  1
  Fe  Fe73  1  0.88385314  0.38745233  0.16646925  1
  Fe  Fe74  1  0.29148042  0.66967981  0.95636154  1
  Fe  Fe75  1  0.31657059  0.06972295  0.11340537  1
  Fe  Fe76  1  0.67981737  0.80250361  0.90108522  1
  Fe  Fe77  1  0.99838825  0.82101733  0.89462637  1
  Fe  Fe78  1  0.40398910  0.45663200  0.62565643  1
  Fe  Fe79  1  0.54461654  0.66870121  0.34884293  1
  Fe  Fe80  1  0.48676370  0.41270013  0.05238166  1
  Fe  Fe81  1  0.12434989  0.73054540  0.29702144  1
  Fe  Fe82  1  0.25982686  0.41215179  0.95998771  1
  Fe  Fe83  1  0.40855107  0.74578897  0.37193161  1
  Fe  Fe84  1  0.21516556  0.55071313  0.96145043  1
  Fe  Fe85  1  0.48379388  0.15727843  0.37063683  1
  Fe  Fe86  1  0.50503398  0.29185924  0.37080860  1
  Fe  Fe87  1  0.39701655  0.39685850  0.87650933  1
  Fe  Fe88  1  0.55427143  0.21476401  0.25646534  1
  Fe  Fe89  1  0.49397615  0.76944007  0.27288289  1
  Fe  Fe90  1  -0.01317812  0.93625490  0.59873693  1
  Fe  Fe91  1  0.52917924  0.36979114  0.62663804  1
  Fe  Fe92  1  0.51979736  0.35363440  0.93292287  1
  Fe  Fe93  1  0.37739234  0.34896216  0.00306541  1
  Fe  Fe94  1  0.19382245  0.08279583  0.07049486  1
  Fe  Fe95  1  -0.08089510  0.04385703  0.63812250  1
  Fe  Fe96  1  0.05292477  0.63314312  0.54191867  1
  Fe  Fe97  1  0.88591419  0.43565150  0.28461359  1
  Fe  Fe98  1  0.32399762  0.69476205  0.08668568  1
  Fe  Fe99  1  0.87679556  0.82911857  0.58304069  1
  Fe  Fe100  1  0.86769267  0.38419806  0.77660207  1
  Fe  Fe101  1  0.79931567  0.32928686  0.27485203  1
  Bi  Bi102  1  0.50907940  0.38996580  0.22527678  1
  Bi  Bi103  1  0.38133052  0.53112782  -0.01707969  1
  Bi  Bi104  1  0.13954228  0.71930309  -0.09599462  1
  Bi  Bi105  1  0.43635678  0.75782369  -0.07160951  1
  Bi  Bi106  1  0.25976856  0.63827648  0.34481226  1
  Bi  Bi107  1  0.62272145  0.48461284  -0.01836708  1
  Bi  Bi108  1  0.84860100  0.83171965  -0.02154425  1
  Bi  Bi109  1  0.57385939  0.02223712  0.43233324  1
  Bi  Bi110  1  0.26170575  0.24251462  0.06811126  1
  Bi  Bi111  1  -0.01549189  -0.03913379  0.78275080  1
  Bi  Bi112  1  0.44935658  0.83203275  0.12451797  1
  Bi  Bi113  1  0.59483250  0.03323210  0.73414091  1
  Bi  Bi114  1  0.01110619  0.79311256  0.48236477  1
  Bi  Bi115  1  0.89515153  0.55983260  0.15174291  1
  Bi  Bi116  1  0.40623540  0.85476303  0.58481293  1
  Bi  Bi117  1  0.87816728  0.16459866  0.91460920  1
  Bi  Bi118  1  0.88449511  0.93125018  0.21229553  1
  Bi  Bi119  1  0.14051561  0.33898112  0.61620328  1
  Bi  Bi120  1  0.64817151  0.21739907  0.92922499  1
  Bi  Bi121  1  0.89239544  0.21474628  0.16784808  1
  Bi  Bi122  1  0.15392703  0.06639557  0.90469746  1
  Bi  Bi123  1  0.87979319  0.33433302  0.62228484  1
  Bi  Bi124  1  0.33534279  0.14270011  0.65435882  1
  Bi  Bi125  1  0.82462434  0.54063736  0.81300136  1
  Bi  Bi126  1  0.34896749  1.00075557  0.83510805  1
  Bi  Bi127  1  0.13118743  0.45081193  0.06972041  1
