# generated using pymatgen
data_Ba51Fe51Bi26
_symmetry_space_group_name_H-M   'P 1'
_cell_length_a   15.98851628
_cell_length_b   16.67056120
_cell_length_c   16.47584590
_cell_angle_alpha   89.62647067
_cell_angle_beta   90.34152303
_cell_angle_gamma   92.52371219
_symmetry_Int_Tables_number   1
_chemical_formula_structural   Ba51Fe51Bi26
_chemical_formula_sum   'Ba51 Fe51 Bi26'
_cell_volume   4387.00812000
_cell_formula_units_Z   1
loop_
 _symmetry_equiv_pos_site_id
 _symmetry_equiv_pos_as_xyz
  1  'x, y, z'
loop_
 _atom_site_type_symbol
 _atom_site_label
 _atom_site_symmetry_multiplicity
 _atom_site_fract_x
 _atom_site_fract_y
 _atom_site_fract_z
 _atom_site_occupancy
  Ba  Ba0  1  0.06344272  0.73988362  0.74984801  1
  Ba  Ba1  1  -0.08877170  0.75235179  0.56097118  1
  Ba  Ba2  1  -0.06941161  0.80313879  0.24988313  1
  Ba  Ba3  1  -0.09832266  0.01468114  0.48432288  1
  Ba  Ba4  1  0.54287629  0.10214184  0.11209768  1
  Ba  Ba5  1  0.32423006  0.63230885  0.78034910  1
  Ba  Ba6  1  0.14023373  0.81457026  0.47179522  1
  Ba  Ba7  1  0.60302488  0.25248030  0.50866092  1
  Ba  Ba8  1  0.24482191  -0.04709028  0.73680637  1
  Ba  Ba9  1  0.49699919  0.60661896  0.27577370  1
  Ba  Ba10  1  -0.00862607  0.18571323  0.03660456  1
  Ba  Ba11  1  0.36317237  0.29334521  0.53048020  1
  Ba  Ba12  1  0.06363543  0.42490127  -0.03391440  1
  Ba  Ba13  1  0.18153738  0.58156792  0.23738730  1
  Ba  Ba14  1  0.73247509  0.70362150  0.14371532  1
  Ba  Ba15  1  -0.05253821  0.48687534  0.44673297  1
  Ba  Ba16  1  0.80584562  0.44770878  0.02653386  1
  Ba  Ba17  1  0.76714908  -0.00762715  0.23857425  1
  Ba  Ba18  1  0.28452853  0.29772331  0.02412947  1
  Ba  Ba19  1  0.07444969  0.36849218  0.70322376  1
  Ba  Ba20  1  0.76939307  -0.08097265  -0.05011171  1
  Ba  Ba21  1  0.01998426  0.26371972  0.46496118  1
  Ba  Ba22  1  0.06403873  0.04900180  0.27522682  1
  Ba  Ba23  1  0.20058433  0.06485558  0.52316352  1
  Ba  Ba24  1  0.68213723  0.18901281  -0.08289151  1
  Ba  Ba25  1  0.18986118  0.04858450  0.01566553  1
  Ba  Ba26  1  0.19376533  0.84024902  0.21765874  1
  Ba  Ba27  1  0.43726116  0.04951036  -0.11643798  1
  Ba  Ba28  1  0.74190288  0.27316615  0.20035074  1
  Ba  Ba29  1  0.35516324  0.09671858  0.28677500  1
  Ba  Ba30  1  0.56045006  0.79520652  0.76318221  1
  Ba  Ba31  1  0.77445440  0.20736491  0.70469555  1
  Ba  Ba32  1  0.24606610  0.36411742  0.30559429  1
  Ba  Ba33  1  -0.06044001  0.56206641  0.20049136  1
  Ba  Ba34  1  0.32056319  0.54137149  0.00477384  1
  Ba  Ba35  1  0.83070922  0.56805740  0.77400033  1
  Ba  Ba36  1  0.52340129  0.82891690  0.07584156  1
  Ba  Ba37  1  0.45670878  0.65688968  0.56359960  1
  Ba  Ba38  1  0.71601825  0.51714555  0.31742962  1
  Ba  Ba39  1  0.82454964  -0.02458623  0.70300139  1
  Ba  Ba40  1  0.43130297  0.83945602  0.29732258  1
  Ba  Ba41  1  -0.00353740  -0.07638665  0.88126199  1
  Ba  Ba42  1  0.59320634  -0.03863763  0.40909379  1
  Ba  Ba43  1  0.17865928  0.58664220  0.53155312  1
  Ba  Ba44  1  0.70681404  0.42257144  0.62045642  1
  Ba  Ba45  1  0.47372299  0.06125848  0.63039401  1
  Ba  Ba46  1  0.68746341  0.63991676  -0.07823796  1
  Ba  Ba47  1  0.05442904  0.13336982  0.74717355  1
  Ba  Ba48  1  0.26117322  0.80143419  -0.02111809  1
  Ba  Ba49  1  0.69817421  0.64389620  0.53493077  1
  Ba  Ba50  1  0.52489484  0.34385074  0.30502398  1
  Fe  Fe51  1  0.56687155  0.41191497  0.78555795  1
  Fe  Fe52  1  0.26927991  0.30336209  0.70737392  1
  Fe  Fe53  1  0.81849000  0.19729973  0.49998566  1
  Fe  Fe54  1  0.05646033  0.27070799  0.27835272  1
  Fe  Fe55  1  0.59522678  0.80980993  0.53275332  1
  Fe  Fe56  1  0.02833834  0.68455050  0.06725083  1
  Fe  Fe57  1  0.47508872  0.40955672  0.00926452  1
  Fe  Fe58  1  0.87917132  0.73291794  0.91678707  1
  Fe  Fe59  1  0.49975721  0.31440831  0.11423075  1
  Fe  Fe60  1  0.95659990  0.37947692  0.15508042  1
  Fe  Fe61  1  0.05428865  0.82491489  0.06269582  1
  Fe  Fe62  1  0.91830417  0.79961513  0.04570102  1
  Fe  Fe63  1  0.58880081  0.44404581  0.11215920  1
  Fe  Fe64  1  0.88459291  0.28666101  0.87200823  1
  Fe  Fe65  1  0.50648014  0.43912445  0.64702103  1
  Fe  Fe66  1  0.35313239  0.81882042  0.47428744  1
  Fe  Fe67  1  0.46808593  0.87563194  0.56030483  1
  Fe  Fe68  1  0.36063826  0.25934368  0.83507121  1
  Fe  Fe69  1  0.43659110  0.48709678  0.76033924  1
  Fe  Fe70  1  0.61067063  0.92586190  0.62348409  1
  Fe  Fe71  1  0.60592806  0.74779311  0.39889968  1
  Fe  Fe72  1  0.88603966  0.66215389  0.03350647  1
  Fe  Fe73  1  0.28625835  0.92896080  0.40835732  1
  Fe  Fe74  1  0.01909043  0.54286294  0.81843977  1
  Fe  Fe75  1  0.27580358  0.13479582  0.81098802  1
  Fe  Fe76  1  0.61205609  0.32656421  0.04332434  1
  Fe  Fe77  1  0.91756844  0.34695672  0.29819062  1
  Fe  Fe78  1  0.70694567  0.83373938  0.60954276  1
  Fe  Fe79  1  0.37290206  0.19849715  0.71209128  1
  Fe  Fe80  1  0.85353470  0.31033738  0.55560167  1
  Fe  Fe81  1  0.44738613  0.38129583  0.86934046  1
  Fe  Fe82  1  0.87039281  0.65228544  0.36924172  1
  Fe  Fe83  1  0.65672727  0.80384556  0.29039363  1
  Fe  Fe84  1  0.94889593  0.25611035  0.19977466  1
  Fe  Fe85  1  0.08719687  0.33557368  0.15505060  1
  Fe  Fe86  1  0.04172087  0.40764571  0.27370436  1
  Fe  Fe87  1  0.21069972  0.24643335  0.82207418  1
  Fe  Fe88  1  0.40439991  -0.03106482  0.45988350  1
  Fe  Fe89  1  0.13977585  0.54116180  0.76719720  1
  Fe  Fe90  1  0.73770130  0.14377264  0.40140861  1
  Fe  Fe91  1  0.41393408  0.34943844  0.72365868  1
  Fe  Fe92  1  0.36425589  0.50956339  0.44578685  1
  Fe  Fe93  1  0.96388452  0.60669436  0.93646087  1
  Fe  Fe94  1  0.01873080  0.74334038  0.94568028  1
  Fe  Fe95  1  0.32394698  0.92034604  0.55762691  1
  Fe  Fe96  1  0.73552240  0.70762778  0.33955317  1
  Fe  Fe97  1  0.54090668  0.53949434  0.02696145  1
  Fe  Fe98  1  0.23748387  0.17186445  0.68850354  1
  Fe  Fe99  1  0.50851840  0.52011203  0.88614516  1
  Fe  Fe100  1  0.60392008  0.42313187  0.93793672  1
  Fe  Fe101  1  0.00468269  0.66441890  0.37210226  1
  Bi  Bi102  1  0.74804595  0.37816689  0.83449858  1
  Bi  Bi103  1  -0.10902072  0.15925551  0.32259528  1
  Bi  Bi104  1  0.76579609  -0.15774791  0.43056974  1
  Bi  Bi105  1  -0.03339790  -0.03483374  0.09617146  1
  Bi  Bi106  1  0.47944734  0.24040439  -0.03530794  1
  Bi  Bi107  1  0.26227167  0.41279169  0.83282271  1
  Bi  Bi108  1  0.78112628  0.34224362  0.40875948  1
  Bi  Bi109  1  0.28332815  0.77484278  0.63008110  1
  Bi  Bi110  1  0.32957351  0.47090230  0.61905538  1
  Bi  Bi111  1  0.40586903  0.44148644  0.16524480  1
  Bi  Bi112  1  0.13987179  0.62728440  -0.07988852  1
  Bi  Bi113  1  0.80552408  0.77635062  0.76503103  1
  Bi  Bi114  1  0.54225354  0.24843093  0.72892292  1
  Bi  Bi115  1  0.04482803  0.93863623  0.63976180  1
  Bi  Bi116  1  0.70056286  0.07191459  0.55434719  1
  Bi  Bi117  1  0.59150761  0.14638289  0.30936609  1
  Bi  Bi118  1  0.62469937  0.00034300  0.78528184  1
  Bi  Bi119  1  1.00150689  0.55899389  0.64842609  1
  Bi  Bi120  1  0.88003976  0.11564161  0.87061205  1
  Bi  Bi121  1  0.53636702  0.47647721  0.47174771  1
  Bi  Bi122  1  0.36305758  0.96707678  0.10896016  1
  Bi  Bi123  1  0.47491829  0.67904438  0.93939270  1
  Bi  Bi124  1  0.18228747  0.19642941  0.18136785  1
  Bi  Bi125  1  0.34342527  0.70464007  0.14895231  1
  Bi  Bi126  1  0.59037008  0.57810445  0.72734612  1
  Bi  Bi127  1  0.31843481  0.66468912  0.38994629  1
