# generated using pymatgen
data_Ba51Fe51Bi26
_symmetry_space_group_name_H-M   'P 1'
_cell_length_a   15.95066622
_cell_length_b   16.88310440
_cell_length_c   16.17532029
_cell_angle_alpha   88.43029442
_cell_angle_beta   88.33631755
_cell_angle_gamma   86.49266918
_symmetry_Int_Tables_number   1
_chemical_formula_structural   Ba51Fe51Bi26
_chemical_formula_sum   'Ba51 Fe51 Bi26'
_cell_volume   4344.53705182
_cell_formula_units_Z   1
loop_
 _symmetry_equiv_pos_site_id
 _symmetry_equiv_pos_as_xyz
  1  'x, y, z'
loop_
 _atom_site_type_symbol
 _atom_site_label
 _atom_site_symmetry_multiplicity
 _atom_site_fract_x
 _atom_site_fract_y
 _atom_site_fract_z
 _atom_site_occupancy
  Ba  Ba0  1  0.25101957  0.50234984  0.07856018  1
  Ba  Ba1  1  0.01020772  0.42459481  -0.07743847  1
  Ba  Ba2  1  -0.05154511  0.19167619  -0.10413980  1
  Ba  Ba3  1  0.74795809  0.73590720  0.07032131  1
  Ba  Ba4  1  0.33654488  0.43904626  0.86516149  1
  Ba  Ba5  1  0.66502330  0.40552828  0.68581595  1
  Ba  Ba6  1  0.66422726  0.50596438  0.15052773  1
  Ba  Ba7  1  0.75185238  0.03149742  0.46646422  1
  Ba  Ba8  1  0.48076877  0.74276030  0.23695814  1
  Ba  Ba9  1  0.01931890  -0.04095541  -0.07062660  1
  Ba  Ba10  1  0.72374015  0.77460811  0.38326995  1
  Ba  Ba11  1  0.54424995  -0.14342017  0.73046816  1
  Ba  Ba12  1  0.37205903  0.71806979  0.90841587  1
  Ba  Ba13  1  0.07593352  0.02512401  0.69576444  1
  Ba  Ba14  1  -0.12309794  0.52150593  0.67199838  1
  Ba  Ba15  1  0.30104688  0.30409163  0.65490087  1
  Ba  Ba16  1  0.76212521  0.74747923  0.77731444  1
  Ba  Ba17  1  -0.04235218  0.42225329  0.22337475  1
  Ba  Ba18  1  0.75528290  -0.00669452  0.05553826  1
  Ba  Ba19  1  0.26159320  0.68670324  0.52132695  1
  Ba  Ba20  1  0.12771890  0.86091722  0.30349263  1
  Ba  Ba21  1  0.37258579  0.23775650  0.02070725  1
  Ba  Ba22  1  0.51739259  0.59155416  0.74414181  1
  Ba  Ba23  1  0.14516065  0.78532666  0.75237314  1
  Ba  Ba24  1  0.48851315  0.08743512  0.77674884  1
  Ba  Ba25  1  0.30228867  0.00807980  -0.09141079  1
  Ba  Ba26  1  0.17867116  0.19465417  0.49490247  1
  Ba  Ba27  1  0.37261286  0.02578433  0.16703913  1
  Ba  Ba28  1  0.01133154  0.03834120  0.44951876  1
  Ba  Ba29  1  -0.14064578  0.21761644  0.23363186  1
  Ba  Ba30  1  0.52372539  0.02652329  0.34982090  1
  Ba  Ba31  1  0.70918597  0.47790564  -0.08169673  1
  Ba  Ba32  1  0.65523310  0.23455656  0.02129464  1
  Ba  Ba33  1  -0.03272089  0.69197761  -0.08063491  1
  Ba  Ba34  1  -0.03359273  0.66353249  0.21871981  1
  Ba  Ba35  1  0.32262240  0.43317103  0.43912719  1
  Ba  Ba36  1  0.50873229  0.78956393  0.50878086  1
  Ba  Ba37  1  0.80174545  0.28548569  0.50164648  1
  Ba  Ba38  1  -0.02754229  0.01125953  0.19390995  1
  Ba  Ba39  1  0.21116534  0.32625419  0.26300162  1
  Ba  Ba40  1  -0.06682168  0.75781196  0.54894223  1
  Ba  Ba41  1  0.72347416  0.14497623  0.78117157  1
  Ba  Ba42  1  0.27629974  0.63494962  0.27983785  1
  Ba  Ba43  1  0.55776343  0.48247100  0.49176211  1
  Ba  Ba44  1  0.52740277  -0.14131195  0.01565221  1
  Ba  Ba45  1  0.17321467  0.76710707  0.05375715  1
  Ba  Ba46  1  0.54528056  0.22293024  0.55148218  1
  Ba  Ba47  1  0.80656849  0.55085014  0.42783647  1
  Ba  Ba48  1  0.12441008  0.19490727  0.06892550  1
  Ba  Ba49  1  0.00105089  0.28975906  0.63941233  1
  Ba  Ba50  1  0.13567296  0.51931572  0.69573202  1
  Fe  Fe51  1  0.97223486  0.41526107  0.47793091  1
  Fe  Fe52  1  0.44973751  0.63650332  0.41114971  1
  Fe  Fe53  1  0.53754446  0.34894362  0.85356730  1
  Fe  Fe54  1  0.92042551  0.87121448  0.74590252  1
  Fe  Fe55  1  0.17756334  1.07753679  0.21708439  1
  Fe  Fe56  1  0.38968635  0.97775539  0.64122871  1
  Fe  Fe57  1  0.76816151  0.96489879  0.27669935  1
  Fe  Fe58  1  0.65194913  0.27886276  0.23091531  1
  Fe  Fe59  1  1.01744610  0.53201513  0.52079502  1
  Fe  Fe60  1  0.88552392  0.01664245  0.76772117  1
  Fe  Fe61  1  0.54703035  0.26700866  0.75048035  1
  Fe  Fe62  1  0.40494697  0.38774494  0.18626164  1
  Fe  Fe63  1  0.31950174  0.05452467  0.41684645  1
  Fe  Fe64  1  0.28702467  0.21352541  0.84008236  1
  Fe  Fe65  1  0.18601413  0.29231022  0.90106237  1
  Fe  Fe66  1  0.38573683  0.64059628  0.09217216  1
  Fe  Fe67  1  0.25244565  0.01577504  0.56882080  1
  Fe  Fe68  1  0.44447061  0.33380551  0.31848698  1
  Fe  Fe69  1  0.57407170  0.62856926  0.36698884  1
  Fe  Fe70  1  0.47111047  0.37689482  0.71669760  1
  Fe  Fe71  1  0.44806962  0.51873289  0.12989936  1
  Fe  Fe72  1  0.83278608  0.85841723  0.22303050  1
  Fe  Fe73  1  0.87435197  0.94784843  0.63608136  1
  Fe  Fe74  1  0.84185634  0.91942574  0.84916766  1
  Fe  Fe75  1  1.00464848  0.52532816  0.38358408  1
  Fe  Fe76  1  0.29397799  0.87342719  0.58037441  1
  Fe  Fe77  1  0.52260132  0.64256917  1.07426913  1
  Fe  Fe78  1  0.38961840  0.23224358  0.23813717  1
  Fe  Fe79  1  0.37938375  0.09044056  0.54877461  1
  Fe  Fe80  1  0.27596091  0.14567636  0.29628790  1
  Fe  Fe81  1  0.14155409  0.25816139  0.78319072  1
  Fe  Fe82  1  0.55304403  0.38332898  0.24371123  1
  Fe  Fe83  1  1.14722709  0.52864479  0.46264015  1
  Fe  Fe84  1  0.58971088  0.32520575  0.37655975  1
  Fe  Fe85  1  0.42227431  0.26904486  0.81410947  1
  Fe  Fe86  1  0.47343974  0.56047864  0.98819578  1
  Fe  Fe87  1  0.16008999  0.15189024  -0.14025205  1
  Fe  Fe88  1  0.67559516  0.21830318  0.36086294  1
  Fe  Fe89  1  0.11631706  0.41599889  0.53546154  1
  Fe  Fe90  1  0.88417733  0.89429693  0.33889716  1
  Fe  Fe91  1  0.27972198  0.92952526  0.70456929  1
  Fe  Fe92  1  0.53547766  0.21640676  0.29890747  1
  Fe  Fe93  1  0.09487312  0.40369370  0.40359052  1
  Fe  Fe94  1  0.11697329  1.15800266  0.30286905  1
  Fe  Fe95  1  0.19705558  1.03265708  0.34734684  1
  Fe  Fe96  1  0.13221701  0.51363382  0.32673301  1
  Fe  Fe97  1  0.38742903  0.95090092  0.49768191  1
  Fe  Fe98  1  0.76708293  -0.05926080  0.72496497  1
  Fe  Fe99  1  0.23536247  -0.05841323  0.45648534  1
  Fe  Fe100  1  0.50680027  0.27969526  0.16688695  1
  Fe  Fe101  1  0.29262059  0.62018477  0.74742919  1
  Bi  Bi102  1  0.94791582  0.82945717  0.08783532  1
  Bi  Bi103  1  0.73806033  0.38740173  0.32087101  1
  Bi  Bi104  1  0.38077994  0.21170106  0.41490905  1
  Bi  Bi105  1  0.68301026  0.11274396  0.23059338  1
  Bi  Bi106  1  0.17223485  0.97468144  0.08789614  1
  Bi  Bi107  1  0.66877967  -0.05346494  0.86791095  1
  Bi  Bi108  1  0.46920675  0.51970468  0.29446508  1
  Bi  Bi109  1  0.27314358  0.10642453  0.70957318  1
  Bi  Bi110  1  0.54267310  0.01056537  0.56785090  1
  Bi  Bi111  1  0.36229874  0.75932637  0.69358055  1
  Bi  Bi112  1  0.00141633  0.26800913  0.38882560  1
  Bi  Bi113  1  0.12109598  -0.13216123  0.55036896  1
  Bi  Bi114  1  0.50458036  0.39869178  0.02340457  1
  Bi  Bi115  1  0.68831721  0.63078083  0.59741307  1
  Bi  Bi116  1  0.84223854  0.34193040  0.78717559  1
  Bi  Bi117  1  0.84604967  0.34273204  0.05000361  1
  Bi  Bi118  1  0.59949277  0.67483783  0.92089867  1
  Bi  Bi119  1  0.36077424  0.50188812  0.64342881  1
  Bi  Bi120  1  0.51959185  0.06884570  0.99612060  1
  Bi  Bi121  1  0.87318658  0.55078196  0.05422011  1
  Bi  Bi122  1  0.35009204  0.88893649  0.34269505  1
  Bi  Bi123  1  0.07562956  0.67040253  0.39991188  1
  Bi  Bi124  1  0.88075450  0.11591946  0.62192366  1
  Bi  Bi125  1  0.73325393  0.85570777  0.58694673  1
  Bi  Bi126  1  0.64375992  0.87706280  0.20642930  1
  Bi  Bi127  1  0.18228322  0.61066336  0.88980420  1
