# generated using pymatgen
data_Ba51Fe51Bi26
_symmetry_space_group_name_H-M   'P 1'
_cell_length_a   16.11857525
_cell_length_b   16.87044140
_cell_length_c   16.18775989
_cell_angle_alpha   88.88490493
_cell_angle_beta   88.91479934
_cell_angle_gamma   86.80834897
_symmetry_Int_Tables_number   1
_chemical_formula_structural   Ba51Fe51Bi26
_chemical_formula_sum   'Ba51 Fe51 Bi26'
_cell_volume   4393.53356803
_cell_formula_units_Z   1
loop_
 _symmetry_equiv_pos_site_id
 _symmetry_equiv_pos_as_xyz
  1  'x, y, z'
loop_
 _atom_site_type_symbol
 _atom_site_label
 _atom_site_symmetry_multiplicity
 _atom_site_fract_x
 _atom_site_fract_y
 _atom_site_fract_z
 _atom_site_occupancy
  Ba  Ba0  1  0.27735593  0.02492381  0.09219831  1
  Ba  Ba1  1  0.01790881  0.74665193  0.19920015  1
  Ba  Ba2  1  0.66746449  0.04636939  0.27505550  1
  Ba  Ba3  1  0.16476850  0.25643024  0.77634228  1
  Ba  Ba4  1  0.03636587  0.46797651  0.28710621  1
  Ba  Ba5  1  0.36374034  0.81362314  0.74884902  1
  Ba  Ba6  1  0.54049565  0.51809873  0.17540878  1
  Ba  Ba7  1  0.13121996  0.29806970  0.05522211  1
  Ba  Ba8  1  0.63765885  -0.05913982  0.60506876  1
  Ba  Ba9  1  0.70820488  0.28555203  0.19688865  1
  Ba  Ba10  1  -0.04227467  0.20011970  0.51815792  1
  Ba  Ba11  1  0.67295800  0.62678106  0.72776391  1
  Ba  Ba12  1  -0.06339509  0.43512651  0.84345223  1
  Ba  Ba13  1  0.06107380  -0.08440205  -0.01137815  1
  Ba  Ba14  1  0.70670744  0.75875263  -0.06389169  1
  Ba  Ba15  1  0.74508637  0.34335099  -0.05822700  1
  Ba  Ba16  1  0.50453052  0.84220593  0.20730006  1
  Ba  Ba17  1  0.54211358  0.02670861  -0.00293329  1
  Ba  Ba18  1  0.79072671  0.49875347  0.22190058  1
  Ba  Ba19  1  0.19685217  0.32397863  0.47868713  1
  Ba  Ba20  1  0.30563540  0.22678269  0.20477201  1
  Ba  Ba21  1  0.47288687  0.67782624  -0.01409040  1
  Ba  Ba22  1  0.02802943  0.53855862  0.02955492  1
  Ba  Ba23  1  -0.11230806  -0.08067027  0.57802143  1
  Ba  Ba24  1  0.04005417  -0.01949906  0.38209394  1
  Ba  Ba25  1  0.11681635  0.50989840  0.68412157  1
  Ba  Ba26  1  0.45341072  0.10554578  0.76397999  1
  Ba  Ba27  1  0.62620064  0.38760137  0.72003803  1
  Ba  Ba28  1  -0.04582608  0.70525031  0.77149364  1
  Ba  Ba29  1  0.70030161  0.53190601  0.46148896  1
  Ba  Ba30  1  0.23838628  0.72927318  0.34093208  1
  Ba  Ba31  1  0.31835504  0.61323735  0.56160960  1
  Ba  Ba32  1  -0.03750851  0.22108557  0.26028061  1
  Ba  Ba33  1  0.39894587  0.33001668  0.82083728  1
  Ba  Ba34  1  0.75783073  0.16932618  0.66352115  1
  Ba  Ba35  1  0.77880273  0.71661944  0.14559179  1
  Ba  Ba36  1  -0.07025093  0.51872207  0.52128737  1
  Ba  Ba37  1  0.88782847  -0.01825388  0.18116941  1
  Ba  Ba38  1  0.21254334  0.70069145  -0.00784560  1
  Ba  Ba39  1  0.22991969  0.01462298  0.83017704  1
  Ba  Ba40  1  0.37150544  0.55073075  0.80217745  1
  Ba  Ba41  1  0.31515244  0.47157301  0.30508502  1
  Ba  Ba42  1  0.23272723  0.07307676  0.56553374  1
  Ba  Ba43  1  0.02586245  0.72265844  0.49014297  1
  Ba  Ba44  1  0.68564804  0.25186289  0.43489934  1
  Ba  Ba45  1  0.93996988  0.17820424  -0.02188427  1
  Ba  Ba46  1  0.52213295  0.72688767  0.49400599  1
  Ba  Ba47  1  0.75485939  0.81201181  0.38698576  1
  Ba  Ba48  1  0.47214464  0.32261233  0.53380858  1
  Ba  Ba49  1  0.47235404  0.11104967  0.44137235  1
  Ba  Ba50  1  0.30951910  -0.03801331  0.34697061  1
  Fe  Fe51  1  0.29282839  0.82664151  0.13231070  1
  Fe  Fe52  1  0.83472314  0.11978605  0.36936249  1
  Fe  Fe53  1  0.54365380  0.33653974  0.94275625  1
  Fe  Fe54  1  0.30360888  0.36782221  0.99843272  1
  Fe  Fe55  1  0.54248964  0.55220273  0.59301352  1
  Fe  Fe56  1  0.69833422  0.57015266  0.01229511  1
  Fe  Fe57  1  0.79519138  -0.00356103  0.75221084  1
  Fe  Fe58  1  0.68654519  0.93939281  0.85471884  1
  Fe  Fe59  1  0.54648267  0.35053741  0.08086111  1
  Fe  Fe60  1  0.82392722  0.33374858  0.72111197  1
  Fe  Fe61  1  0.89501853  0.05557199  0.83882156  1
  Fe  Fe62  1  0.75149597  1.06519507  0.89262154  1
  Fe  Fe63  1  0.44312764  0.44222045  0.99695828  1
  Fe  Fe64  1  0.66031272  0.04821903  0.78556464  1
  Fe  Fe65  1  0.61130067  0.22920040  0.02475975  1
  Fe  Fe66  1  0.51737535  0.20441543  0.12868114  1
  Fe  Fe67  1  0.34001398  0.54787103  0.09772679  1
  Fe  Fe68  1  0.32567546  0.23512443  0.64324823  1
  Fe  Fe69  1  0.42279360  0.29427281  0.04871907  1
  Fe  Fe70  1  0.80739928  0.45178551  0.66604783  1
  Fe  Fe71  1  0.04072648  0.06952843  0.79911635  1
  Fe  Fe72  1  0.14282711  0.84726893  0.75831629  1
  Fe  Fe73  1  0.30739190  0.50179898  0.97857482  1
  Fe  Fe74  1  0.93649134  0.05931717  0.69512089  1
  Fe  Fe75  1  0.73308957  0.95424119  0.00034333  1
  Fe  Fe76  1  0.84643987  0.87600320  0.01814300  1
  Fe  Fe77  1  0.06148396  0.12076567  0.67604981  1
  Fe  Fe78  1  0.13637518  0.29880299  0.29275931  1
  Fe  Fe79  1  0.81561592  0.35936375  0.56731224  1
  Fe  Fe80  1  0.75200171  0.53697151  0.88899079  1
  Fe  Fe81  1  0.83635189  0.99458625  0.39280915  1
  Fe  Fe82  1  0.81946876  0.50140803  0.02569024  1
  Fe  Fe83  1  0.42578993  0.28344241  0.34801512  1
  Fe  Fe84  1  0.46967127  0.32813228  0.20602893  1
  Fe  Fe85  1  0.06013604  0.84253978  0.64617975  1
  Fe  Fe86  1  -0.06391116  0.36083390  0.64764338  1
  Fe  Fe87  1  0.76236675  1.06930085  0.47766432  1
  Fe  Fe88  1  0.53007216  0.35393111  0.33415710  1
  Fe  Fe89  1  0.23116301  0.45689903  0.09222197  1
  Fe  Fe90  1  0.13617303  0.89647654  0.54258524  1
  Fe  Fe91  1  0.83944659  0.61060878  0.95214754  1
  Fe  Fe92  1  0.86271825  0.00964183  -0.01642268  1
  Fe  Fe93  1  0.37623976  0.41353013  1.12020774  1
  Fe  Fe94  1  0.18155647  0.77342905  0.62466359  1
  Fe  Fe95  1  0.52637304  0.21431004  0.27809519  1
  Fe  Fe96  1  0.08152088  0.98219630  0.66843702  1
  Fe  Fe97  1  0.45399248  0.47798534  0.63686976  1
  Fe  Fe98  1  0.45719361  0.64048627  0.32868267  1
  Fe  Fe99  1  0.21279748  0.90494341  0.65462161  1
  Fe  Fe100  1  0.83233634  0.92017110  0.87681797  1
  Fe  Fe101  1  0.49136189  0.20761159  0.96568001  1
  Bi  Bi102  1  0.19238793  0.68479660  0.76954760  1
  Bi  Bi103  1  0.31816752  0.18472538  -0.04657625  1
  Bi  Bi104  1  0.48163268  0.51165137  0.43776571  1
  Bi  Bi105  1  0.30897642  0.83354093  0.52519018  1
  Bi  Bi106  1  -0.01671143  -0.08868596  0.78876407  1
  Bi  Bi107  1  -0.05268126  0.22045229  0.76288510  1
  Bi  Bi108  1  0.76264594  -0.17041231  0.74310777  1
  Bi  Bi109  1  0.57937805  0.50294352  -0.09811465  1
  Bi  Bi110  1  -0.05770668  0.73646228  -0.00797275  1
  Bi  Bi111  1  0.61864570  0.19971033  -0.15373915  1
  Bi  Bi112  1  0.17761743  0.43874200  -0.10744014  1
  Bi  Bi113  1  0.45921500  0.06743521  0.21303541  1
  Bi  Bi114  1  0.74197105  0.11434082  0.06573043  1
  Bi  Bi115  1  0.14845178  0.54059411  0.45843994  1
  Bi  Bi116  1  0.15040569  0.89846005  0.20458084  1
  Bi  Bi117  1  0.15193684  0.15310950  0.36995425  1
  Bi  Bi118  1  0.30112358  0.39876594  0.64513951  1
  Bi  Bi119  1  0.91363899  0.36492609  0.08720853  1
  Bi  Bi120  1  0.34554318  0.86601329  0.97101959  1
  Bi  Bi121  1  0.37847302  0.68409643  0.18093929  1
  Bi  Bi122  1  0.54814896  0.91668920  0.40746207  1
  Bi  Bi123  1  0.62220923  0.66874391  0.29693828  1
  Bi  Bi124  1  0.80505108  0.71164790  0.57511001  1
  Bi  Bi125  1  0.17621995  0.59008682  0.17730567  1
  Bi  Bi126  1  0.89173547  0.64003140  0.33375901  1
  Bi  Bi127  1  0.85447308  0.36634160  0.39191108  1
