# generated using pymatgen
data_Ba51Fe51Bi26
_symmetry_space_group_name_H-M   'P 1'
_cell_length_a   16.28733969
_cell_length_b   16.38294623
_cell_length_c   16.53998605
_cell_angle_alpha   91.45411530
_cell_angle_beta   87.10235749
_cell_angle_gamma   92.87076184
_symmetry_Int_Tables_number   1
_chemical_formula_structural   Ba51Fe51Bi26
_chemical_formula_sum   'Ba51 Fe51 Bi26'
_cell_volume   4401.11158371
_cell_formula_units_Z   1
loop_
 _symmetry_equiv_pos_site_id
 _symmetry_equiv_pos_as_xyz
  1  'x, y, z'
loop_
 _atom_site_type_symbol
 _atom_site_label
 _atom_site_symmetry_multiplicity
 _atom_site_fract_x
 _atom_site_fract_y
 _atom_site_fract_z
 _atom_site_occupancy
  Ba  Ba0  1  -0.05615816  0.32447501  0.35004725  1
  Ba  Ba1  1  -0.10002583  0.20237084  0.55297830  1
  Ba  Ba2  1  0.73436647  -0.04500544  0.50494877  1
  Ba  Ba3  1  0.05201842  0.53821502  -0.07028277  1
  Ba  Ba4  1  0.49847838  0.52056593  -0.04378796  1
  Ba  Ba5  1  0.04459494  0.24525650  0.00632880  1
  Ba  Ba6  1  0.70892115  0.29676458  0.23612164  1
  Ba  Ba7  1  0.17200578  0.05225859  0.22085820  1
  Ba  Ba8  1  0.77834620  0.30838500  0.75035850  1
  Ba  Ba9  1  0.03595341  0.80253471  0.79659417  1
  Ba  Ba10  1  0.66317404  0.24875139  0.50175377  1
  Ba  Ba11  1  0.41252567  0.73007747  0.86443863  1
  Ba  Ba12  1  0.77857568  0.80215550  0.26395953  1
  Ba  Ba13  1  0.49380634  -0.01983781  0.23297458  1
  Ba  Ba14  1  -0.12040449  0.72149761  0.50515031  1
  Ba  Ba15  1  -0.11216546  0.12315714  0.16113720  1
  Ba  Ba16  1  0.76762248  0.37730313  0.00987293  1
  Ba  Ba17  1  0.25886699  0.42161451  0.00814068  1
  Ba  Ba18  1  0.21709713  0.65227994  0.73438370  1
  Ba  Ba19  1  0.84499423  0.85449695  -0.00427663  1
  Ba  Ba20  1  0.18829057  0.33488887  0.76989081  1
  Ba  Ba21  1  0.27284727  0.45495049  0.58138826  1
  Ba  Ba22  1  0.27504765  0.51085243  0.31085592  1
  Ba  Ba23  1  -0.00030520  0.16184422  0.77172494  1
  Ba  Ba24  1  0.34466041  0.11652591  0.42253545  1
  Ba  Ba25  1  0.13363720  0.16006155  0.52428799  1
  Ba  Ba26  1  0.49607431  0.28507569  0.00410155  1
  Ba  Ba27  1  0.34361417  0.77351685  0.27065167  1
  Ba  Ba28  1  0.60447991  0.71088433  0.49409639  1
  Ba  Ba29  1  -0.03366058  -0.01896745  0.38320469  1
  Ba  Ba30  1  0.02835032  0.53344407  0.44027450  1
  Ba  Ba31  1  0.48493671  0.36522852  0.68631057  1
  Ba  Ba32  1  0.40104255  0.20437629  0.20212269  1
  Ba  Ba33  1  0.11606338  0.79043469  0.22093397  1
  Ba  Ba34  1  0.34957123  0.03552599  -0.04512149  1
  Ba  Ba35  1  0.55896719  0.17952894  0.79677287  1
  Ba  Ba36  1  0.71055267  0.51589315  0.40014379  1
  Ba  Ba37  1  0.74737954  0.76603269  0.76581015  1
  Ba  Ba38  1  0.37763077  -0.15929802  0.64335038  1
  Ba  Ba39  1  0.53135922  0.74805657  0.09392959  1
  Ba  Ba40  1  0.58296541  -0.05510158  0.74493300  1
  Ba  Ba41  1  0.07472699  0.55165578  0.17421717  1
  Ba  Ba42  1  0.84743201  0.60652312  0.05943150  1
  Ba  Ba43  1  0.26463283  0.03548786  0.70524609  1
  Ba  Ba44  1  0.67775406  0.53988527  0.68628085  1
  Ba  Ba45  1  0.34124781  0.66414580  0.50219014  1
  Ba  Ba46  1  0.20981891  -0.09570044  0.47471577  1
  Ba  Ba47  1  0.08570967  -0.03082127  -0.01647437  1
  Ba  Ba48  1  -0.04007157  0.50998025  0.68545826  1
  Ba  Ba49  1  0.68553926  0.08608175  -0.01555679  1
  Ba  Ba50  1  0.42072421  0.34911709  0.40479489  1
  Fe  Fe51  1  0.48037980  0.17238275  0.55041148  1
  Fe  Fe52  1  0.45007258  0.57991143  0.23639451  1
  Fe  Fe53  1  0.80240190  0.07621213  0.78851644  1
  Fe  Fe54  1  0.27657608  0.61660977  0.95707523  1
  Fe  Fe55  1  0.57539222  0.41740284  0.13485508  1
  Fe  Fe56  1  0.23843565  0.25836087  0.32130752  1
  Fe  Fe57  1  0.03451819  0.70677013  0.61891470  1
  Fe  Fe58  1  0.78537907  0.95375640  0.83475139  1
  Fe  Fe59  1  0.13208164  0.36828239  0.29884072  1
  Fe  Fe60  1  0.42345136  0.02421819  0.57123168  1
  Fe  Fe61  1  0.93922297  0.75920921  0.15674737  1
  Fe  Fe62  1  0.08531484  0.74767330  0.48023201  1
  Fe  Fe63  1  0.67694100  0.08608121  0.23034510  1
  Fe  Fe64  1  0.19223211  0.66950845  0.05612342  1
  Fe  Fe65  1  0.58641904  0.61684174  0.27434965  1
  Fe  Fe66  1  0.11114933  0.35969551  0.16198935  1
  Fe  Fe67  1  0.83840188  0.47737670  0.85345283  1
  Fe  Fe68  1  0.10743131  0.22200074  0.34023685  1
  Fe  Fe69  1  0.35917609  0.20899026  0.78356597  1
  Fe  Fe70  1  0.54552391  0.46419893  0.26490705  1
  Fe  Fe71  1  0.38828673  0.33599598  0.85402314  1
  Fe  Fe72  1  0.65101655  1.04376170  0.36136082  1
  Fe  Fe73  1  0.55656646  0.54978869  0.14010560  1
  Fe  Fe74  1  0.88706218  0.04206493  0.66771430  1
  Fe  Fe75  1  0.17544568  0.33501121  0.42030664  1
  Fe  Fe76  1  0.01763961  0.84335760  0.56949258  1
  Fe  Fe77  1  0.43624119  0.59010958  0.67928496  1
  Fe  Fe78  1  0.86582841  0.49098002  0.24461977  1
  Fe  Fe79  1  0.90542268  0.87274184  0.67350023  1
  Fe  Fe80  1  0.42086526  0.93809335  0.44534021  1
  Fe  Fe81  1  0.76191885  -0.00011931  0.27260589  1
  Fe  Fe82  1  0.43254606  0.13462536  0.67156817  1
  Fe  Fe83  1  0.20137745  0.81947834  0.00942721  1
  Fe  Fe84  1  0.55392700  0.06928209  0.60098198  1
  Fe  Fe85  1  0.46617928  0.81420386  0.43168587  1
  Fe  Fe86  1  -0.08097715  -0.04885060  0.56931627  1
  Fe  Fe87  1  0.53217411  0.05457742  0.45809361  1
  Fe  Fe88  1  1.14490969  0.79449870  0.61747111  1
  Fe  Fe89  1  0.14322107  0.65974625  0.55283508  1
  Fe  Fe90  1  0.78519425  0.94966085  0.69222497  1
  Fe  Fe91  1  0.56997117  0.91909847  0.40236505  1
  Fe  Fe92  1  0.31142228  0.75025923  1.03283581  1
  Fe  Fe93  1  0.19607151  0.71570638  0.91880001  1
  Fe  Fe94  1  0.73473424  0.54330288  0.88096773  1
  Fe  Fe95  1  0.52841127  0.92334173  0.53475948  1
  Fe  Fe96  1  0.91396734  -0.03330207  0.78496665  1
  Fe  Fe97  1  0.13457863  0.23809850  0.20688511  1
  Fe  Fe98  1  0.46962462  0.66968566  0.35292091  1
  Fe  Fe99  1  0.48872442  0.54106980  0.37407071  1
  Fe  Fe100  1  0.24661083  0.33576137  0.20242324  1
  Fe  Fe101  1  0.32471481  0.23654628  0.91710001  1
  Bi  Bi102  1  0.55231535  0.17453886  0.33509111  1
  Bi  Bi103  1  0.34074073  0.61089312  0.11400426  1
  Bi  Bi104  1  0.70982826  0.50741306  0.18871150  1
  Bi  Bi105  1  0.24609440  0.21165696  0.07326722  1
  Bi  Bi106  1  0.54731120  0.72103921  0.69850375  1
  Bi  Bi107  1  0.04129023  0.73742269  0.02005414  1
  Bi  Bi108  1  0.40932291  0.41355455  0.16266552  1
  Bi  Bi109  1  0.06125672  -0.01928148  0.65618631  1
  Bi  Bi110  1  0.50320071  0.51249320  0.53906710  1
  Bi  Bi111  1  0.56896678  0.79094948  0.29317956  1
  Bi  Bi112  1  0.71651054  0.11047026  0.65547314  1
  Bi  Bi113  1  0.32479558  0.24163159  0.60820645  1
  Bi  Bi114  1  0.89261765  0.06286876  -0.06411834  1
  Bi  Bi115  1  0.68955394  0.94184368  0.12964043  1
  Bi  Bi116  1  0.95622609  0.36038127  0.85160655  1
  Bi  Bi117  1  0.80944260  0.13571412  0.36822231  1
  Bi  Bi118  1  0.81771839  0.41348307  0.54783942  1
  Bi  Bi119  1  0.24725462  0.86287518  0.84304577  1
  Bi  Bi120  1  0.07212986  0.35871200  0.55967906  1
  Bi  Bi121  1  0.93534877  0.37820901  0.13991695  1
  Bi  Bi122  1  0.29972257  0.90584498  0.11882396  1
  Bi  Bi123  1  0.88037276  0.64203074  0.84766260  1
  Bi  Bi124  1  0.18837833  0.14484177  0.86733929  1
  Bi  Bi125  1  0.96263447  0.92669416  0.17597719  1
  Bi  Bi126  1  0.91958929  0.64972833  0.28827644  1
  Bi  Bi127  1  0.34958743  0.50250628  0.80317608  1
