# generated using pymatgen
data_Ba51Fe51Bi26
_symmetry_space_group_name_H-M   'P 1'
_cell_length_a   17.07059315
_cell_length_b   16.12978106
_cell_length_c   15.76477903
_cell_angle_alpha   87.81814854
_cell_angle_beta   92.95450276
_cell_angle_gamma   92.50336216
_symmetry_Int_Tables_number   1
_chemical_formula_structural   Ba51Fe51Bi26
_chemical_formula_sum   'Ba51 Fe51 Bi26'
_cell_volume   4328.05309716
_cell_formula_units_Z   1
loop_
 _symmetry_equiv_pos_site_id
 _symmetry_equiv_pos_as_xyz
  1  'x, y, z'
loop_
 _atom_site_type_symbol
 _atom_site_label
 _atom_site_symmetry_multiplicity
 _atom_site_fract_x
 _atom_site_fract_y
 _atom_site_fract_z
 _atom_site_occupancy
  Ba  Ba0  1  0.24940728  0.64939329  0.77869675  1
  Ba  Ba1  1  0.06127935  0.23067474  0.07923454  1
  Ba  Ba2  1  0.04529036  0.51044527  0.33904127  1
  Ba  Ba3  1  0.32375029  0.74697639  0.49222012  1
  Ba  Ba4  1  0.02178065  0.74638541  -0.12328010  1
  Ba  Ba5  1  0.76860392  0.58616847  0.45455130  1
  Ba  Ba6  1  0.53724769  0.68610485  0.31077674  1
  Ba  Ba7  1  0.73722937  0.44304639  0.05537581  1
  Ba  Ba8  1  0.71931786  -0.08319327  0.03127129  1
  Ba  Ba9  1  -0.21405409  0.31292767  0.31994886  1
  Ba  Ba10  1  -0.06800703  -0.00305834  0.72262730  1
  Ba  Ba11  1  0.40451521  0.23112520  0.34737060  1
  Ba  Ba12  1  0.07472202  -0.04421092  0.22187614  1
  Ba  Ba13  1  -0.02040356  0.44431801  0.09972454  1
  Ba  Ba14  1  0.26791865  0.43108507  0.43163658  1
  Ba  Ba15  1  0.83319517  0.15666885  0.10598473  1
  Ba  Ba16  1  -0.08655944  0.37815291  0.59034032  1
  Ba  Ba17  1  0.17836772  -0.02686225  0.82188167  1
  Ba  Ba18  1  0.47487571  0.48713700  0.65994107  1
  Ba  Ba19  1  0.34097321  0.18206819  0.77240873  1
  Ba  Ba20  1  0.14910652  0.63810356  0.10498939  1
  Ba  Ba21  1  0.73487936  -0.24740322  0.21888439  1
  Ba  Ba22  1  0.10228720  0.83055134  0.60791994  1
  Ba  Ba23  1  0.55453784  0.10717217  0.02416457  1
  Ba  Ba24  1  0.49064331  0.49495154  -0.03524120  1
  Ba  Ba25  1  -0.05840349  0.17958399  0.46978280  1
  Ba  Ba26  1  0.31385020  0.30181455  0.04983034  1
  Ba  Ba27  1  0.11604937  0.23524048  0.31763768  1
  Ba  Ba28  1  0.81629378  0.79272638  0.65102475  1
  Ba  Ba29  1  0.56721622  0.30113303  0.17712094  1
  Ba  Ba30  1  0.43532534  -0.08038826  0.74348547  1
  Ba  Ba31  1  0.75273328  0.03190036  0.50036535  1
  Ba  Ba32  1  0.71430622  0.02450803  0.79608085  1
  Ba  Ba33  1  0.65688586  -0.02472175  0.28546150  1
  Ba  Ba34  1  -0.05645352  0.73245934  0.14963024  1
  Ba  Ba35  1  0.72524735  0.26203837  0.85308906  1
  Ba  Ba36  1  -0.04781752  -0.04830889  0.00087126  1
  Ba  Ba37  1  0.28667901  0.00149147  0.34961703  1
  Ba  Ba38  1  0.21199212  0.15827812  0.54282313  1
  Ba  Ba39  1  0.33631482  0.78858916  0.15198769  1
  Ba  Ba40  1  0.34084356  0.00294793  0.03378018  1
  Ba  Ba41  1  0.10548751  0.74440748  0.36819589  1
  Ba  Ba42  1  0.49204040  0.74283034  -0.05154299  1
  Ba  Ba43  1  0.18836178  0.41919618  0.69826365  1
  Ba  Ba44  1  0.04252231  0.20270060  0.70766026  1
  Ba  Ba45  1  0.37475370  0.51138389  0.19384015  1
  Ba  Ba46  1  -0.02088149  0.61358582  0.57245374  1
  Ba  Ba47  1  0.63733447  0.31261689  0.59395036  1
  Ba  Ba48  1  0.51042940  0.09832970  0.57622628  1
  Ba  Ba49  1  0.82604812  0.51919524  0.76262463  1
  Ba  Ba50  1  0.62950781  0.67875952  0.72265475  1
  Fe  Fe51  1  0.90164811  0.85956708  0.33485753  1
  Fe  Fe52  1  0.94465702  0.42931610  0.89208058  1
  Fe  Fe53  1  0.67508478  0.71570204  0.00748850  1
  Fe  Fe54  1  0.82249799  0.71257987  0.84819595  1
  Fe  Fe55  1  0.14550788  0.55044869  -0.07713452  1
  Fe  Fe56  1  0.68730743  0.47929242  0.30001911  1
  Fe  Fe57  1  0.01809615  0.00631131  0.52841242  1
  Fe  Fe58  1  0.61273969  0.77274161  0.50561478  1
  Fe  Fe59  1  0.08624522  0.43882293  0.52280195  1
  Fe  Fe60  1  0.08503214  0.41611751  0.90731449  1
  Fe  Fe61  1  0.43120253  -0.06238519  0.49581204  1
  Fe  Fe62  1  0.83773282  0.08613808  0.29927815  1
  Fe  Fe63  1  0.81649501  0.75413900  -0.01180282  1
  Fe  Fe64  1  0.59454470  0.61961135  0.50641588  1
  Fe  Fe65  1  0.57104226  0.48642440  0.25147790  1
  Fe  Fe66  1  0.70501075  0.78527524  0.87761312  1
  Fe  Fe67  1  0.89669561  0.31212621  0.94554685  1
  Fe  Fe68  1  0.50156749  0.39014869  0.46909505  1
  Fe  Fe69  1  0.87154421  -0.02211511  0.23604980  1
  Fe  Fe70  1  0.49873981  0.68509602  0.54615757  1
  Fe  Fe71  1  0.09038310  0.31218801  0.51150988  1
  Fe  Fe72  1  0.93572857  0.77342873  0.46114881  1
  Fe  Fe73  1  0.20376311  0.13230848  0.97250063  1
  Fe  Fe74  1  0.89175998  0.70792054  0.34967893  1
  Fe  Fe75  1  0.17902977  0.45384206  0.02588835  1
  Fe  Fe76  1  0.72632649  0.63012104  0.91454534  1
  Fe  Fe77  1  0.07876475  1.12830909  0.91205848  1
  Fe  Fe78  1  0.48089709  0.42362687  0.33589857  1
  Fe  Fe79  1  0.59421800  0.50094537  0.41598267  1
  Fe  Fe80  1  0.49731745  0.02519960  0.38161699  1
  Fe  Fe81  1  0.82250508  0.84700868  0.86258401  1
  Fe  Fe82  1  0.49375390  0.82414147  0.57127583  1
  Fe  Fe83  1  0.01410292  0.28247617  0.88923406  1
  Fe  Fe84  1  0.76839496  0.63626460  0.06620556  1
  Fe  Fe85  1  0.55971780  0.91017932  0.46806416  1
  Fe  Fe86  1  0.46571317  0.26569233  0.91928423  1
  Fe  Fe87  1  0.02461466  0.90069426  0.42187642  1
  Fe  Fe88  1  0.23685643  0.44464495  0.90494685  1
  Fe  Fe89  1  0.12827608  1.03581153  0.02638806  1
  Fe  Fe90  1  0.52456801  0.33034319  0.80900721  1
  Fe  Fe91  1  0.45745747  0.99876972  0.22597008  1
  Fe  Fe92  1  0.90978842  0.90189504  0.50132367  1
  Fe  Fe93  1  0.13693157  0.98060697  0.47639915  1
  Fe  Fe94  1  0.92364413  0.00317767  0.38657636  1
  Fe  Fe95  1  0.06268619  0.05514007  0.38954611  1
  Fe  Fe96  1  0.60655426  0.36694757  0.36499135  1
  Fe  Fe97  1  0.95963234  0.09917127  0.27162862  1
  Fe  Fe98  1  0.00351447  0.38568433  0.77765051  1
  Fe  Fe99  1  0.89691928  0.30609089  0.79632496  1
  Fe  Fe100  1  0.57917065  0.32453083  0.94791964  1
  Fe  Fe101  1  0.51700175  0.11180594  0.26027960  1
  Bi  Bi102  1  0.64052959  0.46105226  -0.16789968  1
  Bi  Bi103  1  0.17604203  0.27348624  -0.12356244  1
  Bi  Bi104  1  0.14178723  0.85919652  0.03522208  1
  Bi  Bi105  1  0.76972169  0.81085149  0.43038368  1
  Bi  Bi106  1  0.28445916  -0.03974283  0.57896595  1
  Bi  Bi107  1  0.52760641  0.89543273  0.11285024  1
  Bi  Bi108  1  0.43963200  0.55253598  0.44751377  1
  Bi  Bi109  1  0.61312740  0.18641291  0.38862394  1
  Bi  Bi110  1  0.04063839  0.55210334  0.78058888  1
  Bi  Bi111  1  0.54511598  0.15778697  0.79902349  1
  Bi  Bi112  1  0.88996130  0.59284712  -0.03343320  1
  Bi  Bi113  1  0.43106805  0.70769560  0.69940539  1
  Bi  Bi114  1  0.83820701  0.55293928  0.24723880  1
  Bi  Bi115  1  0.30607827  0.58351147  -0.00927142  1
  Bi  Bi116  1  0.25803762  0.63539513  0.30266206  1
  Bi  Bi117  1  0.90905276  0.14089854  0.89806053  1
  Bi  Bi118  1  0.60524409  0.59961186  0.11893904  1
  Bi  Bi119  1  0.36807621  0.38607402  0.82733537  1
  Bi  Bi120  1  0.44303505  0.86524495  0.34195937  1
  Bi  Bi121  1  0.29821798  0.82285934  0.91201240  1
  Bi  Bi122  1  0.22356622  0.11982850  0.15938551  1
  Bi  Bi123  1  0.63073280  0.90131873  0.63576765  1
  Bi  Bi124  1  0.17511020  0.40884030  0.19678849  1
  Bi  Bi125  1  0.40159025  0.28708115  0.56557439  1
  Bi  Bi126  1  0.82118732  0.18769938  0.66318897  1
  Bi  Bi127  1  0.17122033  0.59368792  0.53981693  1
