# generated using pymatgen
data_Ba51Fe51Bi26
_symmetry_space_group_name_H-M   'P 1'
_cell_length_a   16.29159141
_cell_length_b   16.34202398
_cell_length_c   16.79517629
_cell_angle_alpha   91.22864441
_cell_angle_beta   90.31945207
_cell_angle_gamma   89.55258280
_symmetry_Int_Tables_number   1
_chemical_formula_structural   Ba51Fe51Bi26
_chemical_formula_sum   'Ba51 Fe51 Bi26'
_cell_volume   4470.27729076
_cell_formula_units_Z   1
loop_
 _symmetry_equiv_pos_site_id
 _symmetry_equiv_pos_as_xyz
  1  'x, y, z'
loop_
 _atom_site_type_symbol
 _atom_site_label
 _atom_site_symmetry_multiplicity
 _atom_site_fract_x
 _atom_site_fract_y
 _atom_site_fract_z
 _atom_site_occupancy
  Ba  Ba0  1  0.53720171  0.73183354  -0.17269516  1
  Ba  Ba1  1  -0.01968288  0.63904034  0.56412301  1
  Ba  Ba2  1  0.36969782  0.32371794  0.42075287  1
  Ba  Ba3  1  0.24644994  0.10743025  0.52614129  1
  Ba  Ba4  1  0.36065849  0.34586710  0.04523491  1
  Ba  Ba5  1  0.06332370  0.68450170  -0.05848219  1
  Ba  Ba6  1  0.18910930  -0.13536734  0.22954212  1
  Ba  Ba7  1  0.21472851  0.79987845  0.77838741  1
  Ba  Ba8  1  0.08815867  0.22333323  0.08712718  1
  Ba  Ba9  1  0.54170462  -0.05250324  -0.01303717  1
  Ba  Ba10  1  0.21460094  0.61171572  0.18547546  1
  Ba  Ba11  1  0.81558008  0.76041945  0.72781669  1
  Ba  Ba12  1  0.06217721  0.30367500  0.56130918  1
  Ba  Ba13  1  0.69918571  0.21051045  0.53039970  1
  Ba  Ba14  1  0.09277393  0.92146600  0.46035673  1
  Ba  Ba15  1  0.15960096  0.44418213  -0.04615485  1
  Ba  Ba16  1  -0.02916323  0.20811584  0.28672519  1
  Ba  Ba17  1  0.58236126  0.35036244  -0.05392120  1
  Ba  Ba18  1  0.57827641  -0.03228819  0.73354189  1
  Ba  Ba19  1  0.30094838  0.83814620  0.02030927  1
  Ba  Ba20  1  0.68822632  0.22231717  0.76079833  1
  Ba  Ba21  1  0.21291144  0.12527441  0.26976502  1
  Ba  Ba22  1  0.70376491  -0.02190585  0.13820038  1
  Ba  Ba23  1  0.95194091  -0.02466265  0.68583327  1
  Ba  Ba24  1  0.72444899  0.19409734  0.27378052  1
  Ba  Ba25  1  0.57240876  0.47782269  0.73784689  1
  Ba  Ba26  1  -0.08171789  0.10041174  0.49648876  1
  Ba  Ba27  1  0.45032675  0.02154540  0.24289643  1
  Ba  Ba28  1  0.49731988  0.30362958  0.22736977  1
  Ba  Ba29  1  0.73237259  0.75954634  0.48242429  1
  Ba  Ba30  1  0.69553162  0.67730307  0.25574948  1
  Ba  Ba31  1  0.71644689  -0.01629136  0.38774669  1
  Ba  Ba32  1  0.76311221  0.47457422  0.55307316  1
  Ba  Ba33  1  0.24117659  0.54852320  0.57284473  1
  Ba  Ba34  1  -0.10926254  0.49709248  -0.06318783  1
  Ba  Ba35  1  0.51648249  0.54019520  0.46255476  1
  Ba  Ba36  1  0.81784516  0.01878174  -0.08459085  1
  Ba  Ba37  1  0.21698989  0.35645895  0.73994954  1
  Ba  Ba38  1  -0.03148980  0.65902236  0.22375088  1
  Ba  Ba39  1  0.35821739  0.60426613  -0.06396956  1
  Ba  Ba40  1  0.08306687  0.06925356  0.86919934  1
  Ba  Ba41  1  0.27069581  0.80145452  0.53967605  1
  Ba  Ba42  1  0.61887556  0.58808448  0.03759408  1
  Ba  Ba43  1  0.81080653  0.26530867  -0.01111306  1
  Ba  Ba44  1  0.79046334  0.42496454  0.25712079  1
  Ba  Ba45  1  0.85470150  0.78810777  0.02670859  1
  Ba  Ba46  1  0.02443731  0.45901412  0.39884411  1
  Ba  Ba47  1  0.39782700  0.74223109  0.33837350  1
  Ba  Ba48  1  0.30932097  0.11409489  0.77851584  1
  Ba  Ba49  1  0.35304661  0.09333598  0.01348663  1
  Ba  Ba50  1  0.49919583  -0.05648364  0.49372496  1
  Fe  Fe51  1  0.56783875  0.78631410  0.12814027  1
  Fe  Fe52  1  0.89270365  0.01651587  0.25922829  1
  Fe  Fe53  1  0.88273162  0.89571070  0.50099936  1
  Fe  Fe54  1  0.17936032  0.41433607  0.14802887  1
  Fe  Fe55  1  0.43024860  0.54066697  0.11903176  1
  Fe  Fe56  1  0.51562056  0.19312357  1.03650162  1
  Fe  Fe57  1  0.87743549  0.16373646  0.69014563  1
  Fe  Fe58  1  0.37153800  0.54171373  0.72964062  1
  Fe  Fe59  1  0.41516098  0.56887321  0.24521435  1
  Fe  Fe60  1  0.90869062  0.93910316  0.13970183  1
  Fe  Fe61  1  0.51469561  0.26996026  0.61275716  1
  Fe  Fe62  1  0.05537743  0.49047659  0.68221865  1
  Fe  Fe63  1  -0.00418791  0.39569740  0.78078351  1
  Fe  Fe64  1  0.63868766  0.14467999  0.99375061  1
  Fe  Fe65  1  0.47758870  0.72203133  0.04827820  1
  Fe  Fe66  1  0.45879284  0.28988346  0.74595404  1
  Fe  Fe67  1  0.41342654  0.06428078  0.62652732  1
  Fe  Fe68  1  1.02630730  0.62789720  0.74901567  1
  Fe  Fe69  1  0.08443823  0.88147804  0.99861059  1
  Fe  Fe70  1  1.04627187  0.48624331  0.10440314  1
  Fe  Fe71  1  -0.00676526  0.25179347  0.72377475  1
  Fe  Fe72  1  0.50821525  0.66496592  0.18450906  1
  Fe  Fe73  1  0.87538015  0.30063360  0.77541778  1
  Fe  Fe74  1  0.91121374  0.93494478  0.37432834  1
  Fe  Fe75  1  1.01111609  0.38445725  0.17820991  1
  Fe  Fe76  1  0.38056967  0.22463882  0.63601491  1
  Fe  Fe77  1  0.35226932  0.94809315  0.67364092  1
  Fe  Fe78  1  -0.07278092  0.40578687  0.66531656  1
  Fe  Fe79  1  0.33164923  0.45489190  0.21009231  1
  Fe  Fe80  1  0.90839388  0.16881172  0.81533160  1
  Fe  Fe81  1  0.87115376  0.28208845  0.62589109  1
  Fe  Fe82  1  0.70031448  0.82584700  0.90519376  1
  Fe  Fe83  1  0.38290278  0.67989591  0.13251406  1
  Fe  Fe84  1  0.99050627  0.97719563  1.03023142  1
  Fe  Fe85  1  0.57500845  0.12667902  0.13018847  1
  Fe  Fe86  1  0.04998160  0.52078743  0.81847034  1
  Fe  Fe87  1  0.43455872  0.16634580  0.52575202  1
  Fe  Fe88  1  0.03234837  0.86116770  0.11836101  1
  Fe  Fe89  1  0.64832181  0.23425664  0.09865579  1
  Fe  Fe90  1  0.92130615  0.53542468  0.73842342  1
  Fe  Fe91  1  0.08533035  0.48212759  0.23285343  1
  Fe  Fe92  1  0.26829896  0.32633515  0.22188531  1
  Fe  Fe93  1  0.49587788  0.15528294  0.70459432  1
  Fe  Fe94  1  0.02343320  0.01558384  0.30955796  1
  Fe  Fe95  1  0.44301329  0.81216876  0.16374828  1
  Fe  Fe96  1  -0.00945398  0.88763157  0.25728340  1
  Fe  Fe97  1  0.43939874  0.62720353  0.66018200  1
  Fe  Fe98  1  0.54169450  0.12306997  0.58407427  1
  Fe  Fe99  1  0.12108248  0.33270911  0.25630392  1
  Fe  Fe100  1  0.02751303  0.01216696  0.17311674  1
  Fe  Fe101  1  0.21288584  0.42545575  0.29637777  1
  Bi  Bi102  1  -0.02103298  0.87275403  0.86935744  1
  Bi  Bi103  1  0.31338476  0.53772657  0.37206859  1
  Bi  Bi104  1  0.19988236  0.58256036  0.77722330  1
  Bi  Bi105  1  0.94938164  0.77292910  0.40774991  1
  Bi  Bi106  1  0.53730524  0.14579318  0.39850889  1
  Bi  Bi107  1  0.43951506  0.80030391  0.65415355  1
  Bi  Bi108  1  0.16628591  0.00937228  0.07510721  1
  Bi  Bi109  1  0.00171146  0.28614624  0.90057057  1
  Bi  Bi110  1  0.57109054  0.85452582  0.28368548  1
  Bi  Bi111  1  0.51268235  0.15272440  0.87146135  1
  Bi  Bi112  1  -0.21680993  0.43499631  0.76320381  1
  Bi  Bi113  1  0.40338385  0.40604204  0.61802052  1
  Bi  Bi114  1  -0.17305747  -0.15753978  0.24603794  1
  Bi  Bi115  1  0.84552874  0.58631115  0.38949478  1
  Bi  Bi116  1  0.30301209  0.95020506  0.38628077  1
  Bi  Bi117  1  0.62160728  0.36032527  0.39344767  1
  Bi  Bi118  1  0.61378980  0.65405916  0.63177084  1
  Bi  Bi119  1  0.57171026  0.50508716  0.22798678  1
  Bi  Bi120  1  0.39743087  0.41544227  0.84769831  1
  Bi  Bi121  1  0.75384580  0.95182121  0.59419183  1
  Bi  Bi122  1  0.17562772  0.96795096  0.66156627  1
  Bi  Bi123  1  0.38726292  0.91841150  0.84099032  1
  Bi  Bi124  1  0.87458890  0.30850902  0.45112274  1
  Bi  Bi125  1  0.88696655  0.10745065  0.11050823  1
  Bi  Bi126  1  0.74138651  0.66610158  0.89148293  1
  Bi  Bi127  1  0.21887368  0.23742237  0.92267574  1
