# generated using pymatgen
data_Ba51Fe51Bi26
_symmetry_space_group_name_H-M   'P 1'
_cell_length_a   15.90376526
_cell_length_b   16.45126444
_cell_length_c   16.82772155
_cell_angle_alpha   91.46535518
_cell_angle_beta   89.54085154
_cell_angle_gamma   91.07476858
_symmetry_Int_Tables_number   1
_chemical_formula_structural   Ba51Fe51Bi26
_chemical_formula_sum   'Ba51 Fe51 Bi26'
_cell_volume   4400.41621990
_cell_formula_units_Z   1
loop_
 _symmetry_equiv_pos_site_id
 _symmetry_equiv_pos_as_xyz
  1  'x, y, z'
loop_
 _atom_site_type_symbol
 _atom_site_label
 _atom_site_symmetry_multiplicity
 _atom_site_fract_x
 _atom_site_fract_y
 _atom_site_fract_z
 _atom_site_occupancy
  Ba  Ba0  1  0.44004178  -0.04762025  0.06673022  1
  Ba  Ba1  1  0.33122213  0.77769880  0.49315777  1
  Ba  Ba2  1  0.77462991  0.78935261  0.83095086  1
  Ba  Ba3  1  0.13688003  0.75677460  0.16960438  1
  Ba  Ba4  1  0.16171783  0.33643388  0.75973718  1
  Ba  Ba5  1  0.84208062  0.80638779  0.18099713  1
  Ba  Ba6  1  0.05867077  0.83548394  0.38204992  1
  Ba  Ba7  1  -0.09405122  0.44619992  0.83838136  1
  Ba  Ba8  1  0.62471779  0.36957322  -0.07408187  1
  Ba  Ba9  1  0.44706748  0.18571333  0.55416698  1
  Ba  Ba10  1  0.39242074  0.39512050  -0.12689670  1
  Ba  Ba11  1  0.27757894  0.21343248  -0.02759018  1
  Ba  Ba12  1  0.03539087  0.05275627  0.49148045  1
  Ba  Ba13  1  0.51338936  0.74733640  -0.07229424  1
  Ba  Ba14  1  0.36230292  0.70247478  0.25288105  1
  Ba  Ba15  1  0.59462439  0.70466518  0.19712184  1
  Ba  Ba16  1  0.90140210  -0.12976764  0.60172423  1
  Ba  Ba17  1  0.31720416  -0.00320150  0.42826103  1
  Ba  Ba18  1  0.30350916  0.61304346  0.00708147  1
  Ba  Ba19  1  0.22089341  0.46126656  0.26790551  1
  Ba  Ba20  1  0.68478088  0.22189078  0.56994780  1
  Ba  Ba21  1  0.67512918  0.18211451  0.29492501  1
  Ba  Ba22  1  -0.10897849  0.17594956  0.80195654  1
  Ba  Ba23  1  0.32697535  0.75132767  0.72952063  1
  Ba  Ba24  1  0.53736868  -0.03291568  0.26690683  1
  Ba  Ba25  1  0.85405869  0.30306479  0.04054591  1
  Ba  Ba26  1  0.66042055  0.66419919  0.47441270  1
  Ba  Ba27  1  -0.06979796  0.28387215  0.56863328  1
  Ba  Ba28  1  0.00788816  0.26977010  0.32608654  1
  Ba  Ba29  1  0.40849707  0.24031792  0.18557524  1
  Ba  Ba30  1  0.65961236  -0.01301536  0.73743987  1
  Ba  Ba31  1  0.20724160  0.27276409  0.49698764  1
  Ba  Ba32  1  0.65192355  -0.03952206  0.49539384  1
  Ba  Ba33  1  0.11617207  0.44459289  -0.01424640  1
  Ba  Ba34  1  0.26509349  0.06428860  0.68854556  1
  Ba  Ba35  1  0.07373277  0.67018946  0.55377944  1
  Ba  Ba36  1  0.08693320  0.91729075  0.77026971  1
  Ba  Ba37  1  -0.09167958  0.66534959  -0.00139726  1
  Ba  Ba38  1  0.62814083  0.64704918  0.69635214  1
  Ba  Ba39  1  0.12803309  0.73948596  -0.08475035  1
  Ba  Ba40  1  0.24254650  0.52631688  0.58883848  1
  Ba  Ba41  1  0.65082529  0.10959926  0.00317258  1
  Ba  Ba42  1  0.02438500  0.13650555  0.06316696  1
  Ba  Ba43  1  0.43397264  -0.01565230  0.83848718  1
  Ba  Ba44  1  0.57092972  0.46920509  0.22996478  1
  Ba  Ba45  1  0.47663776  0.43444938  0.48644864  1
  Ba  Ba46  1  -0.02349434  0.58751795  0.30420014  1
  Ba  Ba47  1  0.81579494  0.39489088  0.25769979  1
  Ba  Ba48  1  0.21142887  -0.02380436  -0.00567303  1
  Ba  Ba49  1  -0.05870534  0.01290337  0.25431301  1
  Ba  Ba50  1  0.86473520  0.49798296  0.49513502  1
  Fe  Fe51  1  0.89523137  0.48692089  0.09962569  1
  Fe  Fe52  1  0.77681885  0.89665167  0.02394172  1
  Fe  Fe53  1  0.37213366  0.21751633  0.76121513  1
  Fe  Fe54  1  0.43420171  0.58510104  0.84042957  1
  Fe  Fe55  1  0.10702262  0.65842976  0.73753062  1
  Fe  Fe56  1  -0.04015106  1.01224239  0.92859289  1
  Fe  Fe57  1  0.02878863  0.53942620  0.12728833  1
  Fe  Fe58  1  0.50334905  0.27792980  0.72900714  1
  Fe  Fe59  1  0.85093562  0.62705965  0.77178506  1
  Fe  Fe60  1  0.10963918  0.12386660  0.24120854  1
  Fe  Fe61  1  0.21535993  0.13850127  0.14929217  1
  Fe  Fe62  1  0.49077834  0.12723983  0.72427455  1
  Fe  Fe63  1  -0.03108646  0.56968807  0.68998707  1
  Fe  Fe64  1  0.86109684  0.66299066  0.64328597  1
  Fe  Fe65  1  0.08043342  0.53928204  0.77913796  1
  Fe  Fe66  1  0.15538478  0.99737765  0.30569040  1
  Fe  Fe67  1  0.27428876  0.07573538  0.25014773  1
  Fe  Fe68  1  0.68335007  0.57477793  1.03531974  1
  Fe  Fe69  1  0.46999581  0.63659471  0.41347496  1
  Fe  Fe70  1  0.15356956  1.00216088  0.17581910  1
  Fe  Fe71  1  0.80790326  0.52792905  0.68277060  1
  Fe  Fe72  1  0.65461647  0.91712347  0.94713357  1
  Fe  Fe73  1  0.52989546  0.43094133  0.70841376  1
  Fe  Fe74  1  0.72790715  0.44700910  0.09864901  1
  Fe  Fe75  1  0.79767847  0.49643904  -0.00304942  1
  Fe  Fe76  1  0.97160722  0.71926166  0.73183291  1
  Fe  Fe77  1  0.69375279  0.36784903  0.42809456  1
  Fe  Fe78  1  0.87465036  0.00009712  0.04706441  1
  Fe  Fe79  1  0.47205979  0.18692485  0.84443433  1
  Fe  Fe80  1  0.30487095  0.80440397  0.06357689  1
  Fe  Fe81  1  0.18074981  0.12491063  0.35557661  1
  Fe  Fe82  1  0.42084132  0.53764910  0.13566902  1
  Fe  Fe83  1  0.91101351  0.88716791  0.94399731  1
  Fe  Fe84  1  0.63544150  0.89378390  0.07249039  1
  Fe  Fe85  1  0.68612149  0.46296214  0.75437401  1
  Fe  Fe86  1  0.64001031  0.33771594  0.70812802  1
  Fe  Fe87  1  0.75702583  0.32531009  0.78269303  1
  Fe  Fe88  1  0.78186824  0.75647085  0.34745852  1
  Fe  Fe89  1  0.68600687  0.84760655  0.33721857  1
  Fe  Fe90  1  0.55465109  0.52056154  0.81910378  1
  Fe  Fe91  1  0.43214678  0.53481904  0.71896368  1
  Fe  Fe92  1  0.78920551  0.38565181  0.67455208  1
  Fe  Fe93  1  0.75973036  -0.03805655  0.32839216  1
  Fe  Fe94  1  0.82971480  0.87069062  0.39951632  1
  Fe  Fe95  1  0.22487487  0.21903991  0.27341952  1
  Fe  Fe96  1  -0.01411934  0.62937987  0.82624178  1
  Fe  Fe97  1  0.32141052  0.81979882  0.94196070  1
  Fe  Fe98  1  0.79700189  0.29069151  0.41833891  1
  Fe  Fe99  1  0.77844313  0.57685676  0.13270940  1
  Fe  Fe100  1  0.79493415  -0.00996257  0.92582030  1
  Fe  Fe101  1  0.01327889  0.41782474  0.15930647  1
  Bi  Bi102  1  0.25290814  0.56082912  0.80631428  1
  Bi  Bi103  1  0.88219315  0.71383474  0.46875750  1
  Bi  Bi104  1  0.13879936  0.29379979  0.15036717  1
  Bi  Bi105  1  0.72298806  0.57629235  0.87237570  1
  Bi  Bi106  1  0.66721230  0.45701518  0.58132439  1
  Bi  Bi107  1  -0.12005962  -0.03431902  0.78862249  1
  Bi  Bi108  1  0.64781511  0.18894839  0.79797982  1
  Bi  Bi109  1  0.70290682  0.74633810  0.02542926  1
  Bi  Bi110  1  0.73592070  0.00248682  0.16611845  1
  Bi  Bi111  1  0.02204342  -0.09261909  0.07198360  1
  Bi  Bi112  1  0.29556004  -0.09392470  0.22114197  1
  Bi  Bi113  1  0.51398250  0.54745838  -0.00256677  1
  Bi  Bi114  1  0.36372219  0.35782732  0.65771294  1
  Bi  Bi115  1  0.75294681  0.59754613  0.29407687  1
  Bi  Bi116  1  0.44670334  0.62635048  0.57643814  1
  Bi  Bi117  1  0.51865145  0.79769965  0.38308479  1
  Bi  Bi118  1  0.07825323  0.16442433  0.66693951  1
  Bi  Bi119  1  0.82716801  0.07183035  0.60813221  1
  Bi  Bi120  1  0.32961758  0.40678594  0.08223788  1
  Bi  Bi121  1  0.18364111  0.65815053  0.36498753  1
  Bi  Bi122  1  0.46067919  0.98253670  0.62323902  1
  Bi  Bi123  1  0.64158447  0.29585946  0.12535150  1
  Bi  Bi124  1  0.83658846  0.12401656  0.41417462  1
  Bi  Bi125  1  0.15793017  0.88690084  0.57161341  1
  Bi  Bi126  1  0.10461442  0.11624806  0.86617746  1
  Bi  Bi127  1  0.07690052  0.43823655  0.45207427  1
