# generated using pymatgen
data_Ba51Fe51Bi26
_symmetry_space_group_name_H-M   'P 1'
_cell_length_a   16.58097223
_cell_length_b   16.59543778
_cell_length_c   15.87557131
_cell_angle_alpha   93.58158814
_cell_angle_beta   89.60488994
_cell_angle_gamma   89.10992343
_symmetry_Int_Tables_number   1
_chemical_formula_structural   Ba51Fe51Bi26
_chemical_formula_sum   'Ba51 Fe51 Bi26'
_cell_volume   4359.26328075
_cell_formula_units_Z   1
loop_
 _symmetry_equiv_pos_site_id
 _symmetry_equiv_pos_as_xyz
  1  'x, y, z'
loop_
 _atom_site_type_symbol
 _atom_site_label
 _atom_site_symmetry_multiplicity
 _atom_site_fract_x
 _atom_site_fract_y
 _atom_site_fract_z
 _atom_site_occupancy
  Ba  Ba0  1  0.03328232  0.76900188  0.21686985  1
  Ba  Ba1  1  0.60568698  0.45341471  0.76075538  1
  Ba  Ba2  1  0.22849423  0.55363370  0.53467918  1
  Ba  Ba3  1  0.23222026  0.59079255  0.90756674  1
  Ba  Ba4  1  0.25317681  0.43269825  0.04330631  1
  Ba  Ba5  1  0.05172502  0.78823778  0.50375855  1
  Ba  Ba6  1  0.43869702  -0.08843370  0.53772179  1
  Ba  Ba7  1  0.10240591  0.06536833  0.85778795  1
  Ba  Ba8  1  0.75957468  0.23385802  0.77374485  1
  Ba  Ba9  1  0.55400999  0.71633953  0.73029757  1
  Ba  Ba10  1  0.33634888  0.49466838  0.29688606  1
  Ba  Ba11  1  0.38329730  0.75082424  -0.08923735  1
  Ba  Ba12  1  -0.01880970  0.17917483  0.36146089  1
  Ba  Ba13  1  0.74188667  -0.03108272  0.08187888  1
  Ba  Ba14  1  0.27334399  0.76576510  0.38839389  1
  Ba  Ba15  1  0.11613392  0.82473396  -0.01781400  1
  Ba  Ba16  1  0.81426953  0.21237715  0.00681889  1
  Ba  Ba17  1  -0.01941098  0.24684402  0.68979488  1
  Ba  Ba18  1  0.77309213  0.28611707  0.24715321  1
  Ba  Ba19  1  0.74469357  0.44295445  0.54195528  1
  Ba  Ba20  1  0.55761829  0.19613139  0.10592389  1
  Ba  Ba21  1  -0.11498138  0.80310476  -0.07960332  1
  Ba  Ba22  1  0.19977735  0.24250145  0.52392818  1
  Ba  Ba23  1  0.55004084  0.10661320  0.75037980  1
  Ba  Ba24  1  -0.00022569  0.56508414  -0.02145225  1
  Ba  Ba25  1  0.78869794  0.81846310  0.25407665  1
  Ba  Ba26  1  0.51441300  0.44793823  0.06343219  1
  Ba  Ba27  1  0.40403710  0.21016513  0.34397295  1
  Ba  Ba28  1  0.08779450  0.46110363  0.74110800  1
  Ba  Ba29  1  0.30690051  0.06022466  0.73149809  1
  Ba  Ba30  1  0.01453590  0.55735766  0.29892334  1
  Ba  Ba31  1  0.82548733  -0.02021645  0.46683352  1
  Ba  Ba32  1  0.07317181  0.02016409  0.16925451  1
  Ba  Ba33  1  0.05833035  0.30085634  -0.04873528  1
  Ba  Ba34  1  0.74349421  0.21022089  0.48911339  1
  Ba  Ba35  1  0.65925032  0.70966061  0.03752493  1
  Ba  Ba36  1  0.83435594  0.84090037  0.67098429  1
  Ba  Ba37  1  0.62702914  0.01994247  0.31717948  1
  Ba  Ba38  1  0.41355332  0.69087122  0.14918599  1
  Ba  Ba39  1  0.50350807  0.26113445  0.59244648  1
  Ba  Ba40  1  0.75491280  0.46806792  0.00804287  1
  Ba  Ba41  1  0.38367096  -0.03554372  0.24973481  1
  Ba  Ba42  1  0.55321917  0.72752711  0.38056560  1
  Ba  Ba43  1  0.77358186  0.54617967  0.28267060  1
  Ba  Ba44  1  0.50107683  -0.04991113  -0.01987779  1
  Ba  Ba45  1  0.82900544  0.58487661  0.78654679  1
  Ba  Ba46  1  -0.04031039  0.55734622  0.55497309  1
  Ba  Ba47  1  0.16294649  0.30798501  0.22071585  1
  Ba  Ba48  1  0.38628643  0.25916168  -0.09378233  1
  Ba  Ba49  1  0.03911014  0.00630816  0.60763931  1
  Ba  Ba50  1  0.70970156  0.66785115  0.55132813  1
  Fe  Fe51  1  0.20633157  0.64882481  0.21728058  1
  Fe  Fe52  1  0.51978473  0.44372703  0.55996288  1
  Fe  Fe53  1  0.62816505  0.92202489  0.67024850  1
  Fe  Fe54  1  0.88653754  0.99101344  0.25935261  1
  Fe  Fe55  1  0.65078166  0.87417749  0.52855997  1
  Fe  Fe56  1  0.18705722  0.62554995  0.72190823  1
  Fe  Fe57  1  0.80028413  1.01338079  0.84631606  1
  Fe  Fe58  1  0.20529630  0.67219009  0.08900041  1
  Fe  Fe59  1  0.39305332  0.47301400  0.86114703  1
  Fe  Fe60  1  0.49077924  0.40805304  0.39917300  1
  Fe  Fe61  1  0.29670585  0.38520415  0.66906377  1
  Fe  Fe62  1  0.24407953  0.73145332  0.62439211  1
  Fe  Fe63  1  0.13084761  0.06126340  0.43006713  1
  Fe  Fe64  1  0.28959495  0.39986960  0.81016952  1
  Fe  Fe65  1  0.33592099  0.81177965  0.71257057  1
  Fe  Fe66  1  0.31838786  0.05730338  0.95510709  1
  Fe  Fe67  1  0.99087116  0.67609743  0.73134059  1
  Fe  Fe68  1  0.17619909  0.93510981  0.43033836  1
  Fe  Fe69  1  0.21193696  0.76139559  0.77485372  1
  Fe  Fe70  1  0.37701966  0.08479457  1.07506519  1
  Fe  Fe71  1  0.52403309  0.36363776  0.25876408  1
  Fe  Fe72  1  0.42790673  0.56826582  0.77552802  1
  Fe  Fe73  1  0.26112138  0.07002361  0.13183174  1
  Fe  Fe74  1  0.44306817  0.53904219  0.47249220  1
  Fe  Fe75  1  0.91389058  0.11416384  0.86180857  1
  Fe  Fe76  1  1.08636136  0.69014548  0.81846647  1
  Fe  Fe77  1  0.80286346  0.09039523  0.28111718  1
  Fe  Fe78  1  0.41963795  0.41865175  0.71794074  1
  Fe  Fe79  1  0.92480267  0.39291909  0.10256573  1
  Fe  Fe80  1  -0.04084309  0.38022861  0.22986534  1
  Fe  Fe81  1  0.63416711  0.41245187  0.33293681  1
  Fe  Fe82  1  0.87842849  0.09235541  0.16703800  1
  Fe  Fe83  1  0.67428951  0.95043800  0.80163458  1
  Fe  Fe84  1  0.10296632  0.71118468  0.66585402  1
  Fe  Fe85  1  0.53789628  0.58055510  0.56951387  1
  Fe  Fe86  1  0.13095301  0.56433071  0.13474769  1
  Fe  Fe87  1  0.89736079  0.06687466  0.73467122  1
  Fe  Fe88  1  0.73337967  0.81548020  0.44381648  1
  Fe  Fe89  1  0.58393186  0.27583241  0.34385493  1
  Fe  Fe90  1  0.31171027  0.94098706  0.05377844  1
  Fe  Fe91  1  0.04632549  0.44258941  0.12730495  1
  Fe  Fe92  1  0.20592590  1.01354575  0.01324821  1
  Fe  Fe93  1  0.29724045  0.51937467  0.73406671  1
  Fe  Fe94  1  0.21830217  0.04528006  0.53965178  1
  Fe  Fe95  1  0.59047016  0.51280993  0.44077839  1
  Fe  Fe96  1  0.93141502  0.96980581  0.81905217  1
  Fe  Fe97  1  0.60505951  0.35612594  0.45598467  1
  Fe  Fe98  1  0.86547863  0.40957375  0.68839560  1
  Fe  Fe99  1  0.28060712  0.02243566  0.41704072  1
  Fe  Fe100  1  0.33325975  0.66282989  0.71605606  1
  Fe  Fe101  1  0.40858607  0.53032664  0.62702580  1
  Bi  Bi102  1  0.24063953  0.82228179  0.16983314  1
  Bi  Bi103  1  0.19613676  0.26617183  0.75679239  1
  Bi  Bi104  1  -0.06878665  0.00848661  -0.00640205  1
  Bi  Bi105  1  -0.02189488  0.22975178  0.14586116  1
  Bi  Bi106  1  0.40831139  0.69461265  0.55397215  1
  Bi  Bi107  1  0.35750270  0.38872376  0.50395885  1
  Bi  Bi108  1  0.75063969  0.03913525  0.67038850  1
  Bi  Bi109  1  0.48096976  -0.09127692  0.75990706  1
  Bi  Bi110  1  0.54546646  0.53961365  0.26788306  1
  Bi  Bi111  1  0.03837931  0.84719976  0.76313821  1
  Bi  Bi112  1  0.26731262  -0.08550499  -0.12666698  1
  Bi  Bi113  1  0.22902639  -0.10921622  0.59155192  1
  Bi  Bi114  1  0.21505934  0.12294029  0.29963757  1
  Bi  Bi115  1  0.85535276  0.66032990  0.10951294  1
  Bi  Bi116  1  0.66057224  0.08178145  0.92829856  1
  Bi  Bi117  1  0.36985814  0.11385123  0.53345965  1
  Bi  Bi118  1  0.01548837  0.94806842  0.36937954  1
  Bi  Bi119  1  0.60606833  0.04414449  0.53268871  1
  Bi  Bi120  1  0.38588215  0.31850540  0.16141076  1
  Bi  Bi121  1  0.89589454  0.39333627  0.85344064  1
  Bi  Bi122  1  0.57026754  0.85063659  0.18407603  1
  Bi  Bi123  1  0.61118666  0.30547161  0.92180482  1
  Bi  Bi124  1  0.87209914  0.71009039  0.41911474  1
  Bi  Bi125  1  0.22000484  0.18665530  0.02219045  1
  Bi  Bi126  1  0.52343616  0.59192441  -0.08177875  1
  Bi  Bi127  1  0.90078774  0.39404032  0.39548804  1
