# generated using pymatgen
data_Ba51Fe51Bi26
_symmetry_space_group_name_H-M   'P 1'
_cell_length_a   17.01016535
_cell_length_b   15.97280442
_cell_length_c   16.28201125
_cell_angle_alpha   92.34740095
_cell_angle_beta   84.72345114
_cell_angle_gamma   93.57066160
_symmetry_Int_Tables_number   1
_chemical_formula_structural   Ba51Fe51Bi26
_chemical_formula_sum   'Ba51 Fe51 Bi26'
_cell_volume   4393.76213274
_cell_formula_units_Z   1
loop_
 _symmetry_equiv_pos_site_id
 _symmetry_equiv_pos_as_xyz
  1  'x, y, z'
loop_
 _atom_site_type_symbol
 _atom_site_label
 _atom_site_symmetry_multiplicity
 _atom_site_fract_x
 _atom_site_fract_y
 _atom_site_fract_z
 _atom_site_occupancy
  Ba  Ba0  1  0.07946179  -0.00612635  -0.01945958  1
  Ba  Ba1  1  -0.00074947  0.24837608  -0.05811481  1
  Ba  Ba2  1  0.74759697  0.27289194  -0.01267939  1
  Ba  Ba3  1  0.70014866  -0.00676232  0.86059893  1
  Ba  Ba4  1  0.26011645  0.75777030  0.25442248  1
  Ba  Ba5  1  0.76961370  0.64609130  0.25688990  1
  Ba  Ba6  1  0.24719141  0.29060058  0.68521178  1
  Ba  Ba7  1  0.35904953  0.73246313  0.85897108  1
  Ba  Ba8  1  -0.04047880  0.48581259  0.23491391  1
  Ba  Ba9  1  0.52097517  0.31271436  0.63820574  1
  Ba  Ba10  1  -0.01897221  0.17082917  0.49448407  1
  Ba  Ba11  1  0.42573742  0.82424204  0.44305277  1
  Ba  Ba12  1  0.38591237  -0.03911500  0.22086093  1
  Ba  Ba13  1  0.05925868  -0.09445008  0.38500209  1
  Ba  Ba14  1  0.10278166  0.45719766  0.77557180  1
  Ba  Ba15  1  0.43829954  0.38847795  0.20189258  1
  Ba  Ba16  1  0.01104134  0.74104343  0.54246507  1
  Ba  Ba17  1  0.80482714  0.40455928  0.56292186  1
  Ba  Ba18  1  0.81962577  0.22948617  0.73270137  1
  Ba  Ba19  1  0.21752805  0.52004347  0.17099904  1
  Ba  Ba20  1  0.88420324  0.57076729  0.71442999  1
  Ba  Ba21  1  0.67590306  0.79988215  0.44784521  1
  Ba  Ba22  1  0.14533088  0.05129126  0.63012739  1
  Ba  Ba23  1  0.26437406  -0.07193665  0.78895878  1
  Ba  Ba24  1  0.68952030  0.38173962  0.27635845  1
  Ba  Ba25  1  0.56397990  -0.11630539  0.03537520  1
  Ba  Ba26  1  0.19932953  0.11170157  0.27297054  1
  Ba  Ba27  1  0.48321337  0.00881853  0.68894608  1
  Ba  Ba28  1  0.00270777  0.60683990  -0.06468131  1
  Ba  Ba29  1  0.71533361  0.21581308  0.43912423  1
  Ba  Ba30  1  0.04783629  0.48554721  0.48004923  1
  Ba  Ba31  1  0.23575020  0.67791265  0.49418947  1
  Ba  Ba32  1  0.51275340  0.68903654  0.22697009  1
  Ba  Ba33  1  0.69943905  -0.04719020  0.22136289  1
  Ba  Ba34  1  0.22860036  0.28905037  0.02769109  1
  Ba  Ba35  1  -0.06588326  -0.04830831  0.16738110  1
  Ba  Ba36  1  0.75392198  0.01623721  0.58691585  1
  Ba  Ba37  1  0.46169873  0.54906268  0.50520157  1
  Ba  Ba38  1  0.53018028  0.15558571  0.30726590  1
  Ba  Ba39  1  0.49931260  0.16513568  -0.06769998  1
  Ba  Ba40  1  0.54581809  0.59562789  -0.03474562  1
  Ba  Ba41  1  0.41082536  0.40163699  0.87688836  1
  Ba  Ba42  1  0.77849622  0.54047597  0.00860849  1
  Ba  Ba43  1  0.03377237  0.73054196  0.14036606  1
  Ba  Ba44  1  0.56684652  0.75424920  0.72389522  1
  Ba  Ba45  1  0.87216015  0.19811316  0.20723331  1
  Ba  Ba46  1  0.29434507  0.04014326  0.00926241  1
  Ba  Ba47  1  0.02342191  0.85641918  0.76483466  1
  Ba  Ba48  1  0.38893682  0.10469223  0.50205473  1
  Ba  Ba49  1  0.27801410  0.37301691  0.41115468  1
  Ba  Ba50  1  0.79682491  0.78262651  0.66529799  1
  Fe  Fe51  1  0.74028792  0.78815348  0.94093278  1
  Fe  Fe52  1  0.63768749  0.49094667  0.59086111  1
  Fe  Fe53  1  0.94112489  0.83561951  -0.03878213  1
  Fe  Fe54  1  0.87979146  0.10113835  0.85534942  1
  Fe  Fe55  1  0.19481123  0.62494554  0.86449725  1
  Fe  Fe56  1  -0.07738729  0.65017393  0.37232881  1
  Fe  Fe57  1  0.17362738  0.30643520  0.23328808  1
  Fe  Fe58  1  -0.05638637  0.08518253  0.70590503  1
  Fe  Fe59  1  0.28944481  0.89305041  0.58701207  1
  Fe  Fe60  1  0.36984154  0.46165087  0.69784906  1
  Fe  Fe61  1  0.20571658  0.64915608  0.01044579  1
  Fe  Fe62  1  0.13555121  0.70251283  0.76426159  1
  Fe  Fe63  1  0.64018146  0.09932069  1.03501097  1
  Fe  Fe64  1  0.04161174  0.24102708  0.29047221  1
  Fe  Fe65  1  0.66696018  0.01517719  0.41498275  1
  Fe  Fe66  1  0.35371948  0.18775228  0.82010724  1
  Fe  Fe67  1  0.67016000  0.15121295  0.15522477  1
  Fe  Fe68  1  0.84154020  0.85665597  0.85672662  1
  Fe  Fe69  1  0.24542455  0.63980351  0.71179929  1
  Fe  Fe70  1  0.37483471  0.59649425  0.69258176  1
  Fe  Fe71  1  0.80990627  0.88965632  0.01206726  1
  Fe  Fe72  1  0.00346138  0.06318708  0.81936207  1
  Fe  Fe73  1  0.90657847  -0.02069534  0.92105170  1
  Fe  Fe74  1  0.54445470  0.97775049  0.38710524  1
  Fe  Fe75  1  0.57819804  0.08310384  0.50081807  1
  Fe  Fe76  1  0.82111348  0.69077119  0.46265998  1
  Fe  Fe77  1  0.32207306  0.11505151  0.71848673  1
  Fe  Fe78  1  0.89365398  0.58941219  0.50336679  1
  Fe  Fe79  1  0.23560500  0.79146697  1.05497393  1
  Fe  Fe80  1  0.20447386  0.78254194  0.66326201  1
  Fe  Fe81  1  0.53581076  0.08274811  0.12137140  1
  Fe  Fe82  1  0.68243796  0.56170745  0.44622908  1
  Fe  Fe83  1  0.67136327  0.60705099  0.67704323  1
  Fe  Fe84  1  0.95314336  0.37100211  0.68245877  1
  Fe  Fe85  1  0.08513016  0.36757184  0.32032220  1
  Fe  Fe86  1  1.06645712  0.32794525  0.17040643  1
  Fe  Fe87  1  0.04904963  0.34095085  0.60100325  1
  Fe  Fe88  1  0.57146192  0.22397122  0.11189309  1
  Fe  Fe89  1  0.63596312  0.42933750  0.46742744  1
  Fe  Fe90  1  0.56195676  0.94843765  0.51525225  1
  Fe  Fe91  1  0.81156656  0.53861915  0.41312243  1
  Fe  Fe92  1  0.87742737  0.97859489  0.76758376  1
  Fe  Fe93  1  0.63120859  0.63097795  0.55481015  1
  Fe  Fe94  1  0.34899197  0.85444000  0.02939056  1
  Fe  Fe95  1  0.85184374  0.75719945  0.03549876  1
  Fe  Fe96  1  0.30921955  0.56560483  0.95142579  1
  Fe  Fe97  1  0.17186156  0.86472303  0.55811853  1
  Fe  Fe98  1  0.28682146  0.52559163  0.80430421  1
  Fe  Fe99  1  0.19780534  0.49977806  0.94314404  1
  Fe  Fe100  1  0.86056838  0.72655673  0.89623359  1
  Fe  Fe101  1  0.76286120  0.59389127  0.55937595  1
  Bi  Bi102  1  0.25964568  -0.05744026  0.42181444  1
  Bi  Bi103  1  0.06989297  0.43704265  0.04042320  1
  Bi  Bi104  1  0.80110664  0.06604512  0.03850368  1
  Bi  Bi105  1  0.37605240  0.76552945  0.64562825  1
  Bi  Bi106  1  0.69692879  0.75345737  0.10153657  1
  Bi  Bi107  1  -0.12482729  0.81279704  0.34073623  1
  Bi  Bi108  1  0.13739509  0.78382313  -0.07583259  1
  Bi  Bi109  1  0.06837503  0.15822579  0.12977008  1
  Bi  Bi110  1  0.51840624  0.53234484  0.72083669  1
  Bi  Bi111  1  0.03849783  0.22773416  0.72090409  1
  Bi  Bi112  1  0.25226553  0.49522020  0.60396629  1
  Bi  Bi113  1  -0.05086924  -0.04770594  0.59281582  1
  Bi  Bi114  1  0.44690409  0.93478982  -0.10909843  1
  Bi  Bi115  1  0.39553560  0.17226731  0.14745554  1
  Bi  Bi116  1  0.72037940  0.64983673  0.83387677  1
  Bi  Bi117  1  0.16496424  0.91734556  0.16344418  1
  Bi  Bi118  1  0.35319366  0.57591352  0.32860367  1
  Bi  Bi119  1  0.36938895  0.68728693  0.06968270  1
  Bi  Bi120  1  0.56984954  0.37079599  0.01459609  1
  Bi  Bi121  1  0.19367586  0.13779274  -0.15204072  1
  Bi  Bi122  1  0.08385111  0.65294853  0.33500246  1
  Bi  Bi123  1  0.49322356  0.33684676  0.42629678  1
  Bi  Bi124  1  0.91610562  0.32992625  0.37580268  1
  Bi  Bi125  1  0.83264224  0.04200184  0.37108723  1
  Bi  Bi126  1  0.61413282  0.51843853  0.15288523  1
  Bi  Bi127  1  0.88634036  0.40701062  0.84833615  1
