# generated using pymatgen
data_Ba51Fe51Bi26
_symmetry_space_group_name_H-M   'P 1'
_cell_length_a   16.51436317
_cell_length_b   15.83772917
_cell_length_c   16.70693667
_cell_angle_alpha   90.82349145
_cell_angle_beta   90.18278233
_cell_angle_gamma   89.32683249
_symmetry_Int_Tables_number   1
_chemical_formula_structural   Ba51Fe51Bi26
_chemical_formula_sum   'Ba51 Fe51 Bi26'
_cell_volume   4368.92664410
_cell_formula_units_Z   1
loop_
 _symmetry_equiv_pos_site_id
 _symmetry_equiv_pos_as_xyz
  1  'x, y, z'
loop_
 _atom_site_type_symbol
 _atom_site_label
 _atom_site_symmetry_multiplicity
 _atom_site_fract_x
 _atom_site_fract_y
 _atom_site_fract_z
 _atom_site_occupancy
  Ba  Ba0  1  0.05267583  0.79654283  -0.06051220  1
  Ba  Ba1  1  0.78609844  0.17491195  0.04608148  1
  Ba  Ba2  1  0.72627274  0.74268143  0.12343232  1
  Ba  Ba3  1  0.75267854  0.26735064  0.28539375  1
  Ba  Ba4  1  -0.11301261  0.81826878  0.51039737  1
  Ba  Ba5  1  0.67606983  -0.05845145  0.46481057  1
  Ba  Ba6  1  0.86186548  0.64446199  -0.12824606  1
  Ba  Ba7  1  0.06078639  0.02446685  0.06729045  1
  Ba  Ba8  1  0.78543680  0.47332762  0.02065729  1
  Ba  Ba9  1  0.46433763  0.47614749  0.04685995  1
  Ba  Ba10  1  -0.00474621  0.19017074  0.27220694  1
  Ba  Ba11  1  0.76424971  0.52950176  0.25550635  1
  Ba  Ba12  1  0.24322166  0.73807033  0.75752743  1
  Ba  Ba13  1  0.55215988  0.53107335  0.52493042  1
  Ba  Ba14  1  0.69266189  0.27122606  0.81287492  1
  Ba  Ba15  1  0.29243480  -0.06338310  0.51200853  1
  Ba  Ba16  1  0.44753173  0.62754127  -0.14021654  1
  Ba  Ba17  1  0.04573801  0.47859934  0.53341809  1
  Ba  Ba18  1  0.52840436  0.22786617  -0.01889385  1
  Ba  Ba19  1  0.03120041  0.43911170  0.02675481  1
  Ba  Ba20  1  0.73515666  0.21825411  0.52760493  1
  Ba  Ba21  1  0.22385874  0.69477557  0.52065258  1
  Ba  Ba22  1  0.73454308  -0.00750532  0.70927268  1
  Ba  Ba23  1  0.23808995  0.35526241  0.63970567  1
  Ba  Ba24  1  0.44758949  0.14187877  0.49064208  1
  Ba  Ba25  1  0.74737604  -0.01677426  0.23591861  1
  Ba  Ba26  1  0.38644959  0.73527140  0.16055523  1
  Ba  Ba27  1  -0.06992569  0.82741227  0.24778806  1
  Ba  Ba28  1  0.67663693  0.52419799  0.75367716  1
  Ba  Ba29  1  0.46542678  0.00041954  0.27791233  1
  Ba  Ba30  1  0.28814673  0.09021757  0.02262180  1
  Ba  Ba31  1  0.50535676  0.77138989  0.47262454  1
  Ba  Ba32  1  0.76588728  0.87261496  0.92051664  1
  Ba  Ba33  1  0.81114180  0.49116135  0.50389106  1
  Ba  Ba34  1  0.44218157  0.05287404  0.78312864  1
  Ba  Ba35  1  0.24834889  0.43812850  0.19063325  1
  Ba  Ba36  1  -0.05006161  0.09511664  0.86089073  1
  Ba  Ba37  1  0.52669900  -0.07879152  0.03497022  1
  Ba  Ba38  1  0.54310293  0.83297476  0.77352712  1
  Ba  Ba39  1  0.14178152  0.69842558  0.13559286  1
  Ba  Ba40  1  0.48799026  0.25696848  0.22363875  1
  Ba  Ba41  1  0.15052687  0.21354994  0.48038936  1
  Ba  Ba42  1  0.17887007  -0.00380925  0.76243008  1
  Ba  Ba43  1  -0.01643487  0.08215157  0.58552964  1
  Ba  Ba44  1  0.29412362  0.25130489  -0.16484222  1
  Ba  Ba45  1  0.24274333  -0.08020001  0.22483669  1
  Ba  Ba46  1  0.51824946  0.56120607  0.27584918  1
  Ba  Ba47  1  0.29951882  0.48463013  0.42915234  1
  Ba  Ba48  1  -0.00144976  0.68573717  0.67768462  1
  Ba  Ba49  1  0.08190647  -0.06755520  0.39875400  1
  Ba  Ba50  1  0.00748721  0.57464529  0.28987577  1
  Fe  Fe51  1  0.81112383  0.69449373  0.35557553  1
  Fe  Fe52  1  0.73538014  0.80304528  0.33707754  1
  Fe  Fe53  1  0.18407975  0.75325477  0.33805924  1
  Fe  Fe54  1  0.50505518  0.64777472  0.67625180  1
  Fe  Fe55  1  1.02096082  0.23295474  -0.01688165  1
  Fe  Fe56  1  0.26160219  0.65210962  0.29339389  1
  Fe  Fe57  1  1.06422029  0.31853479  0.86474241  1
  Fe  Fe58  1  0.28352771  0.23275768  0.18248092  1
  Fe  Fe59  1  0.16730552  0.43719016  0.85843500  1
  Fe  Fe60  1  0.36373775  0.66678661  0.37715939  1
  Fe  Fe61  1  0.54346423  0.33979301  0.68050972  1
  Fe  Fe62  1  0.01998046  0.32134968  0.64164489  1
  Fe  Fe63  1  0.41550053  0.39243380  0.71719886  1
  Fe  Fe64  1  0.27883637  0.11349430  0.37033872  1
  Fe  Fe65  1  0.32960936  0.89101227  0.03389606  1
  Fe  Fe66  1  0.81897239  0.78462774  0.70888550  1
  Fe  Fe67  1  0.67004802  0.69610472  0.89299789  1
  Fe  Fe68  1  0.06696770  0.41989750  0.74931436  1
  Fe  Fe69  1  0.71310914  0.80618777  0.62875412  1
  Fe  Fe70  1  0.66674436  0.68744511  0.33923596  1
  Fe  Fe71  1  0.18419255  0.11800460  0.18519675  1
  Fe  Fe72  1  0.62794822  0.59632477  0.97495234  1
  Fe  Fe73  1  0.20101966  0.86833582  0.04689421  1
  Fe  Fe74  1  0.87378505  0.95725479  1.06832930  1
  Fe  Fe75  1  0.17436410  0.55183385  -0.01556202  1
  Fe  Fe76  1  0.57270064  0.73756732  -0.02892788  1
  Fe  Fe77  1  0.22354075  0.91279934  0.92858290  1
  Fe  Fe78  1  0.25792430  0.56633770  0.87886653  1
  Fe  Fe79  1  0.42109322  0.24215895  0.66561714  1
  Fe  Fe80  1  0.78304156  0.66387884  0.64945714  1
  Fe  Fe81  1  0.19226171  0.51977155  0.74669367  1
  Fe  Fe82  1  0.54654697  0.66233508  0.07692163  1
  Fe  Fe83  1  0.94134875  0.39170178  0.35040492  1
  Fe  Fe84  1  0.16697727  0.08291579  0.31023744  1
  Fe  Fe85  1  0.12295573  0.18968521  0.91868544  1
  Fe  Fe86  1  0.31182239  0.78926305  0.35446673  1
  Fe  Fe87  1  0.70855844  0.73390809  0.76331171  1
  Fe  Fe88  1  0.31594279  0.45667935  0.80272044  1
  Fe  Fe89  1  0.88664635  0.33050596  0.63507246  1
  Fe  Fe90  1  0.46950549  0.37864001  0.38332484  1
  Fe  Fe91  1  0.19138076  0.22763854  0.28322885  1
  Fe  Fe92  1  0.90509562  0.83030183  0.05782834  1
  Fe  Fe93  1  0.35064278  0.87930110  0.90327175  1
  Fe  Fe94  1  0.40971903  0.72330167  0.63617765  1
  Fe  Fe95  1  0.30831148  0.11273345  0.24338239  1
  Fe  Fe96  1  0.62945639  0.56135296  0.10492494  1
  Fe  Fe97  1  0.95331500  0.31934941  0.76387783  1
  Fe  Fe98  1  0.63159339  0.69418485  0.64409901  1
  Fe  Fe99  1  0.57279288  0.30879361  0.41753327  1
  Fe  Fe100  1  0.48932887  0.25822174  0.77690508  1
  Fe  Fe101  1  0.29392114  0.57658290  0.02617211  1
  Bi  Bi102  1  0.70912823  0.69476407  0.49532076  1
  Bi  Bi103  1  0.51379915  0.41094880  0.84876685  1
  Bi  Bi104  1  0.13978818  0.25218386  0.09620244  1
  Bi  Bi105  1  -0.09931136  0.48795374  0.70359689  1
  Bi  Bi106  1  0.63623128  0.38805194  0.14048092  1
  Bi  Bi107  1  0.33049229  0.27743764  0.35345401  1
  Bi  Bi108  1  0.84588445  0.18378128  0.70468181  1
  Bi  Bi109  1  0.10049228  0.20835683  0.73934599  1
  Bi  Bi110  1  0.27773727  0.41134696  -0.02200466  1
  Bi  Bi111  1  0.35391198  0.55756978  0.65459778  1
  Bi  Bi112  1  0.27731375  0.73339218  -0.03310250  1
  Bi  Bi113  1  0.44145865  0.35577638  0.54367137  1
  Bi  Bi114  1  -0.06314561  0.28738080  0.48103800  1
  Bi  Bi115  1  0.90632494  0.38005910  0.19021360  1
  Bi  Bi116  1  0.07802972  0.59257703  0.85339033  1
  Bi  Bi117  1  0.29430600  0.12628525  0.63663377  1
  Bi  Bi118  1  0.11068117  0.38413083  0.34468310  1
  Bi  Bi119  1  0.10253024  0.86615723  0.60080220  1
  Bi  Bi120  1  0.57968512  0.15974975  0.66075795  1
  Bi  Bi121  1  0.57653572  0.81259900  0.26604346  1
  Bi  Bi122  1  0.92659639  0.65566862  0.09058163  1
  Bi  Bi123  1  0.61378246  0.13753833  0.36773668  1
  Bi  Bi124  1  0.60670948  0.10001473  0.13371964  1
  Bi  Bi125  1  0.63714996  0.04897198  0.89346445  1
  Bi  Bi126  1  0.88919530  0.31120841  0.91552224  1
  Bi  Bi127  1  0.87935079  0.01776459  0.40097778  1
