# generated using pymatgen
data_Ba51Fe51Bi26
_symmetry_space_group_name_H-M   'P 1'
_cell_length_a   16.63814131
_cell_length_b   16.57057217
_cell_length_c   15.74313046
_cell_angle_alpha   92.07760892
_cell_angle_beta   88.73168441
_cell_angle_gamma   88.03250642
_symmetry_Int_Tables_number   1
_chemical_formula_structural   Ba51Fe51Bi26
_chemical_formula_sum   'Ba51 Fe51 Bi26'
_cell_volume   4333.83826461
_cell_formula_units_Z   1
loop_
 _symmetry_equiv_pos_site_id
 _symmetry_equiv_pos_as_xyz
  1  'x, y, z'
loop_
 _atom_site_type_symbol
 _atom_site_label
 _atom_site_symmetry_multiplicity
 _atom_site_fract_x
 _atom_site_fract_y
 _atom_site_fract_z
 _atom_site_occupancy
  Ba  Ba0  1  0.49931710  0.49369475  0.54196013  1
  Ba  Ba1  1  0.50762811  0.75815003  0.05378593  1
  Ba  Ba2  1  0.73710631  0.48270117  0.22012509  1
  Ba  Ba3  1  -0.13440904  0.28776136  0.70570085  1
  Ba  Ba4  1  0.20403615  0.00522869  0.27420401  1
  Ba  Ba5  1  0.08749571  0.27512714  0.26505975  1
  Ba  Ba6  1  0.49940959  0.15529486  0.07770073  1
  Ba  Ba7  1  0.53369922  -0.01102473  0.25902753  1
  Ba  Ba8  1  0.57905026  0.24501137  0.30976456  1
  Ba  Ba9  1  -0.09700783  0.44698396  -0.05485507  1
  Ba  Ba10  1  -0.17752489  -0.06700324  0.53525650  1
  Ba  Ba11  1  0.79158279  0.70712042  0.28679668  1
  Ba  Ba12  1  0.12846570  0.05663642  0.63328081  1
  Ba  Ba13  1  0.01530911  0.23272889  -0.02191283  1
  Ba  Ba14  1  0.43834886  0.21405553  0.68349810  1
  Ba  Ba15  1  0.21873916  0.26932134  0.78317980  1
  Ba  Ba16  1  0.37858643  0.46801484  0.79773828  1
  Ba  Ba17  1  0.01305207  0.54655725  0.19365068  1
  Ba  Ba18  1  0.17576205  0.04161737  -0.11499405  1
  Ba  Ba19  1  0.48895862  0.04958340  0.85673977  1
  Ba  Ba20  1  -0.03857766  0.79489152  0.12799063  1
  Ba  Ba21  1  0.80364819  0.52167020  0.53069139  1
  Ba  Ba22  1  0.53368530  0.52202501  0.05347256  1
  Ba  Ba23  1  0.61472386  0.72559079  0.55652752  1
  Ba  Ba24  1  0.91593021  0.01908220  -0.01758681  1
  Ba  Ba25  1  0.02791957  0.33248934  0.52353803  1
  Ba  Ba26  1  0.28347681  0.45079684  0.05230654  1
  Ba  Ba27  1  0.58387137  0.01034224  0.58080659  1
  Ba  Ba28  1  0.20196562  0.74888091  0.06374340  1
  Ba  Ba29  1  0.77897009  -0.04522316  0.26107278  1
  Ba  Ba30  1  0.26576103  0.19962935  0.07431622  1
  Ba  Ba31  1  0.65586757  -0.08856961  -0.00730092  1
  Ba  Ba32  1  0.36023348  0.35288052  0.28143914  1
  Ba  Ba33  1  0.65044048  0.27469871  0.58222689  1
  Ba  Ba34  1  0.72112684  0.30664673  0.05729080  1
  Ba  Ba35  1  0.38596507  0.85889473  0.64152386  1
  Ba  Ba36  1  -0.00512282  0.66268810  -0.10982724  1
  Ba  Ba37  1  0.26160458  0.19529492  0.48462428  1
  Ba  Ba38  1  0.22954584  0.70786994  0.72129295  1
  Ba  Ba39  1  0.33775903  0.86079129  0.89507052  1
  Ba  Ba40  1  0.53725837  0.68920471  0.30766391  1
  Ba  Ba41  1  0.28524235  0.57294437  0.35855388  1
  Ba  Ba42  1  -0.01420815  0.03816626  0.24409851  1
  Ba  Ba43  1  0.07407795  0.61321841  0.48735127  1
  Ba  Ba44  1  0.09589446  0.48695701  0.73492363  1
  Ba  Ba45  1  0.60704632  0.29996440  0.85976368  1
  Ba  Ba46  1  0.76543787  -0.00366605  0.78953633  1
  Ba  Ba47  1  0.32051057  0.80818175  0.30515533  1
  Ba  Ba48  1  0.79949882  0.73700292  0.72619347  1
  Ba  Ba49  1  0.81437872  0.21843946  0.26241956  1
  Ba  Ba50  1  0.52276320  0.67330473  0.79524168  1
  Fe  Fe51  1  0.99906102  0.90604769  0.63870619  1
  Fe  Fe52  1  0.94106488  0.87997836  0.38459431  1
  Fe  Fe53  1  0.13079779  0.79591490  0.42970683  1
  Fe  Fe54  1  0.72735513  0.53511476  -0.01030850  1
  Fe  Fe55  1  0.82387233  0.24109406  0.47547558  1
  Fe  Fe56  1  0.95646938  -0.14332903  0.78600340  1
  Fe  Fe57  1  0.36292492  1.01875907  0.40265297  1
  Fe  Fe58  1  0.68605987  0.64195716  0.09896818  1
  Fe  Fe59  1  0.35815747  0.63697466  0.96614834  1
  Fe  Fe60  1  0.81107642  0.66460889  0.96277685  1
  Fe  Fe61  1  0.72933833  0.44950334  0.84298763  1
  Fe  Fe62  1  -0.06061459  0.20861475  0.40498334  1
  Fe  Fe63  1  0.62580392  0.53684364  0.87266022  1
  Fe  Fe64  1  0.33941450  0.36516428  0.61615835  1
  Fe  Fe65  1  0.31905329  0.39850129  0.48479120  1
  Fe  Fe66  1  -0.05625509  0.16172932  0.53926396  1
  Fe  Fe67  1  0.35282136  1.02390349  1.00673654  1
  Fe  Fe68  1  0.68670476  0.11483778  0.94914145  1
  Fe  Fe69  1  0.99844073  0.81145303  0.51208119  1
  Fe  Fe70  1  0.10106138  0.87078907  0.73663540  1
  Fe  Fe71  1  0.71941286  0.43113619  0.69979432  1
  Fe  Fe72  1  0.37819390  0.03173967  0.54198428  1
  Fe  Fe73  1  0.81367329  0.13298556  0.55948235  1
  Fe  Fe74  1  0.53900317  0.35908938  0.15627981  1
  Fe  Fe75  1  0.98703289  0.75252946  0.37032931  1
  Fe  Fe76  1  0.67187292  0.66844412  0.95431396  1
  Fe  Fe77  1  0.36284756  0.02384114  0.14773408  1
  Fe  Fe78  1  0.75323791  0.74987001  0.06739322  1
  Fe  Fe79  1  0.23521547  -0.01547953  0.07290888  1
  Fe  Fe80  1  0.45718510  0.34205253  0.05936255  1
  Fe  Fe81  1  0.05616713  0.92978578  0.47186106  1
  Fe  Fe82  1  0.75966730  0.58882060  0.84616800  1
  Fe  Fe83  1  0.23910034  0.76395654  0.51157214  1
  Fe  Fe84  1  0.09710596  0.95250751  0.06925410  1
  Fe  Fe85  1  0.21000967  0.36784760  0.59579287  1
  Fe  Fe86  1  1.12938587  0.83952453  0.58401491  1
  Fe  Fe87  1  0.64531410  0.52030656  0.40495792  1
  Fe  Fe88  1  0.34965019  0.89769752  0.10186275  1
  Fe  Fe89  1  0.59691204  0.45806947  0.75033607  1
  Fe  Fe90  1  0.01107089  -0.02563909  0.78509655  1
  Fe  Fe91  1  0.12551815  0.40801317  0.93413087  1
  Fe  Fe92  1  0.44483000  0.11639082  0.44571149  1
  Fe  Fe93  1  0.87617909  0.09372418  0.42197380  1
  Fe  Fe94  1  0.68772961  0.56153795  0.72403925  1
  Fe  Fe95  1  0.09078456  0.51838594  0.00183593  1
  Fe  Fe96  1  0.45825818  -0.04711931  1.04686092  1
  Fe  Fe97  1  0.06134538  0.86660602  0.32548233  1
  Fe  Fe98  1  0.81614265  0.61021143  0.08682165  1
  Fe  Fe99  1  1.11620707  0.07473562  0.09308714  1
  Fe  Fe100  1  0.08127330  0.39531640  0.06645063  1
  Fe  Fe101  1  0.19164182  0.41669551  0.46735706  1
  Bi  Bi102  1  0.07187232  0.11516502  0.42830178  1
  Bi  Bi103  1  0.84368859  0.82614597  -0.06898140  1
  Bi  Bi104  1  0.02093997  0.72896767  0.67654211  1
  Bi  Bi105  1  -0.07705344  0.07209977  0.67910731  1
  Bi  Bi106  1  0.52668234  0.47684807  0.29440597  1
  Bi  Bi107  1  0.46833637  -0.10064614  0.44332419  1
  Bi  Bi108  1  0.26339144  0.52612134  0.59685201  1
  Bi  Bi109  1  -0.13676899  0.71987218  0.49142065  1
  Bi  Bi110  1  0.08572605  -0.14159347  -0.08547175  1
  Bi  Bi111  1  0.45184570  0.29203948  0.48513718  1
  Bi  Bi112  1  0.23972384  0.93091967  0.48384497  1
  Bi  Bi113  1  0.87100146  0.51078525  0.73575849  1
  Bi  Bi114  1  0.81667962  0.19541434  -0.10635521  1
  Bi  Bi115  1  0.12395453  0.70962269  0.26995803  1
  Bi  Bi116  1  0.65786055  0.85279565  0.39501885  1
  Bi  Bi117  1  0.21366686  0.58510532  0.89892936  1
  Bi  Bi118  1  0.70668212  0.10610795  0.42596666  1
  Bi  Bi119  1  0.37258915  0.14076491  0.27803159  1
  Bi  Bi120  1  0.92812603  0.35929749  0.14600314  1
  Bi  Bi121  1  0.69959152  0.09357706  0.11983295  1
  Bi  Bi122  1  0.39613765  0.27720880  0.90736168  1
  Bi  Bi123  1  0.32334194  1.05302663  0.71688533  1
  Bi  Bi124  1  0.72388683  0.37172892  0.40796794  1
  Bi  Bi125  1  0.58640501  0.86952017  0.76582812  1
  Bi  Bi126  1  0.36503146  0.63310707  0.14348375  1
  Bi  Bi127  1  0.39778427  0.69130485  0.49660499  1
