# generated using pymatgen
data_Ba51Fe51Bi26
_symmetry_space_group_name_H-M   'P 1'
_cell_length_a   16.47521948
_cell_length_b   16.00024051
_cell_length_c   16.69011289
_cell_angle_alpha   90.79044895
_cell_angle_beta   89.66103173
_cell_angle_gamma   89.02859416
_symmetry_Int_Tables_number   1
_chemical_formula_structural   Ba51Fe51Bi26
_chemical_formula_sum   'Ba51 Fe51 Bi26'
_cell_volume   4398.50434763
_cell_formula_units_Z   1
loop_
 _symmetry_equiv_pos_site_id
 _symmetry_equiv_pos_as_xyz
  1  'x, y, z'
loop_
 _atom_site_type_symbol
 _atom_site_label
 _atom_site_symmetry_multiplicity
 _atom_site_fract_x
 _atom_site_fract_y
 _atom_site_fract_z
 _atom_site_occupancy
  Ba  Ba0  1  0.48175900  0.29009247  -0.05723703  1
  Ba  Ba1  1  -0.06777715  0.57590933  0.32504606  1
  Ba  Ba2  1  0.04751727  0.46396920  0.52223856  1
  Ba  Ba3  1  0.19036849  0.67513274  0.02354076  1
  Ba  Ba4  1  0.19109098  -0.03322113  0.79153404  1
  Ba  Ba5  1  0.60481029  0.19633705  0.66147091  1
  Ba  Ba6  1  0.78364472  0.36166943  0.24616405  1
  Ba  Ba7  1  0.47929304  0.23758485  0.43765037  1
  Ba  Ba8  1  -0.02309168  0.02494931  0.67149867  1
  Ba  Ba9  1  0.72250556  0.01688711  0.76270700  1
  Ba  Ba10  1  0.22561484  0.47458758  0.31587669  1
  Ba  Ba11  1  -0.04160996  0.69132930  0.08864564  1
  Ba  Ba12  1  0.71918021  0.25843738  0.45537135  1
  Ba  Ba13  1  0.34097550  0.59446097  0.77006991  1
  Ba  Ba14  1  0.77046685  0.77830544  0.27444550  1
  Ba  Ba15  1  0.55436996  -0.06359249  0.40228063  1
  Ba  Ba16  1  0.59302727  0.58481494  0.75683644  1
  Ba  Ba17  1  0.00972918  0.81619077  0.30868028  1
  Ba  Ba18  1  -0.08732080  0.21119757  0.81691432  1
  Ba  Ba19  1  0.37105667  0.01882193  -0.03076944  1
  Ba  Ba20  1  0.29895474  0.58608655  0.51190402  1
  Ba  Ba21  1  0.51588030  0.45028459  0.25933611  1
  Ba  Ba22  1  0.70210283  0.75215342  0.02409587  1
  Ba  Ba23  1  0.17181909  0.06179923  0.09307647  1
  Ba  Ba24  1  -0.02669325  -0.11678979  -0.05298934  1
  Ba  Ba25  1  0.46436512  0.02542254  0.75610613  1
  Ba  Ba26  1  0.22015665  0.21727232  0.42278883  1
  Ba  Ba27  1  0.05888512  0.30686850  0.02527770  1
  Ba  Ba28  1  0.26065749  0.80815414  0.33462085  1
  Ba  Ba29  1  -0.03156362  0.23335783  0.45981994  1
  Ba  Ba30  1  0.79221696  0.01261040  0.46827846  1
  Ba  Ba31  1  0.03614822  0.41589446  0.77260365  1
  Ba  Ba32  1  0.67525369  0.00176550  -0.00839006  1
  Ba  Ba33  1  0.49612886  0.58069189  0.02377620  1
  Ba  Ba34  1  0.18929529  0.20329609  0.65886626  1
  Ba  Ba35  1  0.90233869  0.12250985  0.10101283  1
  Ba  Ba36  1  0.82172345  0.71410507  0.77343099  1
  Ba  Ba37  1  0.77045400  0.49240301  0.50155983  1
  Ba  Ba38  1  0.32622574  0.23155691  0.19329362  1
  Ba  Ba39  1  0.40446857  0.35598117  0.66093828  1
  Ba  Ba40  1  0.54208391  0.74202509  0.21996536  1
  Ba  Ba41  1  0.52687970  0.58800094  0.47627263  1
  Ba  Ba42  1  -0.06619901  0.71728477  0.54940997  1
  Ba  Ba43  1  0.36205966  0.01151624  0.51866619  1
  Ba  Ba44  1  0.05316880  0.04796974  0.30249143  1
  Ba  Ba45  1  0.17690018  0.80126061  0.58147116  1
  Ba  Ba46  1  0.73981345  0.37448435  0.75658709  1
  Ba  Ba47  1  0.80382203  0.49376128  -0.01649607  1
  Ba  Ba48  1  0.69504304  0.02848204  0.20703817  1
  Ba  Ba49  1  0.24532505  0.45216118  -0.05777596  1
  Ba  Ba50  1  0.33547156  0.82628347  0.11367836  1
  Fe  Fe51  1  0.15470123  0.70784891  0.75432760  1
  Fe  Fe52  1  0.69819868  0.31507693  0.94380629  1
  Fe  Fe53  1  0.79427384  0.58115322  0.16986040  1
  Fe  Fe54  1  0.88406436  0.35185774  0.62496397  1
  Fe  Fe55  1  0.67255973  0.55748585  0.14314512  1
  Fe  Fe56  1  0.67632007  0.20006351  0.87373749  1
  Fe  Fe57  1  0.49883416  0.06671295  0.25588770  1
  Fe  Fe58  1  0.10105923  0.08832526  0.50895753  1
  Fe  Fe59  1  0.46506046  0.73923423  0.79606018  1
  Fe  Fe60  1  0.31023571  0.57769348  0.15505168  1
  Fe  Fe61  1  0.29652855  0.17385900  0.82236397  1
  Fe  Fe62  1  0.55267792  0.75747044  0.90533708  1
  Fe  Fe63  1  0.50404359  0.85579119  0.01385162  1
  Fe  Fe64  1  0.39025079  0.02983413  0.17149562  1
  Fe  Fe65  1  0.61118791  0.15311271  0.31702212  1
  Fe  Fe66  1  0.50999914  0.21192732  0.23926046  1
  Fe  Fe67  1  0.75091895  0.68466516  0.44077596  1
  Fe  Fe68  1  0.42610448  0.93331023  0.25666523  1
  Fe  Fe69  1  0.39397422  0.83048396  0.70888905  1
  Fe  Fe70  1  0.18350229  0.29134983  0.83294911  1
  Fe  Fe71  1  0.60981116  0.28390283  0.29697774  1
  Fe  Fe72  1  0.21866147  0.48183244  0.12821135  1
  Fe  Fe73  1  0.49792780  0.88895276  0.61860197  1
  Fe  Fe74  1  0.64647375  0.20416474  0.02255603  1
  Fe  Fe75  1  0.23059553  0.40120486  0.74122251  1
  Fe  Fe76  1  0.71945915  0.81543194  0.49665130  1
  Fe  Fe77  1  0.11599488  0.75955545  0.86709686  1
  Fe  Fe78  1  0.57216653  0.00615755  0.58555352  1
  Fe  Fe79  1  0.63401914  0.73479328  0.41136462  1
  Fe  Fe80  1  1.01122896  0.67479028  0.86776595  1
  Fe  Fe81  1  0.22040774  0.40431058  0.61197233  1
  Fe  Fe82  1  0.82873708  0.29404679  0.96682257  1
  Fe  Fe83  1  0.77412538  0.16947668  0.95564613  1
  Fe  Fe84  1  0.50682088  0.94955329  0.13809005  1
  Fe  Fe85  1  0.49807494  0.73727179  0.64934375  1
  Fe  Fe86  1  0.01368157  0.38637068  0.28211205  1
  Fe  Fe87  1  0.17144232  0.00490150  0.58003443  1
  Fe  Fe88  1  1.10095046  0.41099747  0.18770647  1
  Fe  Fe89  1  0.13130180  0.59904852  0.83929746  1
  Fe  Fe90  1  0.09124278  0.52580305  0.11808179  1
  Fe  Fe91  1  0.57117456  0.78799669  0.53034671  1
  Fe  Fe92  1  0.18034707  0.99032315  0.44439959  1
  Fe  Fe93  1  1.02687255  0.64066650  0.73520862  1
  Fe  Fe94  1  0.42413964  0.75169892  0.94656545  1
  Fe  Fe95  1  0.75435681  0.26600074  0.07678858  1
  Fe  Fe96  1  0.31458143  0.30937085  0.82143686  1
  Fe  Fe97  1  0.64704351  -0.10406634  0.60208849  1
  Fe  Fe98  1  0.63841210  0.22714486  0.16987597  1
  Fe  Fe99  1  0.17053603  0.16081156  0.86873703  1
  Fe  Fe100  1  0.55269504  0.89774829  0.89615341  1
  Fe  Fe101  1  0.43034032  0.86314503  0.86110412  1
  Bi  Bi102  1  0.28756389  0.03202510  0.30768159  1
  Bi  Bi103  1  0.27123768  0.23019870  -0.01749517  1
  Bi  Bi104  1  0.02106587  -0.06361328  0.48423670  1
  Bi  Bi105  1  0.11076154  0.24694792  0.24082492  1
  Bi  Bi106  1  0.28410522  0.78634444  0.85837094  1
  Bi  Bi107  1  0.02105321  0.81936712  0.74132168  1
  Bi  Bi108  1  0.51335645  0.12434599  0.08958154  1
  Bi  Bi109  1  0.60622272  0.82418414  0.75910005  1
  Bi  Bi110  1  0.39539253  0.78992109  0.52116515  1
  Bi  Bi111  1  0.03165739  0.52678710  -0.04276241  1
  Bi  Bi112  1  0.69214230  0.57778353  0.31385197  1
  Bi  Bi113  1  0.63208777  0.39220938  0.08122745  1
  Bi  Bi114  1  0.68542955  0.67643223  0.59227830  1
  Bi  Bi115  1  0.59616152  0.40176957  0.58679305  1
  Bi  Bi116  1  0.81216469  0.87815413  0.62770370  1
  Bi  Bi117  1  0.16373136  0.55664035  0.67007893  1
  Bi  Bi118  1  0.84619297  0.89468289  0.11631664  1
  Bi  Bi119  1  0.84778662  0.14679407  0.31071176  1
  Bi  Bi120  1  0.82044196  0.18872691  0.62862734  1
  Bi  Bi121  1  0.11686966  0.85632541  0.13696035  1
  Bi  Bi122  1  0.38358609  0.62656172  0.29682085  1
  Bi  Bi123  1  0.03911071  0.08295277  -0.07516345  1
  Bi  Bi124  1  0.88849294  0.52147438  0.67128493  1
  Bi  Bi125  1  0.11353032  0.65102588  0.41916484  1
  Bi  Bi126  1  0.37631010  0.42402376  0.10698937  1
  Bi  Bi127  1  0.93663079  0.46475470  0.14842744  1
