# generated using pymatgen
data_Ba51Fe51Bi26
_symmetry_space_group_name_H-M   'P 1'
_cell_length_a   16.53456679
_cell_length_b   16.34349265
_cell_length_c   16.30352155
_cell_angle_alpha   89.42646405
_cell_angle_beta   88.00685655
_cell_angle_gamma   90.62723224
_symmetry_Int_Tables_number   1
_chemical_formula_structural   Ba51Fe51Bi26
_chemical_formula_sum   'Ba51 Fe51 Bi26'
_cell_volume   4402.57521580
_cell_formula_units_Z   1
loop_
 _symmetry_equiv_pos_site_id
 _symmetry_equiv_pos_as_xyz
  1  'x, y, z'
loop_
 _atom_site_type_symbol
 _atom_site_label
 _atom_site_symmetry_multiplicity
 _atom_site_fract_x
 _atom_site_fract_y
 _atom_site_fract_z
 _atom_site_occupancy
  Ba  Ba0  1  0.33628031  0.79192842  0.39556854  1
  Ba  Ba1  1  0.60027140  0.23781365  0.03995151  1
  Ba  Ba2  1  0.48880776  0.74198282  0.70840268  1
  Ba  Ba3  1  0.91233073  0.44774727  0.75993194  1
  Ba  Ba4  1  0.03540566  0.24460148  0.54120916  1
  Ba  Ba5  1  0.81379610  0.23329453  0.58480042  1
  Ba  Ba6  1  0.32578024  0.05320793  0.35697664  1
  Ba  Ba7  1  0.52037900  0.26041449  0.46603664  1
  Ba  Ba8  1  -0.09802597  -0.15602748  0.15497797  1
  Ba  Ba9  1  0.54876169  0.73932710  0.48141124  1
  Ba  Ba10  1  0.10066260  0.70951366  0.21005221  1
  Ba  Ba11  1  0.66101938  -0.11690649  0.09796993  1
  Ba  Ba12  1  0.22114054  0.75126161  -0.00633640  1
  Ba  Ba13  1  0.73991691  0.46724549  0.15632534  1
  Ba  Ba14  1  0.20081362  -0.00437986  0.87262519  1
  Ba  Ba15  1  0.07234746  0.33429528  -0.04452800  1
  Ba  Ba16  1  0.68158312  0.68557313  0.25495189  1
  Ba  Ba17  1  -0.05146663  0.14042543  0.33086907  1
  Ba  Ba18  1  -0.00828295  0.42494151  0.20395900  1
  Ba  Ba19  1  -0.10994405  -0.00752576  0.55617626  1
  Ba  Ba20  1  0.10712179  -0.05137766  0.31617792  1
  Ba  Ba21  1  0.74812891  0.48052314  0.50258055  1
  Ba  Ba22  1  0.31970118  0.44064040  -0.08812838  1
  Ba  Ba23  1  0.00380277  0.56179470  -0.03596416  1
  Ba  Ba24  1  0.46810357  0.01175406  0.15870280  1
  Ba  Ba25  1  -0.04497426  0.58943154  0.44036672  1
  Ba  Ba26  1  0.66988811  0.52020781  0.77004725  1
  Ba  Ba27  1  0.24157545  0.08122224  0.09641514  1
  Ba  Ba28  1  0.47407954  0.23386566  0.73221302  1
  Ba  Ba29  1  0.30723360  0.54846152  0.28639319  1
  Ba  Ba30  1  0.23710705  0.22105092  0.78444400  1
  Ba  Ba31  1  0.71552293  0.26768629  0.81197849  1
  Ba  Ba32  1  0.76227434  0.00748420  0.75492905  1
  Ba  Ba33  1  0.13408273  0.40442456  0.41701270  1
  Ba  Ba34  1  0.72768516  0.27274609  0.34657616  1
  Ba  Ba35  1  0.72942889  -0.09353156  0.40737084  1
  Ba  Ba36  1  -0.02405425  0.02946638  -0.04716476  1
  Ba  Ba37  1  0.48529852  0.49933477  0.57498039  1
  Ba  Ba38  1  0.51977723  -0.00220209  0.48443607  1
  Ba  Ba39  1  0.85230724  0.21770535  0.09692422  1
  Ba  Ba40  1  0.45683379  0.32073179  0.23912466  1
  Ba  Ba41  1  -0.07843704  0.75970697  0.76627266  1
  Ba  Ba42  1  0.21885690  0.56706334  0.56840653  1
  Ba  Ba43  1  0.23586289  0.32971456  0.15517365  1
  Ba  Ba44  1  0.28301217  0.61305247  0.78469548  1
  Ba  Ba45  1  0.48690284  -0.01566681  0.75221229  1
  Ba  Ba46  1  0.46366148  0.70018229  0.09263501  1
  Ba  Ba47  1  0.28851828  0.23639389  0.53517473  1
  Ba  Ba48  1  0.13765557  0.03113637  0.56600494  1
  Ba  Ba49  1  0.69450013  0.74681593  0.82644039  1
  Ba  Ba50  1  0.05830752  0.79047647  0.56554440  1
  Fe  Fe51  1  0.10398832  0.25722138  0.30092319  1
  Fe  Fe52  1  0.15866583  0.14036357  0.26906434  1
  Fe  Fe53  1  0.16377265  0.74666081  0.72226593  1
  Fe  Fe54  1  0.29543011  -0.06412120  0.52302071  1
  Fe  Fe55  1  0.15847164  0.88794806  0.70894928  1
  Fe  Fe56  1  0.75973078  0.53317801  0.96521815  1
  Fe  Fe57  1  0.64821145  0.95853911  0.91103336  1
  Fe  Fe58  1  0.25628459  0.81962728  0.61771296  1
  Fe  Fe59  1  0.59594812  0.55236218  0.40244807  1
  Fe  Fe60  1  0.83784731  0.62354935  0.06161501  1
  Fe  Fe61  1  0.47517153  0.46094160  0.38457653  1
  Fe  Fe62  1  0.43022959  0.26666075  0.92571207  1
  Fe  Fe63  1  0.23976901  0.24464244  0.34124421  1
  Fe  Fe64  1  0.10165831  0.70568470  0.84283156  1
  Fe  Fe65  1  0.83721056  0.73938968  -0.01032543  1
  Fe  Fe66  1  0.03316081  0.19456036  0.83641552  1
  Fe  Fe67  1  0.84312865  0.68005027  0.59669111  1
  Fe  Fe68  1  0.60531898  0.53593681  -0.03059575  1
  Fe  Fe69  1  0.83561428  0.63285045  0.90836820  1
  Fe  Fe70  1  0.71297103  0.70543855  0.61911271  1
  Fe  Fe71  1  1.06623739  0.43316444  0.63324323  1
  Fe  Fe72  1  0.88298768  0.78629476  0.48517260  1
  Fe  Fe73  1  0.68183019  0.04470799  0.58502213  1
  Fe  Fe74  1  0.54483429  0.43697403  0.05278903  1
  Fe  Fe75  1  0.69271551  0.12041113  0.47770070  1
  Fe  Fe76  1  -0.00336871  0.78000030  0.37544941  1
  Fe  Fe77  1  0.09319266  0.83799636  0.82794133  1
  Fe  Fe78  1  0.28212346  0.96421818  0.67696054  1
  Fe  Fe79  1  0.87252323  0.75393453  0.33829388  1
  Fe  Fe80  1  0.80656356  0.81039055  0.60578938  1
  Fe  Fe81  1  0.93457319  0.24951361  0.73728811  1
  Fe  Fe82  1  0.92511779  0.11629663  0.76025543  1
  Fe  Fe83  1  0.15152062  0.43204101  0.74967103  1
  Fe  Fe84  1  0.60141232  0.42826553  0.35282467  1
  Fe  Fe85  1  0.30970160  0.25333506  0.98330156  1
  Fe  Fe86  1  0.47775626  0.59565307  0.36523186  1
  Fe  Fe87  1  -0.07314899  0.88859023  0.38220592  1
  Fe  Fe88  1  0.67616635  0.41635413  0.97243493  1
  Fe  Fe89  1  0.05052209  0.14797184  0.71243131  1
  Fe  Fe90  1  0.61837848  0.05055768  0.01083429  1
  Fe  Fe91  1  0.17184800  0.35971324  0.63163316  1
  Fe  Fe92  1  0.50799015  0.99663391  -0.04006395  1
  Fe  Fe93  1  0.38544379  0.88757191  0.60300549  1
  Fe  Fe94  1  0.35485684  0.04003682  0.58399784  1
  Fe  Fe95  1  0.43159170  0.34277028  0.03940083  1
  Fe  Fe96  1  1.06737567  0.30508208  0.72959481  1
  Fe  Fe97  1  0.59647069  0.09727350  0.88507888  1
  Fe  Fe98  1  0.40063547  0.20550531  0.06529970  1
  Fe  Fe99  1  0.15493296  0.15719857  0.40431036  1
  Fe  Fe100  1  0.62880620  0.16523436  0.60163852  1
  Fe  Fe101  1  0.90145599  0.21860145  -0.12830291  1
  Bi  Bi102  1  0.30870244  0.83105433  0.77996203  1
  Bi  Bi103  1  0.53773793  0.38601337  -0.11638557  1
  Bi  Bi104  1  0.84443850  0.37965062  -0.04189231  1
  Bi  Bi105  1  0.75161606  0.68569554  0.45218641  1
  Bi  Bi106  1  0.52835281  0.83669616  -0.08183051  1
  Bi  Bi107  1  0.68239053  0.67102238  0.03752032  1
  Bi  Bi108  1  0.39224590  0.10897323  -0.08880284  1
  Bi  Bi109  1  0.00949983  -0.03276521  0.73919763  1
  Bi  Bi110  1  0.76210144  0.10821396  -0.05406182  1
  Bi  Bi111  1  0.00466812  0.77723814  -0.03443171  1
  Bi  Bi112  1  0.54228589  0.52311131  0.22609668  1
  Bi  Bi113  1  0.06967197  0.59183914  0.72244418  1
  Bi  Bi114  1  -0.10201030  0.62567632  0.22271328  1
  Bi  Bi115  1  0.80788932  0.89395480  0.93629502  1
  Bi  Bi116  1  0.63127450  0.34271333  0.62282701  1
  Bi  Bi117  1  0.48840714  0.60767616  0.87386075  1
  Bi  Bi118  1  0.53473236  0.86128450  0.30034315  1
  Bi  Bi119  1  0.16676666  0.52648945  0.09499525  1
  Bi  Bi120  1  0.64976167  0.87488659  0.62322687  1
  Bi  Bi121  1  0.36843540  0.90932978  1.00535849  1
  Bi  Bi122  1  0.28050256  0.87380493  0.20570222  1
  Bi  Bi123  1  0.10417430  0.91253522  0.09628319  1
  Bi  Bi124  1  0.38847430  0.48996108  0.10219563  1
  Bi  Bi125  1  1.05585285  0.20568473  0.14261489  1
  Bi  Bi126  1  0.32157238  0.40715148  0.68947847  1
  Bi  Bi127  1  0.91348345  0.35930213  0.40408044  1
