# generated using pymatgen
data_Ba51Fe51Bi26
_symmetry_space_group_name_H-M   'P 1'
_cell_length_a   16.32036125
_cell_length_b   16.75417924
_cell_length_c   16.07614006
_cell_angle_alpha   89.31386871
_cell_angle_beta   92.40842993
_cell_angle_gamma   89.79152547
_symmetry_Int_Tables_number   1
_chemical_formula_structural   Ba51Fe51Bi26
_chemical_formula_sum   'Ba51 Fe51 Bi26'
_cell_volume   4391.53180980
_cell_formula_units_Z   1
loop_
 _symmetry_equiv_pos_site_id
 _symmetry_equiv_pos_as_xyz
  1  'x, y, z'
loop_
 _atom_site_type_symbol
 _atom_site_label
 _atom_site_symmetry_multiplicity
 _atom_site_fract_x
 _atom_site_fract_y
 _atom_site_fract_z
 _atom_site_occupancy
  Ba  Ba0  1  0.56837950  0.24847379  0.48715756  1
  Ba  Ba1  1  0.28716207  0.27710642  0.44338533  1
  Ba  Ba2  1  0.68864830  0.24723236  0.22464001  1
  Ba  Ba3  1  0.62821940  0.86076315  0.00145980  1
  Ba  Ba4  1  0.61225180  0.75138414  0.50140000  1
  Ba  Ba5  1  -0.01118711  0.71730729  0.25538037  1
  Ba  Ba6  1  0.53431329  0.29106147  0.79245459  1
  Ba  Ba7  1  0.29331793  -0.06856694  0.25373984  1
  Ba  Ba8  1  -0.10498404  0.08501546  0.72596902  1
  Ba  Ba9  1  -0.11800326  0.47570817  0.31872440  1
  Ba  Ba10  1  -0.15913864  -0.14038908  0.11638468  1
  Ba  Ba11  1  0.70325005  0.82883663  0.74815914  1
  Ba  Ba12  1  0.07229475  0.19801233  0.19169098  1
  Ba  Ba13  1  0.65930752  0.90603564  0.28217947  1
  Ba  Ba14  1  0.44415801  0.25151785  0.07858726  1
  Ba  Ba15  1  0.79690176  -0.04213246  0.52766258  1
  Ba  Ba16  1  0.48037235  0.69457161  0.70544635  1
  Ba  Ba17  1  -0.04212452  0.76325576  -0.08046726  1
  Ba  Ba18  1  0.13544341  0.48181287  0.49742160  1
  Ba  Ba19  1  -0.01258141  0.56312372  0.07473496  1
  Ba  Ba20  1  0.38567007  0.00768669  -0.06122737  1
  Ba  Ba21  1  -0.11387455  0.33596002  0.06575128  1
  Ba  Ba22  1  0.22646838  0.66658092  0.16264935  1
  Ba  Ba23  1  0.45889092  0.69566621  0.02341998  1
  Ba  Ba24  1  0.32288788  0.55700394  -0.11977822  1
  Ba  Ba25  1  0.14258397  0.42360910  0.21390213  1
  Ba  Ba26  1  0.76814881  0.60642430  -0.06753803  1
  Ba  Ba27  1  0.14067942  0.06313967  0.36272354  1
  Ba  Ba28  1  0.21488632  -0.13694231  0.01061809  1
  Ba  Ba29  1  0.29801066  0.72415455  0.41498578  1
  Ba  Ba30  1  0.03430180  0.32421140  0.76626761  1
  Ba  Ba31  1  0.48510872  0.07782126  0.25661545  1
  Ba  Ba32  1  -0.13717850  0.07056667  0.27538750  1
  Ba  Ba33  1  0.61386087  0.47643951  0.57303356  1
  Ba  Ba34  1  0.88947050  0.23770226  0.48743307  1
  Ba  Ba35  1  0.77535205  0.34047483  0.82583000  1
  Ba  Ba36  1  0.03081527  0.01197571  -0.05835419  1
  Ba  Ba37  1  0.15133890  0.21177518  -0.05164982  1
  Ba  Ba38  1  0.04914818  0.60335138  0.75380304  1
  Ba  Ba39  1  0.88546615  0.72744159  0.52742978  1
  Ba  Ba40  1  0.34470431  0.07040199  0.55908120  1
  Ba  Ba41  1  0.56362516  0.47023611  -0.00434112  1
  Ba  Ba42  1  0.55689988  -0.00806164  0.53056265  1
  Ba  Ba43  1  0.32512545  0.17558297  0.78895045  1
  Ba  Ba44  1  0.35531313  0.48476908  0.33971057  1
  Ba  Ba45  1  0.58653136  0.47450316  0.30048102  1
  Ba  Ba46  1  0.26120490  0.38997398  0.69481576  1
  Ba  Ba47  1  0.06407457  0.85748342  0.45020141  1
  Ba  Ba48  1  0.24703203  0.71780698  0.67577367  1
  Ba  Ba49  1  0.85254894  0.48661713  0.59769997  1
  Ba  Ba50  1  0.67475018  0.08624204  0.89568009  1
  Fe  Fe51  1  0.80284857  0.66312584  0.15028151  1
  Fe  Fe52  1  0.19213920  0.18473702  0.64295426  1
  Fe  Fe53  1  0.12432726  0.11404209  0.75820604  1
  Fe  Fe54  1  0.10368383  0.49949098  0.91681618  1
  Fe  Fe55  1  0.29727095  0.21988686  0.23890155  1
  Fe  Fe56  1  0.08445896  0.86397047  0.81196610  1
  Fe  Fe57  1  0.08764819  0.97650868  0.72060728  1
  Fe  Fe58  1  0.63806499  0.69621352  0.30782484  1
  Fe  Fe59  1  0.23739503  0.03001548  0.71420162  1
  Fe  Fe60  1  0.34086682  0.54950834  0.59266109  1
  Fe  Fe61  1  0.60993269  0.58972700  0.80592584  1
  Fe  Fe62  1  0.66637426  0.63510619  0.09848562  1
  Fe  Fe63  1  0.19303796  0.50747309  0.02744536  1
  Fe  Fe64  1  0.19126366  -0.00561316  0.84074645  1
  Fe  Fe65  1  0.67900322  0.74405063  0.17424321  1
  Fe  Fe66  1  0.40444799  0.44813212  0.55158071  1
  Fe  Fe67  1  0.35988525  0.93250782  0.72807363  1
  Fe  Fe68  1  0.42782733  0.63087547  0.21074414  1
  Fe  Fe69  1  0.10729131  0.17575325  0.51053302  1
  Fe  Fe70  1  0.32243610  0.35097382  0.18861297  1
  Fe  Fe71  1  0.92698598  0.13251493  0.07968152  1
  Fe  Fe72  1  0.19701316  0.40446654  0.90411529  1
  Fe  Fe73  1  0.78478286  0.71914387  0.29158314  1
  Fe  Fe74  1  0.53353817  0.76341138  0.20499031  1
  Fe  Fe75  1  0.62441075  0.46711614  0.77620646  1
  Fe  Fe76  1  0.67630606  0.62620681  0.69093393  1
  Fe  Fe77  1  0.12965959  0.05753953  0.60275663  1
  Fe  Fe78  1  0.04044322  0.87295037  0.11092890  1
  Fe  Fe79  1  0.98380326  0.91954051  0.63038086  1
  Fe  Fe80  1  0.49969762  0.89777578  0.69299168  1
  Fe  Fe81  1  1.00444030  0.92964158  0.25124504  1
  Fe  Fe82  1  0.96761779  0.78980199  0.71152507  1
  Fe  Fe83  1  0.84640348  1.03927906  0.02814939  1
  Fe  Fe84  1  0.49156016  -0.10024363  0.82276844  1
  Fe  Fe85  1  0.79082436  0.16486220  0.04657748  1
  Fe  Fe86  1  1.10583404  0.28990492  0.57287712  1
  Fe  Fe87  1  0.11204506  0.99423136  0.15996492  1
  Fe  Fe88  1  0.25494807  0.38067868  1.04435329  1
  Fe  Fe89  1  0.56978533  0.63047993  0.19516243  1
  Fe  Fe90  1  0.08911319  0.83499707  0.67464252  1
  Fe  Fe91  1  0.49027036  0.68124672  0.32724829  1
  Fe  Fe92  1  0.09796519  0.39241616  0.00775882  1
  Fe  Fe93  1  0.39596346  0.75978261  0.22875186  1
  Fe  Fe94  1  0.72109295  0.60331984  0.24288426  1
  Fe  Fe95  1  0.22177074  -0.11173594  0.76467778  1
  Fe  Fe96  1  -0.02461933  0.00547726  0.12800680  1
  Fe  Fe97  1  0.94980734  0.90747133  0.76472155  1
  Fe  Fe98  1  1.04559118  0.17009514  0.63740215  1
  Fe  Fe99  1  0.74004739  0.52825487  0.75433162  1
  Fe  Fe100  1  0.11784309  0.86439095  0.22272210  1
  Fe  Fe101  1  0.23476903  0.26749223  0.12414761  1
  Bi  Bi102  1  -0.01782897  0.05082451  0.51200930  1
  Bi  Bi103  1  0.36226906  0.50298118  0.11170015  1
  Bi  Bi104  1  0.45801831  0.48382051  0.72377708  1
  Bi  Bi105  1  0.49721038  0.05768468  0.74201237  1
  Bi  Bi106  1  0.46059736  0.60165207  0.48624905  1
  Bi  Bi107  1  0.45412110  0.29020797  0.29626928  1
  Bi  Bi108  1  0.74363122  0.60172170  0.42021268  1
  Bi  Bi109  1  0.75948060  0.49367509  0.12583469  1
  Bi  Bi110  1  0.14854180  0.65732347  0.95264704  1
  Bi  Bi111  1  0.69728240  0.04042032  0.11600590  1
  Bi  Bi112  1  0.47130642  -0.14743982  0.35523671  1
  Bi  Bi113  1  0.21097919  -0.08685759  0.59231159  1
  Bi  Bi114  1  0.84301412  0.66849306  0.73218303  1
  Bi  Bi115  1  0.82805418  0.93391819  0.88929109  1
  Bi  Bi116  1  0.91109160  0.18940550  0.91689040  1
  Bi  Bi117  1  0.66161839  0.27638729  0.99756504  1
  Bi  Bi118  1  0.68288037  0.09853483  0.39529240  1
  Bi  Bi119  1  0.35674957  0.80492508  0.85294155  1
  Bi  Bi120  1  1.07303459  0.30271170  0.39181507  1
  Bi  Bi121  1  0.73394237  0.36844833  0.42794801  1
  Bi  Bi122  1  0.35561584  0.34529008  0.90445906  1
  Bi  Bi123  1  0.25025888  0.09508782  0.11727344  1
  Bi  Bi124  1  0.86918490  -0.13755754  0.34438207  1
  Bi  Bi125  1  0.44603450  0.88786491  0.11588827  1
  Bi  Bi126  1  0.40275861  0.84514232  0.56659794  1
  Bi  Bi127  1  0.94038884  0.46561049  0.89187925  1
