# generated using pymatgen
data_Ba51Fe51Bi26
_symmetry_space_group_name_H-M   'P 1'
_cell_length_a   16.36937510
_cell_length_b   16.82517030
_cell_length_c   16.11791926
_cell_angle_alpha   89.57373643
_cell_angle_beta   90.68992415
_cell_angle_gamma   90.25746040
_symmetry_Int_Tables_number   1
_chemical_formula_structural   Ba51Fe51Bi26
_chemical_formula_sum   'Ba51 Fe51 Bi26'
_cell_volume   4438.66968706
_cell_formula_units_Z   1
loop_
 _symmetry_equiv_pos_site_id
 _symmetry_equiv_pos_as_xyz
  1  'x, y, z'
loop_
 _atom_site_type_symbol
 _atom_site_label
 _atom_site_symmetry_multiplicity
 _atom_site_fract_x
 _atom_site_fract_y
 _atom_site_fract_z
 _atom_site_occupancy
  Ba  Ba0  1  0.25725867  0.32309912  -0.02855263  1
  Ba  Ba1  1  0.69320558  0.69768774  0.54932699  1
  Ba  Ba2  1  0.43353962  0.74315781  0.57980521  1
  Ba  Ba3  1  0.27246605  0.49978892  0.39672591  1
  Ba  Ba4  1  0.44460529  0.50815394  -0.04756211  1
  Ba  Ba5  1  0.52116917  0.50997788  0.49679118  1
  Ba  Ba6  1  0.72636615  0.17942903  0.47650307  1
  Ba  Ba7  1  0.00311788  0.79410601  0.26520844  1
  Ba  Ba8  1  0.26613503  -0.03322929  -0.05876676  1
  Ba  Ba9  1  0.67778094  0.56031869  0.05193971  1
  Ba  Ba10  1  0.53035819  -0.09160050  0.26144366  1
  Ba  Ba11  1  0.84913996  0.29774993  0.00122435  1
  Ba  Ba12  1  0.79087209  0.24448268  0.24703220  1
  Ba  Ba13  1  0.20166382  0.71714596  0.47897016  1
  Ba  Ba14  1  0.67969503  0.79270043  0.04879868  1
  Ba  Ba15  1  0.73808740  0.78297946  0.29558523  1
  Ba  Ba16  1  0.00946126  0.20328042  0.41715570  1
  Ba  Ba17  1  0.48978260  0.27110706  -0.04084367  1
  Ba  Ba18  1  -0.03893054  0.69088943  0.50098480  1
  Ba  Ba19  1  0.55116577  0.18831047  0.24893224  1
  Ba  Ba20  1  0.66660560  0.50194839  0.75662404  1
  Ba  Ba21  1  0.74363444  0.72111347  0.81496826  1
  Ba  Ba22  1  -0.07063640  0.19630983  0.65683141  1
  Ba  Ba23  1  0.16426599  0.55952049  0.05737941  1
  Ba  Ba24  1  0.49065904  -0.00730125  0.76583811  1
  Ba  Ba25  1  -0.08039225  0.51588109  -0.04140722  1
  Ba  Ba26  1  0.39273975  0.72901635  0.02036627  1
  Ba  Ba27  1  0.43428892  0.22868717  0.65440351  1
  Ba  Ba28  1  0.07700301  0.17453946  -0.07577717  1
  Ba  Ba29  1  0.27286421  0.29963900  0.24558094  1
  Ba  Ba30  1  -0.01698233  0.45587571  0.70926718  1
  Ba  Ba31  1  0.76487223  0.51704839  0.30987356  1
  Ba  Ba32  1  0.25453747  0.78282420  0.74456587  1
  Ba  Ba33  1  0.47912725  0.02329562  0.51663589  1
  Ba  Ba34  1  0.78519588  0.43520699  0.54115576  1
  Ba  Ba35  1  0.54379860  0.42332875  0.20174620  1
  Ba  Ba36  1  0.27954261  0.02672489  0.27472707  1
  Ba  Ba37  1  0.52134381  0.02412158  0.00822254  1
  Ba  Ba38  1  -0.03584795  0.75975986  -0.00576624  1
  Ba  Ba39  1  0.00737372  -0.04331191  0.80683057  1
  Ba  Ba40  1  0.03660092  0.20068741  0.19209087  1
  Ba  Ba41  1  0.68150996  0.23365055  0.80226087  1
  Ba  Ba42  1  0.23491864  0.04694207  0.70110681  1
  Ba  Ba43  1  0.17915186  0.30615609  0.69345308  1
  Ba  Ba44  1  0.07690192  -0.04194664  0.10202775  1
  Ba  Ba45  1  0.78556018  -0.05212370  0.52928088  1
  Ba  Ba46  1  0.32800023  0.73596279  0.26284307  1
  Ba  Ba47  1  0.79786092  0.03677937  0.04719376  1
  Ba  Ba48  1  0.02406897  -0.00996781  0.52485555  1
  Ba  Ba49  1  -0.01802051  0.49122159  0.22071233  1
  Ba  Ba50  1  0.24221828  0.54756506  0.77538961  1
  Fe  Fe51  1  0.38677219  0.39839285  0.77735984  1
  Fe  Fe52  1  0.47127873  0.59328912  0.26806128  1
  Fe  Fe53  1  0.07556925  0.63445574  0.85318476  1
  Fe  Fe54  1  0.05369622  0.75765119  0.80810262  1
  Fe  Fe55  1  0.34346520  0.13903176  -0.02091884  1
  Fe  Fe56  1  0.28282531  0.18882889  0.52901280  1
  Fe  Fe57  1  0.30772877  0.88057508  0.44156009  1
  Fe  Fe58  1  0.82071680  0.01966777  0.74202400  1
  Fe  Fe59  1  0.55523436  0.69419029  0.74983151  1
  Fe  Fe60  1  0.04100198  0.65907279  0.70195289  1
  Fe  Fe61  1  0.91070076  0.04727562  0.22582858  1
  Fe  Fe62  1  0.72699840  0.92166443  0.73442309  1
  Fe  Fe63  1  0.07502470  0.53121724  0.41775271  1
  Fe  Fe64  1  0.17630132  0.89828412  0.40767260  1
  Fe  Fe65  1  0.14193476  0.72943734  0.13748560  1
  Fe  Fe66  1  0.91588159  0.38767209  0.38572171  1
  Fe  Fe67  1  0.85852159  0.87849907  0.71059332  1
  Fe  Fe68  1  0.50273331  0.60734615  0.13267059  1
  Fe  Fe69  1  0.88339661  0.06918785  0.35773150  1
  Fe  Fe70  1  0.53992244  0.25071631  0.45589476  1
  Fe  Fe71  1  0.55624897  0.78762360  0.87926565  1
  Fe  Fe72  1  0.94646577  0.64797183  0.81143727  1
  Fe  Fe73  1  0.21634792  0.82414534  0.10007179  1
  Fe  Fe74  1  0.76762870  0.41122674  0.14083200  1
  Fe  Fe75  1  0.70683654  0.02299755  0.83624557  1
  Fe  Fe76  1  0.55812848  0.65056411  0.87983443  1
  Fe  Fe77  1  0.64223051  0.89954834  0.85570129  1
  Fe  Fe78  1  0.07144326  0.42030406  0.52282559  1
  Fe  Fe79  1  0.27171346  0.16793962  0.85306879  1
  Fe  Fe80  1  0.19734099  0.88724142  0.55250191  1
  Fe  Fe81  1  0.32524921  0.90565206  0.57624235  1
  Fe  Fe82  1  0.37962520  0.17168938  0.10623842  1
  Fe  Fe83  1  0.05392042  0.39388068  0.38463337  1
  Fe  Fe84  1  0.46655750  0.80240217  0.78191072  1
  Fe  Fe85  1  0.15450602  0.16329879  0.54600654  1
  Fe  Fe86  1  0.92830859  0.76179281  0.72203616  1
  Fe  Fe87  1  0.51581221  0.38957189  0.80839195  1
  Fe  Fe88  1  0.95479167  0.49173637  0.46207545  1
  Fe  Fe89  1  0.04285967  0.36022874  0.87661660  1
  Fe  Fe90  1  0.39306721  0.13504557  0.84695066  1
  Fe  Fe91  1  0.53741188  0.71685536  0.19831597  1
  Fe  Fe92  1  0.61506932  0.34341262  0.40973129  1
  Fe  Fe93  1  0.67346464  0.35362205  0.07965000  1
  Fe  Fe94  1  0.86187715  0.92809961  0.20323763  1
  Fe  Fe95  1  0.60569917  0.61454825  0.24955777  1
  Fe  Fe96  1  0.43250831  0.68623295  0.83553468  1
  Fe  Fe97  1  0.94504193  0.29423521  0.82738387  1
  Fe  Fe98  1  0.95671500  0.35447923  0.51256449  1
  Fe  Fe99  1  0.49539266  0.41173130  0.68017186  1
  Fe  Fe100  1  0.89228310  0.94126756  0.33672439  1
  Fe  Fe101  1  0.21668264  0.17116497  0.40860465  1
  Bi  Bi102  1  0.46057045  0.56248600  0.72927803  1
  Bi  Bi103  1  0.81789150  -0.10385407  0.88999480  1
  Bi  Bi104  1  0.05390809  0.00438627  0.31208225  1
  Bi  Bi105  1  0.52900219  0.70349693  0.38126765  1
  Bi  Bi106  1  0.18700710  0.31772865  0.46715032  1
  Bi  Bi107  1  0.12278301  0.56052327  0.58612588  1
  Bi  Bi108  1  0.13257534  0.63123284  0.28508539  1
  Bi  Bi109  1  0.17517158  0.74862125  -0.05358198  1
  Bi  Bi110  1  0.73515663  0.02774908  0.28073978  1
  Bi  Bi111  1  0.59930172  0.83617640  0.68273772  1
  Bi  Bi112  1  0.06802519  0.82092380  0.64317721  1
  Bi  Bi113  1  0.61485438  0.32917390  0.59467181  1
  Bi  Bi114  1  0.24470446  0.03102126  0.49241575  1
  Bi  Bi115  1  0.34117284  0.42255100  0.61047513  1
  Bi  Bi116  1  0.36142968  0.90603042  0.12300894  1
  Bi  Bi117  1  0.35165487  0.53078721  0.16003249  1
  Bi  Bi118  1  0.66127870  0.19302699  0.05512736  1
  Bi  Bi119  1  0.84906302  0.65577974  0.14662646  1
  Bi  Bi120  1  0.67027071  0.07423737  0.66249665  1
  Bi  Bi121  1  0.39270795  0.17399268  0.39633596  1
  Bi  Bi122  1  0.87089734  0.13826343  0.85584995  1
  Bi  Bi123  1  0.21331612  0.13505848  0.09325921  1
  Bi  Bi124  1  0.05660546  0.36686132  0.05092994  1
  Bi  Bi125  1  0.60344825  0.86691217  0.45813436  1
  Bi  Bi126  1  0.44482970  0.36008715  0.37336661  1
  Bi  Bi127  1  0.85173641  0.61109055  0.66892098  1
