# generated using pymatgen
data_Ba51Fe51Bi26
_symmetry_space_group_name_H-M   'P 1'
_cell_length_a   16.60154562
_cell_length_b   16.46399912
_cell_length_c   16.16811964
_cell_angle_alpha   91.20766580
_cell_angle_beta   92.04952271
_cell_angle_gamma   89.73762081
_symmetry_Int_Tables_number   1
_chemical_formula_structural   Ba51Fe51Bi26
_chemical_formula_sum   'Ba51 Fe51 Bi26'
_cell_volume   4415.35672454
_cell_formula_units_Z   1
loop_
 _symmetry_equiv_pos_site_id
 _symmetry_equiv_pos_as_xyz
  1  'x, y, z'
loop_
 _atom_site_type_symbol
 _atom_site_label
 _atom_site_symmetry_multiplicity
 _atom_site_fract_x
 _atom_site_fract_y
 _atom_site_fract_z
 _atom_site_occupancy
  Ba  Ba0  1  0.76947064  0.24741240  0.78945908  1
  Ba  Ba1  1  0.37088326  0.76293558  0.23421608  1
  Ba  Ba2  1  0.50180537  0.09369917  0.52104230  1
  Ba  Ba3  1  0.22061730  0.29775977  0.03035825  1
  Ba  Ba4  1  0.00937909  -0.03097517  0.21465138  1
  Ba  Ba5  1  0.27816700  0.17127372  0.41744330  1
  Ba  Ba6  1  0.53314750  0.04948093  -0.03220647  1
  Ba  Ba7  1  0.25510743  0.51067798  0.78383593  1
  Ba  Ba8  1  0.30518508  0.09218349  -0.11767023  1
  Ba  Ba9  1  0.16427698  0.24809267  0.77352667  1
  Ba  Ba10  1  0.44330258  0.76181087  0.50030946  1
  Ba  Ba11  1  0.51513137  0.51111411  0.55987515  1
  Ba  Ba12  1  0.00379582  0.64884281  0.29096798  1
  Ba  Ba13  1  0.61643660  0.84057183  0.33988027  1
  Ba  Ba14  1  0.66733806  0.53640593  0.01568316  1
  Ba  Ba15  1  0.50684553  0.21600089  0.73458494  1
  Ba  Ba16  1  0.50487424  0.09398033  0.22719165  1
  Ba  Ba17  1  0.78088663  -0.00215395  0.24948639  1
  Ba  Ba18  1  0.16143238  0.70606689  0.67554916  1
  Ba  Ba19  1  0.13751201  0.05935686  0.03759953  1
  Ba  Ba20  1  -0.06500998  0.54322747  -0.01808438  1
  Ba  Ba21  1  -0.03916724  0.32305537  0.66467094  1
  Ba  Ba22  1  -0.16821695  0.44347417  0.21747943  1
  Ba  Ba23  1  0.16187650  0.52843262  0.06460224  1
  Ba  Ba24  1  0.25847463  0.78660840  -0.06299019  1
  Ba  Ba25  1  -0.01761347  0.26051378  -0.09016275  1
  Ba  Ba26  1  0.48166992  0.34588807  0.31882162  1
  Ba  Ba27  1  0.69781603  0.74034500  0.72444102  1
  Ba  Ba28  1  0.63395462  0.26485935  0.01547252  1
  Ba  Ba29  1  0.43042898  0.51261611  0.13804890  1
  Ba  Ba30  1  0.80595854  -0.02893729  0.00126479  1
  Ba  Ba31  1  -0.01315157  0.85563071  0.80582266  1
  Ba  Ba32  1  0.81759117  0.53172816  0.52186578  1
  Ba  Ba33  1  0.64983872  0.58320618  0.31268185  1
  Ba  Ba34  1  0.27798301  0.42306667  0.44718356  1
  Ba  Ba35  1  -0.03789887  0.56912400  0.72781083  1
  Ba  Ba36  1  0.72140370  0.02889713  0.49100577  1
  Ba  Ba37  1  -0.10513628  0.03780456  0.64860442  1
  Ba  Ba38  1  0.21856184  0.65480341  0.42195584  1
  Ba  Ba39  1  0.00647501  0.77031975  0.07276626  1
  Ba  Ba40  1  0.42990930  -0.05374198  0.74940267  1
  Ba  Ba41  1  0.04896942  0.40263349  0.40036626  1
  Ba  Ba42  1  0.69675709  0.01018518  0.76068312  1
  Ba  Ba43  1  0.03432896  -0.13261513  0.50196543  1
  Ba  Ba44  1  0.72827274  0.74925859  -0.02734458  1
  Ba  Ba45  1  0.74857595  0.24211276  0.27609919  1
  Ba  Ba46  1  0.26402874  -0.06290263  0.54825913  1
  Ba  Ba47  1  -0.02062275  0.15043024  0.42088352  1
  Ba  Ba48  1  0.47578874  0.45272853  0.84519005  1
  Ba  Ba49  1  0.26753036  -0.01349587  0.22763602  1
  Ba  Ba50  1  0.49165895  0.80068330  -0.00534123  1
  Fe  Fe51  1  0.74448152  0.33802092  0.59640660  1
  Fe  Fe52  1  0.03177483  0.22508419  0.10229681  1
  Fe  Fe53  1  0.94051894  0.11461502  0.03108004  1
  Fe  Fe54  1  0.23703760  0.37268847  0.63959796  1
  Fe  Fe55  1  0.99011580  1.03377165  0.91103290  1
  Fe  Fe56  1  0.79927330  0.71761102  0.56765239  1
  Fe  Fe57  1  0.15022286  0.47962320  0.25716482  1
  Fe  Fe58  1  0.50104917  0.76463721  0.68971697  1
  Fe  Fe59  1  0.37349895  0.28551875  0.88015341  1
  Fe  Fe60  1  0.11334931  1.01386016  0.83453978  1
  Fe  Fe61  1  0.81521979  0.13532269  0.10798154  1
  Fe  Fe62  1  0.83296387  0.82070114  0.15753135  1
  Fe  Fe63  1  0.34879172  0.76653498  0.70522783  1
  Fe  Fe64  1  0.43774170  0.94840327  0.11545907  1
  Fe  Fe65  1  0.88226312  0.25461564  0.09512943  1
  Fe  Fe66  1  0.88754103  0.09727015  0.86847801  1
  Fe  Fe67  1  0.10610816  0.34149273  0.18839183  1
  Fe  Fe68  1  0.79072625  0.55829702  0.82621672  1
  Fe  Fe69  1  0.85407169  0.83893276  0.61278396  1
  Fe  Fe70  1  0.93735320  0.15044391  0.18436561  1
  Fe  Fe71  1  0.71063564  0.23672655  0.47724552  1
  Fe  Fe72  1  0.71297086  0.42718966  0.85327370  1
  Fe  Fe73  1  0.34288969  0.94819866  0.02158168  1
  Fe  Fe74  1  -0.06330882  0.73190179  0.61181484  1
  Fe  Fe75  1  0.90347172  0.73133672  0.47360767  1
  Fe  Fe76  1  0.02068039  0.44459333  0.19968660  1
  Fe  Fe77  1  0.36919710  0.39563104  0.64971088  1
  Fe  Fe78  1  0.81697445  0.17320584  0.97746680  1
  Fe  Fe79  1  0.26527016  0.54453696  0.26177195  1
  Fe  Fe80  1  0.61156927  0.29131047  0.55580164  1
  Fe  Fe81  1  0.80751760  0.20913038  0.57492408  1
  Fe  Fe82  1  0.07736125  0.98054075  0.68849136  1
  Fe  Fe83  1  0.97352173  0.29412458  0.22215856  1
  Fe  Fe84  1  0.71634549  0.83101237  0.53949106  1
  Fe  Fe85  1  0.83223395  0.86091635  0.47873224  1
  Fe  Fe86  1  0.02163876  0.09847429  0.78170921  1
  Fe  Fe87  1  0.77522390  0.44933515  0.70952012  1
  Fe  Fe88  1  0.33764698  0.30422147  0.74841715  1
  Fe  Fe89  1  0.70951041  0.78387552  0.16482262  1
  Fe  Fe90  1  0.44452680  0.76813863  0.81033281  1
  Fe  Fe91  1  0.30392468  0.26618345  0.60236696  1
  Fe  Fe92  1  0.36506991  0.06693665  0.07763356  1
  Fe  Fe93  1  0.68425608  0.18834252  0.61850086  1
  Fe  Fe94  1  0.07690260  0.11308294  0.64269989  1
  Fe  Fe95  1  0.17911998  0.06183816  0.72056241  1
  Fe  Fe96  1  0.67173905  0.53544028  0.77249670  1
  Fe  Fe97  1  0.43827110  0.64504339  0.70371297  1
  Fe  Fe98  1  0.84524610  0.43140495  0.83015758  1
  Fe  Fe99  1  0.36695682  0.66485268  0.81545420  1
  Fe  Fe100  1  -0.01492034  0.36556817  0.09082902  1
  Fe  Fe101  1  0.77139111  0.74072848  0.42566662  1
  Bi  Bi102  1  0.55501867  0.64753053  0.84528151  1
  Bi  Bi103  1  0.21439998  -0.10260989  0.76087599  1
  Bi  Bi104  1  0.88472543  0.82480152  0.32383882  1
  Bi  Bi105  1  0.81486854  0.36751454  -0.01161184  1
  Bi  Bi106  1  0.28036337  0.37923297  0.22427699  1
  Bi  Bi107  1  0.02779984  0.61850788  0.51383859  1
  Bi  Bi108  1  0.86158312  0.32235118  0.46001315  1
  Bi  Bi109  1  0.11382654  0.17599225  0.24164446  1
  Bi  Bi110  1  0.44349916  0.30155911  0.52464234  1
  Bi  Bi111  1  0.61984292  0.38776978  0.70361768  1
  Bi  Bi112  1  0.13414140  0.26138582  0.54974916  1
  Bi  Bi113  1  0.56864498  0.68943415  0.15148920  1
  Bi  Bi114  1  0.64339068  0.67602325  0.51193483  1
  Bi  Bi115  1  0.66423074  0.39641668  0.43290146  1
  Bi  Bi116  1  0.58151140  0.90127026  0.60894186  1
  Bi  Bi117  1  0.08423859  0.43560218  0.86604093  1
  Bi  Bi118  1  0.61728384  0.92781978  0.12492407  1
  Bi  Bi119  1  0.13632525  0.00965646  0.39074587  1
  Bi  Bi120  1  0.40955970  0.57535901  0.35570955  1
  Bi  Bi121  1  0.42335443  0.94749029  0.37510616  1
  Bi  Bi122  1  0.32639353  0.11634189  0.66310304  1
  Bi  Bi123  1  0.09190286  0.66559945  0.88546391  1
  Bi  Bi124  1  0.42434336  0.22296991  0.03256574  1
  Bi  Bi125  1  0.62222008  0.40372101  0.17876886  1
  Bi  Bi126  1  0.15181811  0.82069719  0.30513017  1
  Bi  Bi127  1  0.83014552  0.65181845  0.14231449  1
