# generated using pymatgen
data_Ba51Fe51Bi26
_symmetry_space_group_name_H-M   'P 1'
_cell_length_a   17.25955905
_cell_length_b   15.62385019
_cell_length_c   16.44734572
_cell_angle_alpha   87.84260566
_cell_angle_beta   91.20704740
_cell_angle_gamma   89.70801888
_symmetry_Int_Tables_number   1
_chemical_formula_structural   Ba51Fe51Bi26
_chemical_formula_sum   'Ba51 Fe51 Bi26'
_cell_volume   4430.99963793
_cell_formula_units_Z   1
loop_
 _symmetry_equiv_pos_site_id
 _symmetry_equiv_pos_as_xyz
  1  'x, y, z'
loop_
 _atom_site_type_symbol
 _atom_site_label
 _atom_site_symmetry_multiplicity
 _atom_site_fract_x
 _atom_site_fract_y
 _atom_site_fract_z
 _atom_site_occupancy
  Ba  Ba0  1  -0.09884823  0.76798615  0.05878449  1
  Ba  Ba1  1  0.60066632  0.50585117  -0.04350289  1
  Ba  Ba2  1  -0.05284521  0.78556092  0.30752748  1
  Ba  Ba3  1  0.81864003  0.21752184  0.73015013  1
  Ba  Ba4  1  0.74591675  0.75927977  0.78299562  1
  Ba  Ba5  1  0.29410251  0.19185671  0.68511076  1
  Ba  Ba6  1  0.62668525  0.01880493  0.76759456  1
  Ba  Ba7  1  -0.00232331  0.23417295  0.26227334  1
  Ba  Ba8  1  0.66277254  0.04490044  0.20509919  1
  Ba  Ba9  1  0.20275976  0.43962465  0.14965040  1
  Ba  Ba10  1  0.55701564  0.24004031  0.02016046  1
  Ba  Ba11  1  0.78158885  0.52010273  0.48452576  1
  Ba  Ba12  1  0.70093818  0.65695392  0.11375544  1
  Ba  Ba13  1  0.84910735  -0.01223835  0.89187914  1
  Ba  Ba14  1  0.00616547  0.04481784  0.09353843  1
  Ba  Ba15  1  0.75088921  0.49097205  0.73441274  1
  Ba  Ba16  1  -0.01519933  0.37193871  0.02171619  1
  Ba  Ba17  1  0.79989974  0.81384114  0.52594177  1
  Ba  Ba18  1  0.11373458  0.30897277  0.82260625  1
  Ba  Ba19  1  0.54392387  0.76221681  -0.04541360  1
  Ba  Ba20  1  0.34569275  0.59372385  0.51234881  1
  Ba  Ba21  1  -0.03721594  0.58952883  -0.12175353  1
  Ba  Ba22  1  0.00114362  0.84747075  0.71327611  1
  Ba  Ba23  1  0.02941495  0.51339964  0.34699017  1
  Ba  Ba24  1  -0.02178583  0.46173644  0.61337125  1
  Ba  Ba25  1  0.53734007  0.44040666  0.51083390  1
  Ba  Ba26  1  0.24085634  -0.03828146  0.09291722  1
  Ba  Ba27  1  0.53078897  0.55633778  0.71571841  1
  Ba  Ba28  1  0.48992200  0.30157644  0.28421227  1
  Ba  Ba29  1  0.21395142  0.82453537  0.55941505  1
  Ba  Ba30  1  0.72147309  0.08702846  0.51664359  1
  Ba  Ba31  1  -0.02670208  0.04720566  0.52497008  1
  Ba  Ba32  1  0.49839141  0.17118193  0.52290262  1
  Ba  Ba33  1  0.82924736  0.47155232  0.22284952  1
  Ba  Ba34  1  0.33387527  0.74132076  0.16396947  1
  Ba  Ba35  1  0.79941355  0.20143046  0.06132032  1
  Ba  Ba36  1  0.27547605  0.15878119  0.21969063  1
  Ba  Ba37  1  0.72890387  0.27471055  0.35378375  1
  Ba  Ba38  1  0.29603767  0.04406865  0.49362399  1
  Ba  Ba39  1  0.44942702  0.78777555  0.39333122  1
  Ba  Ba40  1  0.10221060  0.06426162  0.85923502  1
  Ba  Ba41  1  0.17035546  0.71951787  0.33489310  1
  Ba  Ba42  1  0.15955608  0.69955054  0.00538681  1
  Ba  Ba43  1  0.26344150  0.32493185  0.43845188  1
  Ba  Ba44  1  0.17829139  0.55709111  0.71621675  1
  Ba  Ba45  1  0.52133591  0.80076765  0.67347011  1
  Ba  Ba46  1  0.33328887  0.15709858  -0.04579339  1
  Ba  Ba47  1  0.30149448  -0.10757509  0.80513834  1
  Ba  Ba48  1  0.48238333  -0.02710982  0.04617165  1
  Ba  Ba49  1  0.47177898  0.53394786  0.15759201  1
  Ba  Ba50  1  0.65095041  0.70440109  0.34618316  1
  Fe  Fe51  1  0.62123723  0.34504472  0.72490370  1
  Fe  Fe52  1  0.29563640  0.45610138  0.85521869  1
  Fe  Fe53  1  1.07816802  0.34854287  0.48183917  1
  Fe  Fe54  1  0.95617006  0.65884110  0.51126028  1
  Fe  Fe55  1  0.78547273  -0.05420517  0.07911519  1
  Fe  Fe56  1  0.82212408  0.45046210  0.92066776  1
  Fe  Fe57  1  0.65918431  0.87314816  1.09206425  1
  Fe  Fe58  1  0.43536964  0.92089360  0.54212987  1
  Fe  Fe59  1  0.34324399  0.74623101  0.94977452  1
  Fe  Fe60  1  0.41332046  0.37416964  -0.06376880  1
  Fe  Fe61  1  0.08346955  0.18377265  0.65924114  1
  Fe  Fe62  1  0.39046731  0.62991068  0.99969847  1
  Fe  Fe63  1  0.45294805  0.25592094  0.84351617  1
  Fe  Fe64  1  0.35722495  0.59874167  0.31275544  1
  Fe  Fe65  1  0.77578935  0.58133877  0.94170560  1
  Fe  Fe66  1  0.84720986  -0.00465125  0.19813108  1
  Fe  Fe67  1  0.49438202  0.16925332  0.74065231  1
  Fe  Fe68  1  0.48700245  0.31345912  0.70668591  1
  Fe  Fe69  1  0.76308344  0.44222004  0.03493370  1
  Fe  Fe70  1  0.12989186  0.32745648  0.60854351  1
  Fe  Fe71  1  0.60653681  0.21786316  0.67317615  1
  Fe  Fe72  1  0.32918303  0.32080656  0.82186046  1
  Fe  Fe73  1  1.00072717  0.26098741  0.58207613  1
  Fe  Fe74  1  0.27116334  0.35040348  -0.03773032  1
  Fe  Fe75  1  0.52111055  0.94609384  0.28166345  1
  Fe  Fe76  1  0.42700314  0.52747910  -0.10235372  1
  Fe  Fe77  1  0.83046468  0.09657079  0.29723552  1
  Fe  Fe78  1  0.32595215  0.48803939  -0.00060921  1
  Fe  Fe79  1  0.39800125  0.03845217  0.32071866  1
  Fe  Fe80  1  0.46995372  0.08093544  0.21574285  1
  Fe  Fe81  1  0.48425868  0.56019900  0.35020930  1
  Fe  Fe82  1  0.03253934  0.22447485  0.45605886  1
  Fe  Fe83  1  0.12375128  -0.03412007  0.26378004  1
  Fe  Fe84  1  0.38680334  0.46951514  0.34732347  1
  Fe  Fe85  1  0.72358991  0.85998675  0.98461258  1
  Fe  Fe86  1  0.35916286  0.55127644  0.76811325  1
  Fe  Fe87  1  0.29195675  0.60903957  0.89317994  1
  Fe  Fe88  1  0.80560279  0.96788266  0.34197184  1
  Fe  Fe89  1  0.54456015  0.36406894  0.84385171  1
  Fe  Fe90  1  0.03598476  0.67796475  0.61572398  1
  Fe  Fe91  1  0.40667429  0.93842874  0.22171338  1
  Fe  Fe92  1  0.09160993  0.65420326  0.50260143  1
  Fe  Fe93  1  0.48550820  0.98777499  0.42094451  1
  Fe  Fe94  1  0.55003973  0.96533338  0.55061700  1
  Fe  Fe95  1  0.40661443  0.67769325  0.84771343  1
  Fe  Fe96  1  0.59173890  0.22449702  0.81534678  1
  Fe  Fe97  1  0.42586172  0.41465230  0.79689859  1
  Fe  Fe98  1  0.53691329  0.08974947  0.33746744  1
  Fe  Fe99  1  0.11523340  0.94107717  0.39281692  1
  Fe  Fe100  1  0.13809018  0.19902051  0.53776826  1
  Fe  Fe101  1  0.85798272  0.54052774  0.03931661  1
  Bi  Bi102  1  0.69986295  0.31531363  0.57118486  1
  Bi  Bi103  1  0.66770447  0.03479417  -0.01661510  1
  Bi  Bi104  1  0.43339959  0.01535492  0.68106557  1
  Bi  Bi105  1  0.14035575  0.12603034  0.38167528  1
  Bi  Bi106  1  0.15832900  0.49196733  -0.06194539  1
  Bi  Bi107  1  0.33718249  0.70994486  0.69423553  1
  Bi  Bi108  1  0.27569467  -0.08800821  0.31579686  1
  Bi  Bi109  1  0.70873801  0.32422659  0.88954817  1
  Bi  Bi110  1  0.63680017  -0.07115120  0.40535700  1
  Bi  Bi111  1  0.16142732  0.49526591  0.51209486  1
  Bi  Bi112  1  0.35417143  0.41314040  -0.34892775  1
  Bi  Bi113  1  0.02166750  0.82448548  0.49871223  1
  Bi  Bi114  1  -0.02964019  0.00953228  0.30717618  1
  Bi  Bi115  1  0.53109305  0.79982739  0.17988619  1
  Bi  Bi116  1  0.63134147  0.48003075  0.30791295  1
  Bi  Bi117  1  -0.00133666  0.57086926  0.12556456  1
  Bi  Bi118  1  0.15322044  1.01908132  0.65960182  1
  Bi  Bi119  1  0.91478414  0.34621924  0.42878060  1
  Bi  Bi120  1  0.37804791  0.33273336  0.10013830  1
  Bi  Bi121  1  0.08958818  0.83374078  0.15485496  1
  Bi  Bi122  1  0.88701254  0.65438635  0.67369440  1
  Bi  Bi123  1  0.81714867  0.97023428  0.68143096  1
  Bi  Bi124  1  0.77071361  0.83800105  0.21735114  1
  Bi  Bi125  1  0.64313344  0.65865028  0.56783555  1
  Bi  Bi126  1  0.94236608  0.18604457  0.90808397  1
  Bi  Bi127  1  0.15489709  0.21620532  0.04046314  1
