# generated using pymatgen
data_Ba51Fe51Bi26
_symmetry_space_group_name_H-M   'P 1'
_cell_length_a   16.85248885
_cell_length_b   15.93163155
_cell_length_c   16.36362296
_cell_angle_alpha   92.09943699
_cell_angle_beta   91.05901586
_cell_angle_gamma   88.07975733
_symmetry_Int_Tables_number   1
_chemical_formula_structural   Ba51Fe51Bi26
_chemical_formula_sum   'Ba51 Fe51 Bi26'
_cell_volume   4387.36109338
_cell_formula_units_Z   1
loop_
 _symmetry_equiv_pos_site_id
 _symmetry_equiv_pos_as_xyz
  1  'x, y, z'
loop_
 _atom_site_type_symbol
 _atom_site_label
 _atom_site_symmetry_multiplicity
 _atom_site_fract_x
 _atom_site_fract_y
 _atom_site_fract_z
 _atom_site_occupancy
  Ba  Ba0  1  0.10195989  0.54540374  0.18334381  1
  Ba  Ba1  1  0.81974608  0.29112492  0.67937386  1
  Ba  Ba2  1  0.13784267  0.51962133  0.74775333  1
  Ba  Ba3  1  -0.05873193  0.54155684  0.59476501  1
  Ba  Ba4  1  0.27125678  0.10099604  0.62089933  1
  Ba  Ba5  1  0.75872846  0.79921705  0.53382221  1
  Ba  Ba6  1  0.42278823  0.29088542  0.28639978  1
  Ba  Ba7  1  0.24938970  -0.03478176  0.38235046  1
  Ba  Ba8  1  0.26645732  0.42916377  0.42019274  1
  Ba  Ba9  1  0.09062048  0.44127768  -0.03276075  1
  Ba  Ba10  1  0.22313540  0.74311400  0.87594393  1
  Ba  Ba11  1  0.40009765  0.78601599  0.26821409  1
  Ba  Ba12  1  0.51125373  0.02673541  0.80000839  1
  Ba  Ba13  1  0.13366510  -0.09017242  0.72898846  1
  Ba  Ba14  1  0.84408505  0.00104188  0.77558624  1
  Ba  Ba15  1  -0.03601155  0.73897273  0.78550911  1
  Ba  Ba16  1  0.78373832  0.26486877  0.35089555  1
  Ba  Ba17  1  0.88924635  0.42083472  0.86736574  1
  Ba  Ba18  1  0.49440157  -0.12005791  0.53800778  1
  Ba  Ba19  1  0.73071973  0.48678062  0.22650265  1
  Ba  Ba20  1  -0.12384947  0.84810471  0.01422914  1
  Ba  Ba21  1  0.49778464  0.42888960  0.02234275  1
  Ba  Ba22  1  0.20768935  0.68666673  0.41198133  1
  Ba  Ba23  1  0.47564372  0.16662719  0.05911041  1
  Ba  Ba24  1  0.70163145  0.78923191  -0.23329377  1
  Ba  Ba25  1  0.71463667  0.06054584  0.01041498  1
  Ba  Ba26  1  0.69920801  0.02526936  0.31955265  1
  Ba  Ba27  1  0.82322209  0.07547820  0.54563183  1
  Ba  Ba28  1  0.39949220  0.29909348  0.65262657  1
  Ba  Ba29  1  0.23575318  0.14458201  0.18514025  1
  Ba  Ba30  1  0.28376524  0.29929460  -0.11450028  1
  Ba  Ba31  1  0.24835727  0.01632058  -0.06881033  1
  Ba  Ba32  1  0.62590216  -0.13191610  0.15408854  1
  Ba  Ba33  1  0.14424398  0.22262866  0.45928590  1
  Ba  Ba34  1  -0.04185917  0.42193111  0.34076400  1
  Ba  Ba35  1  0.13988541  0.82422943  0.10433049  1
  Ba  Ba36  1  0.48202122  0.72435744  0.78437950  1
  Ba  Ba37  1  -0.21997327  0.73599146  0.26182295  1
  Ba  Ba38  1  -0.00709994  0.08062155  0.05335497  1
  Ba  Ba39  1  0.58545012  0.19601944  0.52989382  1
  Ba  Ba40  1  -0.01508463  0.73778230  0.44190261  1
  Ba  Ba41  1  0.75219289  0.28764633  0.07873442  1
  Ba  Ba42  1  0.71529869  0.48799495  0.55132461  1
  Ba  Ba43  1  0.51701669  0.56350316  0.27957613  1
  Ba  Ba44  1  0.46386989  0.03166647  0.26221756  1
  Ba  Ba45  1  0.49031623  0.51426463  0.51765369  1
  Ba  Ba46  1  0.81571017  0.62003508  0.00776567  1
  Ba  Ba47  1  -0.00333139  0.04866650  0.35593991  1
  Ba  Ba48  1  0.38727195  0.65838980  0.05799875  1
  Ba  Ba49  1  0.63748597  0.26768918  0.84871725  1
  Ba  Ba50  1  0.31754395  0.72131198  0.61507222  1
  Fe  Fe51  1  0.42044620  0.87209718  0.94436482  1
  Fe  Fe52  1  0.02032605  0.23105211  0.89140740  1
  Fe  Fe53  1  1.02133203  1.06422990  0.68509791  1
  Fe  Fe54  1  1.00919118  0.21541017  0.23057581  1
  Fe  Fe55  1  0.31067616  0.15719257  0.37460568  1
  Fe  Fe56  1  0.09078844  0.41968738  0.54129701  1
  Fe  Fe57  1  0.53178261  -0.05468051  1.00474901  1
  Fe  Fe58  1  0.31691436  0.85310604  1.03722676  1
  Fe  Fe59  1  0.91848943  0.27815300  0.16091259  1
  Fe  Fe60  1  0.44137605  0.54963400  0.87557795  1
  Fe  Fe61  1  0.01566142  0.10007939  0.55037486  1
  Fe  Fe62  1  1.04716967  0.20906671  0.64361417  1
  Fe  Fe63  1  1.05337191  0.31551118  0.13046573  1
  Fe  Fe64  1  0.01656385  0.35383309  0.64255567  1
  Fe  Fe65  1  0.62532199  0.16000340  0.18420026  1
  Fe  Fe66  1  0.56036672  -0.13921665  0.89154938  1
  Fe  Fe67  1  0.61349166  0.56900749  0.71610747  1
  Fe  Fe68  1  0.08461077  0.52540640  0.45543041  1
  Fe  Fe69  1  0.60631391  0.29945120  0.21158322  1
  Fe  Fe70  1  0.53066822  0.77743202  -0.00065629  1
  Fe  Fe71  1  0.34629740  0.58923925  0.77625915  1
  Fe  Fe72  1  0.66143644  0.87474724  -0.03080820  1
  Fe  Fe73  1  0.24207767  0.90860709  0.57014918  1
  Fe  Fe74  1  0.96436498  0.18753183  0.75866152  1
  Fe  Fe75  1  0.33315984  0.32468947  0.09989347  1
  Fe  Fe76  1  0.46970711  0.52232382  0.72354303  1
  Fe  Fe77  1  0.34874550  0.45372048  0.78375189  1
  Fe  Fe78  1  0.16407940  0.55061800  0.55340916  1
  Fe  Fe79  1  0.39647270  -0.01529371  0.05669885  1
  Fe  Fe80  1  0.71003720  0.46750323  0.77901749  1
  Fe  Fe81  1  1.05046914  0.30748369  0.77068597  1
  Fe  Fe82  1  0.65172343  0.65698604  0.42890714  1
  Fe  Fe83  1  0.57599343  0.50093325  0.83532571  1
  Fe  Fe84  1  0.59738149  0.20486348  0.30966402  1
  Fe  Fe85  1  0.19559089  0.35005616  0.11379989  1
  Fe  Fe86  1  0.44319512  0.86087046  0.09530229  1
  Fe  Fe87  1  0.76016406  0.58152051  0.73957647  1
  Fe  Fe88  1  0.37526238  0.44401073  0.16249762  1
  Fe  Fe89  1  0.65323807  0.73313970  -0.05179056  1
  Fe  Fe90  1  0.11400107  -0.00107728  0.55241437  1
  Fe  Fe91  1  0.47027789  0.40738721  0.81548260  1
  Fe  Fe92  1  0.31882766  0.93061266  0.14958378  1
  Fe  Fe93  1  0.35667264  0.23785827  0.46541159  1
  Fe  Fe94  1  0.13495674  0.85240522  0.52828957  1
  Fe  Fe95  1  1.00824732  1.08014598  0.83964242  1
  Fe  Fe96  1  0.56237133  0.61910792  -0.05886387  1
  Fe  Fe97  1  0.26672852  0.40536950  0.21966571  1
  Fe  Fe98  1  -0.03059750  0.28166365  0.02167973  1
  Fe  Fe99  1  0.68862170  0.12852575  0.71300252  1
  Fe  Fe100  1  0.67858192  0.60671861  0.85490497  1
  Fe  Fe101  1  0.27156777  0.46746209  0.07948531  1
  Bi  Bi102  1  0.13676072  0.32719621  0.27473835  1
  Bi  Bi103  1  0.14362809  0.14500291  0.78755753  1
  Bi  Bi104  1  0.42289140  0.07625231  0.47262164  1
  Bi  Bi105  1  0.10566996  0.70170448  0.61986201  1
  Bi  Bi106  1  0.58830217  0.38668719  0.68015055  1
  Bi  Bi107  1  0.27868785  0.52798601  -0.07826672  1
  Bi  Bi108  1  0.61175386  0.65000030  0.10462987  1
  Bi  Bi109  1  -0.05380295  0.26340245  0.50511100  1
  Bi  Bi110  1  0.85341709  0.12531936  0.20065196  1
  Bi  Bi111  1  0.18177368  0.31775795  -0.34290905  1
  Bi  Bi112  1  0.30243423  0.58080736  0.24515679  1
  Bi  Bi113  1  0.31431391  0.50602823  0.62458768  1
  Bi  Bi114  1  0.59491255  0.68481781  0.59012970  1
  Bi  Bi115  1  0.13935612  0.22189748  0.01163336  1
  Bi  Bi116  1  0.34335839  0.91262280  0.72026184  1
  Bi  Bi117  1  0.59594618  0.80355796  0.35598669  1
  Bi  Bi118  1  0.91912024  0.44152203  0.10517077  1
  Bi  Bi119  1  0.85666038  0.19605354  0.89897949  1
  Bi  Bi120  1  0.03117552  0.66685240  0.98116699  1
  Bi  Bi121  1  -0.03013770  0.92430470  0.58722273  1
  Bi  Bi122  1  0.81360959  0.59689160  0.41266969  1
  Bi  Bi123  1  0.65783127  0.97778963  0.64448888  1
  Bi  Bi124  1  0.85611674  0.90298853  0.38520513  1
  Bi  Bi125  1  0.04362208  0.91638610  0.91568686  1
  Bi  Bi126  1  0.60119821  0.37664375  0.37692292  1
  Bi  Bi127  1  0.69230015  0.45782381  0.95189057  1
