# generated using pymatgen
data_Ba51Fe51Bi26
_symmetry_space_group_name_H-M   'P 1'
_cell_length_a   16.50210215
_cell_length_b   16.62670641
_cell_length_c   16.20679494
_cell_angle_alpha   90.72516831
_cell_angle_beta   89.55006158
_cell_angle_gamma   91.58669274
_symmetry_Int_Tables_number   1
_chemical_formula_structural   Ba51Fe51Bi26
_chemical_formula_sum   'Ba51 Fe51 Bi26'
_cell_volume   4444.56298000
_cell_formula_units_Z   1
loop_
 _symmetry_equiv_pos_site_id
 _symmetry_equiv_pos_as_xyz
  1  'x, y, z'
loop_
 _atom_site_type_symbol
 _atom_site_label
 _atom_site_symmetry_multiplicity
 _atom_site_fract_x
 _atom_site_fract_y
 _atom_site_fract_z
 _atom_site_occupancy
  Ba  Ba0  1  0.26017531  -0.04391317  0.24222289  1
  Ba  Ba1  1  0.76180193  0.04605139  0.74604215  1
  Ba  Ba2  1  0.36524499  0.43616614  0.52162989  1
  Ba  Ba3  1  0.27280760  -0.03666317  0.76310091  1
  Ba  Ba4  1  0.17831784  0.23523047  0.36447839  1
  Ba  Ba5  1  0.30063272  0.19311251  0.85744652  1
  Ba  Ba6  1  0.48297661  0.34453826  -0.06092125  1
  Ba  Ba7  1  -0.08466305  0.25309395  0.74629066  1
  Ba  Ba8  1  0.72775678  0.25254846  0.27318196  1
  Ba  Ba9  1  0.54140645  0.03257220  0.79232538  1
  Ba  Ba10  1  0.40783211  0.51059759  0.15839838  1
  Ba  Ba11  1  -0.00095855  0.44869348  0.31947329  1
  Ba  Ba12  1  0.53650050  0.43585385  0.34315573  1
  Ba  Ba13  1  0.61968236  0.00467312  0.01665949  1
  Ba  Ba14  1  0.26874198  0.31284592  0.10668932  1
  Ba  Ba15  1  -0.02518156  0.64109521  0.58450575  1
  Ba  Ba16  1  0.50327503  0.80046330  0.23918523  1
  Ba  Ba17  1  0.77584365  0.66535868  0.77587988  1
  Ba  Ba18  1  0.51656243  0.74004534  0.51734301  1
  Ba  Ba19  1  0.06066154  0.21101999  -0.00761167  1
  Ba  Ba20  1  0.02393852  0.61660213  0.13709450  1
  Ba  Ba21  1  0.21254941  0.48169023  -0.07454888  1
  Ba  Ba22  1  0.29292821  0.69295105  0.81615940  1
  Ba  Ba23  1  -0.09122640  0.77682331  -0.02173651  1
  Ba  Ba24  1  0.41817198  0.20235810  0.24617250  1
  Ba  Ba25  1  0.81164509  0.36425161  0.50921855  1
  Ba  Ba26  1  0.49251847  0.56533222  0.86220603  1
  Ba  Ba27  1  -0.02985376  0.17913712  0.47675783  1
  Ba  Ba28  1  0.52173228  -0.00552853  0.41218251  1
  Ba  Ba29  1  0.72335245  0.24737792  0.02998963  1
  Ba  Ba30  1  0.44953492  0.26034662  0.68324388  1
  Ba  Ba31  1  -0.03533988  0.44237958  -0.07416754  1
  Ba  Ba32  1  0.85210803  0.06379125  -0.04205176  1
  Ba  Ba33  1  0.80280908  -0.14137953  0.60507521  1
  Ba  Ba34  1  -0.00357469  -0.01407466  0.15398516  1
  Ba  Ba35  1  0.07723627  0.42699777  0.62923403  1
  Ba  Ba36  1  0.24877291  0.65763050  0.52023651  1
  Ba  Ba37  1  0.27104916  0.02798275  0.01815748  1
  Ba  Ba38  1  0.66605539  0.73364962  0.03759423  1
  Ba  Ba39  1  0.61463336  0.45375246  0.64817753  1
  Ba  Ba40  1  0.45427643  0.85169708  -0.08234224  1
  Ba  Ba41  1  0.27917138  -0.01900332  0.50874481  1
  Ba  Ba42  1  0.04167325  -0.10825454  0.55059730  1
  Ba  Ba43  1  0.59355209  0.22718404  0.48389126  1
  Ba  Ba44  1  0.73032169  0.62580951  0.38852729  1
  Ba  Ba45  1  0.74340119  0.48412267  0.14933955  1
  Ba  Ba46  1  0.72472189  0.42291406  0.86377773  1
  Ba  Ba47  1  0.24367404  0.68107867  0.25309462  1
  Ba  Ba48  1  0.13733058  0.83056691  -0.07210008  1
  Ba  Ba49  1  0.18015937  0.17925154  0.64152737  1
  Ba  Ba50  1  0.91814817  0.80346846  0.33659926  1
  Fe  Fe51  1  0.11707400  0.08690062  0.80351178  1
  Fe  Fe52  1  0.46504279  0.12153286  0.94265251  1
  Fe  Fe53  1  0.19802592  0.45152674  0.24721647  1
  Fe  Fe54  1  0.46158536  0.71249998  0.71947852  1
  Fe  Fe55  1  0.40049866  0.44840083  0.72500925  1
  Fe  Fe56  1  0.76297653  0.06476526  0.18814878  1
  Fe  Fe57  1  0.40416929  0.18888615  0.04069470  1
  Fe  Fe58  1  0.60672053  0.28419876  0.79006329  1
  Fe  Fe59  1  0.33110588  0.38164400  0.81951754  1
  Fe  Fe60  1  0.52621843  0.08573176  0.60874830  1
  Fe  Fe61  1  -0.01803350  0.93675732  0.88951497  1
  Fe  Fe62  1  0.92463345  0.95333544  0.76739873  1
  Fe  Fe63  1  0.63009944  0.18346132  0.68588747  1
  Fe  Fe64  1  0.43688886  0.57802758  0.67161044  1
  Fe  Fe65  1  0.75924756  0.19791074  0.59742127  1
  Fe  Fe66  1  0.27344434  0.36047065  0.70536710  1
  Fe  Fe67  1  0.58898432  0.19061695  0.89610957  1
  Fe  Fe68  1  0.97687726  0.83190690  0.77188738  1
  Fe  Fe69  1  0.10300700  0.84863180  0.31406721  1
  Fe  Fe70  1  0.82199045  0.96843315  0.26885648  1
  Fe  Fe71  1  0.72092091  0.29355775  0.69299826  1
  Fe  Fe72  1  0.76872496  0.13703026  0.45033997  1
  Fe  Fe73  1  0.61759165  0.78141806  0.69369626  1
  Fe  Fe74  1  0.81962175  0.07392215  0.56337074  1
  Fe  Fe75  1  0.29884012  0.50878128  0.33428389  1
  Fe  Fe76  1  0.54225378  0.19063251  0.05288215  1
  Fe  Fe77  1  0.67093099  0.08445559  0.57512750  1
  Fe  Fe78  1  0.76440923  0.83690371  0.23043664  1
  Fe  Fe79  1  0.09137857  0.01992039  0.91462241  1
  Fe  Fe80  1  0.39561451  0.07946372  0.63927733  1
  Fe  Fe81  1  0.07189039  0.95427059  0.76757469  1
  Fe  Fe82  1  0.45091801  1.07810276  0.08990251  1
  Fe  Fe83  1  0.44533092  0.95801131  0.63150295  1
  Fe  Fe84  1  0.71772099  1.05148388  0.33578006  1
  Fe  Fe85  1  0.57169210  0.64411394  0.69224158  1
  Fe  Fe86  1  0.04382977  0.25859961  0.21099065  1
  Fe  Fe87  1  0.93727022  0.24311121  0.29729653  1
  Fe  Fe88  1  0.11093708  0.60733181  0.74910746  1
  Fe  Fe89  1  0.85808216  0.11190436  0.30639251  1
  Fe  Fe90  1  0.29805142  0.38398834  0.30068435  1
  Fe  Fe91  1  0.18123929  0.82246820  0.41260763  1
  Fe  Fe92  1  0.98692587  0.07289482  0.82628423  1
  Fe  Fe93  1  0.49837105  0.84901871  0.72023610  1
  Fe  Fe94  1  0.56610941  0.73925466  0.81265292  1
  Fe  Fe95  1  0.67765561  0.94344078  0.23368134  1
  Fe  Fe96  1  0.70947208  0.21423196  0.81627431  1
  Fe  Fe97  1  0.98625669  0.56090641  0.77080873  1
  Fe  Fe98  1  0.71734973  0.99933413  0.47288568  1
  Fe  Fe99  1  0.01241004  0.13359965  0.28035434  1
  Fe  Fe100  1  -0.00254473  0.69650041  0.78388483  1
  Fe  Fe101  1  0.68092449  0.74181166  0.24937762  1
  Bi  Bi102  1  0.60713365  -0.07181937  0.60402357  1
  Bi  Bi103  1  0.68095851  0.86051418  -0.15580681  1
  Bi  Bi104  1  0.35382282  0.81361611  0.64128873  1
  Bi  Bi105  1  0.25830128  0.52737888  0.69699845  1
  Bi  Bi106  1  -0.10475509  0.18186621  0.14110011  1
  Bi  Bi107  1  0.11391033  0.81612107  0.14561604  1
  Bi  Bi108  1  0.59198909  0.09028660  0.21002619  1
  Bi  Bi109  1  0.12788112  0.77969088  0.70564191  1
  Bi  Bi110  1  0.09706926  0.01064849  0.37431153  1
  Bi  Bi111  1  0.68517706  0.84228935  0.38744130  1
  Bi  Bi112  1  0.87684238  -0.00980460  0.43007950  1
  Bi  Bi113  1  -0.01976612  0.06799910  0.65684083  1
  Bi  Bi114  1  0.17675291  0.43957906  0.42695946  1
  Bi  Bi115  1  0.07663797  0.68634636  0.38968218  1
  Bi  Bi116  1  0.58989254  0.60771860  0.21594386  1
  Bi  Bi117  1  0.08138197  0.40476787  0.12085332  1
  Bi  Bi118  1  0.81383252  0.58504893  -0.02308938  1
  Bi  Bi119  1  0.79324834  0.92022120  0.09417496  1
  Bi  Bi120  1  0.13675958  0.31761634  0.80614575  1
  Bi  Bi121  1  0.85968785  0.46467878  0.69742014  1
  Bi  Bi122  1  0.55634645  0.33941444  0.14505808  1
  Bi  Bi123  1  0.34953831  0.82771905  0.38525379  1
  Bi  Bi124  1  0.16096134  0.13781909  0.17326758  1
  Bi  Bi125  1  0.42437314  0.60914807  0.36929719  1
  Bi  Bi126  1  0.82511912  0.68164239  0.18799260  1
  Bi  Bi127  1  0.07128040  0.62909929  -0.08135171  1
