# generated using pymatgen
data_Ba51Fe51Bi26
_symmetry_space_group_name_H-M   'P 1'
_cell_length_a   16.35113571
_cell_length_b   15.79296454
_cell_length_c   16.82145944
_cell_angle_alpha   88.51319905
_cell_angle_beta   84.46475407
_cell_angle_gamma   92.01693314
_symmetry_Int_Tables_number   1
_chemical_formula_structural   Ba51Fe51Bi26
_chemical_formula_sum   'Ba51 Fe51 Bi26'
_cell_volume   4319.04038563
_cell_formula_units_Z   1
loop_
 _symmetry_equiv_pos_site_id
 _symmetry_equiv_pos_as_xyz
  1  'x, y, z'
loop_
 _atom_site_type_symbol
 _atom_site_label
 _atom_site_symmetry_multiplicity
 _atom_site_fract_x
 _atom_site_fract_y
 _atom_site_fract_z
 _atom_site_occupancy
  Ba  Ba0  1  0.54546435  0.75821824  -0.08128797  1
  Ba  Ba1  1  0.49630407  0.26661785  0.09528804  1
  Ba  Ba2  1  0.62163361  0.82108886  0.47888828  1
  Ba  Ba3  1  0.09732867  0.37390520  0.01644143  1
  Ba  Ba4  1  0.36349537  0.08670686  0.00990998  1
  Ba  Ba5  1  0.67253772  0.69083243  0.10224857  1
  Ba  Ba6  1  0.53210085  0.20527635  0.36040284  1
  Ba  Ba7  1  0.68007559  -0.01869602  0.04484663  1
  Ba  Ba8  1  0.28336242  0.47811182  0.14889251  1
  Ba  Ba9  1  0.92385209  0.65026257  0.75957843  1
  Ba  Ba10  1  0.02265672  0.23541928  0.33658221  1
  Ba  Ba11  1  0.80655857  -0.03928901  0.56854967  1
  Ba  Ba12  1  0.18350958  0.24059730  0.82067122  1
  Ba  Ba13  1  0.49989083  -0.00583329  0.83395703  1
  Ba  Ba14  1  0.33019580  0.79556576  0.44519913  1
  Ba  Ba15  1  -0.13408919  0.45496857  0.18781658  1
  Ba  Ba16  1  0.29217452  0.89559302  0.20254806  1
  Ba  Ba17  1  0.01611850  0.79618171  0.54433242  1
  Ba  Ba18  1  0.33566569  0.82244148  0.79565768  1
  Ba  Ba19  1  0.26339939  0.56216212  0.69857171  1
  Ba  Ba20  1  -0.10386207  0.78040773  0.03174613  1
  Ba  Ba21  1  0.76386705  0.14873440  0.75134848  1
  Ba  Ba22  1  0.25196147  0.55933122  -0.06940528  1
  Ba  Ba23  1  0.05745978  0.53691571  0.59991803  1
  Ba  Ba24  1  0.23567544  0.05037449  0.41697439  1
  Ba  Ba25  1  0.77588650  -0.13996845  0.81828612  1
  Ba  Ba26  1  0.44201591  0.70046976  0.19937953  1
  Ba  Ba27  1  0.54575461  -0.03070857  0.28259794  1
  Ba  Ba28  1  -0.06589234  -0.00695515  0.34787914  1
  Ba  Ba29  1  0.51924919  0.41628041  0.54149342  1
  Ba  Ba30  1  0.56800279  0.10307939  0.59179898  1
  Ba  Ba31  1  0.79176310  0.22109145  0.30550815  1
  Ba  Ba32  1  0.01316041  0.70908383  0.27662909  1
  Ba  Ba33  1  0.47616589  0.67835368  0.62291648  1
  Ba  Ba34  1  0.86792391  0.54712076  0.43871948  1
  Ba  Ba35  1  0.65577314  0.38626776  -0.11432751  1
  Ba  Ba36  1  0.09821227  0.77501051  0.85391033  1
  Ba  Ba37  1  0.17102292  0.75139471  0.08110369  1
  Ba  Ba38  1  -0.03785808  0.34410370  0.75504679  1
  Ba  Ba39  1  -0.04504524  0.08583837  0.06389821  1
  Ba  Ba40  1  0.79068834  0.21409363  -0.00703164  1
  Ba  Ba41  1  0.11730395  -0.01688157  0.72295905  1
  Ba  Ba42  1  0.04163923  0.18568784  0.58583903  1
  Ba  Ba43  1  0.45805243  0.25433740  0.79818813  1
  Ba  Ba44  1  0.48840172  0.52175535  -0.03820915  1
  Ba  Ba45  1  0.69769088  0.66076657  0.31348129  1
  Ba  Ba46  1  0.31665363  0.18529106  0.59272842  1
  Ba  Ba47  1  0.09987272  0.47688522  0.33347157  1
  Ba  Ba48  1  0.49214602  0.45446201  0.27878544  1
  Ba  Ba49  1  -0.11611537  0.48756903  -0.04649033  1
  Ba  Ba50  1  0.29391147  0.49058523  0.45045196  1
  Fe  Fe51  1  0.14111146  0.24532469  0.16492257  1
  Fe  Fe52  1  0.74689467  0.66985178  0.73995485  1
  Fe  Fe53  1  0.36768385  0.68458666  0.02778778  1
  Fe  Fe54  1  0.28132736  0.24514977  0.13950930  1
  Fe  Fe55  1  0.14680182  0.99522840  0.08492560  1
  Fe  Fe56  1  0.67893910  0.48632427  0.18936730  1
  Fe  Fe57  1  0.78480366  0.70037679  0.57556021  1
  Fe  Fe58  1  0.71147674  0.86372849  0.20555743  1
  Fe  Fe59  1  0.44205377  0.90333774  0.62101444  1
  Fe  Fe60  1  0.20146953  0.16848452  0.27046933  1
  Fe  Fe61  1  0.70460406  0.50886146  0.04370839  1
  Fe  Fe62  1  0.75617911  0.37648439  0.71169834  1
  Fe  Fe63  1  0.04002034  0.61115224  0.96995610  1
  Fe  Fe64  1  0.83578781  0.93501524  0.17891054  1
  Fe  Fe65  1  0.61129243  0.73080475  0.74452879  1
  Fe  Fe66  1  0.12956952  0.02736446  0.92702101  1
  Fe  Fe67  1  0.33846791  0.37567117  0.69741750  1
  Fe  Fe68  1  0.37517958  0.00993221  0.67228999  1
  Fe  Fe69  1  0.73607710  0.42512099  0.56198627  1
  Fe  Fe70  1  0.85787482  0.44183611  0.63599604  1
  Fe  Fe71  1  0.65475830  0.62590743  0.65721301  1
  Fe  Fe72  1  0.08490143  0.10696562  0.18696058  1
  Fe  Fe73  1  0.78262645  0.55999942  0.62691930  1
  Fe  Fe74  1  0.59207053  0.44693727  0.10273596  1
  Fe  Fe75  1  0.32263637  0.27286492  0.26695956  1
  Fe  Fe76  1  0.13748176  0.68582284  0.41806869  1
  Fe  Fe77  1  0.21213380  0.92951956  0.96109096  1
  Fe  Fe78  1  0.71439265  0.77956612  0.65616569  1
  Fe  Fe79  1  0.62008258  0.57746748  0.78648922  1
  Fe  Fe80  1  0.74329636  0.18453759  0.52997258  1
  Fe  Fe81  1  0.20091845  0.32348388  0.25348060  1
  Fe  Fe82  1  0.32397036  0.40361159  0.81972338  1
  Fe  Fe83  1  0.87382978  0.20368955  0.49130399  1
  Fe  Fe84  1  1.00258118  0.95494252  0.89358960  1
  Fe  Fe85  1  0.30247072  -0.07367681  0.60359973  1
  Fe  Fe86  1  0.75420931  0.89859581  0.32465856  1
  Fe  Fe87  1  0.06331272  0.91138201  1.00167265  1
  Fe  Fe88  1  0.67310678  0.30070358  0.62319938  1
  Fe  Fe89  1  0.82278910  0.29239549  0.60212433  1
  Fe  Fe90  1  0.64925887  0.46712987  0.67878993  1
  Fe  Fe91  1  0.67846848  0.29984183  0.48588192  1
  Fe  Fe92  1  0.74248927  0.01717458  0.24294516  1
  Fe  Fe93  1  0.84347546  0.81487464  0.24829831  1
  Fe  Fe94  1  0.80905493  0.33194428  0.46670331  1
  Fe  Fe95  1  0.22796691  0.09778064  0.15494433  1
  Fe  Fe96  1  0.19708362  0.65971293  0.52023226  1
  Fe  Fe97  1  0.76148515  0.51762164  0.76045751  1
  Fe  Fe98  1  0.88110482  -0.00967695  0.92348160  1
  Fe  Fe99  1  0.65276248  0.33926861  0.19749578  1
  Fe  Fe100  1  0.72315661  0.37590249  0.08170226  1
  Fe  Fe101  1  0.13488429  0.99961403  0.24620114  1
  Bi  Bi102  1  0.69044098  0.41228076  0.34910809  1
  Bi  Bi103  1  0.84466679  0.78626750  0.42164028  1
  Bi  Bi104  1  0.21457452  0.27736472  0.41367589  1
  Bi  Bi105  1  0.33154963  0.34424404  -0.02172130  1
  Bi  Bi106  1  0.47395615  0.48016277  0.75071933  1
  Bi  Bi107  1  0.00751299  -0.09864329  0.16532891  1
  Bi  Bi108  1  0.42651704  0.00262573  0.48280682  1
  Bi  Bi109  1  0.28728661  0.04517361  0.82103376  1
  Bi  Bi110  1  0.60042072  0.89764168  0.67899017  1
  Bi  Bi111  1  0.69948688  0.04161825  0.41277352  1
  Bi  Bi112  1  0.96783654  0.36646819  0.50561392  1
  Bi  Bi113  1  0.66529771  0.58268123  0.50885941  1
  Bi  Bi114  1  0.15898114  0.16552491  0.02207313  1
  Bi  Bi115  1  0.19570197  0.77512496  0.64678535  1
  Bi  Bi116  1  0.36770846  0.85507331  0.00263374  1
  Bi  Bi117  1  0.18495253  0.36095630  0.63765866  1
  Bi  Bi118  1  0.07523956  0.52519271  0.83016378  1
  Bi  Bi119  1  0.72788791  0.62543880  0.90622147  1
  Bi  Bi120  1  0.65622719  0.15534076  0.17505589  1
  Bi  Bi121  1  0.37616031  0.11094136  0.23332353  1
  Bi  Bi122  1  0.13172152  0.86543178  0.36711888  1
  Bi  Bi123  1  -0.03374960  0.12414760  0.83281386  1
  Bi  Bi124  1  0.60023769  0.16041062  0.92131974  1
  Bi  Bi125  1  0.06143989  0.55479287  0.12090765  1
  Bi  Bi126  1  0.48056247  0.63055355  0.40701902  1
  Bi  Bi127  1  0.24329153  0.65173614  0.28374365  1
