# generated using pymatgen
data_Ba51Fe51Bi26
_symmetry_space_group_name_H-M   'P 1'
_cell_length_a   16.33282307
_cell_length_b   16.46283941
_cell_length_c   16.38278884
_cell_angle_alpha   89.31502860
_cell_angle_beta   89.99121170
_cell_angle_gamma   87.97793200
_symmetry_Int_Tables_number   1
_chemical_formula_structural   Ba51Fe51Bi26
_chemical_formula_sum   'Ba51 Fe51 Bi26'
_cell_volume   4402.02258724
_cell_formula_units_Z   1
loop_
 _symmetry_equiv_pos_site_id
 _symmetry_equiv_pos_as_xyz
  1  'x, y, z'
loop_
 _atom_site_type_symbol
 _atom_site_label
 _atom_site_symmetry_multiplicity
 _atom_site_fract_x
 _atom_site_fract_y
 _atom_site_fract_z
 _atom_site_occupancy
  Ba  Ba0  1  0.01973471  0.06255155  0.19747356  1
  Ba  Ba1  1  0.53953199  0.15420520  0.43906375  1
  Ba  Ba2  1  0.66206273  0.71946832  0.87369495  1
  Ba  Ba3  1  -0.07395247  0.36589956  0.19189179  1
  Ba  Ba4  1  0.31428476  0.28144747  0.30355316  1
  Ba  Ba5  1  -0.11528888  0.04501973  -0.01578385  1
  Ba  Ba6  1  0.77418393  0.48672099  0.82265141  1
  Ba  Ba7  1  0.46366678  0.78536783  0.26974503  1
  Ba  Ba8  1  0.51718373  0.57962597  0.14809111  1
  Ba  Ba9  1  0.04581777  0.56563814  0.26631007  1
  Ba  Ba10  1  0.76347799  0.84023008  0.33864950  1
  Ba  Ba11  1  0.52622443  0.48474139  0.71736535  1
  Ba  Ba12  1  0.04269329  0.80597441  0.28022043  1
  Ba  Ba13  1  0.47809109  0.08043664  -0.04755709  1
  Ba  Ba14  1  0.04974903  -0.01337978  0.59481189  1
  Ba  Ba15  1  0.21190406  0.72655725  -0.10450112  1
  Ba  Ba16  1  0.68818157  0.85567444  0.07512985  1
  Ba  Ba17  1  0.74356556  0.65350136  0.49703789  1
  Ba  Ba18  1  0.00853773  0.39637558  0.43028996  1
  Ba  Ba19  1  0.79297903  0.26621398  -0.06046449  1
  Ba  Ba20  1  0.38286437  0.45182916  -0.04988106  1
  Ba  Ba21  1  0.28125882  0.08693753  0.49238619  1
  Ba  Ba22  1  0.32500093  0.34399604  0.73724503  1
  Ba  Ba23  1  0.46284535  0.40513740  0.47752854  1
  Ba  Ba24  1  0.55363076  0.29421570  0.01903663  1
  Ba  Ba25  1  0.13754499  0.51325133  -0.00654345  1
  Ba  Ba26  1  0.31455253  0.05330681  0.22873913  1
  Ba  Ba27  1  0.07910146  0.46409652  0.75919672  1
  Ba  Ba28  1  0.52784491  0.79692633  0.55796114  1
  Ba  Ba29  1  0.78243911  0.29148847  0.44381978  1
  Ba  Ba30  1  0.27169144  0.82791445  0.48332655  1
  Ba  Ba31  1  0.87942472  0.46751948  0.60934013  1
  Ba  Ba32  1  0.68538176  0.00131848  0.82649384  1
  Ba  Ba33  1  -0.08638146  0.81718457  0.72701993  1
  Ba  Ba34  1  0.19364619  0.31927452  0.54009770  1
  Ba  Ba35  1  0.43285349  0.67716705  0.84349729  1
  Ba  Ba36  1  0.11798436  0.69082966  0.67954848  1
  Ba  Ba37  1  0.27414395  0.50043660  0.21864892  1
  Ba  Ba38  1  0.29885841  -0.13888721  0.06737907  1
  Ba  Ba39  1  0.82011835  0.04760967  0.55913870  1
  Ba  Ba40  1  0.71172367  0.21406043  0.22298508  1
  Ba  Ba41  1  0.23027343  0.14596193  -0.09452954  1
  Ba  Ba42  1  0.03057605  0.86666945  -0.01936439  1
  Ba  Ba43  1  0.03487044  0.14781324  0.41229932  1
  Ba  Ba44  1  0.73045747  0.48698587  0.08749862  1
  Ba  Ba45  1  0.05379384  0.27895872  -0.00480233  1
  Ba  Ba46  1  -0.11057513  0.67838901  0.06241234  1
  Ba  Ba47  1  0.65453452  0.48939137  0.34019752  1
  Ba  Ba48  1  0.31879197  -0.04942361  0.73678458  1
  Ba  Ba49  1  0.25030847  0.56098876  0.52393013  1
  Ba  Ba50  1  0.74376232  0.24673464  0.68736834  1
  Fe  Fe51  1  0.51425066  0.03131972  0.28035213  1
  Fe  Fe52  1  0.17361132  0.22907592  0.17284068  1
  Fe  Fe53  1  0.74775975  0.01254390  0.19733064  1
  Fe  Fe54  1  0.45816400  0.44599920  0.28301659  1
  Fe  Fe55  1  0.56731075  0.38496491  0.19162445  1
  Fe  Fe56  1  0.97131915  0.17100273  0.69266833  1
  Fe  Fe57  1  0.46622036  0.25678604  0.83812503  1
  Fe  Fe58  1  0.47919610  1.00524251  0.57792985  1
  Fe  Fe59  1  0.58888177  0.28443538  0.81385979  1
  Fe  Fe60  1  0.10771014  0.09757346  0.73993018  1
  Fe  Fe61  1  1.00455998  0.16650806  0.83545181  1
  Fe  Fe62  1  0.67010800  0.03683177  0.32260714  1
  Fe  Fe63  1  0.04187884  1.03593426  0.83833840  1
  Fe  Fe64  1  0.07079143  0.25310534  0.25176872  1
  Fe  Fe65  1  0.58083317  0.93442813  0.35593604  1
  Fe  Fe66  1  0.24281809  0.82896375  0.27333010  1
  Fe  Fe67  1  0.92182046  -0.10424992  0.43468585  1
  Fe  Fe68  1  0.53501908  0.89355701  0.94174840  1
  Fe  Fe69  1  0.92429303  0.57981396  0.44161098  1
  Fe  Fe70  1  0.62252258  0.93264295  0.22860438  1
  Fe  Fe71  1  0.54151158  0.57730948  0.50075595  1
  Fe  Fe72  1  0.13185923  0.36029631  0.15826976  1
  Fe  Fe73  1  0.09810664  0.24420910  0.74771050  1
  Fe  Fe74  1  0.92419563  0.73390477  0.41961024  1
  Fe  Fe75  1  0.45362043  0.57222156  0.36262944  1
  Fe  Fe76  1  0.43527863  0.36473782  0.17256769  1
  Fe  Fe77  1  0.44070620  0.12814023  0.64220917  1
  Fe  Fe78  1  0.49295253  0.02936887  0.73366444  1
  Fe  Fe79  1  0.94518456  0.67662329  0.55765523  1
  Fe  Fe80  1  0.84351015  0.54302507  0.23962889  1
  Fe  Fe81  1  0.58821227  0.96553926  0.65593001  1
  Fe  Fe82  1  0.85023923  0.49270208  0.36041688  1
  Fe  Fe83  1  0.40642764  0.15024484  0.77524129  1
  Fe  Fe84  1  0.03523213  0.56436017  0.54658298  1
  Fe  Fe85  1  0.02948114  0.67626856  0.86064000  1
  Fe  Fe86  1  0.55384435  0.15503773  0.76318841  1
  Fe  Fe87  1  0.52155592  0.32338621  0.29969240  1
  Fe  Fe88  1  0.13563599  0.35980483  0.29002132  1
  Fe  Fe89  1  0.41643287  0.86180387  0.90812935  1
  Fe  Fe90  1  0.94647837  0.23217312  0.56452881  1
  Fe  Fe91  1  0.59040198  0.09767899  0.62901659  1
  Fe  Fe92  1  0.55869311  0.65930547  0.39692163  1
  Fe  Fe93  1  0.05101594  0.64563736  0.44680252  1
  Fe  Fe94  1  0.01960577  0.30898482  0.63636732  1
  Fe  Fe95  1  0.88442132  0.81811348  0.53149922  1
  Fe  Fe96  1  0.94820232  0.58413222  0.86430606  1
  Fe  Fe97  1  0.60586319  0.06163799  0.17744706  1
  Fe  Fe98  1  0.08762537  0.18029318  0.61113705  1
  Fe  Fe99  1  0.85587968  0.64235129  0.32691940  1
  Fe  Fe100  1  0.42521008  0.64955035  0.47033402  1
  Fe  Fe101  1  0.24384657  0.72426340  0.19575320  1
  Bi  Bi102  1  0.51894179  0.27550444  0.64844259  1
  Bi  Bi103  1  0.25441577  0.15674937  0.68754658  1
  Bi  Bi104  1  0.52155693  -0.13776936  0.77103596  1
  Bi  Bi105  1  0.84474762  0.05328649  0.34155016  1
  Bi  Bi106  1  0.68542671  0.10266349  0.03519336  1
  Bi  Bi107  1  0.50100418  0.75846939  0.02824547  1
  Bi  Bi108  1  -0.07087766  0.31741168  0.78357854  1
  Bi  Bi109  1  0.64257754  -0.03130206  0.50175027  1
  Bi  Bi110  1  0.48440085  -0.04550393  0.12842358  1
  Bi  Bi111  1  0.48956167  0.19074442  0.20455605  1
  Bi  Bi112  1  0.05807994  0.79876075  0.50534384  1
  Bi  Bi113  1  -0.11245684  0.04939595  0.76616559  1
  Bi  Bi114  1  0.29745014  0.67099906  0.34686595  1
  Bi  Bi115  1  0.66769858  0.45222583  0.55994048  1
  Bi  Bi116  1  0.11661983  0.89584373  0.78126808  1
  Bi  Bi117  1  0.32164831  0.63506121  0.06061194  1
  Bi  Bi118  1  0.28182993  0.31366187  0.07398926  1
  Bi  Bi119  1  0.82604440  0.84323085  0.91447329  1
  Bi  Bi120  1  0.58545382  0.51615601  0.92884364  1
  Bi  Bi121  1  0.92339668  0.46197029  0.98477908  1
  Bi  Bi122  1  0.16165146  0.96961156  0.34772442  1
  Bi  Bi123  1  0.10749808  0.69821770  0.09952038  1
  Bi  Bi124  1  0.42785057  0.95620158  0.41419175  1
  Bi  Bi125  1  0.27772804  0.55197673  0.76574328  1
  Bi  Bi126  1  0.71775928  0.66185130  0.22177134  1
  Bi  Bi127  1  0.88374248  0.90464440  0.15467671  1
