# generated using pymatgen
data_Ba51Fe51Bi26
_symmetry_space_group_name_H-M   'P 1'
_cell_length_a   16.44229020
_cell_length_b   16.18963143
_cell_length_c   16.60381520
_cell_angle_alpha   90.01536880
_cell_angle_beta   87.38582874
_cell_angle_gamma   90.71706676
_symmetry_Int_Tables_number   1
_chemical_formula_structural   Ba51Fe51Bi26
_chemical_formula_sum   'Ba51 Fe51 Bi26'
_cell_volume   4414.90062152
_cell_formula_units_Z   1
loop_
 _symmetry_equiv_pos_site_id
 _symmetry_equiv_pos_as_xyz
  1  'x, y, z'
loop_
 _atom_site_type_symbol
 _atom_site_label
 _atom_site_symmetry_multiplicity
 _atom_site_fract_x
 _atom_site_fract_y
 _atom_site_fract_z
 _atom_site_occupancy
  Ba  Ba0  1  0.00719975  0.32779825  0.46983407  1
  Ba  Ba1  1  0.29564875  0.03015087  0.72475666  1
  Ba  Ba2  1  0.29695918  0.62183596  -0.01713055  1
  Ba  Ba3  1  -0.04813911  0.78184297  0.04712497  1
  Ba  Ba4  1  0.09441752  0.80433891  0.66695026  1
  Ba  Ba5  1  0.43644891  -0.01531029  0.01550967  1
  Ba  Ba6  1  0.31790487  0.30877716  0.30959652  1
  Ba  Ba7  1  0.64314625  0.01305815  -0.13483629  1
  Ba  Ba8  1  0.76550947  0.51265077  0.05842657  1
  Ba  Ba9  1  0.00102509  0.29945515  0.24052199  1
  Ba  Ba10  1  0.26094703  0.35608499  -0.07489299  1
  Ba  Ba11  1  0.85006531  0.14898780  0.15940716  1
  Ba  Ba12  1  0.30505400  0.73293213  0.21126004  1
  Ba  Ba13  1  0.78400989  -0.14106840  0.67788469  1
  Ba  Ba14  1  -0.04646246  0.71003270  0.47007621  1
  Ba  Ba15  1  0.59678191  0.63174395  -0.03244280  1
  Ba  Ba16  1  0.17026932  0.41738534  0.66020288  1
  Ba  Ba17  1  -0.07994090  0.55698815  0.67972720  1
  Ba  Ba18  1  -0.05944790  0.54667143  0.22163256  1
  Ba  Ba19  1  0.73111361  0.82777076  -0.02841076  1
  Ba  Ba20  1  0.24842145  0.78449301  0.46495262  1
  Ba  Ba21  1  0.71124508  0.84290061  0.41804734  1
  Ba  Ba22  1  -0.08188688  0.02529885  -0.06181600  1
  Ba  Ba23  1  0.73041960  0.26412168  -0.04707834  1
  Ba  Ba24  1  0.01760023  0.15813271  0.67529381  1
  Ba  Ba25  1  0.49587916  0.10482365  0.40756605  1
  Ba  Ba26  1  0.27738503  0.00324029  0.31793788  1
  Ba  Ba27  1  0.17694513  0.63006015  0.77831083  1
  Ba  Ba28  1  0.44600725  0.50684295  0.13676365  1
  Ba  Ba29  1  0.29142432  0.84098850  0.86948222  1
  Ba  Ba30  1  0.49217372  0.22302049  -0.00283965  1
  Ba  Ba31  1  -0.04986380  0.29283769  0.84354423  1
  Ba  Ba32  1  0.23402517  0.17639283  0.13134509  1
  Ba  Ba33  1  0.01424241  0.52554734  -0.04669165  1
  Ba  Ba34  1  0.59411860  0.40585445  0.32167100  1
  Ba  Ba35  1  0.67343809  0.51082258  0.68036879  1
  Ba  Ba36  1  0.54961052  -0.06864770  0.21566632  1
  Ba  Ba37  1  0.51868489  0.67338210  0.33366259  1
  Ba  Ba38  1  0.34213363  0.57127303  0.56064255  1
  Ba  Ba39  1  0.52304665  0.81100626  0.57947827  1
  Ba  Ba40  1  0.17353633  0.45180727  0.14219627  1
  Ba  Ba41  1  0.24335172  0.20587598  0.53471104  1
  Ba  Ba42  1  0.64380675  0.18725239  0.23443909  1
  Ba  Ba43  1  0.65924500  0.25539381  0.55721943  1
  Ba  Ba44  1  0.80785746  0.47788609  0.45494182  1
  Ba  Ba45  1  0.46791887  0.68255731  0.78506479  1
  Ba  Ba46  1  0.40877929  0.27853651  0.72130871  1
  Ba  Ba47  1  0.79291101  0.91358044  0.19701962  1
  Ba  Ba48  1  0.04929351  0.79731153  0.27137268  1
  Ba  Ba49  1  0.84733444  0.09487982  0.53950081  1
  Ba  Ba50  1  0.15568910  -0.03163745  0.00814606  1
  Fe  Fe51  1  0.95733620  0.99114345  0.26378876  1
  Fe  Fe52  1  0.38370955  -0.01410777  0.52320228  1
  Fe  Fe53  1  0.07096183  -0.01192039  0.61238748  1
  Fe  Fe54  1  0.71925311  0.34172477  0.77226976  1
  Fe  Fe55  1  0.54850277  0.82797270  0.04949756  1
  Fe  Fe56  1  0.07327411  0.91214900  0.47407702  1
  Fe  Fe57  1  0.57693821  0.35953705  0.81909598  1
  Fe  Fe58  1  0.06511852  0.54103659  0.38729381  1
  Fe  Fe59  1  0.11486082  0.72611421  0.94643347  1
  Fe  Fe60  1  0.55846016  0.42404548  0.96209575  1
  Fe  Fe61  1  0.16312363  0.46372610  0.46835835  1
  Fe  Fe62  1  0.07492210  0.83103424  0.88238624  1
  Fe  Fe63  1  0.04665439  0.05614083  0.48468593  1
  Fe  Fe64  1  0.47590888  0.99256615  0.63068656  1
  Fe  Fe65  1  0.76604941  0.69531460  0.13345858  1
  Fe  Fe66  1  -0.03852635  0.93261643  0.56295901  1
  Fe  Fe67  1  0.95810986  0.87130951  0.81563072  1
  Fe  Fe68  1  0.41385396  0.10436297  0.58223222  1
  Fe  Fe69  1  0.54352807  0.11295608  0.64479671  1
  Fe  Fe70  1  0.52754552  0.49604335  0.82285975  1
  Fe  Fe71  1  0.62556607  0.64247342  0.16400857  1
  Fe  Fe72  1  -0.00159606  -0.01341057  0.13267473  1
  Fe  Fe73  1  0.60561263  0.97969349  0.68099476  1
  Fe  Fe74  1  0.82467287  0.71945109  0.24744151  1
  Fe  Fe75  1  0.13558928  0.59961804  0.28027317  1
  Fe  Fe76  1  0.68659958  0.09556249  0.67855917  1
  Fe  Fe77  1  0.71593141  1.07385429  0.37673924  1
  Fe  Fe78  1  0.47701942  0.29393319  0.19127852  1
  Fe  Fe79  1  0.95693277  0.95604171  0.70531639  1
  Fe  Fe80  1  0.50990041  0.72149002  0.12964718  1
  Fe  Fe81  1  0.28142738  0.46769505  0.40867041  1
  Fe  Fe82  1  0.45052395  0.38070581  0.88580158  1
  Fe  Fe83  1  0.77771346  0.34233068  0.16168355  1
  Fe  Fe84  1  0.97472336  0.10937770  0.36404449  1
  Fe  Fe85  1  0.65740566  0.45393896  0.86920425  1
  Fe  Fe86  1  0.44372530  0.50543283  0.93056121  1
  Fe  Fe87  1  0.64510368  0.77489940  0.13791030  1
  Fe  Fe88  1  1.07655099  0.99735478  0.34946519  1
  Fe  Fe89  1  0.07641592  0.29312399  0.00350341  1
  Fe  Fe90  1  0.26762915  0.53905470  0.29782629  1
  Fe  Fe91  1  0.20162272  0.59691897  0.40461690  1
  Fe  Fe92  1  0.76028576  0.21627190  0.72916479  1
  Fe  Fe93  1  0.79820290  0.37976361  0.27981551  1
  Fe  Fe94  1  0.13216386  0.19873497  0.92796321  1
  Fe  Fe95  1  0.15299810  0.45177862  0.33144944  1
  Fe  Fe96  1  0.10525032  0.97361362  0.20419996  1
  Fe  Fe97  1  1.04915144  0.09787511  0.23074590  1
  Fe  Fe98  1  0.43227092  0.76175905  1.01865600  1
  Fe  Fe99  1  0.84132854  0.05928248  0.33627636  1
  Fe  Fe100  1  0.51057209  0.81830102  0.92358096  1
  Fe  Fe101  1  0.69195968  0.73745783  0.25679459  1
  Bi  Bi102  1  0.64552475  0.01933259  0.52591903  1
  Bi  Bi103  1  0.81511144  0.23357242  0.37260932  1
  Bi  Bi104  1  0.21414015  -0.00765469  0.52638431  1
  Bi  Bi105  1  0.35457279  0.49244594  0.77857522  1
  Bi  Bi106  1  0.82052408  0.46563218  0.84935468  1
  Bi  Bi107  1  0.72710479  0.57092582  0.27831710  1
  Bi  Bi108  1  0.48016622  -0.08967693  0.78259840  1
  Bi  Bi109  1  0.04089851  0.13998384  0.06604179  1
  Bi  Bi110  1  0.11759767  0.60303115  0.56038221  1
  Bi  Bi111  1  0.13762317  0.17600946  0.35388902  1
  Bi  Bi112  1  0.59445800  0.19930482  0.78094914  1
  Bi  Bi113  1  -0.08680570  -0.08174141  0.40715722  1
  Bi  Bi114  1  0.09377834  -0.01809002  0.79929100  1
  Bi  Bi115  1  0.75423730  0.67583580  0.55895910  1
  Bi  Bi116  1  0.43099787  0.13100480  0.20247992  1
  Bi  Bi117  1  0.31479929  0.76625919  0.66582440  1
  Bi  Bi118  1  0.18973798  0.23542967  0.76374360  1
  Bi  Bi119  1  0.29715629  0.12938469  0.92789482  1
  Bi  Bi120  1  0.84362111  0.33850206  0.63538203  1
  Bi  Bi121  1  0.43999339  0.87614514  0.39375493  1
  Bi  Bi122  1  0.67856862  0.04812626  0.06473285  1
  Bi  Bi123  1  0.61071988  0.36576231  0.11282041  1
  Bi  Bi124  1  0.92087661  0.35714654  0.05881956  1
  Bi  Bi125  1  0.83249946  0.06637428  0.75657085  1
  Bi  Bi126  1  0.97441690  0.70107091  0.83983845  1
  Bi  Bi127  1  0.11755848  0.65977750  0.11322126  1
