# generated using pymatgen
data_Ba51Fe51Bi26
_symmetry_space_group_name_H-M   'P 1'
_cell_length_a   16.66897915
_cell_length_b   16.71893620
_cell_length_c   15.90984117
_cell_angle_alpha   89.73808130
_cell_angle_beta   90.09736464
_cell_angle_gamma   89.99260660
_symmetry_Int_Tables_number   1
_chemical_formula_structural   Ba51Fe51Bi26
_chemical_formula_sum   'Ba51 Fe51 Bi26'
_cell_volume   4433.82266433
_cell_formula_units_Z   1
loop_
 _symmetry_equiv_pos_site_id
 _symmetry_equiv_pos_as_xyz
  1  'x, y, z'
loop_
 _atom_site_type_symbol
 _atom_site_label
 _atom_site_symmetry_multiplicity
 _atom_site_fract_x
 _atom_site_fract_y
 _atom_site_fract_z
 _atom_site_occupancy
  Ba  Ba0  1  0.48710353  -0.04972977  0.22063800  1
  Ba  Ba1  1  0.52770620  0.32389443  0.49490120  1
  Ba  Ba2  1  0.26343277  0.20458165  0.65101607  1
  Ba  Ba3  1  -0.01341863  0.29106962  0.75638589  1
  Ba  Ba4  1  0.78358420  0.27151914  0.53785253  1
  Ba  Ba5  1  0.67696396  0.76331076  0.50182495  1
  Ba  Ba6  1  0.52974942  0.32257303  0.78461819  1
  Ba  Ba7  1  0.85664234  0.50527402  0.59524627  1
  Ba  Ba8  1  0.44387179  0.72509624  0.22080505  1
  Ba  Ba9  1  0.26142335  0.81408363  0.07872376  1
  Ba  Ba10  1  0.24484281  -0.08357682  0.66447283  1
  Ba  Ba11  1  0.31395008  -0.01719457  -0.08269989  1
  Ba  Ba12  1  0.29198485  0.65904295  0.40391162  1
  Ba  Ba13  1  0.41885802  0.47851633  0.26955472  1
  Ba  Ba14  1  0.53940185  0.07414297  -0.00403449  1
  Ba  Ba15  1  0.19884511  -0.12086156  0.41717669  1
  Ba  Ba16  1  0.27777442  0.24273808  0.23907061  1
  Ba  Ba17  1  0.75574514  0.69811645  -0.06614948  1
  Ba  Ba18  1  -0.04490301  0.21666928  -0.00353783  1
  Ba  Ba19  1  0.53118837  0.08598527  0.45327542  1
  Ba  Ba20  1  0.07359358  0.56323841  0.68286280  1
  Ba  Ba21  1  0.20053657  0.20108680  -0.05292885  1
  Ba  Ba22  1  0.01823711  0.00847381  0.55228166  1
  Ba  Ba23  1  0.72554846  -0.04538248  0.00376223  1
  Ba  Ba24  1  0.75981094  0.33528476  0.82832836  1
  Ba  Ba25  1  -0.06139316  0.01958523  0.80169778  1
  Ba  Ba26  1  0.74584831  0.02886137  0.55604465  1
  Ba  Ba27  1  0.20205923  0.59576031  0.16083905  1
  Ba  Ba28  1  0.62859613  0.59442788  0.12722553  1
  Ba  Ba29  1  0.24140909  0.40280367  0.05412096  1
  Ba  Ba30  1  0.26631110  0.42915239  0.48076431  1
  Ba  Ba31  1  0.02726163  0.72130605  0.05525560  1
  Ba  Ba32  1  -0.05029121  -0.05317569  0.03839520  1
  Ba  Ba33  1  0.52032978  0.55802498  0.55552471  1
  Ba  Ba34  1  0.50260670  0.22812341  0.22478198  1
  Ba  Ba35  1  0.00662026  0.03188594  0.26651385  1
  Ba  Ba36  1  -0.00416947  0.75226230  0.32035150  1
  Ba  Ba37  1  0.10169970  0.22860638  0.41820766  1
  Ba  Ba38  1  0.22078223  0.68353500  -0.12345056  1
  Ba  Ba39  1  0.23430543  0.41289635  0.79145078  1
  Ba  Ba40  1  0.71905067  0.27283068  0.10796211  1
  Ba  Ba41  1  -0.12789548  0.47516030  0.01546533  1
  Ba  Ba42  1  0.51228860  0.06013068  0.74205205  1
  Ba  Ba43  1  0.24499676  0.02914584  0.17596463  1
  Ba  Ba44  1  0.53009568  0.73765797  0.73680106  1
  Ba  Ba45  1  0.31417118  0.66661093  0.64710961  1
  Ba  Ba46  1  0.75497829  0.78000412  0.26919765  1
  Ba  Ba47  1  0.45834678  0.48022802  -0.00060818  1
  Ba  Ba48  1  -0.02944257  0.78304407  0.72308194  1
  Ba  Ba49  1  0.79382383  0.48494710  0.29864905  1
  Ba  Ba50  1  0.03949452  0.51266735  0.41621539  1
  Fe  Fe51  1  0.59713272  0.44690739  0.34346109  1
  Fe  Fe52  1  0.38431959  0.82208051  0.39335892  1
  Fe  Fe53  1  0.09618981  0.06951290  0.04335693  1
  Fe  Fe54  1  0.78379600  0.97142486  0.23535553  1
  Fe  Fe55  1  0.80242146  0.15879728  0.76031155  1
  Fe  Fe56  1  0.79948416  0.86230357  0.79663776  1
  Fe  Fe57  1  0.10852817  0.02887491  0.91198853  1
  Fe  Fe58  1  0.34062927  0.05082639  0.49639474  1
  Fe  Fe59  1  0.40087266  0.18530755  0.92700821  1
  Fe  Fe60  1  0.60357923  0.52779483  0.78034019  1
  Fe  Fe61  1  0.05999891  0.49793152  0.02653485  1
  Fe  Fe62  1  0.37695168  0.26824801  0.05891708  1
  Fe  Fe63  1  0.45113582  0.82083528  0.03238083  1
  Fe  Fe64  1  0.43908029  0.78227041  0.53434132  1
  Fe  Fe65  1  0.05264117  0.81716271  0.52943500  1
  Fe  Fe66  1  0.13878533  0.94511496  0.02881602  1
  Fe  Fe67  1  0.52910299  0.72164994  -0.03327172  1
  Fe  Fe68  1  0.36601187  0.14144240  0.05618412  1
  Fe  Fe69  1  0.36492781  -0.03497756  0.37716502  1
  Fe  Fe70  1  0.38866685  0.91469458  0.51920502  1
  Fe  Fe71  1  0.68330275  0.87315619  0.68647397  1
  Fe  Fe72  1  1.00847006  0.45516875  0.87030245  1
  Fe  Fe73  1  0.88563385  0.48869609  0.80305697  1
  Fe  Fe74  1  0.12287743  0.69054850  0.49138105  1
  Fe  Fe75  1  0.59842150  0.40220218  0.22177044  1
  Fe  Fe76  1  0.24626710  0.06830817  0.37758627  1
  Fe  Fe77  1  0.77224627  0.08133005  0.31259192  1
  Fe  Fe78  1  0.67507432  0.15318154  0.85394280  1
  Fe  Fe79  1  1.03270245  0.35646091  0.24876585  1
  Fe  Fe80  1  0.39420418  0.68315815  0.02811998  1
  Fe  Fe81  1  0.11398549  0.89556267  0.90525036  1
  Fe  Fe82  1  0.85832926  0.60894361  0.77215699  1
  Fe  Fe83  1  0.73961374  0.53821083  0.78166357  1
  Fe  Fe84  1  0.13388681  0.74844119  0.61184472  1
  Fe  Fe85  1  0.79476053  0.13383137  0.90214944  1
  Fe  Fe86  1  0.12405032  0.51640788  0.91196982  1
  Fe  Fe87  1  0.37467143  0.31156199  0.92711475  1
  Fe  Fe88  1  0.56277095  0.60684198  0.88531936  1
  Fe  Fe89  1  0.21134688  0.06266428  0.50968783  1
  Fe  Fe90  1  -0.00772179  0.69801474  0.53375185  1
  Fe  Fe91  1  0.83630018  0.96567598  0.37252731  1
  Fe  Fe92  1  0.39081283  0.78502583  0.91314226  1
  Fe  Fe93  1  0.48834715  0.73524043  0.41827134  1
  Fe  Fe94  1  0.81404396  0.87664376  0.65728818  1
  Fe  Fe95  1  0.37160882  0.09295698  0.34208663  1
  Fe  Fe96  1  0.07547614  0.37733951  0.95990997  1
  Fe  Fe97  1  0.49913573  0.88342886  0.42500652  1
  Fe  Fe98  1  0.42337495  0.65582108  0.89721815  1
  Fe  Fe99  1  0.06172830  0.37614598  0.11418974  1
  Fe  Fe100  1  0.67032369  0.84967344  0.82519659  1
  Fe  Fe101  1  0.68046515  0.17008581  0.71336547  1
  Bi  Bi102  1  0.54131008  0.91035339  0.59649395  1
  Bi  Bi103  1  0.67314817  0.29863766  0.33682038  1
  Bi  Bi104  1  -0.11195203  0.85205667  0.49872077  1
  Bi  Bi105  1  0.00324920  0.52762546  0.18871247  1
  Bi  Bi106  1  0.09211544  0.20586106  0.15843234  1
  Bi  Bi107  1  0.43258935  0.53717831  0.78065968  1
  Bi  Bi108  1  0.72276916  0.00909467  0.78222379  1
  Bi  Bi109  1  0.52900219  0.28029604  0.00032891  1
  Bi  Bi110  1  0.75249079  0.71827189  0.70742790  1
  Bi  Bi111  1  0.66759740  0.48746341  0.94087109  1
  Bi  Bi112  1  0.33730929  0.21573463  0.44886143  1
  Bi  Bi113  1  0.66322647  -0.05763308  0.36624076  1
  Bi  Bi114  1  0.51926028  0.89232436  -0.11080978  1
  Bi  Bi115  1  0.65070160  0.07839248  0.18667163  1
  Bi  Bi116  1  0.60497723  0.80599773  0.10061885  1
  Bi  Bi117  1  0.18821662  0.42316574  0.27956846  1
  Bi  Bi118  1  0.66704653  0.43181583  0.65030012  1
  Bi  Bi119  1  0.10527496  0.36703944  0.60176838  1
  Bi  Bi120  1  0.98831590  0.62187174  0.87575509  1
  Bi  Bi121  1  0.85907959  0.64621809  0.43728138  1
  Bi  Bi122  1  0.89332111  0.12447277  0.42342062  1
  Bi  Bi123  1  0.38742505  0.39621766  0.64302769  1
  Bi  Bi124  1  0.92595582  0.33830978  0.38008227  1
  Bi  Bi125  1  0.84300181  0.10101211  0.14510294  1
  Bi  Bi126  1  0.84627046  0.65069242  0.13685518  1
  Bi  Bi127  1  0.58317409  0.61416353  0.34656815  1
