# generated using pymatgen
data_Ba51Fe51Bi26
_symmetry_space_group_name_H-M   'P 1'
_cell_length_a   16.88769940
_cell_length_b   16.04966763
_cell_length_c   15.99895612
_cell_angle_alpha   91.20886683
_cell_angle_beta   90.02250793
_cell_angle_gamma   90.84342552
_symmetry_Int_Tables_number   1
_chemical_formula_structural   Ba51Fe51Bi26
_chemical_formula_sum   'Ba51 Fe51 Bi26'
_cell_volume   4334.95251927
_cell_formula_units_Z   1
loop_
 _symmetry_equiv_pos_site_id
 _symmetry_equiv_pos_as_xyz
  1  'x, y, z'
loop_
 _atom_site_type_symbol
 _atom_site_label
 _atom_site_symmetry_multiplicity
 _atom_site_fract_x
 _atom_site_fract_y
 _atom_site_fract_z
 _atom_site_occupancy
  Ba  Ba0  1  0.54000790  -0.00057025  0.26724815  1
  Ba  Ba1  1  0.49141698  -0.09159367  0.03106097  1
  Ba  Ba2  1  0.50207148  0.71439923  -0.15136655  1
  Ba  Ba3  1  -0.03054964  0.83516328  0.83361775  1
  Ba  Ba4  1  0.82066679  0.02972286  0.24819512  1
  Ba  Ba5  1  0.82147675  0.54618446  0.30027182  1
  Ba  Ba6  1  0.46554541  0.49899183  0.66959210  1
  Ba  Ba7  1  0.52620196  0.24011769  0.25114119  1
  Ba  Ba8  1  0.29031298  -0.00011325  0.74338488  1
  Ba  Ba9  1  -0.02336222  0.01407779  0.00409784  1
  Ba  Ba10  1  0.75424838  0.18592425  0.00253969  1
  Ba  Ba11  1  0.75220419  0.42479303  -0.05771821  1
  Ba  Ba12  1  0.62353947  -0.08374162  0.65002315  1
  Ba  Ba13  1  -0.00210272  0.31585694  0.58185858  1
  Ba  Ba14  1  0.51078586  0.44419052  -0.06790899  1
  Ba  Ba15  1  0.22890253  0.48222929  -0.00075890  1
  Ba  Ba16  1  0.41501556  0.05841240  0.47134550  1
  Ba  Ba17  1  -0.00261211  0.68230486  0.37403225  1
  Ba  Ba18  1  -0.10922919  0.56138333  0.60236734  1
  Ba  Ba19  1  0.24503122  -0.08291894  0.22974663  1
  Ba  Ba20  1  0.55091441  0.31087017  0.53447501  1
  Ba  Ba21  1  0.77051809  -0.02337151  0.47558450  1
  Ba  Ba22  1  0.42663337  0.44160406  0.15899374  1
  Ba  Ba23  1  0.75933802  0.78056315  0.74711645  1
  Ba  Ba24  1  0.29084576  0.72767429  0.04057271  1
  Ba  Ba25  1  0.45641984  0.68087782  0.45075121  1
  Ba  Ba26  1  -0.05758367  0.18984820  0.79146914  1
  Ba  Ba27  1  0.76404913  0.23344606  0.59046105  1
  Ba  Ba28  1  -0.01457048  0.47429703  -0.10179836  1
  Ba  Ba29  1  0.77849266  0.79417879  0.03456229  1
  Ba  Ba30  1  0.23991332  0.71739321  0.39162394  1
  Ba  Ba31  1  0.57738636  0.70776471  0.21629745  1
  Ba  Ba32  1  0.68309602  0.51041003  0.69088294  1
  Ba  Ba33  1  0.12922007  0.10679754  0.58167509  1
  Ba  Ba34  1  0.26799766  0.25668675  0.16924266  1
  Ba  Ba35  1  0.05954750  0.48744699  0.20826670  1
  Ba  Ba36  1  0.70662653  0.70769688  0.46328157  1
  Ba  Ba37  1  0.04041590  0.24392728  0.30937616  1
  Ba  Ba38  1  0.66922644  0.11495218  0.77442500  1
  Ba  Ba39  1  0.66189538  0.46134272  0.15981340  1
  Ba  Ba40  1  0.12929198  0.81715989  0.66365493  1
  Ba  Ba41  1  0.40890313  0.83611830  0.62831932  1
  Ba  Ba42  1  0.25716743  0.21215877  -0.07969924  1
  Ba  Ba43  1  0.79013518  0.29489300  0.34266209  1
  Ba  Ba44  1  0.03652973  -0.05243907  0.44304200  1
  Ba  Ba45  1  0.31883359  0.32386464  0.39576855  1
  Ba  Ba46  1  0.04467347  0.69269796  -0.00876224  1
  Ba  Ba47  1  0.12037788  0.53885866  0.56213368  1
  Ba  Ba48  1  0.25185516  0.32431461  0.63764901  1
  Ba  Ba49  1  0.44211984  0.20645990  0.77371481  1
  Ba  Ba50  1  0.03954157  0.27147305  0.02388321  1
  Fe  Fe51  1  0.18145047  0.49809102  0.78800518  1
  Fe  Fe52  1  0.55584059  0.13865166  0.07315479  1
  Fe  Fe53  1  0.32176941  0.64494844  0.66633646  1
  Fe  Fe54  1  0.56993362  0.52802621  0.47024312  1
  Fe  Fe55  1  0.38469076  0.61747123  0.25287041  1
  Fe  Fe56  1  -0.09294747  0.06270847  0.61470227  1
  Fe  Fe57  1  0.19833444  0.17056444  0.38713949  1
  Fe  Fe58  1  0.17100111  0.10137267  0.26654199  1
  Fe  Fe59  1  0.30922540  0.11135712  0.30019745  1
  Fe  Fe60  1  0.16464773  0.90163771  0.02499220  1
  Fe  Fe61  1  0.96715286  0.74145386  0.18227768  1
  Fe  Fe62  1  0.88699481  0.65944604  0.81311879  1
  Fe  Fe63  1  0.20175831  0.01740502  0.93197968  1
  Fe  Fe64  1  0.87343801  0.39183364  0.13014977  1
  Fe  Fe65  1  0.26202279  0.58191812  0.22170701  1
  Fe  Fe66  1  0.57725499  0.10680621  0.58361213  1
  Fe  Fe67  1  0.82883948  0.54129352  0.80713032  1
  Fe  Fe68  1  0.93849065  0.87418363  0.14897814  1
  Fe  Fe69  1  0.06987122  0.84789006  0.11984000  1
  Fe  Fe70  1  0.93551586  0.86042696  0.28530487  1
  Fe  Fe71  1  0.46227414  0.45868971  0.42202527  1
  Fe  Fe72  1  0.28467214  -0.01770495  0.04472730  1
  Fe  Fe73  1  0.80978248  -0.00163848  0.69123298  1
  Fe  Fe74  1  0.35165787  0.03413162  0.93521492  1
  Fe  Fe75  1  0.59055939  1.07761545  0.95125409  1
  Fe  Fe76  1  0.58181065  0.42147385  0.35300431  1
  Fe  Fe77  1  0.21581749  0.51927854  0.35357410  1
  Fe  Fe78  1  0.25527366  0.44819143  0.24713251  1
  Fe  Fe79  1  0.20178098  0.64051066  0.72142911  1
  Fe  Fe80  1  0.68189128  0.87675810  0.19769312  1
  Fe  Fe81  1  0.18646231  0.62764421  0.85794452  1
  Fe  Fe82  1  0.06119159  0.83479569  0.25906224  1
  Fe  Fe83  1  0.31352027  0.58736759  0.81440193  1
  Fe  Fe84  1  0.16408947  0.87967183  0.88613595  1
  Fe  Fe85  1  0.57302808  0.28312062  0.05494798  1
  Fe  Fe86  1  0.29456471  0.89481742  0.93345565  1
  Fe  Fe87  1  0.85285670  0.62843723  0.93989831  1
  Fe  Fe88  1  0.49002315  0.05222780  0.65918868  1
  Fe  Fe89  1  0.50000407  0.54228201  0.31331520  1
  Fe  Fe90  1  0.56989159  0.22352055  -0.07004614  1
  Fe  Fe91  1  0.45156582  0.23629287  1.02846368  1
  Fe  Fe92  1  0.27706471  0.51521916  0.68932780  1
  Fe  Fe93  1  0.00258672  0.97427120  0.65651566  1
  Fe  Fe94  1  0.92153999  1.00186431  0.76015210  1
  Fe  Fe95  1  0.35425068  0.51868759  0.33943234  1
  Fe  Fe96  1  0.46273376  0.11394110  0.94962692  1
  Fe  Fe97  1  0.67828602  0.86350766  0.32695008  1
  Fe  Fe98  1  0.63141894  0.55029382  0.35091418  1
  Fe  Fe99  1  0.23299122  1.04310224  0.39262341  1
  Fe  Fe100  1  0.74048076  0.62648657  0.87032228  1
  Fe  Fe101  1  0.89143377  0.90421794  0.63416684  1
  Bi  Bi102  1  0.71790638  0.45658793  0.47715551  1
  Bi  Bi103  1  0.04302054  0.63172065  0.75784818  1
  Bi  Bi104  1  0.15918125  0.08757992  0.08698429  1
  Bi  Bi105  1  0.29184664  0.77118874  0.81028126  1
  Bi  Bi106  1  0.67053243  0.00783924  0.08981369  1
  Bi  Bi107  1  0.03174689  0.00296319  0.23157790  1
  Bi  Bi108  1  0.39624274  0.08980625  0.12146914  1
  Bi  Bi109  1  0.13897605  0.69679538  0.19261846  1
  Bi  Bi110  1  0.31834848  0.51868198  0.51301298  1
  Bi  Bi111  1  0.49110727  -0.02007235  0.82243477  1
  Bi  Bi112  1  0.79929524  0.76727845  0.25889459  1
  Bi  Bi113  1  0.33409094  0.40853312  0.82112099  1
  Bi  Bi114  1  0.08906802  0.02298373  0.80010995  1
  Bi  Bi115  1  0.85795663  0.38617806  0.73355625  1
  Bi  Bi116  1  0.63546960  0.14138496  0.42189832  1
  Bi  Bi117  1  0.92155107  0.13951836  0.46052511  1
  Bi  Bi118  1  0.88701588  0.55872974  0.09297296  1
  Bi  Bi119  1  0.89012762  0.22752772  0.15998494  1
  Bi  Bi120  1  0.61419011  0.32443446  0.78242130  1
  Bi  Bi121  1  0.79922519  -0.02830401  0.86781072  1
  Bi  Bi122  1  0.24617700  0.92009277  0.51061793  1
  Bi  Bi123  1  0.11287823  0.33043906  0.80358865  1
  Bi  Bi124  1  0.55882600  0.87236209  0.44135659  1
  Bi  Bi125  1  0.97470411  0.45133299  0.41209922  1
  Bi  Bi126  1  0.63255180  0.62028414  0.00366636  1
  Bi  Bi127  1  0.57779165  0.69279204  0.64160174  1
