# generated using pymatgen
data_Ba51Fe51Bi26
_symmetry_space_group_name_H-M   'P 1'
_cell_length_a   16.11720380
_cell_length_b   16.44004940
_cell_length_c   16.63284810
_cell_angle_alpha   90.37213062
_cell_angle_beta   88.12637142
_cell_angle_gamma   89.53567486
_symmetry_Int_Tables_number   1
_chemical_formula_structural   Ba51Fe51Bi26
_chemical_formula_sum   'Ba51 Fe51 Bi26'
_cell_volume   4404.56469116
_cell_formula_units_Z   1
loop_
 _symmetry_equiv_pos_site_id
 _symmetry_equiv_pos_as_xyz
  1  'x, y, z'
loop_
 _atom_site_type_symbol
 _atom_site_label
 _atom_site_symmetry_multiplicity
 _atom_site_fract_x
 _atom_site_fract_y
 _atom_site_fract_z
 _atom_site_occupancy
  Ba  Ba0  1  0.23388134  0.43107245  0.30880147  1
  Ba  Ba1  1  0.23092610  -0.16717724  0.13194731  1
  Ba  Ba2  1  0.82723184  0.57086325  0.28404608  1
  Ba  Ba3  1  0.48066902  0.16579573  0.05933846  1
  Ba  Ba4  1  0.34870909  0.41290803  -0.00732435  1
  Ba  Ba5  1  0.71667904  0.74926130  0.58177893  1
  Ba  Ba6  1  0.46454455  0.45280916  0.74030561  1
  Ba  Ba7  1  0.58473517  0.40137398  0.02191584  1
  Ba  Ba8  1  0.48429353  0.07870746  0.78196044  1
  Ba  Ba9  1  0.09577097  0.04149567  0.17451296  1
  Ba  Ba10  1  0.05425112  0.54981681  0.48229303  1
  Ba  Ba11  1  0.46008585  0.76542650  0.48530042  1
  Ba  Ba12  1  -0.00117252  -0.10270622  0.44573985  1
  Ba  Ba13  1  0.65937534  0.31026647  0.74495867  1
  Ba  Ba14  1  0.19930318  0.75540006  0.42970670  1
  Ba  Ba15  1  0.81318267  0.34934866  -0.08308062  1
  Ba  Ba16  1  0.76120414  0.36080505  0.19298100  1
  Ba  Ba17  1  0.69961165  0.00824477  0.49796638  1
  Ba  Ba18  1  0.80164957  0.21862703  0.40732361  1
  Ba  Ba19  1  0.79144120  0.81667027  0.32802883  1
  Ba  Ba20  1  0.30099347  0.82742900  0.70684212  1
  Ba  Ba21  1  0.73381542  0.72971480  -0.07070111  1
  Ba  Ba22  1  0.78648832  0.51159330  0.54909291  1
  Ba  Ba23  1  -0.02201301  0.64846657  0.10239226  1
  Ba  Ba24  1  0.28499866  0.01343979  -0.03691494  1
  Ba  Ba25  1  0.03222372  0.65197462  0.82277170  1
  Ba  Ba26  1  0.56747033  0.27301635  0.29804808  1
  Ba  Ba27  1  0.03083539  0.25413653  0.53114573  1
  Ba  Ba28  1  0.30520860  0.26827154  0.69429637  1
  Ba  Ba29  1  -0.01645789  0.13367092  -0.05501096  1
  Ba  Ba30  1  0.57264940  -0.07605863  0.00690851  1
  Ba  Ba31  1  0.22741015  0.19180671  0.32720576  1
  Ba  Ba32  1  0.54221821  0.49361361  0.49077010  1
  Ba  Ba33  1  -0.12857108  0.14867995  0.70793374  1
  Ba  Ba34  1  0.19127590  0.05798237  0.75325374  1
  Ba  Ba35  1  0.47580612  0.55128292  0.25629366  1
  Ba  Ba36  1  0.23886572  0.64737726  -0.04360181  1
  Ba  Ba37  1  -0.04058946  0.87643765  0.01391834  1
  Ba  Ba38  1  0.58549117  0.78763180  0.22297525  1
  Ba  Ba39  1  0.71108114  -0.04208207  0.75032452  1
  Ba  Ba40  1  0.42055202  -0.01798099  0.29178574  1
  Ba  Ba41  1  0.73991784  0.14573282  0.08127168  1
  Ba  Ba42  1  0.40286471  0.26699966  0.46774885  1
  Ba  Ba43  1  0.02012882  -0.11513208  0.73012721  1
  Ba  Ba44  1  0.51224437  0.70453404  0.76672485  1
  Ba  Ba45  1  0.85877189  0.01847047  0.23276881  1
  Ba  Ba46  1  0.05210209  0.39364567  -0.07187806  1
  Ba  Ba47  1  0.49269933  0.64839205  0.02202768  1
  Ba  Ba48  1  0.07386117  0.44385812  0.68836425  1
  Ba  Ba49  1  0.46286519  0.04505297  0.53742274  1
  Ba  Ba50  1  0.21129364  0.25231080  0.08429615  1
  Fe  Fe51  1  0.30171564  0.92400967  0.47702666  1
  Fe  Fe52  1  0.97221311  0.27123932  0.11610423  1
  Fe  Fe53  1  1.00516065  0.71012426  0.32716979  1
  Fe  Fe54  1  0.35526140  0.45733800  0.54330711  1
  Fe  Fe55  1  0.12385580  0.71573443  0.25479771  1
  Fe  Fe56  1  0.88530016  0.58322594  0.70973999  1
  Fe  Fe57  1  0.28090800  0.66799270  0.59712036  1
  Fe  Fe58  1  0.70023997  0.21804964  0.57782640  1
  Fe  Fe59  1  0.28325871  0.05554553  0.45278215  1
  Fe  Fe60  1  0.66709246  0.98053803  0.19261309  1
  Fe  Fe61  1  0.61236421  0.13546064  0.62676211  1
  Fe  Fe62  1  0.64278256  1.07981757  0.90643565  1
  Fe  Fe63  1  0.33147502  0.66893359  0.15325146  1
  Fe  Fe64  1  0.82448290  0.56431993  0.86301372  1
  Fe  Fe65  1  0.21022887  0.10653715  0.55939207  1
  Fe  Fe66  1  0.16984851  0.95390048  0.53434092  1
  Fe  Fe67  1  0.94164288  0.35400355  0.24470745  1
  Fe  Fe68  1  0.62741212  0.20998301  0.91454695  1
  Fe  Fe69  1  0.53944845  0.24828745  0.60443327  1
  Fe  Fe70  1  0.23545916  0.54447742  0.55333202  1
  Fe  Fe71  1  0.68270103  0.64394608  0.12242881  1
  Fe  Fe72  1  0.13469206  0.06153703  0.45313709  1
  Fe  Fe73  1  0.20246374  0.59737587  0.69232337  1
  Fe  Fe74  1  0.18166367  0.18706773  0.90281923  1
  Fe  Fe75  1  0.06998279  0.36473347  0.19030308  1
  Fe  Fe76  1  0.02929649  0.29718083  0.32930218  1
  Fe  Fe77  1  0.62415397  0.97194678  0.32280271  1
  Fe  Fe78  1  0.28638318  0.47654184  0.66182549  1
  Fe  Fe79  1  0.65091001  0.52721845  0.15581443  1
  Fe  Fe80  1  0.92858935  0.21456550  0.23404387  1
  Fe  Fe81  1  0.38798186  0.58145813  0.60299360  1
  Fe  Fe82  1  0.75024202  0.14896448  0.86884198  1
  Fe  Fe83  1  0.59889107  0.17935326  0.47978906  1
  Fe  Fe84  1  0.90338459  0.47668240  0.79704476  1
  Fe  Fe85  1  0.06536525  0.22690480  0.21809344  1
  Fe  Fe86  1  0.62266848  0.30999647  0.51684364  1
  Fe  Fe87  1  0.75112753  0.93660515  0.08975094  1
  Fe  Fe88  1  0.75213373  0.61912097  0.74994233  1
  Fe  Fe89  1  0.57969700  0.08337733  0.22370362  1
  Fe  Fe90  1  0.68404384  0.09627837  0.30278205  1
  Fe  Fe91  1  0.76797640  0.48372136  0.75273086  1
  Fe  Fe92  1  0.31653513  0.20374638  0.89719688  1
  Fe  Fe93  1  0.18115391  0.62735678  0.15539309  1
  Fe  Fe94  1  0.93727481  0.67889942  0.62612721  1
  Fe  Fe95  1  0.56421041  0.09503394  0.37114174  1
  Fe  Fe96  1  0.25534856  0.63558629  0.27146901  1
  Fe  Fe97  1  0.32874326  0.60652581  0.73087055  1
  Fe  Fe98  1  0.28482399  0.99318242  0.59211065  1
  Fe  Fe99  1  0.21950572  0.30647524  0.86561866  1
  Fe  Fe100  1  0.20015204  0.84426789  0.88846503  1
  Fe  Fe101  1  0.30269659  0.54329929  0.15018727  1
  Bi  Bi102  1  0.00892804  0.84465462  0.22404516  1
  Bi  Bi103  1  0.20626093  -0.04468902  0.33805109  1
  Bi  Bi104  1  0.37785168  0.76253648  0.28063060  1
  Bi  Bi105  1  0.77056564  0.53169390  0.03090656  1
  Bi  Bi106  1  0.10920583  0.71834205  0.62540218  1
  Bi  Bi107  1  0.21216867  0.37155382  0.52328210  1
  Bi  Bi108  1  0.23931477  0.47728269  0.82266974  1
  Bi  Bi109  1  0.00640069  0.12414810  0.35537671  1
  Bi  Bi110  1  0.84743442  0.76048476  0.74852168  1
  Bi  Bi111  1  0.34311607  0.58507471  0.43013819  1
  Bi  Bi112  1  0.86766446  0.36188664  0.68272835  1
  Bi  Bi113  1  -0.09389548  0.40112004  0.40093950  1
  Bi  Bi114  1  0.08040511  0.24123171  0.77600833  1
  Bi  Bi115  1  0.93635670  0.43597521  0.10174748  1
  Bi  Bi116  1  0.53796187  0.88248953  0.65303697  1
  Bi  Bi117  1  0.16156358  0.47328911  0.09004986  1
  Bi  Bi118  1  0.06951154  0.56288206  0.27409266  1
  Bi  Bi119  1  0.79804216  0.99139015  0.93613916  1
  Bi  Bi120  1  0.47202849  0.27812172  0.86939810  1
  Bi  Bi121  1  0.39451859  0.32765189  0.18924019  1
  Bi  Bi122  1  0.36685527  0.81877579  0.91962889  1
  Bi  Bi123  1  0.89866436  0.69539580  0.46398618  1
  Bi  Bi124  1  0.63196075  0.53931398  0.85319507  1
  Bi  Bi125  1  0.78779714  0.77994466  0.12360614  1
  Bi  Bi126  1  0.04023509  0.04956927  0.59917650  1
  Bi  Bi127  1  0.64126622  0.65813461  0.39629832  1
