# generated using pymatgen
data_Ba51Fe51Bi26
_symmetry_space_group_name_H-M   'P 1'
_cell_length_a   17.15418209
_cell_length_b   15.74056603
_cell_length_c   16.49800302
_cell_angle_alpha   87.69612948
_cell_angle_beta   89.45880862
_cell_angle_gamma   94.35650419
_symmetry_Int_Tables_number   1
_chemical_formula_structural   Ba51Fe51Bi26
_chemical_formula_sum   'Ba51 Fe51 Bi26'
_cell_volume   4437.92287145
_cell_formula_units_Z   1
loop_
 _symmetry_equiv_pos_site_id
 _symmetry_equiv_pos_as_xyz
  1  'x, y, z'
loop_
 _atom_site_type_symbol
 _atom_site_label
 _atom_site_symmetry_multiplicity
 _atom_site_fract_x
 _atom_site_fract_y
 _atom_site_fract_z
 _atom_site_occupancy
  Ba  Ba0  1  0.51583623  0.17778988  0.69265484  1
  Ba  Ba1  1  0.73626480  0.00944770  -0.00414083  1
  Ba  Ba2  1  0.74158165  0.07784706  0.73482009  1
  Ba  Ba3  1  0.77300242  0.78757645  0.34136145  1
  Ba  Ba4  1  -0.03940908  0.38500241  0.78504652  1
  Ba  Ba5  1  0.73972542  0.03657411  0.42381173  1
  Ba  Ba6  1  0.18969853  0.42694507  0.56997632  1
  Ba  Ba7  1  0.44753162  0.78721296  0.55258854  1
  Ba  Ba8  1  0.05077543  0.76673349  0.36945087  1
  Ba  Ba9  1  0.46893981  0.02536047  0.25836687  1
  Ba  Ba10  1  0.61720894  0.33716648  0.50735018  1
  Ba  Ba11  1  0.80627459  0.49192625  0.48388629  1
  Ba  Ba12  1  0.23091192  0.70257126  0.11300930  1
  Ba  Ba13  1  0.03922285  0.51780531  0.19626880  1
  Ba  Ba14  1  -0.15753292  0.05134596  0.21280371  1
  Ba  Ba15  1  0.63271137  0.26485387  0.03283995  1
  Ba  Ba16  1  0.54518952  0.80610439  0.01381503  1
  Ba  Ba17  1  0.25112768  -0.02465095  0.48521058  1
  Ba  Ba18  1  0.08834097  0.18436887  0.74156217  1
  Ba  Ba19  1  0.65803498  0.70092430  0.54242746  1
  Ba  Ba20  1  0.51571465  0.55116143  0.70271532  1
  Ba  Ba21  1  0.06743808  0.46137392  -0.02388843  1
  Ba  Ba22  1  0.29760395  -0.07348167  -0.01409406  1
  Ba  Ba23  1  0.78731606  0.42496310  0.25194380  1
  Ba  Ba24  1  0.08966185  0.09301299  0.17117160  1
  Ba  Ba25  1  0.28794192  0.24905798  0.27592624  1
  Ba  Ba26  1  0.54874045  0.43992317  0.21353806  1
  Ba  Ba27  1  -0.08226671  0.80649669  0.15614704  1
  Ba  Ba28  1  0.32397600  0.51983527  -0.08413971  1
  Ba  Ba29  1  0.14949002  0.18459363  0.46904139  1
  Ba  Ba30  1  0.78888807  0.72150790  -0.04405359  1
  Ba  Ba31  1  0.25316093  0.91461917  0.25777806  1
  Ba  Ba32  1  0.12508356  0.62148948  0.74010700  1
  Ba  Ba33  1  0.43173631  0.47225314  0.45342507  1
  Ba  Ba34  1  0.80009868  0.46693627  0.01055246  1
  Ba  Ba35  1  0.21286532  0.26266350  0.00208191  1
  Ba  Ba36  1  0.75455277  0.49038494  0.76011652  1
  Ba  Ba37  1  0.32899550  0.30809500  0.71434404  1
  Ba  Ba38  1  0.25586856  0.67139547  0.42866080  1
  Ba  Ba39  1  -0.03387232  0.26448242  0.29276406  1
  Ba  Ba40  1  0.50027566  0.06232249  0.49009100  1
  Ba  Ba41  1  -0.06574695  0.20659612  0.53187842  1
  Ba  Ba42  1  0.55398184  0.53308055  -0.02862920  1
  Ba  Ba43  1  0.56151315  0.70842071  0.25812981  1
  Ba  Ba44  1  0.88800653  0.77284888  0.73233678  1
  Ba  Ba45  1  0.29453719  0.49387102  0.22631969  1
  Ba  Ba46  1  0.51290917  -0.07772533  0.79029853  1
  Ba  Ba47  1  0.16564143  -0.10703797  0.75975745  1
  Ba  Ba48  1  0.41868249  0.18329649  -0.05367137  1
  Ba  Ba49  1  0.01759745  -0.01753359  -0.05558778  1
  Ba  Ba50  1  -0.01406003  -0.07160266  0.53036059  1
  Fe  Fe51  1  0.97853191  0.75519030  0.94144014  1
  Fe  Fe52  1  0.35009317  0.16531571  0.44484137  1
  Fe  Fe53  1  0.70148386  0.69216300  0.74428464  1
  Fe  Fe54  1  0.71528973  0.23581834  0.24084743  1
  Fe  Fe55  1  0.91956356  0.35504876  0.12768863  1
  Fe  Fe56  1  0.28901992  0.76361196  0.65271558  1
  Fe  Fe57  1  0.02370627  0.29818332  0.08864039  1
  Fe  Fe58  1  0.36711325  0.70510407  0.26506597  1
  Fe  Fe59  1  0.75993036  0.23479414  0.58095153  1
  Fe  Fe60  1  0.60202159  0.36442736  0.72119428  1
  Fe  Fe61  1  0.07923519  1.00425715  0.36119601  1
  Fe  Fe62  1  0.34098934  0.09838349  0.73670723  1
  Fe  Fe63  1  0.74811678  0.61410270  0.24780787  1
  Fe  Fe64  1  0.32271446  0.67718319  0.75503825  1
  Fe  Fe65  1  0.23618796  0.07980854  0.67251007  1
  Fe  Fe66  1  0.09640232  0.52776147  0.42607673  1
  Fe  Fe67  1  0.04950512  0.71207920  0.07282936  1
  Fe  Fe68  1  0.71923029  0.64025821  0.12518814  1
  Fe  Fe69  1  0.97415147  0.59503365  0.46805679  1
  Fe  Fe70  1  0.33835062  0.81307311  0.77924168  1
  Fe  Fe71  1  0.44855516  0.22268357  0.16426185  1
  Fe  Fe72  1  0.65603806  0.92583234  0.24592307  1
  Fe  Fe73  1  0.98044377  0.46645262  0.38428865  1
  Fe  Fe74  1  0.84490126  0.24723438  0.70510011  1
  Fe  Fe75  1  0.62628676  0.28252239  0.82455569  1
  Fe  Fe76  1  0.12286791  0.41728623  0.34339046  1
  Fe  Fe77  1  0.43240575  0.25641367  0.52959460  1
  Fe  Fe78  1  0.84807566  0.61243560  0.14136534  1
  Fe  Fe79  1  0.56630476  0.22931457  0.22297269  1
  Fe  Fe80  1  0.07721796  0.65963682  0.95055547  1
  Fe  Fe81  1  0.95739478  0.94314914  0.33065290  1
  Fe  Fe82  1  0.71069920  0.28856117  0.70371519  1
  Fe  Fe83  1  0.05339054  0.36575068  0.44128584  1
  Fe  Fe84  1  0.81151592  0.26092023  0.12715960  1
  Fe  Fe85  1  0.62467942  0.69266319  0.84937695  1
  Fe  Fe86  1  0.40242945  0.80887496  0.18021022  1
  Fe  Fe87  1  0.31724280  0.28437047  0.49721579  1
  Fe  Fe88  1  0.63048802  0.18569679  0.33623384  1
  Fe  Fe89  1  0.83909289  0.19342964  1.00792567  1
  Fe  Fe90  1  1.00774958  0.71077562  0.57383856  1
  Fe  Fe91  1  0.59221919  0.75198017  0.72476032  1
  Fe  Fe92  1  0.90827831  0.31628079  0.99833417  1
  Fe  Fe93  1  0.33422817  0.14854181  0.58911235  1
  Fe  Fe94  1  0.94824078  0.62748412  1.03247505  1
  Fe  Fe95  1  -0.06762597  0.19444101  0.10133030  1
  Fe  Fe96  1  0.40923095  0.82046268  0.32540121  1
  Fe  Fe97  1  0.10655477  0.80336200  0.95888154  1
  Fe  Fe98  1  0.94531079  0.59236025  0.61470107  1
  Fe  Fe99  1  0.82687888  0.35172496  0.62320344  1
  Fe  Fe100  1  -0.02709024  0.07207072  0.37340773  1
  Fe  Fe101  1  0.08318153  0.60549499  0.54902105  1
  Bi  Bi102  1  0.47725992  0.26280775  0.35934513  1
  Bi  Bi103  1  0.78472385  0.27617119  0.86761931  1
  Bi  Bi104  1  0.36132010  -0.04602152  0.65538742  1
  Bi  Bi105  1  0.48949017  0.37337025  -0.16126022  1
  Bi  Bi106  1  0.01498672  0.20485877  -0.05342773  1
  Bi  Bi107  1  0.90262858  0.61305495  0.30788464  1
  Bi  Bi108  1  -0.01685765  0.43191363  0.57167379  1
  Bi  Bi109  1  0.77544092  0.25714058  0.40296529  1
  Bi  Bi110  1  -0.06535457  0.59504799  0.86380930  1
  Bi  Bi111  1  0.46262963  0.70194400  0.84066668  1
  Bi  Bi112  1  -0.13839516  0.72284878  0.52307125  1
  Bi  Bi113  1  0.65050604  0.08869474  0.18036131  1
  Bi  Bi114  1  0.23320860  0.72326755  0.89730395  1
  Bi  Bi115  1  0.70582924  0.86012863  0.81634802  1
  Bi  Bi116  1  0.31780929  0.10054156  0.12919891  1
  Bi  Bi117  1  0.22701867  0.08963320  0.85564774  1
  Bi  Bi118  1  0.33464217  0.59167719  0.61236296  1
  Bi  Bi119  1  0.15172354  0.78931066  0.56723522  1
  Bi  Bi120  1  0.63903503  0.54534373  0.37917397  1
  Bi  Bi121  1  0.71524389  0.82554420  0.13187203  1
  Bi  Bi122  1  0.11374708  0.88081528  0.10781588  1
  Bi  Bi123  1  0.59636164  0.11111827  0.88061064  1
  Bi  Bi124  1  0.57768252  0.87950835  0.39151485  1
  Bi  Bi125  1  0.16931903  0.39760230  0.80191370  1
  Bi  Bi126  1  0.42470036  0.63827811  0.11274051  1
  Bi  Bi127  1  0.39470822  0.36538884  0.08706111  1
