# generated using pymatgen
data_Ba51Fe51Bi26
_symmetry_space_group_name_H-M   'P 1'
_cell_length_a   16.50883012
_cell_length_b   16.33890686
_cell_length_c   16.41697806
_cell_angle_alpha   87.78574324
_cell_angle_beta   86.79664327
_cell_angle_gamma   91.92727413
_symmetry_Int_Tables_number   1
_chemical_formula_structural   Ba51Fe51Bi26
_chemical_formula_sum   'Ba51 Fe51 Bi26'
_cell_volume   4415.18985793
_cell_formula_units_Z   1
loop_
 _symmetry_equiv_pos_site_id
 _symmetry_equiv_pos_as_xyz
  1  'x, y, z'
loop_
 _atom_site_type_symbol
 _atom_site_label
 _atom_site_symmetry_multiplicity
 _atom_site_fract_x
 _atom_site_fract_y
 _atom_site_fract_z
 _atom_site_occupancy
  Ba  Ba0  1  0.44444146  0.88398293  0.70120775  1
  Ba  Ba1  1  -0.00778620  0.18259975  0.51551586  1
  Ba  Ba2  1  0.75545114  0.48332909  0.47267706  1
  Ba  Ba3  1  -0.10216901  0.39285219  0.17397781  1
  Ba  Ba4  1  0.00950631  0.49402449  0.39979159  1
  Ba  Ba5  1  0.52187765  0.78557440  0.50534100  1
  Ba  Ba6  1  0.26578977  -0.07210777  0.45043277  1
  Ba  Ba7  1  0.42629319  0.24836846  -0.02185774  1
  Ba  Ba8  1  0.50923668  0.01244246  0.28492265  1
  Ba  Ba9  1  0.20357574  0.38776034  0.01358211  1
  Ba  Ba10  1  0.46500703  0.04581999  0.86539780  1
  Ba  Ba11  1  0.38588392  0.78320377  0.05644626  1
  Ba  Ba12  1  0.68229537  0.00259271  0.49448038  1
  Ba  Ba13  1  -0.00060671  -0.11397673  0.50164483  1
  Ba  Ba14  1  0.78930109  -0.21773764  0.17384715  1
  Ba  Ba15  1  0.25998802  0.49103371  0.38532532  1
  Ba  Ba16  1  0.45571116  0.49928256  0.02350860  1
  Ba  Ba17  1  0.29139978  0.29785910  0.21864190  1
  Ba  Ba18  1  0.66253871  0.31202151  -0.06965704  1
  Ba  Ba19  1  0.81508930  0.51276614  -0.05450852  1
  Ba  Ba20  1  0.48800783  0.56107925  0.70401557  1
  Ba  Ba21  1  -0.01917013  0.01425984  0.82935020  1
  Ba  Ba22  1  0.15497109  0.67534232  0.20174155  1
  Ba  Ba23  1  0.01369828  0.45434739  0.76849026  1
  Ba  Ba24  1  0.04882839  0.74046014  -0.01194527  1
  Ba  Ba25  1  0.73792858  0.18689652  0.15459073  1
  Ba  Ba26  1  -0.09815254  0.61418989  0.62064730  1
  Ba  Ba27  1  0.79771580  0.85287915  0.73557435  1
  Ba  Ba28  1  0.39037888  0.00570517  0.09163894  1
  Ba  Ba29  1  0.25292522  0.00334696  0.71181558  1
  Ba  Ba30  1  0.05913309  0.20304033  0.21434462  1
  Ba  Ba31  1  0.63351053  0.65580889  0.06367900  1
  Ba  Ba32  1  0.75135238  0.24120894  0.55386527  1
  Ba  Ba33  1  0.20235602  0.70942953  0.44505485  1
  Ba  Ba34  1  0.47261367  0.69030964  0.29823929  1
  Ba  Ba35  1  0.15709193  0.36358052  0.59425874  1
  Ba  Ba36  1  0.68022785  0.09837935  0.76394484  1
  Ba  Ba37  1  0.55847513  0.74576131  0.84960473  1
  Ba  Ba38  1  0.16382611  -0.02812328  0.18235261  1
  Ba  Ba39  1  0.84333815  0.29046591  0.77221913  1
  Ba  Ba40  1  -0.11560127  -0.02319963  0.31105567  1
  Ba  Ba41  1  0.75184490  0.75319209  0.48733615  1
  Ba  Ba42  1  -0.06398341  -0.00628031  0.05302124  1
  Ba  Ba43  1  0.07388710  0.81432115  0.71817652  1
  Ba  Ba44  1  0.39358717  0.31055962  0.68098030  1
  Ba  Ba45  1  0.54490178  0.30267111  0.25320311  1
  Ba  Ba46  1  0.21684580  0.57807271  -0.18838591  1
  Ba  Ba47  1  0.54481845  0.34592990  0.49845401  1
  Ba  Ba48  1  0.21577730  0.19668321  0.84001765  1
  Ba  Ba49  1  0.67324930  -0.04295845  0.00368820  1
  Ba  Ba50  1  0.28326796  0.16885357  0.45190240  1
  Fe  Fe51  1  1.28114472  0.82222173  0.62593738  1
  Fe  Fe52  1  0.38537961  0.48983586  0.54314267  1
  Fe  Fe53  1  0.32763298  0.88399183  0.88318248  1
  Fe  Fe54  1  0.49712957  0.15636870  0.42024323  1
  Fe  Fe55  1  -0.02404505  0.68828087  0.43237250  1
  Fe  Fe56  1  0.27462631  0.50444021  0.15997942  1
  Fe  Fe57  1  0.34961146  0.73618418  0.85365204  1
  Fe  Fe58  1  0.60500960  0.51882161  0.21211368  1
  Fe  Fe59  1  1.07199006  0.05546889  0.65768112  1
  Fe  Fe60  1  0.39878148  0.61231199  0.48805957  1
  Fe  Fe61  1  0.96154576  0.18653452  0.90580617  1
  Fe  Fe62  1  0.02745957  0.28211336  0.03330887  1
  Fe  Fe63  1  0.22063775  0.89587004  0.00010574  1
  Fe  Fe64  1  0.92667758  0.19070156  0.04235422  1
  Fe  Fe65  1  0.27200235  0.01356686  -0.06955648  1
  Fe  Fe66  1  0.04548176  0.29485583  0.89652915  1
  Fe  Fe67  1  0.95687140  0.66675616  0.27336787  1
  Fe  Fe68  1  0.54083971  0.18729429  0.67097442  1
  Fe  Fe69  1  0.34960564  0.70577787  0.70781801  1
  Fe  Fe70  1  0.17715799  0.90314931  0.87400079  1
  Fe  Fe71  1  0.84143671  0.70304825  0.98140546  1
  Fe  Fe72  1  0.23463542  0.76832423  -0.07898279  1
  Fe  Fe73  1  0.86030095  0.64436093  0.38108465  1
  Fe  Fe74  1  0.35042554  0.60907469  0.15900930  1
  Fe  Fe75  1  0.52375311  0.40659217  0.83410840  1
  Fe  Fe76  1  0.42245753  1.10642338  0.69133126  1
  Fe  Fe77  1  0.90572620  0.78210427  0.34278624  1
  Fe  Fe78  1  0.57751796  0.49653960  0.34620977  1
  Fe  Fe79  1  0.86959370  0.81525888  0.90567818  1
  Fe  Fe80  1  0.03870397  0.77177867  0.34064651  1
  Fe  Fe81  1  0.15984628  0.15579875  0.62709113  1
  Fe  Fe82  1  0.06850250  0.15213338  0.98798447  1
  Fe  Fe83  1  0.55044950  0.13787822  0.09089970  1
  Fe  Fe84  1  0.44086353  0.15498204  0.56212804  1
  Fe  Fe85  1  0.13898392  0.04694584  0.54257127  1
  Fe  Fe86  1  0.76605460  0.69062629  0.85339469  1
  Fe  Fe87  1  0.71253800  0.45923356  0.28013355  1
  Fe  Fe88  1  0.62446255  0.17342789  0.38989250  1
  Fe  Fe89  1  0.25457191  0.80448287  -0.22530754  1
  Fe  Fe90  1  0.60181866  0.13101251  0.97378774  1
  Fe  Fe91  1  0.75001030  0.55089189  0.17313326  1
  Fe  Fe92  1  0.57835902  0.15010345  0.53371810  1
  Fe  Fe93  1  0.84043701  0.56213808  0.27428487  1
  Fe  Fe94  1  0.14013770  0.02078293  0.96471821  1
  Fe  Fe95  1  0.45207279  0.50021247  0.41060658  1
  Fe  Fe96  1  0.90290576  0.30994559  -0.03598821  1
  Fe  Fe97  1  0.73922408  0.79044502  0.93830530  1
  Fe  Fe98  1  0.53472401  1.05443890  0.63908544  1
  Fe  Fe99  1  0.30012749  0.59209997  0.60802811  1
  Fe  Fe100  1  0.35003644  0.72256970  0.56507472  1
  Fe  Fe101  1  0.22023387  0.70520153  0.65694143  1
  Bi  Bi102  1  0.03740743  0.21330868  0.73671976  1
  Bi  Bi103  1  0.90604921  0.61196752  0.11605367  1
  Bi  Bi104  1  0.42860551  0.48139166  0.24204053  1
  Bi  Bi105  1  0.22817003  0.14791201  0.05286626  1
  Bi  Bi106  1  0.12355556  0.57702953  0.60380361  1
  Bi  Bi107  1  0.68768682  0.63501298  0.31122780  1
  Bi  Bi108  1  0.61987904  0.53885488  0.87554354  1
  Bi  Bi109  1  0.01150331  0.44709681  -0.02153929  1
  Bi  Bi110  1  0.25724952  0.61732057  0.01637620  1
  Bi  Bi111  1  0.68421686  0.40935388  0.11095168  1
  Bi  Bi112  1  -0.00204511  0.83293792  0.18978732  1
  Bi  Bi113  1  0.46100583  -0.00047634  0.50170653  1
  Bi  Bi114  1  0.56282053  0.57328716  0.50232445  1
  Bi  Bi115  1  0.09438089  0.04534819  0.37754009  1
  Bi  Bi116  1  0.65992178  0.87399718  0.33264444  1
  Bi  Bi117  1  0.91903950  0.38823019  0.58159945  1
  Bi  Bi118  1  0.93571386  0.67174612  0.82470192  1
  Bi  Bi119  1  0.31183277  0.84190692  0.25981134  1
  Bi  Bi120  1  0.56565559  0.84663606  0.15816115  1
  Bi  Bi121  1  0.73794958  0.29949649  0.34567428  1
  Bi  Bi122  1  0.79759568  0.13596490  0.94499442  1
  Bi  Bi123  1  0.35781428  0.41580299  0.85340080  1
  Bi  Bi124  1  0.12469840  0.43656479  0.21747568  1
  Bi  Bi125  1  0.62090368  0.32792864  0.71671902  1
  Bi  Bi126  1  0.13407607  0.30898603  0.38495638  1
  Bi  Bi127  1  0.69738629  0.67108841  0.69597644  1
