# generated using pymatgen
data_Ba51Fe51Bi26
_symmetry_space_group_name_H-M   'P 1'
_cell_length_a   16.59237479
_cell_length_b   16.41116278
_cell_length_c   16.18789175
_cell_angle_alpha   89.80201397
_cell_angle_beta   89.47175100
_cell_angle_gamma   89.93010142
_symmetry_Int_Tables_number   1
_chemical_formula_structural   Ba51Fe51Bi26
_chemical_formula_sum   'Ba51 Fe51 Bi26'
_cell_volume   4407.74880426
_cell_formula_units_Z   1
loop_
 _symmetry_equiv_pos_site_id
 _symmetry_equiv_pos_as_xyz
  1  'x, y, z'
loop_
 _atom_site_type_symbol
 _atom_site_label
 _atom_site_symmetry_multiplicity
 _atom_site_fract_x
 _atom_site_fract_y
 _atom_site_fract_z
 _atom_site_occupancy
  Ba  Ba0  1  0.83020478  -0.01032413  0.24198102  1
  Ba  Ba1  1  0.73667288  0.79629095  0.50721692  1
  Ba  Ba2  1  0.45324692  0.21185939  -0.00384157  1
  Ba  Ba3  1  0.22046271  0.48555002  0.78287008  1
  Ba  Ba4  1  -0.04400814  0.69740006  0.01703346  1
  Ba  Ba5  1  0.40924493  0.48080849  0.25524425  1
  Ba  Ba6  1  -0.18610033  0.18987181  0.79841411  1
  Ba  Ba7  1  0.06682592  0.03423071  0.57873806  1
  Ba  Ba8  1  0.45747856  0.37561100  0.45473925  1
  Ba  Ba9  1  0.49503057  -0.12468809  0.77945893  1
  Ba  Ba10  1  0.79843653  0.37588312  0.39424779  1
  Ba  Ba11  1  0.68239788  0.31273511  -0.01496462  1
  Ba  Ba12  1  0.31331961  -0.01222841  0.29523735  1
  Ba  Ba13  1  0.06341764  0.04971803  0.32003179  1
  Ba  Ba14  1  0.53776591  0.84813030  0.16008541  1
  Ba  Ba15  1  0.24303324  0.68108871  0.26415164  1
  Ba  Ba16  1  0.55402076  0.01179129  0.37095953  1
  Ba  Ba17  1  0.00567026  0.77891198  0.57584141  1
  Ba  Ba18  1  0.27517691  0.79743936  0.49340079  1
  Ba  Ba19  1  0.41304644  0.64680347  0.73368707  1
  Ba  Ba20  1  0.01516422  0.53497042  0.47338666  1
  Ba  Ba21  1  0.69924882  0.28037908  0.62167937  1
  Ba  Ba22  1  0.06985575  0.29517787  0.40998797  1
  Ba  Ba23  1  0.53401958  0.09453014  0.61375426  1
  Ba  Ba24  1  0.32083332  -0.00208583  0.67756392  1
  Ba  Ba25  1  -0.06908527  0.39532152  0.69730141  1
  Ba  Ba26  1  0.49312936  0.41320819  0.69271245  1
  Ba  Ba27  1  0.19967502  0.22291766  -0.03731156  1
  Ba  Ba28  1  0.28929138  0.26023093  0.60945821  1
  Ba  Ba29  1  0.67206738  0.60074683  0.69916346  1
  Ba  Ba30  1  0.75457501  0.56073451  -0.02052796  1
  Ba  Ba31  1  0.33833243  0.41463595  0.04131492  1
  Ba  Ba32  1  0.79259369  0.11431329  0.43928811  1
  Ba  Ba33  1  0.01747556  -0.08248230  0.08332525  1
  Ba  Ba34  1  0.30225993  -0.09580759  0.05887065  1
  Ba  Ba35  1  0.18914929  0.73666314  0.73791114  1
  Ba  Ba36  1  0.68159649  0.20695119  0.21597915  1
  Ba  Ba37  1  0.03423359  0.54764813  0.22670140  1
  Ba  Ba38  1  0.75378236  0.81362724  -0.17198578  1
  Ba  Ba39  1  -0.07800883  0.76118071  0.32105561  1
  Ba  Ba40  1  0.80127791  -0.01438315  0.63743132  1
  Ba  Ba41  1  0.48965126  0.74708359  0.38197241  1
  Ba  Ba42  1  0.14462831  -0.00803459  0.88669745  1
  Ba  Ba43  1  0.27662469  0.22363984  0.27567632  1
  Ba  Ba44  1  0.64315856  0.59611282  0.19312354  1
  Ba  Ba45  1  0.56009620  0.00974568  -0.00362322  1
  Ba  Ba46  1  0.10385077  0.50852636  0.00201638  1
  Ba  Ba47  1  -0.05599707  0.32707349  0.11282936  1
  Ba  Ba48  1  0.52569414  0.67864540  -0.04090919  1
  Ba  Ba49  1  -0.04899793  0.63047439  0.77957134  1
  Ba  Ba50  1  0.79027106  0.03950487  -0.01456159  1
  Fe  Fe51  1  0.22319422  0.64214642  0.93285425  1
  Fe  Fe52  1  0.86546967  0.33520934  0.92154839  1
  Fe  Fe53  1  0.41354365  0.17311516  0.78934684  1
  Fe  Fe54  1  0.83187761  0.66276132  0.16932777  1
  Fe  Fe55  1  0.74058972  0.58298802  0.46838997  1
  Fe  Fe56  1  0.09626927  0.28366636  0.75619559  1
  Fe  Fe57  1  0.29235541  0.62254742  0.57267522  1
  Fe  Fe58  1  0.68365913  0.83746063  0.00417528  1
  Fe  Fe59  1  0.31817536  0.55676422  0.44370864  1
  Fe  Fe60  1  0.44147348  0.49129076  0.87967501  1
  Fe  Fe61  1  0.90415107  0.45676075  0.90392190  1
  Fe  Fe62  1  0.26559082  1.00111903  0.48784215  1
  Fe  Fe63  1  0.82659150  0.84887543  0.00912584  1
  Fe  Fe64  1  0.32773783  0.71732625  0.02904695  1
  Fe  Fe65  1  0.36474842  0.08786182  0.47118964  1
  Fe  Fe66  1  0.60075417  0.54965082  0.39840951  1
  Fe  Fe67  1  0.58827342  0.47806551  0.86378413  1
  Fe  Fe68  1  0.50604726  0.08579601  0.81312058  1
  Fe  Fe69  1  0.85272413  0.53515413  0.15461548  1
  Fe  Fe70  1  0.68505931  0.66131363  0.37353189  1
  Fe  Fe71  1  0.31533862  0.73664592  0.89564045  1
  Fe  Fe72  1  0.92984416  0.20431262  -0.04132397  1
  Fe  Fe73  1  0.53311513  0.88940869  0.54567322  1
  Fe  Fe74  1  0.22912461  0.12211293  0.45234806  1
  Fe  Fe75  1  0.29034660  0.59408372  0.07222866  1
  Fe  Fe76  1  0.92314188  0.84763570  0.75240970  1
  Fe  Fe77  1  0.17842583  0.56072959  0.59529230  1
  Fe  Fe78  1  0.61289275  0.64023982  0.50958802  1
  Fe  Fe79  1  0.43003387  0.28462861  0.18214792  1
  Fe  Fe80  1  0.72350875  0.89027959  0.11710513  1
  Fe  Fe81  1  0.07563562  0.23755416  0.62780537  1
  Fe  Fe82  1  0.34916829  0.59364356  0.93329370  1
  Fe  Fe83  1  0.00110141  0.17528680  0.72180029  1
  Fe  Fe84  1  0.54105754  0.34654334  0.15676411  1
  Fe  Fe85  1  0.22775407  0.46203784  0.50070098  1
  Fe  Fe86  1  0.03458776  0.17221970  0.86046785  1
  Fe  Fe87  1  0.40878677  0.94826875  0.50045584  1
  Fe  Fe88  1  0.19454109  0.60954758  0.45900105  1
  Fe  Fe89  1  0.96753816  0.05773454  0.93308395  1
  Fe  Fe90  1  0.32033713  0.49132230  0.59239978  1
  Fe  Fe91  1  0.50744751  0.37424519  0.89148037  1
  Fe  Fe92  1  0.43146622  0.83200371  0.59682531  1
  Fe  Fe93  1  0.73792889  0.73871287  0.08181459  1
  Fe  Fe94  1  1.03197763  0.13126388  0.02249787  1
  Fe  Fe95  1  0.04552442  0.88379071  0.75216067  1
  Fe  Fe96  1  0.18987817  0.67979725  0.06653537  1
  Fe  Fe97  1  0.53684991  0.74587780  0.58186778  1
  Fe  Fe98  1  0.83339367  0.81167139  0.14592344  1
  Fe  Fe99  1  0.01443928  0.80383934  0.85555759  1
  Fe  Fe100  1  0.92866336  0.90488670  0.89598039  1
  Fe  Fe101  1  0.51138722  0.26591235  0.28435356  1
  Bi  Bi102  1  0.70895301  0.80428653  0.27644903  1
  Bi  Bi103  1  0.15083668  0.79174915  -0.04890886  1
  Bi  Bi104  1  0.17142771  0.14020157  0.73827036  1
  Bi  Bi105  1  0.12302465  0.39643068  0.61155815  1
  Bi  Bi106  1  0.54674125  0.47103989  0.03236736  1
  Bi  Bi107  1  0.61169073  0.40716234  0.29532235  1
  Bi  Bi108  1  0.57689452  0.23745674  0.80316186  1
  Bi  Bi109  1  0.20418720  0.47129600  0.33534118  1
  Bi  Bi110  1  0.03000926  0.34422706  -0.10202558  1
  Bi  Bi111  1  0.45653625  0.59014721  0.52950308  1
  Bi  Bi112  1  0.83322998  0.57170184  0.32021225  1
  Bi  Bi113  1  -0.05095033  0.02179617  0.77172585  1
  Bi  Bi114  1  0.75536477  0.42447283  0.81176481  1
  Bi  Bi115  1  0.35309416  0.32848210  0.83436474  1
  Bi  Bi116  1  0.85660443  0.62293077  0.58693856  1
  Bi  Bi117  1  0.91301594  0.93452517  0.45031600  1
  Bi  Bi118  1  0.64477616  0.46336368  0.53883361  1
  Bi  Bi119  1  0.46936948  0.11346943  0.19699547  1
  Bi  Bi120  1  0.42634969  0.67079265  0.15875710  1
  Bi  Bi121  1  0.15170635  0.36399704  0.16264317  1
  Bi  Bi122  1  0.90590002  0.20099528  0.28412397  1
  Bi  Bi123  1  0.60485206  0.21556834  0.42670552  1
  Bi  Bi124  1  0.91299427  0.21097816  0.57973234  1
  Bi  Bi125  1  0.66020581  0.01389171  0.79992539  1
  Bi  Bi126  1  0.16632059  0.07166965  0.12407802  1
  Bi  Bi127  1  0.36755262  0.03312489  0.89309453  1
