# generated using pymatgen
data_Ba51Fe51Bi26
_symmetry_space_group_name_H-M   'P 1'
_cell_length_a   15.97729835
_cell_length_b   16.78171852
_cell_length_c   16.24174076
_cell_angle_alpha   94.42014296
_cell_angle_beta   85.57861656
_cell_angle_gamma   90.84700322
_symmetry_Int_Tables_number   1
_chemical_formula_structural   Ba51Fe51Bi26
_chemical_formula_sum   'Ba51 Fe51 Bi26'
_cell_volume   4328.79650441
_cell_formula_units_Z   1
loop_
 _symmetry_equiv_pos_site_id
 _symmetry_equiv_pos_as_xyz
  1  'x, y, z'
loop_
 _atom_site_type_symbol
 _atom_site_label
 _atom_site_symmetry_multiplicity
 _atom_site_fract_x
 _atom_site_fract_y
 _atom_site_fract_z
 _atom_site_occupancy
  Ba  Ba0  1  0.43836960  -0.05276492  0.75645392  1
  Ba  Ba1  1  0.27400407  0.16823459  0.66417664  1
  Ba  Ba2  1  0.01185651  0.00853783  0.21633790  1
  Ba  Ba3  1  0.57609558  0.45496112  0.20836855  1
  Ba  Ba4  1  0.80453423  -0.11978334  0.30338029  1
  Ba  Ba5  1  0.86784986  0.38526834  0.77836300  1
  Ba  Ba6  1  0.83566029  0.34036923  0.16077818  1
  Ba  Ba7  1  0.34655375  0.48898439  -0.08680239  1
  Ba  Ba8  1  0.76762812  0.22093401  -0.03306850  1
  Ba  Ba9  1  0.25330876  0.05408833  0.29408089  1
  Ba  Ba10  1  0.62904679  0.27076767  0.79734493  1
  Ba  Ba11  1  0.03204232  0.71839653  0.41803217  1
  Ba  Ba12  1  0.57311407  0.49394208  0.79152443  1
  Ba  Ba13  1  0.93387940  0.48255064  -0.01229681  1
  Ba  Ba14  1  0.79644591  0.61324215  0.53374742  1
  Ba  Ba15  1  0.21510018  0.78374750  0.73992686  1
  Ba  Ba16  1  0.48906092  0.32914831  0.01635599  1
  Ba  Ba17  1  0.77118571  -0.07104642  0.02085938  1
  Ba  Ba18  1  0.51285772  0.83912263  -0.03452750  1
  Ba  Ba19  1  0.30020759  0.00212817  -0.00612827  1
  Ba  Ba20  1  -0.13541375  -0.02134068  0.52243814  1
  Ba  Ba21  1  0.26137761  0.45063984  0.54891898  1
  Ba  Ba22  1  0.05912354  -0.01849172  -0.03409076  1
  Ba  Ba23  1  -0.11005576  0.22053574  0.57047099  1
  Ba  Ba24  1  0.61164848  0.23069191  0.46971842  1
  Ba  Ba25  1  0.21584645  0.27883160  -0.01161762  1
  Ba  Ba26  1  -0.01413755  0.48482663  0.56454767  1
  Ba  Ba27  1  0.15260904  0.56877370  0.06238475  1
  Ba  Ba28  1  0.73852037  0.41206346  0.40563085  1
  Ba  Ba29  1  0.42988466  0.02499779  0.51698703  1
  Ba  Ba30  1  0.30754953  0.73707438  0.04777097  1
  Ba  Ba31  1  0.30956760  0.34744222  0.26929825  1
  Ba  Ba32  1  0.16493978  0.24169041  0.48504748  1
  Ba  Ba33  1  -0.02445875  0.53577507  0.28720322  1
  Ba  Ba34  1  0.04779275  0.16981666  0.81052047  1
  Ba  Ba35  1  0.77759874  0.63857081  0.13496961  1
  Ba  Ba36  1  0.51161309  0.10068558  0.28323374  1
  Ba  Ba37  1  0.02535895  0.77600386  0.15759836  1
  Ba  Ba38  1  0.65872879  -0.16259340  0.54602779  1
  Ba  Ba39  1  0.70113232  0.85008101  -0.21503972  1
  Ba  Ba40  1  0.10492346  -0.02294575  0.58200418  1
  Ba  Ba41  1  0.54501674  0.06939748  0.04866143  1
  Ba  Ba42  1  0.54922678  0.59311306  0.01708930  1
  Ba  Ba43  1  0.02702309  0.24821384  0.27450450  1
  Ba  Ba44  1  -0.06864460  0.77261831  0.65032376  1
  Ba  Ba45  1  0.45055411  0.36012934  0.63617936  1
  Ba  Ba46  1  0.65355819  0.08550896  0.65400611  1
  Ba  Ba47  1  0.62758664  0.66149340  0.37414910  1
  Ba  Ba48  1  0.26494683  0.79343633  0.44693102  1
  Ba  Ba49  1  0.43106483  0.71754011  0.24768802  1
  Ba  Ba50  1  0.11528492  0.53421008  0.77737547  1
  Fe  Fe51  1  0.72263811  0.12019910  0.16197498  1
  Fe  Fe52  1  0.81449354  0.98878941  0.73900180  1
  Fe  Fe53  1  0.59595536  0.90971598  0.31420867  1
  Fe  Fe54  1  0.18597447  0.57394244  0.39762590  1
  Fe  Fe55  1  0.45650411  0.16167362  0.73615825  1
  Fe  Fe56  1  0.53837834  0.68288087  0.57197948  1
  Fe  Fe57  1  0.67259275  0.98564694  0.21220432  1
  Fe  Fe58  1  0.81187395  0.21817410  0.36901705  1
  Fe  Fe59  1  0.30567287  0.56012129  0.30970199  1
  Fe  Fe60  1  0.40808511  0.74207902  0.72604766  1
  Fe  Fe61  1  0.58425346  0.68749481  0.81317003  1
  Fe  Fe62  1  0.40029481  0.17313020  0.94197900  1
  Fe  Fe63  1  0.96792417  0.67481781  -0.00847208  1
  Fe  Fe64  1  0.86121253  0.75335069  0.84390295  1
  Fe  Fe65  1  0.50422855  0.12835774  0.85339003  1
  Fe  Fe66  1  0.43962301  0.68203748  0.46694707  1
  Fe  Fe67  1  -0.05171184  0.01711084  0.72778626  1
  Fe  Fe68  1  0.64193511  0.82961981  0.20483891  1
  Fe  Fe69  1  0.85703745  0.74877904  -0.00205056  1
  Fe  Fe70  1  0.22993354  0.84262436  0.23305256  1
  Fe  Fe71  1  0.44903154  0.78975498  0.58987367  1
  Fe  Fe72  1  0.55594164  0.91136669  0.16834543  1
  Fe  Fe73  1  0.87951602  0.04136155  0.86822539  1
  Fe  Fe74  1  0.02115326  0.80388133  0.81146293  1
  Fe  Fe75  1  0.49300074  0.62359270  0.68987442  1
  Fe  Fe76  1  0.83663977  0.77532610  0.45110403  1
  Fe  Fe77  1  -0.09686721  0.89962310  0.82443609  1
  Fe  Fe78  1  0.40097694  0.25496874  0.83039828  1
  Fe  Fe79  1  -0.01930090  0.67382850  0.85244783  1
  Fe  Fe80  1  0.64813747  0.65357275  0.67687112  1
  Fe  Fe81  1  0.87697386  0.60383151  0.76362943  1
  Fe  Fe82  1  0.84922710  0.16962834  0.22898875  1
  Fe  Fe83  1  0.96276563  0.81581334  -0.05934422  1
  Fe  Fe84  1  0.31420654  0.60843858  0.46075665  1
  Fe  Fe85  1  0.83993555  0.62843665  0.91488133  1
  Fe  Fe86  1  0.71714156  0.22377188  0.27990143  1
  Fe  Fe87  1  0.54333417  0.76647508  0.70671721  1
  Fe  Fe88  1  0.74992142  0.54225542  0.70272782  1
  Fe  Fe89  1  0.44464135  0.67757140  0.83464177  1
  Fe  Fe90  1  0.83080528  0.11744100  0.77094283  1
  Fe  Fe91  1  0.35631630  0.67697022  0.59858172  1
  Fe  Fe92  1  0.34896597  0.11450410  0.83180838  1
  Fe  Fe93  1  0.81777473  0.03768896  0.20727657  1
  Fe  Fe94  1  0.18759509  0.50612090  0.25789172  1
  Fe  Fe95  1  0.74078030  0.66240674  0.79146279  1
  Fe  Fe96  1  0.43620794  0.56777216  0.55285910  1
  Fe  Fe97  1  0.83701700  0.69251550  0.34842884  1
  Fe  Fe98  1  0.72487219  0.09331713  0.31546440  1
  Fe  Fe99  1  0.03973051  -0.06505397  0.77567515  1
  Fe  Fe100  1  0.75594021  0.53650906  0.84791416  1
  Fe  Fe101  1  0.86678345  0.09711609  0.34749014  1
  Bi  Bi102  1  0.37986223  0.90944026  0.16439265  1
  Bi  Bi103  1  -0.32325703  0.05590120  0.85848924  1
  Bi  Bi104  1  0.69655603  0.72614273  0.95355624  1
  Bi  Bi105  1  0.60007915  0.52223271  0.56599241  1
  Bi  Bi106  1  0.15708297  0.64209196  0.56830772  1
  Bi  Bi107  1  0.64919949  0.01567374  0.44216349  1
  Bi  Bi108  1  0.62248732  0.25447887  0.15465176  1
  Bi  Bi109  1  0.48352404  0.83595315  0.42374669  1
  Bi  Bi110  1  0.33315920  0.58068490  0.73301902  1
  Bi  Bi111  1  0.20791899  0.00619066  0.78753062  1
  Bi  Bi112  1  -0.10706775  0.10655385  0.06608358  1
  Bi  Bi113  1  0.11759120  0.41836594  0.38755998  1
  Bi  Bi114  1  0.12368222  0.74052950  -0.05983471  1
  Bi  Bi115  1  0.44610922  0.51099301  0.38514198  1
  Bi  Bi116  1  0.26124085  0.34506240  0.78147643  1
  Bi  Bi117  1  0.01853412  0.09903249  0.42560526  1
  Bi  Bi118  1  0.70839735  0.43592007  -0.02251295  1
  Bi  Bi119  1  0.19420112  0.68031892  0.25068014  1
  Bi  Bi120  1  0.08173280  0.40154816  0.14495466  1
  Bi  Bi121  1  0.36005353  0.18007850  0.11771139  1
  Bi  Bi122  1  0.72846729  0.37023044  0.62136777  1
  Bi  Bi123  1  0.38505888  0.22191829  0.45984481  1
  Bi  Bi124  1  0.16080956  0.12846184  0.11941922  1
  Bi  Bi125  1  0.06554245  0.32929157  0.67028768  1
  Bi  Bi126  1  0.36690934  0.51497342  0.13547701  1
  Bi  Bi127  1  0.10749243  0.89696051  0.35285047  1
