# generated using pymatgen
data_Ba51Fe51Bi26
_symmetry_space_group_name_H-M   'P 1'
_cell_length_a   15.97720558
_cell_length_b   16.12744008
_cell_length_c   16.92263529
_cell_angle_alpha   87.77229133
_cell_angle_beta   90.69630930
_cell_angle_gamma   88.32003324
_symmetry_Int_Tables_number   1
_chemical_formula_structural   Ba51Fe51Bi26
_chemical_formula_sum   'Ba51 Fe51 Bi26'
_cell_volume   4354.92553822
_cell_formula_units_Z   1
loop_
 _symmetry_equiv_pos_site_id
 _symmetry_equiv_pos_as_xyz
  1  'x, y, z'
loop_
 _atom_site_type_symbol
 _atom_site_label
 _atom_site_symmetry_multiplicity
 _atom_site_fract_x
 _atom_site_fract_y
 _atom_site_fract_z
 _atom_site_occupancy
  Ba  Ba0  1  0.51937864  0.67684545  0.53841564  1
  Ba  Ba1  1  0.86011814  0.32899480  0.53190846  1
  Ba  Ba2  1  0.48051631  0.38825754  0.27324749  1
  Ba  Ba3  1  0.40069546  0.56086117  0.87778191  1
  Ba  Ba4  1  -0.07140389  0.56820506  0.67733941  1
  Ba  Ba5  1  0.07990790  0.74274342  0.35115140  1
  Ba  Ba6  1  0.66060647  0.08084073  0.75958852  1
  Ba  Ba7  1  0.12879481  0.00889293  0.49620822  1
  Ba  Ba8  1  0.25155492  0.18859066  0.17078990  1
  Ba  Ba9  1  0.25520811  0.58093019  0.24013583  1
  Ba  Ba10  1  0.52682955  0.09087595  0.17998133  1
  Ba  Ba11  1  0.07238406  0.73866765  0.57744490  1
  Ba  Ba12  1  -0.10235859  0.84455074  0.73498220  1
  Ba  Ba13  1  0.03143453  0.50672271  0.03645039  1
  Ba  Ba14  1  0.18802672  0.00373984  0.73693729  1
  Ba  Ba15  1  0.79555421  0.19016019  0.08563917  1
  Ba  Ba16  1  0.23066886  0.76000100  0.77738824  1
  Ba  Ba17  1  0.87109246  0.26789737  0.28981792  1
  Ba  Ba18  1  0.70333028  0.29234205  0.87041328  1
  Ba  Ba19  1  0.60597601  0.19467645  0.42597009  1
  Ba  Ba20  1  0.41816964  -0.00914689  0.41054141  1
  Ba  Ba21  1  0.84756352  0.64483121  0.05172503  1
  Ba  Ba22  1  0.58655300  0.69231822  0.03447270  1
  Ba  Ba23  1  -0.03860651  0.10244247  0.65791878  1
  Ba  Ba24  1  0.01884929  0.26972870  0.03146699  1
  Ba  Ba25  1  0.58710367  0.61886105  0.26655312  1
  Ba  Ba26  1  0.26823066  0.18710071  -0.09631100  1
  Ba  Ba27  1  0.18392897  0.46563947  0.76365534  1
  Ba  Ba28  1  0.69105559  -0.05438277  0.05556549  1
  Ba  Ba29  1  0.06653629  0.41189196  0.39455767  1
  Ba  Ba30  1  0.17324843  -0.00809793  0.27730002  1
  Ba  Ba31  1  0.80842703  0.77318142  0.40926291  1
  Ba  Ba32  1  -0.04102582  0.33559894  0.78876520  1
  Ba  Ba33  1  0.88525480  0.06205940  0.40251120  1
  Ba  Ba34  1  0.30051182  0.74198286  0.03747472  1
  Ba  Ba35  1  0.30574659  0.29201675  0.48171285  1
  Ba  Ba36  1  0.24035198  0.52337142  0.51775082  1
  Ba  Ba37  1  0.02606117  0.79044255  -0.04391891  1
  Ba  Ba38  1  0.63238418  0.82880340  0.78398580  1
  Ba  Ba39  1  0.67864944  -0.07037756  0.54381619  1
  Ba  Ba40  1  0.10702141  0.01085206  0.02152503  1
  Ba  Ba41  1  0.37999293  0.79597801  0.27436155  1
  Ba  Ba42  1  0.48375745  0.31174660  -0.01100281  1
  Ba  Ba43  1  0.42990706  -0.01343958  -0.08885403  1
  Ba  Ba44  1  0.74206308  0.60876461  0.81565348  1
  Ba  Ba45  1  0.48615459  0.21798532  0.65048252  1
  Ba  Ba46  1  0.53209512  0.45607341  0.69425825  1
  Ba  Ba47  1  0.83012856  0.54458681  0.28920656  1
  Ba  Ba48  1  0.26668580  0.42799942  0.04055140  1
  Ba  Ba49  1  0.73237383  0.53814904  0.52238288  1
  Ba  Ba50  1  -0.09176558  -0.08181880  0.17906524  1
  Fe  Fe51  1  0.35504553  0.93667573  0.61727378  1
  Fe  Fe52  1  1.08564798  0.27359587  0.24258351  1
  Fe  Fe53  1  0.38631056  0.04583548  0.71586777  1
  Fe  Fe54  1  0.46914609  0.41918041  0.50494951  1
  Fe  Fe55  1  0.45893228  0.75096994  0.71963263  1
  Fe  Fe56  1  0.81698529  0.98464171  0.85041819  1
  Fe  Fe57  1  0.37564987  0.82670463  0.50657312  1
  Fe  Fe58  1  0.84989885  0.37994243  0.96623897  1
  Fe  Fe59  1  0.60281328  0.36600885  0.52822591  1
  Fe  Fe60  1  0.12859620  0.39797325  0.18040623  1
  Fe  Fe61  1  0.17442361  0.21698701  0.35244056  1
  Fe  Fe62  1  0.78671985  0.23372490  0.70748356  1
  Fe  Fe63  1  1.00057033  0.39815144  0.20954631  1
  Fe  Fe64  1  0.47661414  1.01900686  0.59664730  1
  Fe  Fe65  1  0.15535993  0.23777059  0.74233465  1
  Fe  Fe66  1  0.31611434  0.71112816  0.43552897  1
  Fe  Fe67  1  0.39670838  0.88353168  0.74446642  1
  Fe  Fe68  1  0.68157070  0.28763579  0.63038354  1
  Fe  Fe69  1  0.57601512  0.44699122  0.09861114  1
  Fe  Fe70  1  -0.00682455  0.59052936  0.86192389  1
  Fe  Fe71  1  0.26666404  0.71618903  0.55347918  1
  Fe  Fe72  1  0.77078525  0.48874938  0.97344459  1
  Fe  Fe73  1  0.17666064  0.18773716  0.62201501  1
  Fe  Fe74  1  0.02447567  0.70511999  0.13951841  1
  Fe  Fe75  1  0.35246406  0.78554851  0.63703317  1
  Fe  Fe76  1  0.13034766  0.31913872  0.61786228  1
  Fe  Fe77  1  0.89930799  0.49782967  0.89066438  1
  Fe  Fe78  1  1.05706383  0.16369466  0.33934503  1
  Fe  Fe79  1  0.35589010  -0.00607577  0.19811726  1
  Fe  Fe80  1  0.59427760  0.84743216  0.21771006  1
  Fe  Fe81  1  0.48385672  0.86259092  0.61444547  1
  Fe  Fe82  1  -0.04857489  1.01408142  0.84760922  1
  Fe  Fe83  1  0.28317310  0.92487737  0.11196883  1
  Fe  Fe84  1  0.50613001  -0.03546943  0.71063882  1
  Fe  Fe85  1  0.66707379  0.26066706  0.24586147  1
  Fe  Fe86  1  0.23901218  0.85600611  0.57091088  1
  Fe  Fe87  1  0.88249541  -0.03361457  -0.02699454  1
  Fe  Fe88  1  -0.08525755  0.10470953  -0.05751522  1
  Fe  Fe89  1  -0.14820926  0.13848529  0.81460797  1
  Fe  Fe90  1  0.78197499  0.08553642  0.92699185  1
  Fe  Fe91  1  0.29621335  0.17806960  0.71360203  1
  Fe  Fe92  1  0.26578701  0.31048259  0.67061685  1
  Fe  Fe93  1  0.68973239  0.39871205  0.19602257  1
  Fe  Fe94  1  0.61525396  0.29931085  0.13122213  1
  Fe  Fe95  1  0.70508176  0.37592242  1.04329689  1
  Fe  Fe96  1  0.68541670  0.91685969  0.27764511  1
  Fe  Fe97  1  0.24302833  0.82922245  0.44362954  1
  Fe  Fe98  1  0.69627757  0.51100603  0.09705137  1
  Fe  Fe99  1  0.56283137  0.47715848  0.43786938  1
  Fe  Fe100  1  0.33791356  0.04037058  0.07276138  1
  Fe  Fe101  1  0.92411323  0.71036917  0.21835111  1
  Bi  Bi102  1  0.03949247  0.56469638  0.23418764  1
  Bi  Bi103  1  0.69405685  0.38567078  0.36729689  1
  Bi  Bi104  1  0.85461481  0.41378168  0.12427989  1
  Bi  Bi105  1  0.75042272  0.76624511  0.19796184  1
  Bi  Bi106  1  0.60330031  0.48559405  -0.06845898  1
  Bi  Bi107  1  0.72631960  0.08642861  0.26051487  1
  Bi  Bi108  1  0.00967019  0.11923495  0.18799496  1
  Bi  Bi109  1  0.05977531  0.21824552  0.49422012  1
  Bi  Bi110  1  0.05614137  0.14846567  0.85199649  1
  Bi  Bi111  1  0.35334603  0.61166912  0.67317708  1
  Bi  Bi112  1  0.31497119  0.09641659  0.56645640  1
  Bi  Bi113  1  0.43998088  0.77396842  0.87869763  1
  Bi  Bi114  1  -0.19749917  -0.18094895  -0.07708121  1
  Bi  Bi115  1  0.25519527  0.36268358  0.28767301  1
  Bi  Bi116  1  0.93244050  0.90370210  0.53584933  1
  Bi  Bi117  1  0.74869496  0.72383666  0.62871279  1
  Bi  Bi118  1  0.46873034  0.89376597  0.10358024  1
  Bi  Bi119  1  0.95430892  0.58620772  0.47322551  1
  Bi  Bi120  1  0.42966580  0.54807876  0.10956707  1
  Bi  Bi121  1  0.37240952  0.34056819  0.79917424  1
  Bi  Bi122  1  0.41265938  0.56551764  0.39276057  1
  Bi  Bi123  1  0.16589613  0.61022093  0.91490152  1
  Bi  Bi124  1  0.75176466  0.13698618  0.57588237  1
  Bi  Bi125  1  0.57589876  0.82907547  0.38070489  1
  Bi  Bi126  1  0.14071608  0.82697450  0.15443640  1
  Bi  Bi127  1  0.76374581  0.41527328  0.70294183  1
