# generated using pymatgen
data_Ba51Fe51Bi26
_symmetry_space_group_name_H-M   'P 1'
_cell_length_a   16.13733256
_cell_length_b   16.53883588
_cell_length_c   16.54839630
_cell_angle_alpha   90.10987262
_cell_angle_beta   92.40090387
_cell_angle_gamma   92.13324128
_symmetry_Int_Tables_number   1
_chemical_formula_structural   Ba51Fe51Bi26
_chemical_formula_sum   'Ba51 Fe51 Bi26'
_cell_volume   4409.68407626
_cell_formula_units_Z   1
loop_
 _symmetry_equiv_pos_site_id
 _symmetry_equiv_pos_as_xyz
  1  'x, y, z'
loop_
 _atom_site_type_symbol
 _atom_site_label
 _atom_site_symmetry_multiplicity
 _atom_site_fract_x
 _atom_site_fract_y
 _atom_site_fract_z
 _atom_site_occupancy
  Ba  Ba0  1  0.44296748  -0.17610422  0.86689352  1
  Ba  Ba1  1  0.23664856  0.69524451  0.03999585  1
  Ba  Ba2  1  0.33596996  0.59874791  0.67459635  1
  Ba  Ba3  1  0.21504294  0.19178370  -0.03445153  1
  Ba  Ba4  1  0.14899319  0.68996625  0.78997128  1
  Ba  Ba5  1  0.22497313  0.51456555  0.42733646  1
  Ba  Ba6  1  -0.02421026  0.68897887  -0.00697488  1
  Ba  Ba7  1  -0.05023692  0.09089727  0.49505049  1
  Ba  Ba8  1  0.45928472  0.54327509  0.24996684  1
  Ba  Ba9  1  0.65090573  0.05110459  -0.07580383  1
  Ba  Ba10  1  0.81201412  0.83607131  -0.09197976  1
  Ba  Ba11  1  -0.02317025  0.71912501  0.28905859  1
  Ba  Ba12  1  0.71995264  0.47840193  0.65678157  1
  Ba  Ba13  1  0.04331127  -0.02454791  0.30750477  1
  Ba  Ba14  1  0.83210646  0.30498058  0.32709547  1
  Ba  Ba15  1  0.73324003  0.80098080  0.38320171  1
  Ba  Ba16  1  0.50931124  0.83164288  0.61765181  1
  Ba  Ba17  1  0.00797476  0.08007905  0.77390607  1
  Ba  Ba18  1  0.78291475  0.73348158  0.61173496  1
  Ba  Ba19  1  0.24094966  -0.01520013  0.78231683  1
  Ba  Ba20  1  0.58459967  0.30979385  0.27791138  1
  Ba  Ba21  1  0.27320931  0.42717830  0.04861458  1
  Ba  Ba22  1  0.81099729  0.48445316  0.16393536  1
  Ba  Ba23  1  0.62169048  0.66059264  0.86079069  1
  Ba  Ba24  1  0.50880035  0.44004346  0.79477017  1
  Ba  Ba25  1  0.77718305  0.45958968  -0.07946627  1
  Ba  Ba26  1  0.74065257  0.21994528  0.76242891  1
  Ba  Ba27  1  -0.06952233  0.41392645  0.52927190  1
  Ba  Ba28  1  0.48495026  0.19277102  0.07015650  1
  Ba  Ba29  1  0.06309812  0.25260225  0.30472661  1
  Ba  Ba30  1  0.53418665  0.45023822  0.03681896  1
  Ba  Ba31  1  0.77343666  0.84696902  0.16285909  1
  Ba  Ba32  1  0.87975135  0.05380531  0.13001445  1
  Ba  Ba33  1  0.02188898  0.65165434  0.52165588  1
  Ba  Ba34  1  0.25298790  -0.05205210  0.04298279  1
  Ba  Ba35  1  -0.02265864  0.46786839  0.78284731  1
  Ba  Ba36  1  0.44504314  0.18048148  0.75562079  1
  Ba  Ba37  1  0.54625981  0.03997109  0.36962088  1
  Ba  Ba38  1  0.05777061  0.48283756  0.15538808  1
  Ba  Ba39  1  0.68316954  0.20140630  0.51899482  1
  Ba  Ba40  1  0.28686071  -0.08066834  0.50320649  1
  Ba  Ba41  1  0.39321061  0.21030991  0.49622839  1
  Ba  Ba42  1  0.81515458  0.26606641  0.06936318  1
  Ba  Ba43  1  0.17997407  0.30751454  0.55811499  1
  Ba  Ba44  1  0.50086462  0.78669171  0.34326930  1
  Ba  Ba45  1  0.49636785  0.71088424  0.08782764  1
  Ba  Ba46  1  0.54140516  -0.03788848  0.12785185  1
  Ba  Ba47  1  0.52101287  0.52356455  0.49609152  1
  Ba  Ba48  1  0.23561970  0.40540713  0.79997805  1
  Ba  Ba49  1  0.72751789  -0.03935193  0.56053993  1
  Ba  Ba50  1  0.31119002  0.01200479  0.28224190  1
  Fe  Fe51  1  0.96697299  0.39947745  -0.01476871  1
  Fe  Fe52  1  0.71460019  1.00117112  0.27679709  1
  Fe  Fe53  1  0.95539793  -0.00261591  -0.04530336  1
  Fe  Fe54  1  0.65968513  0.62941099  0.17141108  1
  Fe  Fe55  1  0.09238013  0.02734819  0.95428264  1
  Fe  Fe56  1  0.85153010  0.63414118  0.40757683  1
  Fe  Fe57  1  0.80319084  0.55756698  0.50113975  1
  Fe  Fe58  1  0.97672116  0.89485335  0.03473401  1
  Fe  Fe59  1  0.21269915  0.27569894  0.16956207  1
  Fe  Fe60  1  0.36635330  0.32389295  0.19720990  1
  Fe  Fe61  1  0.24951682  0.09794445  0.60635864  1
  Fe  Fe62  1  0.77023736  0.64120332  0.27882851  1
  Fe  Fe63  1  0.62143462  0.64897933  0.30405225  1
  Fe  Fe64  1  0.90587723  0.85609270  0.74215327  1
  Fe  Fe65  1  0.69751742  0.60519018  0.41770600  1
  Fe  Fe66  1  0.31180053  0.18867001  0.16693766  1
  Fe  Fe67  1  0.24428381  0.83314312  0.20166066  1
  Fe  Fe68  1  0.97775539  0.25911918  0.93319977  1
  Fe  Fe69  1  0.83638288  0.10588516  0.30291242  1
  Fe  Fe70  1  0.05566425  0.99986170  0.07970499  1
  Fe  Fe71  1  0.17116608  0.83293547  0.32093504  1
  Fe  Fe72  1  0.20370172  0.73402580  0.41636996  1
  Fe  Fe73  1  0.38819350  0.22595439  0.28795390  1
  Fe  Fe74  1  0.68042736  0.58116911  0.04244118  1
  Fe  Fe75  1  0.68557786  0.71659572  1.04407003  1
  Fe  Fe76  1  0.13629466  0.80586019  0.62916527  1
  Fe  Fe77  1  0.30917591  0.81042398  0.33059315  1
  Fe  Fe78  1  0.76242511  1.05482843  0.40138127  1
  Fe  Fe79  1  0.01662850  0.13135681  0.00080617  1
  Fe  Fe80  1  -0.01752285  0.80116117  0.62541715  1
  Fe  Fe81  1  0.63281147  0.91188041  0.76579296  1
  Fe  Fe82  1  0.80358231  0.51366739  0.35748248  1
  Fe  Fe83  1  0.63060182  0.03748061  0.72204737  1
  Fe  Fe84  1  0.30553025  0.67113650  0.33376340  1
  Fe  Fe85  1  0.66544269  0.52492169  0.29304981  1
  Fe  Fe86  1  0.84359533  0.96394947  0.34576727  1
  Fe  Fe87  1  0.80026237  0.66560970  0.12710270  1
  Fe  Fe88  1  0.04855854  0.87011751  0.72781938  1
  Fe  Fe89  1  0.07734989  0.35737357  0.93504945  1
  Fe  Fe90  1  0.70959257  0.11854263  0.20543258  1
  Fe  Fe91  1  0.78570126  0.64621868  0.99278819  1
  Fe  Fe92  1  0.12469815  0.12790953  0.60234851  1
  Fe  Fe93  1  0.37915473  0.84615390  1.20143802  1
  Fe  Fe94  1  0.21803816  0.73164108  0.55780974  1
  Fe  Fe95  1  0.51235339  0.98898459  0.76382144  1
  Fe  Fe96  1  0.26266614  0.32993862  0.28796041  1
  Fe  Fe97  1  0.33722544  0.71858670  0.21058839  1
  Fe  Fe98  1  0.70087939  0.15167670  0.32806965  1
  Fe  Fe99  1  0.24979069  0.19420164  0.29729576  1
  Fe  Fe100  1  0.18823089  0.71238873  0.26118043  1
  Fe  Fe101  1  0.92972732  -0.07014574  0.63347861  1
  Bi  Bi102  1  0.08442903  0.83072597  0.14792748  1
  Bi  Bi103  1  0.79662713  -0.01476003  0.75564413  1
  Bi  Bi104  1  0.15565933  0.10702378  0.16735831  1
  Bi  Bi105  1  0.05021946  0.28295500  0.09023183  1
  Bi  Bi106  1  0.24984206  0.56541137  0.21303232  1
  Bi  Bi107  1  0.09901511  -0.03503116  0.59919131  1
  Bi  Bi108  1  -0.02661245  0.50452736  0.34748314  1
  Bi  Bi109  1  0.18305180  0.11798440  0.43724382  1
  Bi  Bi110  1  0.06541839  -0.12669960  -0.10498298  1
  Bi  Bi111  1  0.20711029  0.19172761  0.74021339  1
  Bi  Bi112  1  0.37079873  0.69686111  0.48530413  1
  Bi  Bi113  1  -0.06777765  0.69156741  0.75917633  1
  Bi  Bi114  1  0.70141687  0.41734755  0.44796105  1
  Bi  Bi115  1  0.92233137  0.86532778  0.47177765  1
  Bi  Bi116  1  0.40417239  0.60273293  0.91178974  1
  Bi  Bi117  1  0.56481649  0.32324498  0.63289975  1
  Bi  Bi118  1  0.37687356  0.39701179  0.61821263  1
  Bi  Bi119  1  0.10360109  0.52517332  0.94828701  1
  Bi  Bi120  1  0.39665389  0.31428370  0.92145547  1
  Bi  Bi121  1  0.40637794  0.37948011  0.36726267  1
  Bi  Bi122  1  0.52068633  0.04396164  0.58858771  1
  Bi  Bi123  1  0.62992899  0.28626523  0.92935521  1
  Bi  Bi124  1  0.12380494  0.50171101  0.63372038  1
  Bi  Bi125  1  0.85816700  0.13009174  0.92143093  1
  Bi  Bi126  1  0.43055159  0.02669217  0.92469848  1
  Bi  Bi127  1  0.30535831  0.80871854  0.69085436  1
