# generated using pymatgen
data_Ba51Fe51Bi26
_symmetry_space_group_name_H-M   'P 1'
_cell_length_a   16.53988519
_cell_length_b   16.08014229
_cell_length_c   16.40594281
_cell_angle_alpha   92.19568390
_cell_angle_beta   87.24397819
_cell_angle_gamma   89.46623017
_symmetry_Int_Tables_number   1
_chemical_formula_structural   Ba51Fe51Bi26
_chemical_formula_sum   'Ba51 Fe51 Bi26'
_cell_volume   4354.86639457
_cell_formula_units_Z   1
loop_
 _symmetry_equiv_pos_site_id
 _symmetry_equiv_pos_as_xyz
  1  'x, y, z'
loop_
 _atom_site_type_symbol
 _atom_site_label
 _atom_site_symmetry_multiplicity
 _atom_site_fract_x
 _atom_site_fract_y
 _atom_site_fract_z
 _atom_site_occupancy
  Ba  Ba0  1  0.44341967  0.02926197  0.61593508  1
  Ba  Ba1  1  0.51114922  0.15089383  0.09191880  1
  Ba  Ba2  1  0.72389473  0.14610789  0.31428491  1
  Ba  Ba3  1  0.52923192  -0.09585619  0.14446188  1
  Ba  Ba4  1  0.10437712  0.16786546  0.41190199  1
  Ba  Ba5  1  0.08156910  0.24892505  0.79332591  1
  Ba  Ba6  1  0.81972405  0.39451951  0.08722626  1
  Ba  Ba7  1  0.29764927  0.04109599  0.09639135  1
  Ba  Ba8  1  0.33050298  0.73581368  0.02233577  1
  Ba  Ba9  1  0.72561931  0.31637708  0.54774238  1
  Ba  Ba10  1  -0.15644027  0.85963321  0.43443788  1
  Ba  Ba11  1  -0.06594395  0.31422917  0.30032076  1
  Ba  Ba12  1  0.80627564  0.51179834  -0.13807880  1
  Ba  Ba13  1  0.36476224  0.33184735  -0.06230622  1
  Ba  Ba14  1  0.20618172  -0.13312076  0.61915625  1
  Ba  Ba15  1  0.73979084  -0.01631014  0.77078998  1
  Ba  Ba16  1  0.54290297  0.44582033  0.44868304  1
  Ba  Ba17  1  0.90553162  0.79532909  0.19205839  1
  Ba  Ba18  1  0.64724806  0.75738938  -0.12241182  1
  Ba  Ba19  1  0.75699098  0.18588495  -0.03987801  1
  Ba  Ba20  1  0.13280930  0.85780938  0.12549630  1
  Ba  Ba21  1  -0.05426723  0.02922812  0.28699694  1
  Ba  Ba22  1  0.52454416  0.54675079  -0.02998327  1
  Ba  Ba23  1  0.02352499  0.53338932  0.54573380  1
  Ba  Ba24  1  0.03759259  0.83001925  0.86015861  1
  Ba  Ba25  1  0.32619794  0.10562124  0.85894982  1
  Ba  Ba26  1  0.62914456  0.49988240  0.71285780  1
  Ba  Ba27  1  0.55516829  0.15886153  0.84391766  1
  Ba  Ba28  1  0.19001419  0.73472440  0.35928697  1
  Ba  Ba29  1  0.80686053  -0.06025888  0.03060452  1
  Ba  Ba30  1  0.82474629  0.72036547  0.66558968  1
  Ba  Ba31  1  0.80021414  0.54796093  0.44522785  1
  Ba  Ba32  1  -0.00488444  0.59251522  0.18105817  1
  Ba  Ba33  1  0.22067056  0.29954222  0.18804671  1
  Ba  Ba34  1  0.64322438  0.75056219  0.31745409  1
  Ba  Ba35  1  0.24272905  0.52906530  0.10103190  1
  Ba  Ba36  1  -0.06276351  0.28794937  0.63450031  1
  Ba  Ba37  1  0.62125269  0.51215213  0.18178967  1
  Ba  Ba38  1  0.08776461  0.44998809  -0.06936980  1
  Ba  Ba39  1  0.69209200  0.06712615  0.55879571  1
  Ba  Ba40  1  0.59146190  0.68117433  0.56746959  1
  Ba  Ba41  1  0.32643343  0.23315700  0.48321183  1
  Ba  Ba42  1  -0.03950535  0.02864825  0.60403732  1
  Ba  Ba43  1  0.21597832  0.48395862  0.71221628  1
  Ba  Ba44  1  0.54271091  0.28139144  0.27562422  1
  Ba  Ba45  1  0.03265881  0.05152665  0.00491182  1
  Ba  Ba46  1  0.27365263  0.47500171  0.45824193  1
  Ba  Ba47  1  0.30199317  -0.01377524  0.38136385  1
  Ba  Ba48  1  0.39125322  0.74767385  0.51470271  1
  Ba  Ba49  1  0.13858311  0.03452913  0.76387279  1
  Ba  Ba50  1  0.44836779  -0.10658408  0.86270327  1
  Fe  Fe51  1  0.84405977  0.70193436  0.91634885  1
  Fe  Fe52  1  0.66216851  0.86525149  0.52567865  1
  Fe  Fe53  1  0.44567015  0.48319008  0.29780499  1
  Fe  Fe54  1  0.53229409  0.03252627  0.43531606  1
  Fe  Fe55  1  0.37323940  0.37071167  0.64554756  1
  Fe  Fe56  1  0.42496541  0.56742389  0.18234382  1
  Fe  Fe57  1  0.94026572  0.67639178  0.80176990  1
  Fe  Fe58  1  0.43132210  0.74893840  0.71980975  1
  Fe  Fe59  1  0.05049725  0.66878348  0.69545981  1
  Fe  Fe60  1  0.64678693  0.93659669  0.40415640  1
  Fe  Fe61  1  0.17731307  0.71215484  0.73282438  1
  Fe  Fe62  1  0.08962043  0.62705192  0.82330702  1
  Fe  Fe63  1  0.44768738  0.59932884  0.76006990  1
  Fe  Fe64  1  0.53978596  0.88874389  0.49562426  1
  Fe  Fe65  1  0.81661872  0.65159517  0.28507880  1
  Fe  Fe66  1  0.31815534  0.66275610  0.70623265  1
  Fe  Fe67  1  0.81148697  0.52711456  0.24647720  1
  Fe  Fe68  1  0.78378100  0.33809475  0.76570167  1
  Fe  Fe69  1  0.14175949  0.17416468  0.61033555  1
  Fe  Fe70  1  0.04684220  0.21552664  0.12556615  1
  Fe  Fe71  1  0.87438959  0.60106191  0.03450833  1
  Fe  Fe72  1  0.23252849  0.67030203  0.84836073  1
  Fe  Fe73  1  0.44242975  0.22957935  0.63925957  1
  Fe  Fe74  1  0.49390643  0.62748874  0.29775029  1
  Fe  Fe75  1  0.50907946  0.35941666  0.62576331  1
  Fe  Fe76  1  0.17044712  0.05510969  0.55823204  1
  Fe  Fe77  1  0.37656608  0.61634944  0.35393976  1
  Fe  Fe78  1  0.68508077  0.25329066  0.73840577  1
  Fe  Fe79  1  0.59432603  0.00003568  0.29421424  1
  Fe  Fe80  1  0.34065559  0.66950898  0.23355111  1
  Fe  Fe81  1  0.44023482  0.44565510  0.75403310  1
  Fe  Fe82  1  0.36634087  0.37384873  0.29755323  1
  Fe  Fe83  1  0.77846641  0.63420844  0.15139545  1
  Fe  Fe84  1  0.49708681  0.90314729  0.35759845  1
  Fe  Fe85  1  0.43128992  0.76546869  0.31511822  1
  Fe  Fe86  1  0.47132525  0.70780478  0.18283940  1
  Fe  Fe87  1  0.94134261  0.72559957  0.00543252  1
  Fe  Fe88  1  0.31915137  0.51357362  0.26982057  1
  Fe  Fe89  1  0.57368378  0.22320859  0.65481520  1
  Fe  Fe90  1  0.47755016  0.05747065  0.31295829  1
  Fe  Fe91  1  0.97086475  0.60834565  0.91377615  1
  Fe  Fe92  1  0.74084227  0.62146240  0.00852437  1
  Fe  Fe93  1  0.99475088  0.26180366  0.01584533  1
  Fe  Fe94  1  0.79503467  0.74046661  0.04779633  1
  Fe  Fe95  1  0.55048976  0.33094000  0.75456442  1
  Fe  Fe96  1  0.41987790  0.29585541  0.75694542  1
  Fe  Fe97  1  0.82017876  0.20432953  0.76935176  1
  Fe  Fe98  1  0.29121272  0.79308703  0.78954175  1
  Fe  Fe99  1  -0.01993638  0.55209061  0.75483996  1
  Fe  Fe100  1  0.57281814  0.33619187  0.04414714  1
  Fe  Fe101  1  0.38480272  0.69451177  0.84130596  1
  Bi  Bi102  1  -0.15784370  0.48833565  0.65189223  1
  Bi  Bi103  1  0.42153371  0.53588290  0.60618971  1
  Bi  Bi104  1  0.54265300  0.20854038  0.48838921  1
  Bi  Bi105  1  0.64218538  0.36336403  0.89123574  1
  Bi  Bi106  1  0.57829184  0.86501358  0.68037505  1
  Bi  Bi107  1  0.43255033  0.39754433  0.12934066  1
  Bi  Bi108  1  0.32684975  0.84318647  0.21336488  1
  Bi  Bi109  1  0.19067333  0.65692536  0.57008117  1
  Bi  Bi110  1  0.74728765  -0.06655985  0.25228849  1
  Bi  Bi111  1  0.27954462  0.22773321  0.70067102  1
  Bi  Bi112  1  0.10835739  0.67301406  -0.00196499  1
  Bi  Bi113  1  -0.07573239  0.07393235  -0.17985674  1
  Bi  Bi114  1  0.62822965  0.71724518  0.09739796  1
  Bi  Bi115  1  0.12570408  1.08744705  0.20599040  1
  Bi  Bi116  1  0.36311250  0.17356999  0.27197802  1
  Bi  Bi117  1  0.61772151  -0.01364430  0.95742630  1
  Bi  Bi118  1  0.03979751  0.39141990  0.12848576  1
  Bi  Bi119  1  0.73034399  0.38508164  0.31806058  1
  Bi  Bi120  1  0.17048561  0.21742729  0.98068342  1
  Bi  Bi121  1  0.88194111  0.17081171  0.13028560  1
  Bi  Bi122  1  0.23199931  0.91349277  0.91838095  1
  Bi  Bi123  1  0.13145061  0.33876004  0.55805871  1
  Bi  Bi124  1  0.87684386  0.15839699  0.46077002  1
  Bi  Bi125  1  0.09465474  0.93831489  0.44976003  1
  Bi  Bi126  1  0.33152635  0.53619859  0.88606027  1
  Bi  Bi127  1  0.90404084  0.32161160  0.88221912  1
