# generated using pymatgen
data_Ba51Fe51Bi26
_symmetry_space_group_name_H-M   'P 1'
_cell_length_a   16.81713262
_cell_length_b   16.04012987
_cell_length_c   16.51051509
_cell_angle_alpha   90.32288110
_cell_angle_beta   90.71801819
_cell_angle_gamma   93.57291384
_symmetry_Int_Tables_number   1
_chemical_formula_structural   Ba51Fe51Bi26
_chemical_formula_sum   'Ba51 Fe51 Bi26'
_cell_volume   4444.59725255
_cell_formula_units_Z   1
loop_
 _symmetry_equiv_pos_site_id
 _symmetry_equiv_pos_as_xyz
  1  'x, y, z'
loop_
 _atom_site_type_symbol
 _atom_site_label
 _atom_site_symmetry_multiplicity
 _atom_site_fract_x
 _atom_site_fract_y
 _atom_site_fract_z
 _atom_site_occupancy
  Ba  Ba0  1  0.75170643  0.75204098  -0.05962802  1
  Ba  Ba1  1  -0.02007987  0.30612474  0.21796276  1
  Ba  Ba2  1  0.05918764  0.30325867  0.78646141  1
  Ba  Ba3  1  0.39184139  0.45636176  0.17371091  1
  Ba  Ba4  1  0.74503873  0.49478154  0.53431890  1
  Ba  Ba5  1  0.07741383  0.49947406  0.33459599  1
  Ba  Ba6  1  -0.12093243  0.01197900  0.47944729  1
  Ba  Ba7  1  0.29132526  0.43149794  0.78563118  1
  Ba  Ba8  1  0.72886740  0.52769399  0.07508568  1
  Ba  Ba9  1  0.83503561  0.26909021  0.46033449  1
  Ba  Ba10  1  0.80787250  0.52788230  0.76629201  1
  Ba  Ba11  1  -0.22047035  0.25594650  0.72637975  1
  Ba  Ba12  1  0.47287333  0.72617807  0.25919774  1
  Ba  Ba13  1  0.03770075  0.54682163  0.78166473  1
  Ba  Ba14  1  -0.02821841  0.00023658  0.18981969  1
  Ba  Ba15  1  0.07441413  0.79804785  0.77540026  1
  Ba  Ba16  1  0.47569973  0.43746422  0.59998299  1
  Ba  Ba17  1  0.56512355  0.09417280  0.66129836  1
  Ba  Ba18  1  -0.01239184  0.55118786  0.01968874  1
  Ba  Ba19  1  0.11848260  -0.06810059  0.42659566  1
  Ba  Ba20  1  0.28163349  0.09080740  0.77505264  1
  Ba  Ba21  1  0.76560365  0.75762270  0.51790853  1
  Ba  Ba22  1  0.32951515  0.80686589  0.49362316  1
  Ba  Ba23  1  0.55827741  0.55659682  0.81817152  1
  Ba  Ba24  1  0.77856321  0.64586437  0.28509917  1
  Ba  Ba25  1  0.23603082  0.66666510  0.21104437  1
  Ba  Ba26  1  0.71112312  -0.02750416  0.03685350  1
  Ba  Ba27  1  0.68538164  -0.10267816  0.30639752  1
  Ba  Ba28  1  0.01239612  0.83774918  0.00167612  1
  Ba  Ba29  1  0.65420045  0.34232248  -0.07974436  1
  Ba  Ba30  1  0.49169178  0.16450659  0.00094030  1
  Ba  Ba31  1  0.53743237  0.75100285  0.65917888  1
  Ba  Ba32  1  0.28201758  0.46875923  0.46152036  1
  Ba  Ba33  1  0.27008980  0.02238304  0.04287953  1
  Ba  Ba34  1  0.24044859  0.77922965  0.00433516  1
  Ba  Ba35  1  0.30262308  0.75364374  0.76216660  1
  Ba  Ba36  1  0.42342465  0.19960690  0.24185022  1
  Ba  Ba37  1  0.01036342  0.01804885  0.70005419  1
  Ba  Ba38  1  0.71161367  0.19180730  0.17131731  1
  Ba  Ba39  1  0.17686213  0.18267944  0.31881287  1
  Ba  Ba40  1  -0.02949403  0.62659352  0.50116448  1
  Ba  Ba41  1  0.43552588  0.20857003  0.51257430  1
  Ba  Ba42  1  0.36980385  0.59611992  -0.04444842  1
  Ba  Ba43  1  0.65139809  0.35968925  0.33062297  1
  Ba  Ba44  1  0.24827669  0.30669163  0.01718016  1
  Ba  Ba45  1  -0.05261571  0.20933186  -0.00639882  1
  Ba  Ba46  1  0.53989383  -0.06726733  -0.16832315  1
  Ba  Ba47  1  0.35771262  -0.07268757  0.24935086  1
  Ba  Ba48  1  0.08517878  0.30110478  0.53606292  1
  Ba  Ba49  1  0.76896401  -0.02636514  0.75328434  1
  Ba  Ba50  1  0.00270381  0.71996144  0.22668792  1
  Fe  Fe51  1  0.80548183  0.38517231  0.20126653  1
  Fe  Fe52  1  0.41569880  0.25034767  0.71319585  1
  Fe  Fe53  1  1.06639579  0.04397065  -0.00121253  1
  Fe  Fe54  1  0.18737241  0.62238362  0.53212144  1
  Fe  Fe55  1  0.54590257  0.50138740  0.03286161  1
  Fe  Fe56  1  0.70279875  0.12883170  0.52742503  1
  Fe  Fe57  1  1.05497782  0.10870996  0.86126248  1
  Fe  Fe58  1  0.23334457  0.15393119  0.50620512  1
  Fe  Fe59  1  0.29928447  0.03396540  0.56723932  1
  Fe  Fe60  1  0.48968510  0.36150792  0.79700348  1
  Fe  Fe61  1  0.50129867  0.73683862  0.89806619  1
  Fe  Fe62  1  0.56407791  0.82182575  0.99665911  1
  Fe  Fe63  1  0.87786531  0.82535733  0.70473842  1
  Fe  Fe64  1  0.46199084  0.54841409  0.35987739  1
  Fe  Fe65  1  0.57487318  0.04693162  0.46543895  1
  Fe  Fe66  1  0.59512555  0.63079369  0.38924806  1
  Fe  Fe67  1  0.52213891  0.60729492  0.10758323  1
  Fe  Fe68  1  0.47084165  0.73597848  1.05749443  1
  Fe  Fe69  1  0.20895063  0.52372108  0.64249693  1
  Fe  Fe70  1  0.40831452  0.25955149  0.84681232  1
  Fe  Fe71  1  0.55249275  0.29115728  0.70700911  1
  Fe  Fe72  1  0.52387282  0.92022386  0.54057343  1
  Fe  Fe73  1  0.13517957  0.75465845  0.57207784  1
  Fe  Fe74  1  0.59436975  0.61403172  0.52122029  1
  Fe  Fe75  1  0.62169174  0.18348509  0.41854636  1
  Fe  Fe76  1  0.17119580  0.58047059  0.93153732  1
  Fe  Fe77  1  0.89551272  0.48519029  0.18557974  1
  Fe  Fe78  1  0.57270452  0.65459818  -0.01040025  1
  Fe  Fe79  1  0.42075299  0.82604073  0.94913286  1
  Fe  Fe80  1  0.55881026  0.49866985  0.43190842  1
  Fe  Fe81  1  0.41795782  0.86568234  0.08581339  1
  Fe  Fe82  1  0.89755800  0.85061227  0.83354277  1
  Fe  Fe83  1  0.52505301  0.20749240  0.81206734  1
  Fe  Fe84  1  0.21531921  0.54158306  0.05235402  1
  Fe  Fe85  1  0.90088594  0.69567857  0.67835925  1
  Fe  Fe86  1  0.46623898  0.61975907  0.48062922  1
  Fe  Fe87  1  0.48968918  0.94194277  0.40240745  1
  Fe  Fe88  1  0.17884968  0.09599347  0.60624308  1
  Fe  Fe89  1  0.50600760  -0.00205119  0.13783988  1
  Fe  Fe90  1  0.70654519  0.08563264  0.39996315  1
  Fe  Fe91  1  0.15101897  0.14468655  0.94345124  1
  Fe  Fe92  1  0.54602042  0.87005643  0.13213451  1
  Fe  Fe93  1  0.14107418  0.44888381  0.94993216  1
  Fe  Fe94  1  0.42681040  1.00710726  0.51317293  1
  Fe  Fe95  1  0.12925464  0.44711632  0.08763365  1
  Fe  Fe96  1  0.09326416  0.51261951  0.58666966  1
  Fe  Fe97  1  0.85807459  0.38146189  0.08195534  1
  Fe  Fe98  1  0.89572385  0.71506298  0.81234521  1
  Fe  Fe99  1  0.11974699  0.99558027  0.88733788  1
  Fe  Fe100  1  0.15281243  0.64739624  0.65841579  1
  Fe  Fe101  1  0.49394766  -0.05056424  0.01237542  1
  Bi  Bi102  1  0.43530217  0.39520994  -0.04929261  1
  Bi  Bi103  1  0.73844399  0.72706378  0.73036786  1
  Bi  Bi104  1  0.18962502  -0.08283197  0.63458250  1
  Bi  Bi105  1  0.56728433  0.06730472  0.28878521  1
  Bi  Bi106  1  0.64589322  0.74161046  0.12861170  1
  Bi  Bi107  1  0.54864468  0.78044449  0.44874964  1
  Bi  Bi108  1  -0.02095580  0.83051242  0.57767415  1
  Bi  Bi109  1  0.35198958  0.61398761  0.61130798  1
  Bi  Bi110  1  -0.07990061  0.00349201  -0.08774787  1
  Bi  Bi111  1  0.69005071  -0.04494580  0.54886688  1
  Bi  Bi112  1  0.26310402  0.26665075  0.63582207  1
  Bi  Bi113  1  0.64441739  0.29112107  0.55962888  1
  Bi  Bi114  1  0.58609300  0.54268417  0.24696777  1
  Bi  Bi115  1  0.15398934  0.87865244  0.17708575  1
  Bi  Bi116  1  0.31540216  0.05643375  0.39948147  1
  Bi  Bi117  1  0.44131530  0.37503678  0.37500448  1
  Bi  Bi118  1  0.66003046  0.12426934  0.87237664  1
  Bi  Bi119  1  0.89185215  0.84599694  0.34776790  1
  Bi  Bi120  1  0.87812923  0.38932258  0.90778681  1
  Bi  Bi121  1  0.57048518  0.34324665  0.11928555  1
  Bi  Bi122  1  0.11649395  0.16277475  0.11675920  1
  Bi  Bi123  1  0.93709791  0.41970791  0.62337764  1
  Bi  Bi124  1  0.86803034  0.45831518  0.35351543  1
  Bi  Bi125  1  0.84277644  0.82388407  0.13139039  1
  Bi  Bi126  1  0.40688868  0.93272460  0.66536217  1
  Bi  Bi127  1  0.14553207  0.71029629  0.39773513  1
