# generated using pymatgen
data_Ba51Fe51Bi26
_symmetry_space_group_name_H-M   'P 1'
_cell_length_a   16.40142205
_cell_length_b   16.24841053
_cell_length_c   16.40691624
_cell_angle_alpha   90.72462481
_cell_angle_beta   90.82934068
_cell_angle_gamma   86.86563999
_symmetry_Int_Tables_number   1
_chemical_formula_structural   Ba51Fe51Bi26
_chemical_formula_sum   'Ba51 Fe51 Bi26'
_cell_volume   4365.08862834
_cell_formula_units_Z   1
loop_
 _symmetry_equiv_pos_site_id
 _symmetry_equiv_pos_as_xyz
  1  'x, y, z'
loop_
 _atom_site_type_symbol
 _atom_site_label
 _atom_site_symmetry_multiplicity
 _atom_site_fract_x
 _atom_site_fract_y
 _atom_site_fract_z
 _atom_site_occupancy
  Ba  Ba0  1  0.01052029  0.24294536  0.57807760  1
  Ba  Ba1  1  0.71462797  0.02873967  0.29470471  1
  Ba  Ba2  1  0.63171037  0.79749994  -0.01623408  1
  Ba  Ba3  1  -0.02539855  0.22976161  0.34481842  1
  Ba  Ba4  1  0.21659470  0.36836425  0.08353317  1
  Ba  Ba5  1  0.83875019  -0.04511467  -0.14657798  1
  Ba  Ba6  1  0.05041224  0.09199439  0.86227348  1
  Ba  Ba7  1  0.02328502  0.46662925  0.42639471  1
  Ba  Ba8  1  0.07665083  0.07591755  0.11350266  1
  Ba  Ba9  1  -0.10584637  -0.10127094  0.08429296  1
  Ba  Ba10  1  0.46568212  0.46707221  -0.07895327  1
  Ba  Ba11  1  0.72726115  0.47516394  0.63807543  1
  Ba  Ba12  1  0.46802439  0.53416514  0.67605623  1
  Ba  Ba13  1  -0.11301847  0.60497624  -0.03328189  1
  Ba  Ba14  1  0.02243347  0.71541283  0.26998335  1
  Ba  Ba15  1  0.26123074  0.58656222  0.88929441  1
  Ba  Ba16  1  0.50649981  0.17419454  0.68445377  1
  Ba  Ba17  1  0.73995691  0.22597232  0.59166742  1
  Ba  Ba18  1  0.17043031  -0.11713853  -0.04365421  1
  Ba  Ba19  1  -0.02279991  0.35454719  0.80473923  1
  Ba  Ba20  1  0.11787604  0.66275517  0.06379827  1
  Ba  Ba21  1  0.26415090  0.71009770  0.27112595  1
  Ba  Ba22  1  0.50701427  0.39413178  0.13627476  1
  Ba  Ba23  1  -0.01016144  0.30073759  0.04072772  1
  Ba  Ba24  1  0.34145680  0.35973179  0.59540088  1
  Ba  Ba25  1  0.71049966  0.75671655  0.45166007  1
  Ba  Ba26  1  0.27693420  -0.09162914  0.47988012  1
  Ba  Ba27  1  0.21074765  0.13707422  0.29953816  1
  Ba  Ba28  1  0.37932429  0.15153322  0.13504907  1
  Ba  Ba29  1  0.54904898  0.22293783  -0.07224112  1
  Ba  Ba30  1  0.14627252  0.76546845  0.67228995  1
  Ba  Ba31  1  0.59912626  0.28801398  0.38622433  1
  Ba  Ba32  1  0.51836145  0.89592429  0.50767238  1
  Ba  Ba33  1  0.56104324  0.85393385  0.75993225  1
  Ba  Ba34  1  0.38041871  0.75402818  0.65423910  1
  Ba  Ba35  1  0.67155642  0.55413704  -0.13682972  1
  Ba  Ba36  1  0.22239282  0.12332244  0.69005524  1
  Ba  Ba37  1  0.76398588  0.25283761  0.12624679  1
  Ba  Ba38  1  0.31123002  0.42586734  0.32840008  1
  Ba  Ba39  1  0.76673785  0.22996074  -0.14659997  1
  Ba  Ba40  1  0.37200760  0.13160159  0.46832824  1
  Ba  Ba41  1  -0.04884882  0.66707112  0.56375945  1
  Ba  Ba42  1  0.51191444  0.57671353  0.29389997  1
  Ba  Ba43  1  0.79301161  0.74994342  0.72953664  1
  Ba  Ba44  1  0.57008410  0.80227060  0.22667198  1
  Ba  Ba45  1  0.12792387  0.50648612  0.70963266  1
  Ba  Ba46  1  0.02244069  -0.04481296  0.35395071  1
  Ba  Ba47  1  0.77472323  0.63130152  0.17593751  1
  Ba  Ba48  1  0.00106827  -0.03761589  0.60426390  1
  Ba  Ba49  1  0.39761400  0.74211629  0.06260025  1
  Ba  Ba50  1  0.73962101  -0.00377475  0.60669861  1
  Fe  Fe51  1  0.93363636  0.51729011  0.24792564  1
  Fe  Fe52  1  -0.00942499  0.76119772  0.91702110  1
  Fe  Fe53  1  0.26728983  0.58440278  0.59155011  1
  Fe  Fe54  1  0.21196182  0.31639199  0.75207389  1
  Fe  Fe55  1  0.31550107  0.34609488  0.91324201  1
  Fe  Fe56  1  1.04004061  0.62073463  0.85467356  1
  Fe  Fe57  1  0.63105439  0.57356347  0.48528608  1
  Fe  Fe58  1  0.27116789  0.93114002  0.26277995  1
  Fe  Fe59  1  0.37867871  0.02279389  0.27698753  1
  Fe  Fe60  1  0.34524652  0.97290213  0.85907405  1
  Fe  Fe61  1  0.35833948  0.94079355  1.01713571  1
  Fe  Fe62  1  0.30217327  0.40449722  0.79209076  1
  Fe  Fe63  1  0.56448192  0.08123067  0.06284359  1
  Fe  Fe64  1  0.50303715  0.94615177  0.06317719  1
  Fe  Fe65  1  0.65029449  0.97597008  0.09103081  1
  Fe  Fe66  1  0.34580856  0.57294740  0.46946739  1
  Fe  Fe67  1  0.85515161  0.44690965  0.13197198  1
  Fe  Fe68  1  0.23390362  0.22216988  0.86641313  1
  Fe  Fe69  1  0.36132583  0.83482393  0.88864259  1
  Fe  Fe70  1  0.27742920  -0.02228263  0.13808266  1
  Fe  Fe71  1  -0.00779170  0.49758742  0.11676976  1
  Fe  Fe72  1  0.11050230  0.72950541  0.85433710  1
  Fe  Fe73  1  0.35419202  0.26640166  0.79784562  1
  Fe  Fe74  1  0.48102024  0.02603458  0.82918932  1
  Fe  Fe75  1  0.85307494  0.90859145  0.45270793  1
  Fe  Fe76  1  0.70450829  0.05555071  -0.00141831  1
  Fe  Fe77  1  0.49505304  -0.04328302  0.32334555  1
  Fe  Fe78  1  0.81995493  0.47743108  0.34104648  1
  Fe  Fe79  1  0.98324957  0.71247762  0.76738993  1
  Fe  Fe80  1  0.58296323  -0.00309513  0.94472763  1
  Fe  Fe81  1  0.40892899  0.92198663  0.17490935  1
  Fe  Fe82  1  0.22371135  0.48894730  0.49978277  1
  Fe  Fe83  1  0.18207974  0.36110412  0.87488291  1
  Fe  Fe84  1  0.50484262  0.09275766  0.31718012  1
  Fe  Fe85  1  0.87570570  0.37928896  0.25159860  1
  Fe  Fe86  1  0.68391631  0.45551777  0.42558838  1
  Fe  Fe87  1  0.71500443  0.47134675  0.08066252  1
  Fe  Fe88  1  0.26732642  0.69076326  0.49219851  1
  Fe  Fe89  1  0.78622795  0.54393979  0.47283425  1
  Fe  Fe90  1  0.36148712  0.12034181  0.83747277  1
  Fe  Fe91  1  0.43433888  0.05938469  0.96511428  1
  Fe  Fe92  1  0.19530264  0.59433346  0.41300287  1
  Fe  Fe93  1  0.70407320  0.57953958  0.35502293  1
  Fe  Fe94  1  0.14391392  0.61765638  0.53555976  1
  Fe  Fe95  1  0.85781680  0.84304814  0.55943363  1
  Fe  Fe96  1  0.38803523  0.86769927  0.31079055  1
  Fe  Fe97  1  0.53016726  1.01442976  0.19375928  1
  Fe  Fe98  1  1.00645752  0.84137718  0.81010921  1
  Fe  Fe99  1  0.47013080  0.90506001  0.92369138  1
  Fe  Fe100  1  0.35792150  0.21225070  -0.05256073  1
  Fe  Fe101  1  0.00194259  0.39745290  0.20880328  1
  Bi  Bi102  1  0.81386817  0.40531852  -0.03755894  1
  Bi  Bi103  1  0.57909568  0.18601103  0.19694420  1
  Bi  Bi104  1  0.83550679  0.36584911  0.46870628  1
  Bi  Bi105  1  0.65027927  0.05654330  0.80522800  1
  Bi  Bi106  1  0.13268471  -0.12305158  0.17339734  1
  Bi  Bi107  1  0.61320233  0.68152465  0.62526653  1
  Bi  Bi108  1  0.24630582  0.08594907  0.97482740  1
  Bi  Bi109  1  0.90541454  0.56073748  0.74999171  1
  Bi  Bi110  1  0.87100302  0.63533411  0.36785287  1
  Bi  Bi111  1  0.58807272  0.08984255  0.46930009  1
  Bi  Bi112  1  0.11903572  0.51674144  0.23971165  1
  Bi  Bi113  1  0.07855623  0.48123596  -0.04846758  1
  Bi  Bi114  1  0.41545881  0.73325097  0.42097130  1
  Bi  Bi115  1  0.13967993  0.08466456  0.48891421  1
  Bi  Bi116  1  0.18442244  0.30868548  0.45284925  1
  Bi  Bi117  1  0.59281637  0.36262592  0.76105730  1
  Bi  Bi118  1  0.11379056  0.77145396  0.45623010  1
  Bi  Bi119  1  0.86566485  0.07993804  0.45361154  1
  Bi  Bi120  1  0.39375909  0.98702141  0.67970945  1
  Bi  Bi121  1  0.87628580  0.10096081  1.00938515  1
  Bi  Bi122  1  0.33345670  0.54351171  0.11049575  1
  Bi  Bi123  1  0.58668938  0.59558611  0.07305013  1
  Bi  Bi124  1  0.90010803  0.12811560  0.71645766  1
  Bi  Bi125  1  0.49981535  0.46528354  0.47464314  1
  Bi  Bi126  1  0.45353821  0.68594368  0.85459500  1
  Bi  Bi127  1  0.69175072  0.43049602  0.24429265  1
