# generated using pymatgen
data_Ba51Fe51Bi26
_symmetry_space_group_name_H-M   'P 1'
_cell_length_a   16.41775476
_cell_length_b   16.30079724
_cell_length_c   16.21953383
_cell_angle_alpha   88.50280132
_cell_angle_beta   91.66754035
_cell_angle_gamma   90.04775800
_symmetry_Int_Tables_number   1
_chemical_formula_structural   Ba51Fe51Bi26
_chemical_formula_sum   'Ba51 Fe51 Bi26'
_cell_volume   4337.39250245
_cell_formula_units_Z   1
loop_
 _symmetry_equiv_pos_site_id
 _symmetry_equiv_pos_as_xyz
  1  'x, y, z'
loop_
 _atom_site_type_symbol
 _atom_site_label
 _atom_site_symmetry_multiplicity
 _atom_site_fract_x
 _atom_site_fract_y
 _atom_site_fract_z
 _atom_site_occupancy
  Ba  Ba0  1  -0.00609228  0.51734971  0.05594622  1
  Ba  Ba1  1  0.68924421  0.90639786  -0.01581459  1
  Ba  Ba2  1  0.58377979  0.68572578  -0.01731726  1
  Ba  Ba3  1  0.14997559  0.06101232  0.54754276  1
  Ba  Ba4  1  0.68077806  0.44911522  0.20446983  1
  Ba  Ba5  1  -0.09514357  0.73783291  -0.03902484  1
  Ba  Ba6  1  0.07407311  0.75162455  0.15629956  1
  Ba  Ba7  1  0.35277270  0.73978723  0.35934634  1
  Ba  Ba8  1  0.73545088  0.07425793  -0.17689653  1
  Ba  Ba9  1  0.59923654  0.19038555  0.01471103  1
  Ba  Ba10  1  0.38085017  -0.15203284  -0.07135082  1
  Ba  Ba11  1  0.22207793  -0.00854897  0.06781243  1
  Ba  Ba12  1  0.19133189  0.46578321  -0.10221890  1
  Ba  Ba13  1  0.31799396  0.24122198  0.01091412  1
  Ba  Ba14  1  0.71225520  0.22187333  0.27457411  1
  Ba  Ba15  1  -0.04721988  0.19453717  0.00896574  1
  Ba  Ba16  1  0.07166298  -0.10029315  0.78395092  1
  Ba  Ba17  1  -0.11066329  0.53249992  0.29014479  1
  Ba  Ba18  1  0.53914142  0.54463957  0.48663031  1
  Ba  Ba19  1  0.24805484  0.22411657  0.76737211  1
  Ba  Ba20  1  0.25959340  0.10158271  0.29520494  1
  Ba  Ba21  1  0.56730878  0.81557204  0.23995941  1
  Ba  Ba22  1  0.50147771  0.21093770  0.77373218  1
  Ba  Ba23  1  -0.07616682  -0.02831255  0.51649824  1
  Ba  Ba24  1  0.30730732  -0.02638592  0.73478942  1
  Ba  Ba25  1  0.81816304  0.23918923  0.51559029  1
  Ba  Ba26  1  0.53016585  0.54025664  0.75761523  1
  Ba  Ba27  1  -0.03525110  0.13415046  0.26937003  1
  Ba  Ba28  1  0.73736241  0.69308953  0.32004132  1
  Ba  Ba29  1  0.59260887  0.79101754  0.57698523  1
  Ba  Ba30  1  0.30441061  0.48033762  0.64425646  1
  Ba  Ba31  1  0.44599857  0.54252205  0.22489811  1
  Ba  Ba32  1  0.52922466  0.28512553  0.53385025  1
  Ba  Ba33  1  0.49862557  0.42949694  -0.00281498  1
  Ba  Ba34  1  -0.00212001  0.60853430  0.71396094  1
  Ba  Ba35  1  -0.01395868  0.73365285  0.38508279  1
  Ba  Ba36  1  0.13258702  0.32639192  0.18463257  1
  Ba  Ba37  1  0.01188523  0.35705355  0.40554029  1
  Ba  Ba38  1  -0.05175982  -0.05318584  0.09010964  1
  Ba  Ba39  1  0.06516574  0.34336237  0.66783235  1
  Ba  Ba40  1  0.30339943  0.29437647  0.43145292  1
  Ba  Ba41  1  0.78774437  0.51897552  0.81857728  1
  Ba  Ba42  1  0.84298796  0.73613834  0.56069342  1
  Ba  Ba43  1  0.47948557  -0.00174598  0.09349478  1
  Ba  Ba44  1  0.19304855  0.66381843  0.51061044  1
  Ba  Ba45  1  0.83003092  0.28387640  0.74732271  1
  Ba  Ba46  1  0.37280659  -0.08445846  0.51900005  1
  Ba  Ba47  1  0.79677768  0.36737279  0.01426839  1
  Ba  Ba48  1  0.65382098  0.01240195  0.47478985  1
  Ba  Ba49  1  0.26036270  0.65380021  0.06536825  1
  Ba  Ba50  1  0.25928995  0.71239746  0.75594165  1
  Fe  Fe51  1  0.75912542  0.77235274  0.13007183  1
  Fe  Fe52  1  0.45195303  0.06511924  0.27281596  1
  Fe  Fe53  1  0.80881823  0.00006400  0.24940503  1
  Fe  Fe54  1  1.05410919  0.05340376  0.91505760  1
  Fe  Fe55  1  0.03246098  0.21044250  0.82916746  1
  Fe  Fe56  1  0.53775742  0.16035723  0.19974757  1
  Fe  Fe57  1  0.76780060  0.89894260  0.32822220  1
  Fe  Fe58  1  0.67979608  0.37297448  0.42293545  1
  Fe  Fe59  1  0.24257387  0.87261853  0.23261764  1
  Fe  Fe60  1  0.61882811  0.88069642  0.77974080  1
  Fe  Fe61  1  0.15739476  0.86000317  0.46740953  1
  Fe  Fe62  1  0.37666656  0.32391526  0.22704461  1
  Fe  Fe63  1  0.84516803  0.83654041  0.22552241  1
  Fe  Fe64  1  0.71349101  0.44108046  0.54446749  1
  Fe  Fe65  1  0.36989330  0.93357430  0.27677298  1
  Fe  Fe66  1  0.28589704  0.42885418  0.26691268  1
  Fe  Fe67  1  0.18568215  0.51902833  0.18772543  1
  Fe  Fe68  1  0.26398074  0.57746195  0.28180750  1
  Fe  Fe69  1  0.13132763  0.16698895  0.92390536  1
  Fe  Fe70  1  0.52095275  -0.00077937  0.79792653  1
  Fe  Fe71  1  0.87409082  0.71323673  0.16715661  1
  Fe  Fe72  1  0.07479884  0.54167727  0.25220310  1
  Fe  Fe73  1  0.61756372  0.99170567  0.67920838  1
  Fe  Fe74  1  0.10581357  -0.04778107  0.38293612  1
  Fe  Fe75  1  0.12012067  -0.07205022  0.25146187  1
  Fe  Fe76  1  0.16159907  0.46482732  0.48965758  1
  Fe  Fe77  1  0.15889576  0.80347115  0.33364116  1
  Fe  Fe78  1  0.73691456  0.71589131  0.86948018  1
  Fe  Fe79  1  0.06925454  0.55204392  0.39745587  1
  Fe  Fe80  1  0.48419455  0.95418933  0.35277939  1
  Fe  Fe81  1  0.87536144  0.81520272  0.75789714  1
  Fe  Fe82  1  0.14974963  0.64338026  0.30564233  1
  Fe  Fe83  1  0.50258912  1.05767614  0.64251698  1
  Fe  Fe84  1  0.15510960  0.82253532  0.95807480  1
  Fe  Fe85  1  0.79662871  0.70569352  0.74694632  1
  Fe  Fe86  1  0.72998070  0.91316713  0.17530452  1
  Fe  Fe87  1  0.50902174  0.29451265  0.18102449  1
  Fe  Fe88  1  0.10396180  0.09613573  0.78224702  1
  Fe  Fe89  1  0.80812312  0.41641970  0.42699959  1
  Fe  Fe90  1  0.65531014  0.73517488  0.76422733  1
  Fe  Fe91  1  0.20335958  0.06388115  0.88197165  1
  Fe  Fe92  1  0.17384780  0.47585115  0.34188874  1
  Fe  Fe93  1  0.78014572  0.54976155  0.48781304  1
  Fe  Fe94  1  0.45359240  0.21814033  0.30872456  1
  Fe  Fe95  1  0.24383197  0.92018002  0.36168646  1
  Fe  Fe96  1  0.49373542  0.91977788  0.69334204  1
  Fe  Fe97  1  0.95526170  0.09762344  0.82366302  1
  Fe  Fe98  1  0.40463830  0.18128708  0.17816237  1
  Fe  Fe99  1  0.69460703  0.50341141  0.38930743  1
  Fe  Fe100  1  0.75717785  0.84256662  0.81603908  1
  Fe  Fe101  1  0.05024305  0.51404589  0.53221437  1
  Bi  Bi102  1  0.48999132  0.76717677  0.77355125  1
  Bi  Bi103  1  0.45291940  0.10220504  0.43699360  1
  Bi  Bi104  1  0.38163758  0.07071726  0.90600763  1
  Bi  Bi105  1  0.77944256  0.60004209  0.08309075  1
  Bi  Bi106  1  0.53025311  0.36949477  0.33512089  1
  Bi  Bi107  1  0.69741721  0.60173393  0.63444777  1
  Bi  Bi108  1  0.32725395  0.50680666  0.42562815  1
  Bi  Bi109  1  0.89463982  -0.05371182  0.88100827  1
  Bi  Bi110  1  0.76413406  0.91146019  0.65886422  1
  Bi  Bi111  1  0.30246835  0.43452721  0.09767743  1
  Bi  Bi112  1  0.62789095  0.01960196  0.25870519  1
  Bi  Bi113  1  -0.02061153  0.13912283  0.65900693  1
  Bi  Bi114  1  -0.04323857  -0.07092341  0.30761879  1
  Bi  Bi115  1  0.38794221  0.60896093  0.90282576  1
  Bi  Bi116  1  0.90981528  0.33412874  0.19807160  1
  Bi  Bi117  1  0.37591619  0.38189436  0.82743485  1
  Bi  Bi118  1  0.39908443  0.68093324  0.58518183  1
  Bi  Bi119  1  0.89474940  0.44861263  0.58138709  1
  Bi  Bi120  1  0.35224723  0.14401121  0.60269757  1
  Bi  Bi121  1  0.10032087  0.67427812  0.90530322  1
  Bi  Bi122  1  0.37184108  0.81610530  0.14655990  1
  Bi  Bi123  1  0.78160910  0.08553979  0.09822045  1
  Bi  Bi124  1  0.65984984  0.15447434  0.63720031  1
  Bi  Bi125  1  1.05574009  0.80636545  0.59271796  1
  Bi  Bi126  1  0.97891269  0.38526219  0.87111003  1
  Bi  Bi127  1  0.65263035  0.34527743  0.85790715  1
