# generated using pymatgen
data_Ba51Fe51Bi26
_symmetry_space_group_name_H-M   'P 1'
_cell_length_a   15.90301021
_cell_length_b   16.99071999
_cell_length_c   16.45205886
_cell_angle_alpha   88.88216320
_cell_angle_beta   91.20550675
_cell_angle_gamma   89.12512082
_symmetry_Int_Tables_number   1
_chemical_formula_structural   Ba51Fe51Bi26
_chemical_formula_sum   'Ba51 Fe51 Bi26'
_cell_volume   4443.02898198
_cell_formula_units_Z   1
loop_
 _symmetry_equiv_pos_site_id
 _symmetry_equiv_pos_as_xyz
  1  'x, y, z'
loop_
 _atom_site_type_symbol
 _atom_site_label
 _atom_site_symmetry_multiplicity
 _atom_site_fract_x
 _atom_site_fract_y
 _atom_site_fract_z
 _atom_site_occupancy
  Ba  Ba0  1  0.83819621  0.47665094  0.79646482  1
  Ba  Ba1  1  0.40162171  0.09642231  -0.02575650  1
  Ba  Ba2  1  0.46950235  0.27285374  0.82805820  1
  Ba  Ba3  1  0.02771400  0.80775802  0.45066171  1
  Ba  Ba4  1  0.04646804  0.30939355  -0.03072771  1
  Ba  Ba5  1  0.55973176  0.60004172  0.21736251  1
  Ba  Ba6  1  -0.17554958  -0.04383660  0.02835075  1
  Ba  Ba7  1  0.11490334  -0.04298135  0.80903888  1
  Ba  Ba8  1  0.59380312  0.75084682  0.44122450  1
  Ba  Ba9  1  0.37228621  0.64580855  0.58410888  1
  Ba  Ba10  1  -0.03356405  0.20362927  0.74450750  1
  Ba  Ba11  1  0.11854181  -0.08243386  0.06652404  1
  Ba  Ba12  1  0.61012700  0.42448310  0.70514396  1
  Ba  Ba13  1  0.24226947  0.60781831  0.26067086  1
  Ba  Ba14  1  0.54878924  0.09092518  0.60009371  1
  Ba  Ba15  1  -0.02258905  0.65209413  0.82653752  1
  Ba  Ba16  1  0.04498468  0.23840443  0.25596623  1
  Ba  Ba17  1  0.31600869  0.11520690  0.52853010  1
  Ba  Ba18  1  0.57364424  -0.16412930  0.68552500  1
  Ba  Ba19  1  0.74350049  0.44485340  0.05353704  1
  Ba  Ba20  1  0.03364066  0.59216163  0.06008272  1
  Ba  Ba21  1  0.23891703  0.22362283  0.75833885  1
  Ba  Ba22  1  0.32826481  0.46704065  0.74465458  1
  Ba  Ba23  1  0.29431803  0.41655432  0.45403157  1
  Ba  Ba24  1  0.52584665  0.46012252  0.46929152  1
  Ba  Ba25  1  0.47297681  0.25497468  0.36083414  1
  Ba  Ba26  1  0.73479047  0.27784805  0.87221998  1
  Ba  Ba27  1  0.44102274  0.83796576  -0.07237748  1
  Ba  Ba28  1  0.85209319  0.53680809  0.28554467  1
  Ba  Ba29  1  0.74785159  0.53413789  0.50521890  1
  Ba  Ba30  1  0.75095138  0.29399918  0.34407770  1
  Ba  Ba31  1  0.08975893  0.43902509  0.66740423  1
  Ba  Ba32  1  -0.09901008  0.77591319  0.20934246  1
  Ba  Ba33  1  0.78568963  0.94444160  0.42090452  1
  Ba  Ba34  1  0.79402016  0.75160364  0.63027265  1
  Ba  Ba35  1  -0.10883415  -0.10414158  0.80258419  1
  Ba  Ba36  1  0.07208045  0.43740890  0.35719221  1
  Ba  Ba37  1  0.79978296  0.15966141  0.56755802  1
  Ba  Ba38  1  0.08694540  0.20117608  0.50108063  1
  Ba  Ba39  1  0.83629461  0.21286584  0.11799648  1
  Ba  Ba40  1  0.68722027  0.04784070  0.81708722  1
  Ba  Ba41  1  0.52347351  0.32716858  0.10523433  1
  Ba  Ba42  1  0.65880011  0.79530780  0.07812072  1
  Ba  Ba43  1  0.27202027  0.79625766  0.41373072  1
  Ba  Ba44  1  0.25245251  0.86751373  0.64715224  1
  Ba  Ba45  1  0.48131720  0.64447399  -0.19512413  1
  Ba  Ba46  1  -0.02856759  0.60619250  0.54917579  1
  Ba  Ba47  1  0.31945605  0.55043271  0.04260675  1
  Ba  Ba48  1  0.03289401  -0.00465584  0.28960883  1
  Ba  Ba49  1  0.24018259  0.18622748  0.13471432  1
  Ba  Ba50  1  0.66389595  0.04115676  0.21560569  1
  Fe  Fe51  1  0.33308684  0.02941920  0.21084587  1
  Fe  Fe52  1  0.51431182  0.49362384  0.00381584  1
  Fe  Fe53  1  0.21958717  0.39265462  1.01243438  1
  Fe  Fe54  1  0.26706680  0.36096982  0.89161536  1
  Fe  Fe55  1  0.91998012  0.92362719  0.58593956  1
  Fe  Fe56  1  0.24709747  0.36692833  0.23676164  1
  Fe  Fe57  1  0.22316298  0.06094679  0.31545966  1
  Fe  Fe58  1  0.98179979  1.02916781  0.51095132  1
  Fe  Fe59  1  0.59969704  0.15561705  0.07221472  1
  Fe  Fe60  1  0.88874099  0.43811309  0.61366712  1
  Fe  Fe61  1  0.65378338  0.68188697  0.91280155  1
  Fe  Fe62  1  0.62108919  0.53862958  0.91020765  1
  Fe  Fe63  1  0.24841083  0.79145677  0.86492401  1
  Fe  Fe64  1  0.23963945  -0.07249006  0.24283484  1
  Fe  Fe65  1  0.07729950  0.06040102  0.62908765  1
  Fe  Fe66  1  0.41987352  0.76016720  0.27835624  1
  Fe  Fe67  1  0.48140858  0.46732108  0.87386578  1
  Fe  Fe68  1  0.45150763  0.88347081  0.36919051  1
  Fe  Fe69  1  0.39592730  0.39723557  0.96619454  1
  Fe  Fe70  1  0.91627652  0.29696773  0.45118785  1
  Fe  Fe71  1  0.42224176  0.77304313  0.13783567  1
  Fe  Fe72  1  0.59297786  0.15817508  0.94334051  1
  Fe  Fe73  1  0.16426503  0.65606685  -0.09451292  1
  Fe  Fe74  1  0.94114913  0.03131490  0.65739941  1
  Fe  Fe75  1  0.31972108  0.28284373  0.98472239  1
  Fe  Fe76  1  0.19213913  0.60424321  0.77127853  1
  Fe  Fe77  1  0.71522148  0.12211289  -0.00301185  1
  Fe  Fe78  1  0.15526107  0.39731317  0.14178894  1
  Fe  Fe79  1  0.56967260  -0.04221604  0.39754480  1
  Fe  Fe80  1  0.91277241  0.42215480  0.47671375  1
  Fe  Fe81  1  0.94689390  0.31780941  0.58345519  1
  Fe  Fe82  1  0.58095205  0.39914653  0.92795994  1
  Fe  Fe83  1  0.36128603  0.10841857  0.31990260  1
  Fe  Fe84  1  0.33284228  0.97191390  0.35961208  1
  Fe  Fe85  1  0.28181832  0.70371339  0.74594381  1
  Fe  Fe86  1  0.28763924  0.79774168  0.19125368  1
  Fe  Fe87  1  0.38993638  0.89178884  0.23644382  1
  Fe  Fe88  1  0.05971028  0.93795704  0.60693742  1
  Fe  Fe89  1  0.80466604  0.72751435  -0.04638613  1
  Fe  Fe90  1  0.11748961  0.78308683  -0.08103657  1
  Fe  Fe91  1  0.46077542  0.03961392  0.41610229  1
  Fe  Fe92  1  0.82269306  0.33711746  0.66377169  1
  Fe  Fe93  1  0.77389870  0.70412110  0.82092334  1
  Fe  Fe94  1  0.76795729  0.59645832  0.92832889  1
  Fe  Fe95  1  0.29597132  0.66297916  0.87428838  1
  Fe  Fe96  1  0.68705382  0.60690888  0.79061065  1
  Fe  Fe97  1  0.14719770  0.74501759  0.77895534  1
  Fe  Fe98  1  0.47152128  1.00451680  0.28026477  1
  Fe  Fe99  1  0.79647726  0.35067744  0.52942379  1
  Fe  Fe100  1  0.16153300  0.66763300  0.65062328  1
  Fe  Fe101  1  0.31645795  0.36407238  0.10989271  1
  Bi  Bi102  1  0.60328036  0.62568282  0.62999374  1
  Bi  Bi103  1  0.24734131  0.74324463  0.03189062  1
  Bi  Bi104  1  0.51638321  0.65424624  0.01699199  1
  Bi  Bi105  1  0.68671651  -0.16066867  -0.13187385  1
  Bi  Bi106  1  0.15490881  -0.01149636  0.47290106  1
  Bi  Bi107  1  0.43707313  -0.08382966  0.53179356  1
  Bi  Bi108  1  0.75477554  -0.03701485  0.63294175  1
  Bi  Bi109  1  0.46022206  0.14179601  0.17931279  1
  Bi  Bi110  1  0.11933068  -0.19985718  0.24999107  1
  Bi  Bi111  1  0.24534604  0.23505235  0.35051378  1
  Bi  Bi112  1  0.02388427  0.78933230  0.66398825  1
  Bi  Bi113  1  0.33325260  0.92918895  0.08359234  1
  Bi  Bi114  1  -0.03858235  0.79397879  -0.01017237  1
  Bi  Bi115  1  0.59539359  0.99700223  0.01205646  1
  Bi  Bi116  1  0.90379827  0.13895439  0.38177216  1
  Bi  Bi117  1  0.63265333  0.11154920  0.41208942  1
  Bi  Bi118  1  0.17544921  0.59327480  0.49512083  1
  Bi  Bi119  1  0.88066808  0.12724887  0.92555870  1
  Bi  Bi120  1  0.40091449  0.44070936  0.24890574  1
  Bi  Bi121  1  0.42524055  0.62717214  0.38215665  1
  Bi  Bi122  1  0.79957792  0.63180180  0.09672367  1
  Bi  Bi123  1  0.14260174  0.48787188  0.88558642  1
  Bi  Bi124  1  0.56735516  0.85012973  0.25374710  1
  Bi  Bi125  1  0.82464516  0.71614733  0.40980459  1
  Bi  Bi126  1  0.41878697  0.29972219  0.61118997  1
  Bi  Bi127  1  0.96810811  0.40447280  0.15071035  1
