# generated using pymatgen
data_Ba51Fe51Bi26
_symmetry_space_group_name_H-M   'P 1'
_cell_length_a   16.31845015
_cell_length_b   16.06367510
_cell_length_c   16.97551394
_cell_angle_alpha   89.01728231
_cell_angle_beta   87.85045662
_cell_angle_gamma   91.52563319
_symmetry_Int_Tables_number   1
_chemical_formula_structural   Ba51Fe51Bi26
_chemical_formula_sum   'Ba51 Fe51 Bi26'
_cell_volume   4444.42289312
_cell_formula_units_Z   1
loop_
 _symmetry_equiv_pos_site_id
 _symmetry_equiv_pos_as_xyz
  1  'x, y, z'
loop_
 _atom_site_type_symbol
 _atom_site_label
 _atom_site_symmetry_multiplicity
 _atom_site_fract_x
 _atom_site_fract_y
 _atom_site_fract_z
 _atom_site_occupancy
  Ba  Ba0  1  0.01530025  0.03310722  0.45878917  1
  Ba  Ba1  1  0.43610691  0.48568525  0.80221875  1
  Ba  Ba2  1  0.20492326  0.32274575  -0.04202330  1
  Ba  Ba3  1  0.69515726  0.70530240  0.18536981  1
  Ba  Ba4  1  0.66592832  0.03589341  0.80648849  1
  Ba  Ba5  1  0.30072124  0.71091818  0.77958676  1
  Ba  Ba6  1  0.56492691  0.66427965  -0.04380774  1
  Ba  Ba7  1  0.19663890  0.45312752  0.30144219  1
  Ba  Ba8  1  0.67726788  0.67186416  0.74273590  1
  Ba  Ba9  1  0.01443268  -0.05970386  0.00415961  1
  Ba  Ba10  1  0.17713107  0.61161262  -0.03636953  1
  Ba  Ba11  1  0.89543693  -0.09749824  0.66859069  1
  Ba  Ba12  1  0.56735199  0.40273122  0.01245230  1
  Ba  Ba13  1  0.00150441  0.29356846  0.73637969  1
  Ba  Ba14  1  -0.00208760  0.79218245  0.20124093  1
  Ba  Ba15  1  0.75947249  0.07868754  0.52671461  1
  Ba  Ba16  1  0.65847965  0.35339526  0.43970743  1
  Ba  Ba17  1  0.74138538  0.20573278  0.26281909  1
  Ba  Ba18  1  0.79426218  0.36485027  -0.09481233  1
  Ba  Ba19  1  0.38772052  0.85039234  -0.00253033  1
  Ba  Ba20  1  0.85008169  0.53892959  0.47119758  1
  Ba  Ba21  1  0.50732078  -0.11431908  0.20724426  1
  Ba  Ba22  1  -0.07377597  0.57191794  0.83009457  1
  Ba  Ba23  1  0.26065724  0.09880043  0.41771766  1
  Ba  Ba24  1  0.01187455  0.74786555  0.48791537  1
  Ba  Ba25  1  0.74326451  0.46019037  0.16720000  1
  Ba  Ba26  1  0.50790464  0.57688077  0.49532055  1
  Ba  Ba27  1  0.70693555  0.73591994  0.51177239  1
  Ba  Ba28  1  0.50428970  0.85092461  0.75666797  1
  Ba  Ba29  1  0.50258953  -0.06630128  0.48314973  1
  Ba  Ba30  1  0.58842266  0.09253994  0.03070419  1
  Ba  Ba31  1  0.18644961  0.34958789  0.51971274  1
  Ba  Ba32  1  0.17579016  0.50686021  0.69717086  1
  Ba  Ba33  1  0.27371499  0.64655708  0.47360995  1
  Ba  Ba34  1  0.41674752  0.33475141  0.39952008  1
  Ba  Ba35  1  0.75120082  0.29317475  0.67898542  1
  Ba  Ba36  1  0.49787242  0.20281619  0.22272432  1
  Ba  Ba37  1  0.29948396  0.23009157  0.69030919  1
  Ba  Ba38  1  0.25321906  -0.08475803  0.59677199  1
  Ba  Ba39  1  0.34246459  0.49186818  0.09257389  1
  Ba  Ba40  1  0.08883452  0.03876615  0.78453790  1
  Ba  Ba41  1  -0.18417471  0.78991689  -0.05148667  1
  Ba  Ba42  1  0.26514675  0.70859786  0.22801624  1
  Ba  Ba43  1  -0.05759415  0.29744705  0.49392974  1
  Ba  Ba44  1  0.18940110  -0.03784613  0.22150626  1
  Ba  Ba45  1  0.51900886  0.17917270  0.59538677  1
  Ba  Ba46  1  -0.04689347  0.60209789  0.06392089  1
  Ba  Ba47  1  0.25914195  0.04301846  -0.02222074  1
  Ba  Ba48  1  0.75194088  -0.06357400  0.31404748  1
  Ba  Ba49  1  0.89316820  0.14958643  -0.00419379  1
  Ba  Ba50  1  -0.01555516  0.28138383  0.18683278  1
  Fe  Fe51  1  0.01422474  1.05059991  0.16382911  1
  Fe  Fe52  1  0.61592689  0.41115331  0.76379037  1
  Fe  Fe53  1  0.47331024  0.16555636  0.78283443  1
  Fe  Fe54  1  0.42539431  0.73273860  0.35985338  1
  Fe  Fe55  1  0.50498558  0.30950841  0.74037372  1
  Fe  Fe56  1  0.00954875  0.62412575  0.33894023  1
  Fe  Fe57  1  0.44489296  0.51803469  0.29865609  1
  Fe  Fe58  1  0.15097667  0.15791299  0.22005070  1
  Fe  Fe59  1  0.02236468  1.10682291  0.28431901  1
  Fe  Fe60  1  0.77997126  0.97951049  1.00900078  1
  Fe  Fe61  1  0.53441988  0.53356408  0.19213085  1
  Fe  Fe62  1  0.45477027  0.29410433  0.87002810  1
  Fe  Fe63  1  0.45011587  1.01737905  0.85600784  1
  Fe  Fe64  1  0.66575635  0.50313287  0.85148794  1
  Fe  Fe65  1  0.76093123  0.05491830  0.13263366  1
  Fe  Fe66  1  0.93999756  0.13215165  0.63530583  1
  Fe  Fe67  1  0.38005444  0.59076372  0.64447139  1
  Fe  Fe68  1  0.26760871  0.18382024  0.12159210  1
  Fe  Fe69  1  0.05976124  0.57866761  0.22315416  1
  Fe  Fe70  1  0.00096923  0.48170637  0.33814410  1
  Fe  Fe71  1  0.90333744  0.57863105  0.26420036  1
  Fe  Fe72  1  0.18806412  0.29631118  0.15931249  1
  Fe  Fe73  1  0.55014779  0.38577290  0.63706893  1
  Fe  Fe74  1  0.33353818  0.30444804  0.18213728  1
  Fe  Fe75  1  0.89041287  0.08706045  0.32292120  1
  Fe  Fe76  1  0.56024525  0.41338945  0.26467468  1
  Fe  Fe77  1  0.09765137  0.69873779  0.80736215  1
  Fe  Fe78  1  -0.00904586  0.45828293  0.62027427  1
  Fe  Fe79  1  0.44432582  0.40035003  0.21156662  1
  Fe  Fe80  1  0.99621029  0.82557480  0.82739983  1
  Fe  Fe81  1  0.34364381  0.21494306  0.86950344  1
  Fe  Fe82  1  0.75452182  0.48252602  0.75465106  1
  Fe  Fe83  1  1.00185216  0.72743199  0.71981057  1
  Fe  Fe84  1  0.48552770  0.64875223  0.68705512  1
  Fe  Fe85  1  0.44791984  0.14254115  0.91478779  1
  Fe  Fe86  1  0.03972653  0.74602517  0.92394754  1
  Fe  Fe87  1  0.87218655  0.11481803  0.74256853  1
  Fe  Fe88  1  0.96898504  0.47301144  0.21152086  1
  Fe  Fe89  1  0.50053105  0.65249878  0.28709499  1
  Fe  Fe90  1  0.86951270  0.49810486  0.66387997  1
  Fe  Fe91  1  0.72690272  0.92067172  0.11567822  1
  Fe  Fe92  1  0.33740841  0.09018181  0.81201558  1
  Fe  Fe93  1  0.30570747  0.15027997  0.23961063  1
  Fe  Fe94  1  0.87180948  0.97179506  0.13265046  1
  Fe  Fe95  1  0.42955711  1.03585891  0.72859719  1
  Fe  Fe96  1  0.94402911  0.97674223  0.25880095  1
  Fe  Fe97  1  0.00282684  0.59225243  0.64640240  1
  Fe  Fe98  1  0.24535552  0.26084141  0.28192264  1
  Fe  Fe99  1  0.88706956  0.10179528  0.19458492  1
  Fe  Fe100  1  0.14525168  0.82991255  0.88025248  1
  Fe  Fe101  1  0.11354253  0.83416476  0.74990875  1
  Bi  Bi102  1  0.07044433  0.52658770  0.48351926  1
  Bi  Bi103  1  0.29031412  -0.07500404  0.80309264  1
  Bi  Bi104  1  0.09811070  0.23753599  0.36244333  1
  Bi  Bi105  1  0.10427478  0.15609417  0.06060333  1
  Bi  Bi106  1  0.68076740  0.49493651  0.60986007  1
  Bi  Bi107  1  0.63474711  0.54669630  0.33145800  1
  Bi  Bi108  1  0.62383633  -0.11870412  -0.01046579  1
  Bi  Bi109  1  0.14872434  0.71478111  0.63728624  1
  Bi  Bi110  1  0.61567767  0.24657881  0.85461182  1
  Bi  Bi111  1  0.11569247  0.45691581  0.11026639  1
  Bi  Bi112  1  0.39910003  0.26006038  0.02824627  1
  Bi  Bi113  1  0.41332691  0.75866207  0.59115168  1
  Bi  Bi114  1  0.45983094  0.67945695  0.13338351  1
  Bi  Bi115  1  0.86376865  0.68181655  0.64015133  1
  Bi  Bi116  1  0.67531000  0.90721182  0.63447509  1
  Bi  Bi117  1  0.85729058  0.72190749  0.34439835  1
  Bi  Bi118  1  0.58794729  0.78102959  0.35984971  1
  Bi  Bi119  1  0.11172539  0.15233298  0.60251733  1
  Bi  Bi120  1  0.87347822  -0.01431769  0.85847273  1
  Bi  Bi121  1  0.38487509  0.41612410  0.60629807  1
  Bi  Bi122  1  0.85577577  0.38772707  0.32176791  1
  Bi  Bi123  1  0.59161241  0.13344926  0.40253169  1
  Bi  Bi124  1  0.75205584  0.56880754  0.97935642  1
  Bi  Bi125  1  0.31572869  0.86501184  0.37719648  1
  Bi  Bi126  1  0.16816658  0.80396905  0.04944256  1
  Bi  Bi127  1  0.38168905  0.03871410  0.13952802  1
