# generated using pymatgen
data_Ba51Fe51Bi26
_symmetry_space_group_name_H-M   'P 1'
_cell_length_a   17.15890705
_cell_length_b   16.22455138
_cell_length_c   15.84247905
_cell_angle_alpha   91.75544194
_cell_angle_beta   88.73097230
_cell_angle_gamma   88.58075655
_symmetry_Int_Tables_number   1
_chemical_formula_structural   Ba51Fe51Bi26
_chemical_formula_sum   'Ba51 Fe51 Bi26'
_cell_volume   4405.89562562
_cell_formula_units_Z   1
loop_
 _symmetry_equiv_pos_site_id
 _symmetry_equiv_pos_as_xyz
  1  'x, y, z'
loop_
 _atom_site_type_symbol
 _atom_site_label
 _atom_site_symmetry_multiplicity
 _atom_site_fract_x
 _atom_site_fract_y
 _atom_site_fract_z
 _atom_site_occupancy
  Ba  Ba0  1  0.38788791  0.87856224  -0.07240250  1
  Ba  Ba1  1  0.78683929  0.48958772  0.36528397  1
  Ba  Ba2  1  0.25225195  -0.08495656  0.67546466  1
  Ba  Ba3  1  0.43663905  0.38593180  0.24940646  1
  Ba  Ba4  1  -0.09470690  0.58869986  0.16512713  1
  Ba  Ba5  1  0.69972204  0.87445424  0.20859631  1
  Ba  Ba6  1  0.23449567  0.33627568  0.55146685  1
  Ba  Ba7  1  0.82773708  0.23029567  0.82247002  1
  Ba  Ba8  1  0.72152979  0.23195710  0.38191774  1
  Ba  Ba9  1  0.67254631  0.26835249  0.08953431  1
  Ba  Ba10  1  0.38582718  0.48248654  -0.08332855  1
  Ba  Ba11  1  0.71273423  0.09642630  0.62119745  1
  Ba  Ba12  1  0.02123761  0.55184616  -0.08890076  1
  Ba  Ba13  1  0.22936877  0.87468915  0.41458150  1
  Ba  Ba14  1  0.23925029  0.66463489  0.03998705  1
  Ba  Ba15  1  0.04736341  0.34037330  0.72903601  1
  Ba  Ba16  1  0.84207634  0.38488570  0.58622451  1
  Ba  Ba17  1  0.03369229  0.27895089  0.96748344  1
  Ba  Ba18  1  0.46972967  0.26121651  -0.03981150  1
  Ba  Ba19  1  -0.06235079  0.61113471  0.69531038  1
  Ba  Ba20  1  0.73670440  0.75978875  0.73004179  1
  Ba  Ba21  1  0.47531133  0.76281752  0.70539251  1
  Ba  Ba22  1  0.04327072  0.42202189  0.37518661  1
  Ba  Ba23  1  0.77530159  0.73526824  -0.01947282  1
  Ba  Ba24  1  0.70943650  -0.19026073  0.47923179  1
  Ba  Ba25  1  0.33277381  0.14721056  0.38047775  1
  Ba  Ba26  1  -0.09542863  0.30990148  0.21021994  1
  Ba  Ba27  1  -0.02715596  -0.04868573  0.71539736  1
  Ba  Ba28  1  0.75269557  -0.01228921  0.92815438  1
  Ba  Ba29  1  0.15787363  0.60012601  0.53122772  1
  Ba  Ba30  1  0.35926153  0.52445222  0.66778936  1
  Ba  Ba31  1  0.44950820  0.88241521  0.48811767  1
  Ba  Ba32  1  0.60842360  0.35415806  0.76444207  1
  Ba  Ba33  1  0.53941372  0.65960246  -0.06848298  1
  Ba  Ba34  1  0.61676495  0.57552599  0.17582767  1
  Ba  Ba35  1  -0.03616149  -0.04703547  0.47018978  1
  Ba  Ba36  1  0.46721883  0.07762120  0.77187134  1
  Ba  Ba37  1  0.22167535  0.51443530  0.23292121  1
  Ba  Ba38  1  0.13721534  0.75693684  0.79638169  1
  Ba  Ba39  1  0.02768844  0.76933857  0.03497330  1
  Ba  Ba40  1  0.09441378  0.92645913  0.19669647  1
  Ba  Ba41  1  0.45208236  0.79284657  0.15249284  1
  Ba  Ba42  1  -0.08881019  0.79493330  0.29498195  1
  Ba  Ba43  1  0.52706449  0.04981244  0.12803894  1
  Ba  Ba44  1  0.24993435  0.27707156  0.08034173  1
  Ba  Ba45  1  -0.00163643  0.01938329  -0.04191164  1
  Ba  Ba46  1  0.38137838  0.65865407  0.34996609  1
  Ba  Ba47  1  0.57166091  0.56145782  0.50233020  1
  Ba  Ba48  1  0.47548965  0.28058496  0.52927272  1
  Ba  Ba49  1  0.12014482  0.12420698  0.59752488  1
  Ba  Ba50  1  -0.10405272  0.07979522  0.24873172  1
  Fe  Fe51  1  0.26941280  1.02601639  0.86827254  1
  Fe  Fe52  1  0.59071017  0.88615916  0.81852674  1
  Fe  Fe53  1  0.20732822  1.06794687  0.08953539  1
  Fe  Fe54  1  0.88202028  0.42301790  0.89227737  1
  Fe  Fe55  1  0.24339386  1.02380144  0.24584444  1
  Fe  Fe56  1  0.67214792  0.52442305  0.85103462  1
  Fe  Fe57  1  0.10256641  0.28637239  0.21083503  1
  Fe  Fe58  1  0.58458240  0.12700584  0.45430886  1
  Fe  Fe59  1  0.74613618  0.41695900  0.92584929  1
  Fe  Fe60  1  0.99470758  0.14520779  0.42614514  1
  Fe  Fe61  1  0.86491233  0.14069494  0.46267487  1
  Fe  Fe62  1  0.29801167  0.17723800  0.86111321  1
  Fe  Fe63  1  0.84379098  0.52483632  -0.01229551  1
  Fe  Fe64  1  0.91993981  0.42627601  0.04213914  1
  Fe  Fe65  1  0.50127386  1.06515274  0.53812183  1
  Fe  Fe66  1  0.49503850  0.05006194  0.37929055  1
  Fe  Fe67  1  0.91059710  0.26690263  0.41890562  1
  Fe  Fe68  1  0.18905690  0.67718179  0.34881792  1
  Fe  Fe69  1  0.85217789  0.67125969  0.43015562  1
  Fe  Fe70  1  0.07730027  0.69307049  0.23800317  1
  Fe  Fe71  1  0.18488004  0.15645562  0.23205462  1
  Fe  Fe72  1  0.23314823  0.39592535  0.77624181  1
  Fe  Fe73  1  0.15003163  1.01662903  0.82499014  1
  Fe  Fe74  1  0.83391863  0.33730703  1.00482318  1
  Fe  Fe75  1  0.07222230  0.61195878  0.34715780  1
  Fe  Fe76  1  1.00315480  0.69567558  0.44670321  1
  Fe  Fe77  1  0.15513115  0.49968124  0.72126816  1
  Fe  Fe78  1  0.90522213  0.73216579  0.53907222  1
  Fe  Fe79  1  0.19128316  0.75505682  0.24305113  1
  Fe  Fe80  1  0.77747269  0.44721543  0.08065446  1
  Fe  Fe81  1  1.01876771  0.26748441  0.49227784  1
  Fe  Fe82  1  0.79112264  0.43824414  0.78226807  1
  Fe  Fe83  1  0.30298055  0.96545711  0.12137433  1
  Fe  Fe84  1  0.72818848  0.54263092  0.72071880  1
  Fe  Fe85  1  0.14691065  0.15901219  0.81221124  1
  Fe  Fe86  1  0.55579483  0.92650833  0.32863658  1
  Fe  Fe87  1  0.07168398  0.22237455  0.33233228  1
  Fe  Fe88  1  0.71430611  0.54680060  -0.00840152  1
  Fe  Fe89  1  0.93352633  0.57484248  0.49321916  1
  Fe  Fe90  1  0.08841382  0.76764675  0.36580532  1
  Fe  Fe91  1  0.25234093  0.09986520  0.74599352  1
  Fe  Fe92  1  0.20751888  0.27883464  0.87047902  1
  Fe  Fe93  1  0.24201893  0.24524785  0.73186746  1
  Fe  Fe94  1  0.94524784  0.59842055  0.35426128  1
  Fe  Fe95  1  0.32004268  0.10557604  0.17203182  1
  Fe  Fe96  1  0.92792343  0.19484843  0.56591037  1
  Fe  Fe97  1  0.18912557  0.12155201  0.94606776  1
  Fe  Fe98  1  0.80261074  0.55703800  0.85577455  1
  Fe  Fe99  1  0.22147453  0.54859781  0.81983610  1
  Fe  Fe100  1  0.60800986  -0.01488440  0.46356888  1
  Fe  Fe101  1  0.62911755  0.04607983  0.32579099  1
  Bi  Bi102  1  0.13046941  0.05893773  0.37621494  1
  Bi  Bi103  1  0.59473874  -0.13408422  -0.00895920  1
  Bi  Bi104  1  0.76904619  0.60332917  0.56171596  1
  Bi  Bi105  1  0.34203484  0.10675037  0.59609408  1
  Bi  Bi106  1  0.39076597  -0.04217006  0.27939173  1
  Bi  Bi107  1  0.18813742  0.43783598  0.94373297  1
  Bi  Bi108  1  0.18385233  -0.08288607  -0.02470697  1
  Bi  Bi109  1  0.05633708  0.43510977  0.13351578  1
  Bi  Bi110  1  0.58851727  0.44328587  -0.01189258  1
  Bi  Bi111  1  0.56381745  0.56597380  0.72511012  1
  Bi  Bi112  1  0.53709154  0.20095343  0.29928503  1
  Bi  Bi113  1  0.22423995  0.31300388  0.31410464  1
  Bi  Bi114  1  0.76939965  0.00656330  0.40956071  1
  Bi  Bi115  1  0.40915651  0.57721494  0.13535931  1
  Bi  Bi116  1  0.87779718  0.90135616  0.10320482  1
  Bi  Bi117  1  0.05993165  0.14424037  0.13250997  1
  Bi  Bi118  1  0.06383648  0.79566475  0.57659556  1
  Bi  Bi119  1  0.59206933  0.92781183  0.64844901  1
  Bi  Bi120  1  0.56963183  0.74698856  0.33302096  1
  Bi  Bi121  1  0.92851402  0.79073775  0.84246271  1
  Bi  Bi122  1  0.36246200  0.08663050  -0.00144285  1
  Bi  Bi123  1  0.63630816  0.15916099  0.87107948  1
  Bi  Bi124  1  0.85140863  0.16855186  0.03536443  1
  Bi  Bi125  1  0.32805646  0.68290355  0.83656278  1
  Bi  Bi126  1  0.37465921  0.46909757  0.45065660  1
  Bi  Bi127  1  0.38569281  0.31284679  0.75841479  1
