# generated using pymatgen
data_Ba51Fe51Bi26
_symmetry_space_group_name_H-M   'P 1'
_cell_length_a   16.24843336
_cell_length_b   16.04049609
_cell_length_c   16.90706326
_cell_angle_alpha   91.73860575
_cell_angle_beta   91.33182439
_cell_angle_gamma   86.85498243
_symmetry_Int_Tables_number   1
_chemical_formula_structural   Ba51Fe51Bi26
_chemical_formula_sum   'Ba51 Fe51 Bi26'
_cell_volume   4396.84712455
_cell_formula_units_Z   1
loop_
 _symmetry_equiv_pos_site_id
 _symmetry_equiv_pos_as_xyz
  1  'x, y, z'
loop_
 _atom_site_type_symbol
 _atom_site_label
 _atom_site_symmetry_multiplicity
 _atom_site_fract_x
 _atom_site_fract_y
 _atom_site_fract_z
 _atom_site_occupancy
  Ba  Ba0  1  0.78531010  0.73937382  0.71299740  1
  Ba  Ba1  1  -0.02764171  0.49873765  0.03165275  1
  Ba  Ba2  1  0.37798162  0.75852699  0.76233511  1
  Ba  Ba3  1  0.27750488  0.03069166  0.13240211  1
  Ba  Ba4  1  0.78480360  -0.01493885  0.65467710  1
  Ba  Ba5  1  0.72967568  0.24871128  0.22651372  1
  Ba  Ba6  1  0.79691313  0.79842368  0.47600998  1
  Ba  Ba7  1  -0.00442810  0.24979119  0.11717881  1
  Ba  Ba8  1  0.68861706  -0.12310995  0.16201450  1
  Ba  Ba9  1  0.55698902  0.43363431  0.45108386  1
  Ba  Ba10  1  0.71690437  0.04204016  0.35642945  1
  Ba  Ba11  1  0.55063320  0.25091215  -0.00623087  1
  Ba  Ba12  1  0.07017315  0.75345569  0.17940951  1
  Ba  Ba13  1  0.25963328  0.00427869  0.51812718  1
  Ba  Ba14  1  0.32966821  0.75248891  0.29573094  1
  Ba  Ba15  1  0.77656158  0.55018394  0.52419063  1
  Ba  Ba16  1  0.00976568  0.28468718  0.74164691  1
  Ba  Ba17  1  0.18146712  0.75441553  0.59005110  1
  Ba  Ba18  1  0.41725745  0.41884594  0.22131983  1
  Ba  Ba19  1  -0.02483707  0.28629935  0.39924306  1
  Ba  Ba20  1  0.41259519  0.01391022  0.77116805  1
  Ba  Ba21  1  0.20248220  0.51258808  -0.07625842  1
  Ba  Ba22  1  0.20526464  0.35163019  0.32629831  1
  Ba  Ba23  1  0.27999122  0.77526010  0.00181784  1
  Ba  Ba24  1  0.55300355  0.01244305  0.55263216  1
  Ba  Ba25  1  0.82833708  0.69192172  0.25534863  1
  Ba  Ba26  1  0.28253928  0.53018173  0.70038794  1
  Ba  Ba27  1  0.80538364  0.42708503  0.73800956  1
  Ba  Ba28  1  0.61056355  0.63026932  0.88399485  1
  Ba  Ba29  1  0.51170454  0.72297181  0.50889546  1
  Ba  Ba30  1  -0.06400390  0.00842860  0.47564830  1
  Ba  Ba31  1  0.01470945  0.74374207  -0.04818572  1
  Ba  Ba32  1  0.45387826  -0.00838381  0.29943663  1
  Ba  Ba33  1  0.23571539  0.27398154  0.06656106  1
  Ba  Ba34  1  0.30436035  0.27954082  0.82297947  1
  Ba  Ba35  1  -0.08721709  0.01389317  0.00454811  1
  Ba  Ba36  1  0.70573511  0.07809376  -0.13571872  1
  Ba  Ba37  1  0.19255344  0.33569341  0.57919908  1
  Ba  Ba38  1  0.68221570  0.51083338  0.25096015  1
  Ba  Ba39  1  0.50585314  -0.04729450  -0.00501902  1
  Ba  Ba40  1  0.74001269  0.81524542  -0.07010952  1
  Ba  Ba41  1  -0.00281113  0.62579729  0.73799396  1
  Ba  Ba42  1  0.56501508  0.25429103  0.67682924  1
  Ba  Ba43  1  0.53308713  0.52379488  0.69033607  1
  Ba  Ba44  1  0.00350713  0.04990153  0.73262910  1
  Ba  Ba45  1  0.38639515  0.22125575  0.44900798  1
  Ba  Ba46  1  0.74483486  0.44459289  0.01370427  1
  Ba  Ba47  1  0.46688970  0.61060620  0.09049139  1
  Ba  Ba48  1  0.17624024  0.03022974  0.89805344  1
  Ba  Ba49  1  0.00684563  -0.01107015  0.23748336  1
  Ba  Ba50  1  0.03152182  0.53893751  0.28484114  1
  Fe  Fe51  1  0.84629811  0.67013309  0.04260609  1
  Fe  Fe52  1  0.11932237  0.22691057  0.89706839  1
  Fe  Fe53  1  0.86428718  0.78793306  0.09128530  1
  Fe  Fe54  1  0.84147974  0.31097552  0.55600904  1
  Fe  Fe55  1  0.98079158  0.82964343  0.35645913  1
  Fe  Fe56  1  0.60225276  0.71994185  0.23192528  1
  Fe  Fe57  1  0.63369267  0.83794960  0.62367625  1
  Fe  Fe58  1  0.44773373  0.42565757  0.83703954  1
  Fe  Fe59  1  0.63644429  0.90436911  0.74196860  1
  Fe  Fe60  1  0.95790530  0.69267291  0.40318267  1
  Fe  Fe61  1  0.70806599  0.31201512  0.54317290  1
  Fe  Fe62  1  0.87770548  0.18046234  0.86415996  1
  Fe  Fe63  1  0.90992991  0.31238207  0.92332271  1
  Fe  Fe64  1  0.07408104  0.84497912  0.76599430  1
  Fe  Fe65  1  0.25942817  0.63277689  0.12458664  1
  Fe  Fe66  1  0.52149473  0.23316734  0.19411356  1
  Fe  Fe67  1  0.95597632  0.55504973  0.46582679  1
  Fe  Fe68  1  0.07229130  0.47389093  0.46700868  1
  Fe  Fe69  1  0.08861709  0.90463044  0.40357195  1
  Fe  Fe70  1  0.36457747  0.55037162  0.40025318  1
  Fe  Fe71  1  0.99938550  0.18514279  -0.06891922  1
  Fe  Fe72  1  0.24582279  0.12072214  0.33674600  1
  Fe  Fe73  1  0.58756813  0.74572723  0.71763582  1
  Fe  Fe74  1  0.52329300  0.78917343  0.31675018  1
  Fe  Fe75  1  0.11081930  0.06049869  0.39645168  1
  Fe  Fe76  1  0.14125925  0.57930756  0.09825829  1
  Fe  Fe77  1  1.02157006  0.79465347  0.47903835  1
  Fe  Fe78  1  0.52048751  0.47147216  0.93733274  1
  Fe  Fe79  1  0.52695901  0.28431114  0.31685822  1
  Fe  Fe80  1  0.64620135  0.69420632  0.36260925  1
  Fe  Fe81  1  -0.03240222  0.67666427  0.55154651  1
  Fe  Fe82  1  0.27560813  0.49732103  0.10170207  1
  Fe  Fe83  1  0.16323381  0.18571250  0.42536243  1
  Fe  Fe84  1  0.55091069  0.83861281  0.81125237  1
  Fe  Fe85  1  0.07027878  0.55635917  0.57740432  1
  Fe  Fe86  1  0.88672682  0.17776031  0.57255289  1
  Fe  Fe87  1  0.77885349  0.28104932  0.86659627  1
  Fe  Fe88  1  0.04862015  0.32794429  0.94417410  1
  Fe  Fe89  1  0.55327288  0.15379754  0.30499544  1
  Fe  Fe90  1  0.79631714  0.21159709  0.45251537  1
  Fe  Fe91  1  0.39071607  0.54827600  0.53420287  1
  Fe  Fe92  1  0.16159749  0.45422109  0.14818113  1
  Fe  Fe93  1  0.74323413  0.16915210  0.56305456  1
  Fe  Fe94  1  0.20124920  0.11715328  0.68372953  1
  Fe  Fe95  1  0.51015681  0.86356987  0.67138174  1
  Fe  Fe96  1  0.34991399  0.42489569  0.45115106  1
  Fe  Fe97  1  0.40024882  0.41706137  0.57000060  1
  Fe  Fe98  1  0.07660708  0.63336117  0.46656034  1
  Fe  Fe99  1  0.12285065  0.14585508  0.28606074  1
  Fe  Fe100  1  0.64793551  0.82921881  0.34273290  1
  Fe  Fe101  1  0.41103116  0.55001717  0.87963536  1
  Bi  Bi102  1  0.24446785  0.55439096  0.26176287  1
  Bi  Bi103  1  0.49990638  0.60717185  0.31889822  1
  Bi  Bi104  1  0.60298404  0.20287036  0.46004178  1
  Bi  Bi105  1  0.22141767  0.53840281  0.49682946  1
  Bi  Bi106  1  -0.03502059  0.42554896  0.58559464  1
  Bi  Bi107  1  0.79948170  0.21330265  0.01561406  1
  Bi  Bi108  1  0.13466727  0.74010521  0.37017872  1
  Bi  Bi109  1  0.79909233  0.20038529  0.71736273  1
  Bi  Bi110  1  0.21816846  -0.04757395  0.30906565  1
  Bi  Bi111  1  -0.03335503  0.83715897  0.62913790  1
  Bi  Bi112  1  0.36516848  0.20238196  0.24344431  1
  Bi  Bi113  1  0.07617692  0.15057671  0.56153380  1
  Bi  Bi114  1  0.38407110  0.40859801  -0.00200600  1
  Bi  Bi115  1  0.83806262  0.60324881  0.88395283  1
  Bi  Bi116  1  0.87365856  0.41805417  0.20167681  1
  Bi  Bi117  1  0.62785188  0.38059443  0.84002788  1
  Bi  Bi118  1  0.35402906  0.17031922  0.64270785  1
  Bi  Bi119  1  0.76909276  0.37433945  0.40298164  1
  Bi  Bi120  1  0.36891467  0.12268925  0.95860243  1
  Bi  Bi121  1  0.91083016  0.88829791  0.82721966  1
  Bi  Bi122  1  0.46552248  0.82591325  0.15497549  1
  Bi  Bi123  1  0.60269982  0.08065663  0.15603127  1
  Bi  Bi124  1  0.20679997  0.94247161  0.71038163  1
  Bi  Bi125  1  0.17910546  0.70917341  0.81475933  1
  Bi  Bi126  1  0.68531367  0.66369348  0.09126613  1
  Bi  Bi127  1  0.10803548  0.91868028  0.05642671  1
