# generated using pymatgen
data_Ba51Fe51Bi26
_symmetry_space_group_name_H-M   'P 1'
_cell_length_a   15.83541368
_cell_length_b   16.59720608
_cell_length_c   16.67042964
_cell_angle_alpha   90.47972608
_cell_angle_beta   88.51866008
_cell_angle_gamma   91.71055685
_symmetry_Int_Tables_number   1
_chemical_formula_structural   Ba51Fe51Bi26
_chemical_formula_sum   'Ba51 Fe51 Bi26'
_cell_volume   4377.84000567
_cell_formula_units_Z   1
loop_
 _symmetry_equiv_pos_site_id
 _symmetry_equiv_pos_as_xyz
  1  'x, y, z'
loop_
 _atom_site_type_symbol
 _atom_site_label
 _atom_site_symmetry_multiplicity
 _atom_site_fract_x
 _atom_site_fract_y
 _atom_site_fract_z
 _atom_site_occupancy
  Ba  Ba0  1  0.22543755  0.55950872  0.26976872  1
  Ba  Ba1  1  0.06866025  0.88438067  -0.07907496  1
  Ba  Ba2  1  0.25258997  0.25812890  0.26028147  1
  Ba  Ba3  1  0.05718091  0.76037837  0.22485293  1
  Ba  Ba4  1  0.59247420  0.50122853  0.29149610  1
  Ba  Ba5  1  0.21832858  0.56742959  0.53196888  1
  Ba  Ba6  1  0.77677297  0.81591990  0.67405027  1
  Ba  Ba7  1  0.48590926  0.08049196  0.59551991  1
  Ba  Ba8  1  0.05082529  -0.02565517  0.66217571  1
  Ba  Ba9  1  0.41901911  0.43508315  0.75885629  1
  Ba  Ba10  1  0.20672915  0.70864748  0.79059142  1
  Ba  Ba11  1  -0.06062667  0.39852118  0.78181816  1
  Ba  Ba12  1  0.05448042  0.75858530  0.57214416  1
  Ba  Ba13  1  0.31617406  -0.05122356  0.70837897  1
  Ba  Ba14  1  0.77552385  0.66650082  0.15348876  1
  Ba  Ba15  1  0.76150801  0.48596057  -0.07741323  1
  Ba  Ba16  1  0.17421729  0.04807191  0.06242641  1
  Ba  Ba17  1  0.37484825  0.30070154  0.02918628  1
  Ba  Ba18  1  0.56970013  0.24694085  0.79129566  1
  Ba  Ba19  1  0.80221319  0.77703758  -0.08877107  1
  Ba  Ba20  1  -0.05699196  -0.02064835  0.25382879  1
  Ba  Ba21  1  0.17245380  0.46903369  0.79587922  1
  Ba  Ba22  1  -0.02390496  0.21698921  0.27636869  1
  Ba  Ba23  1  0.28197046  0.72609772  0.03729170  1
  Ba  Ba24  1  0.74644562  -0.03357250  0.45515050  1
  Ba  Ba25  1  0.77181258  0.50310083  0.58959154  1
  Ba  Ba26  1  0.27303259  0.77725963  0.38637905  1
  Ba  Ba27  1  0.64746352  -0.09872655  0.24575078  1
  Ba  Ba28  1  0.55665450  0.64240268  -0.07931897  1
  Ba  Ba29  1  0.45999306  0.69747116  0.72195389  1
  Ba  Ba30  1  0.47150171  0.66659914  0.17464383  1
  Ba  Ba31  1  -0.01046730  0.63460184  0.00295202  1
  Ba  Ba32  1  0.55630799  0.54472851  0.52075801  1
  Ba  Ba33  1  -0.00259577  0.46148306  0.52790673  1
  Ba  Ba34  1  0.36479888  0.10011513  0.90516037  1
  Ba  Ba35  1  0.74567850  0.30688672  0.28056250  1
  Ba  Ba36  1  0.82966806  0.70253331  0.41915336  1
  Ba  Ba37  1  0.49827712  0.24938225  0.27417828  1
  Ba  Ba38  1  -0.04538790  0.17063151  0.75263090  1
  Ba  Ba39  1  0.27766136  0.22944511  0.68084416  1
  Ba  Ba40  1  0.74927813  -0.00463227  0.03612675  1
  Ba  Ba41  1  0.70849658  0.05035345  0.74739722  1
  Ba  Ba42  1  0.46219895  -0.06512848  0.05318067  1
  Ba  Ba43  1  0.67523879  0.17714447  0.46084082  1
  Ba  Ba44  1  0.25347865  0.01689568  0.29872968  1
  Ba  Ba45  1  0.37018276  0.39988031  0.44515108  1
  Ba  Ba46  1  0.20983455  0.46194728  0.05494916  1
  Ba  Ba47  1  0.65121160  0.24142399  0.05328518  1
  Ba  Ba48  1  -0.07684377  0.34173186  0.04178378  1
  Ba  Ba49  1  0.50505122  0.81081916  0.47844148  1
  Ba  Ba50  1  0.08011961  0.21837810  0.50978648  1
  Fe  Fe51  1  0.45416398  0.86071038  0.83986955  1
  Fe  Fe52  1  0.46280287  0.03337377  0.27884331  1
  Fe  Fe53  1  0.03971005  0.20815138  0.93945070  1
  Fe  Fe54  1  0.80860990  0.20339370  0.60029322  1
  Fe  Fe55  1  0.89323114  0.13667290  -0.04841970  1
  Fe  Fe56  1  0.54545927  0.99974038  0.41225559  1
  Fe  Fe57  1  -0.01827149  0.13782157  0.06279417  1
  Fe  Fe58  1  0.62680566  0.45773696  0.78951239  1
  Fe  Fe59  1  0.15792744  0.03233435  0.48048267  1
  Fe  Fe60  1  0.41677038  0.95738894  0.39302911  1
  Fe  Fe61  1  0.45344284  0.10751188  0.40664178  1
  Fe  Fe62  1  0.80999708  0.44569685  0.39941230  1
  Fe  Fe63  1  0.50686801  0.97681528  0.81952974  1
  Fe  Fe64  1  0.00868331  0.57798144  0.68934683  1
  Fe  Fe65  1  0.23622186  0.06805394  0.57828858  1
  Fe  Fe66  1  0.44820386  0.50351853  0.04544381  1
  Fe  Fe67  1  0.93423055  0.40494494  0.32590127  1
  Fe  Fe68  1  0.19082662  0.21567587  0.94824951  1
  Fe  Fe69  1  -0.05195855  1.01154449  0.02820055  1
  Fe  Fe70  1  0.89002503  0.64658044  0.67223274  1
  Fe  Fe71  1  0.91085197  0.89481869  0.54451039  1
  Fe  Fe72  1  0.94018736  0.59303888  0.24886499  1
  Fe  Fe73  1  0.25225501  0.30629529  0.86732087  1
  Fe  Fe74  1  0.80505853  0.51237002  0.28527064  1
  Fe  Fe75  1  0.39300005  0.65659520  0.54248054  1
  Fe  Fe76  1  0.02123288  0.59962762  0.81571034  1
  Fe  Fe77  1  0.33078614  1.02154613  0.47952723  1
  Fe  Fe78  1  1.01790111  0.06984162  0.92568409  1
  Fe  Fe79  1  0.48191516  0.24054627  0.47928638  1
  Fe  Fe80  1  0.88663735  0.59360844  0.79193453  1
  Fe  Fe81  1  0.59021137  0.52474283  0.06974391  1
  Fe  Fe82  1  0.90677185  0.45840495  0.20218426  1
  Fe  Fe83  1  0.58810188  0.08191415  0.31614916  1
  Fe  Fe84  1  0.92623420  0.87594421  0.42263129  1
  Fe  Fe85  1  0.54426506  0.41084444  0.11227495  1
  Fe  Fe86  1  0.03385545  0.50778199  0.29926253  1
  Fe  Fe87  1  0.50979412  0.28983814  0.60138213  1
  Fe  Fe88  1  0.76422256  0.23854256  0.71978646  1
  Fe  Fe89  1  0.11419980  0.33881608  0.93701340  1
  Fe  Fe90  1  0.91048802  0.54019714  0.37613341  1
  Fe  Fe91  1  0.03393230  0.52151830  0.15851870  1
  Fe  Fe92  1  0.27598000  0.83442517  0.19301173  1
  Fe  Fe93  1  0.72779320  0.37274366  0.73137039  1
  Fe  Fe94  1  0.58275161  0.34782294  0.50732339  1
  Fe  Fe95  1  0.12520859  0.26823940  0.82342237  1
  Fe  Fe96  1  0.58903978  0.53829905  0.70392187  1
  Fe  Fe97  1  0.59576523  0.40538234  0.65231554  1
  Fe  Fe98  1  0.05153406  0.39984442  0.21040462  1
  Fe  Fe99  1  0.83450545  0.32876531  0.62683751  1
  Fe  Fe100  1  0.67564169  0.29032429  0.61285736  1
  Fe  Fe101  1  0.22867252  0.92510576  0.52060405  1
  Bi  Bi102  1  0.11497479  0.26230812  0.09742401  1
  Bi  Bi103  1  0.42965763  -0.13840455  0.25739288  1
  Bi  Bi104  1  0.28686686  0.77271651  0.59576369  1
  Bi  Bi105  1  -0.02095836  0.75366627  0.77506460  1
  Bi  Bi106  1  0.78906859  0.25929628  0.88038082  1
  Bi  Bi107  1  0.15823340  0.09852423  -0.17394028  1
  Bi  Bi108  1  -0.04300718  0.04185900  0.47345660  1
  Bi  Bi109  1  0.86794404  0.29854457  0.46100822  1
  Bi  Bi110  1  0.54958411  0.40943380  -0.06227256  1
  Bi  Bi111  1  0.30776582  0.18964942  0.46502870  1
  Bi  Bi112  1  0.12383296  0.38447035  0.36837878  1
  Bi  Bi113  1  0.71818377  0.62939989  0.76403924  1
  Bi  Bi114  1  0.73494807  0.45000281  0.13085464  1
  Bi  Bi115  1  0.58293913  0.07949661  0.92519845  1
  Bi  Bi116  1  0.91819935  0.84585802  0.08425725  1
  Bi  Bi117  1  0.62811530  0.79225898  0.06194929  1
  Bi  Bi118  1  0.41212987  0.61396390  0.38505800  1
  Bi  Bi119  1  0.38202779  0.11588111  0.14539858  1
  Bi  Bi120  1  0.39145569  0.43284916  0.19997944  1
  Bi  Bi121  1  0.55197470  0.89098443  0.68184773  1
  Bi  Bi122  1  0.34356777  0.56928366  0.91231144  1
  Bi  Bi123  1  0.09635168  0.89431190  0.40347699  1
  Bi  Bi124  1  0.88459632  0.98493608  0.85156234  1
  Bi  Bi125  1  0.75438921  0.09556814  0.25426511  1
  Bi  Bi126  1  0.05307819  0.64003993  0.39828274  1
  Bi  Bi127  1  0.29695188  0.88840206  0.91035761  1
