# generated using pymatgen
data_Ba51Fe51Bi26
_symmetry_space_group_name_H-M   'P 1'
_cell_length_a   16.45513168
_cell_length_b   16.60177415
_cell_length_c   16.38713982
_cell_angle_alpha   89.77313358
_cell_angle_beta   90.57362464
_cell_angle_gamma   90.63237065
_symmetry_Int_Tables_number   1
_chemical_formula_structural   Ba51Fe51Bi26
_chemical_formula_sum   'Ba51 Fe51 Bi26'
_cell_volume   4476.18045836
_cell_formula_units_Z   1
loop_
 _symmetry_equiv_pos_site_id
 _symmetry_equiv_pos_as_xyz
  1  'x, y, z'
loop_
 _atom_site_type_symbol
 _atom_site_label
 _atom_site_symmetry_multiplicity
 _atom_site_fract_x
 _atom_site_fract_y
 _atom_site_fract_z
 _atom_site_occupancy
  Ba  Ba0  1  0.73898066  0.49343640  0.81668588  1
  Ba  Ba1  1  -0.01129620  0.75764765  -0.02233760  1
  Ba  Ba2  1  0.47705014  0.58472501  0.84659179  1
  Ba  Ba3  1  0.47897093  0.66941444  0.47958946  1
  Ba  Ba4  1  0.19179740  0.54134362  0.90729669  1
  Ba  Ba5  1  0.18651199  0.86731219  0.80021170  1
  Ba  Ba6  1  0.41963212  0.76182045  0.71026012  1
  Ba  Ba7  1  0.03833406  0.24294622  -0.01865536  1
  Ba  Ba8  1  -0.04624136  0.50744182  0.02050048  1
  Ba  Ba9  1  0.27946192  0.27250118  0.25557964  1
  Ba  Ba10  1  0.10958711  0.45829611  0.24494246  1
  Ba  Ba11  1  -0.04050255  0.74676709  0.49382588  1
  Ba  Ba12  1  0.27287792  0.26832470  0.89392134  1
  Ba  Ba13  1  0.25446086  0.64255188  0.28111876  1
  Ba  Ba14  1  0.50294083  0.78504184  -0.00456852  1
  Ba  Ba15  1  0.31613218  -0.01839746  -0.02452979  1
  Ba  Ba16  1  0.68586417  0.47040595  0.55117026  1
  Ba  Ba17  1  0.53968218  0.47770069  0.03607546  1
  Ba  Ba18  1  0.75258990  0.84440497  -0.02106786  1
  Ba  Ba19  1  0.22016410  0.53274799  0.58887358  1
  Ba  Ba20  1  0.77363289  0.25607692  0.41177964  1
  Ba  Ba21  1  0.70712240  0.75147077  0.73213922  1
  Ba  Ba22  1  0.00188569  0.06114897  0.66458214  1
  Ba  Ba23  1  0.24408058  0.78399599  0.07659617  1
  Ba  Ba24  1  0.37573262  -0.00934106  0.22874480  1
  Ba  Ba25  1  -0.04529277  -0.00299107  -0.07020358  1
  Ba  Ba26  1  0.68799611  0.38936844  0.20355278  1
  Ba  Ba27  1  0.08652075  0.27728068  0.72584555  1
  Ba  Ba28  1  0.04037188  0.07336522  0.19616778  1
  Ba  Ba29  1  0.68619272  0.09277277  -0.14424939  1
  Ba  Ba30  1  0.52424399  0.30984221  0.83710591  1
  Ba  Ba31  1  0.49782592  0.63662892  0.20481445  1
  Ba  Ba32  1  0.79306702  0.00754388  0.24288909  1
  Ba  Ba33  1  0.43507904  0.00826594  0.51318199  1
  Ba  Ba34  1  -0.00495811  0.76274105  0.22777129  1
  Ba  Ba35  1  0.12893341  0.22168192  0.44459917  1
  Ba  Ba36  1  0.31087033  0.07648700  0.71058033  1
  Ba  Ba37  1  0.55674795  0.25903102  0.49676661  1
  Ba  Ba38  1  -0.12301615  0.52679562  0.35190546  1
  Ba  Ba39  1  0.82642360  -0.02207270  0.49386617  1
  Ba  Ba40  1  -0.07841509  0.28218835  0.21014561  1
  Ba  Ba41  1  0.56949155  0.05741793  0.05808273  1
  Ba  Ba42  1  0.21004696  0.77170478  0.49129800  1
  Ba  Ba43  1  0.84166161  0.31291365  0.68029507  1
  Ba  Ba44  1  0.54501862  0.19407589  0.27043237  1
  Ba  Ba45  1  0.66793331  0.02531669  0.63706349  1
  Ba  Ba46  1  0.72463647  0.70272985  0.49356769  1
  Ba  Ba47  1  0.60540628  -0.12602008  0.33480541  1
  Ba  Ba48  1  0.34137904  0.31071148  0.59251866  1
  Ba  Ba49  1  -0.02487982  0.54460133  0.64334353  1
  Ba  Ba50  1  0.05570113  -0.04116550  0.41587215  1
  Fe  Fe51  1  0.86019215  0.33558780  0.91376818  1
  Fe  Fe52  1  0.34064146  0.47200836  0.28793066  1
  Fe  Fe53  1  0.94621225  0.24910955  0.51838403  1
  Fe  Fe54  1  0.51604305  0.03302700  0.76118109  1
  Fe  Fe55  1  0.07116604  0.72354900  0.66155432  1
  Fe  Fe56  1  0.33098230  0.45795487  0.14043987  1
  Fe  Fe57  1  0.38813466  0.18676964  1.01713715  1
  Fe  Fe58  1  0.88103147  0.81599632  0.80687105  1
  Fe  Fe59  1  0.50663336  0.45904810  0.69280119  1
  Fe  Fe60  1  0.34540850  0.43780744  1.00590900  1
  Fe  Fe61  1  0.83582926  -0.06760059  0.76230766  1
  Fe  Fe62  1  0.77146490  0.65222405  0.95124787  1
  Fe  Fe63  1  0.79958371  0.68245130  0.08806964  1
  Fe  Fe64  1  0.20629642  0.04218930  0.30763248  1
  Fe  Fe65  1  0.42004856  0.55371508  0.65421386  1
  Fe  Fe66  1  0.41024134  0.38250310  0.38753395  1
  Fe  Fe67  1  0.47401232  0.51815346  0.35155893  1
  Fe  Fe68  1  0.89060677  0.87816512  0.65555291  1
  Fe  Fe69  1  0.66139803  0.74029228  0.14127381  1
  Fe  Fe70  1  0.22652697  0.06441732  0.47137281  1
  Fe  Fe71  1  0.96814697  0.32711528  0.40588258  1
  Fe  Fe72  1  0.81828615  0.20535571  -0.01470153  1
  Fe  Fe73  1  0.13394912  0.02515644  0.02163027  1
  Fe  Fe74  1  0.26306981  0.95767063  0.40840199  1
  Fe  Fe75  1  0.04145995  0.85077497  0.64229528  1
  Fe  Fe76  1  0.19603712  0.98410774  0.15346043  1
  Fe  Fe77  1  0.36862447  0.32023619  1.07810281  1
  Fe  Fe78  1  0.30827959  0.10270786  0.37632298  1
  Fe  Fe79  1  -0.01597204  0.89301194  0.76332290  1
  Fe  Fe80  1  0.40249480  0.18213999  0.14268607  1
  Fe  Fe81  1  0.50294350  0.92639513  0.68901264  1
  Fe  Fe82  1  0.68282964  0.24085275  -0.00058650  1
  Fe  Fe83  1  0.68733847  0.70805414  0.28132654  1
  Fe  Fe84  1  0.69589362  0.60458473  0.17010087  1
  Fe  Fe85  1  0.02269177  0.76013872  0.77913950  1
  Fe  Fe86  1  0.33227497  0.71967289  0.90709954  1
  Fe  Fe87  1  0.92389971  0.75048935  0.68468804  1
  Fe  Fe88  1  0.55259036  0.58164792  0.65433787  1
  Fe  Fe89  1  0.70676590  0.36747435  -0.04113095  1
  Fe  Fe90  1  0.77596618  0.79391042  0.18533796  1
  Fe  Fe91  1  0.35555041  0.51787506  0.42193460  1
  Fe  Fe92  1  0.04534558  0.43489655  0.45324938  1
  Fe  Fe93  1  0.74852005  0.27406610  0.87062822  1
  Fe  Fe94  1  0.80678806  0.67306390  0.23619458  1
  Fe  Fe95  1  0.80632767  0.32827663  0.04475288  1
  Fe  Fe96  1  0.66036371  0.65162292  1.02568416  1
  Fe  Fe97  1  0.90321975  0.39409191  0.50279585  1
  Fe  Fe98  1  0.10251207  0.91613016  0.08356263  1
  Fe  Fe99  1  0.01982618  0.35543110  0.55904873  1
  Fe  Fe100  1  0.43135411  0.94521402  0.81443793  1
  Fe  Fe101  1  0.55213391  0.41033033  0.37392336  1
  Bi  Bi102  1  0.64947750  0.55640682  0.34947820  1
  Bi  Bi103  1  0.18434136  -0.04916670  0.59055758  1
  Bi  Bi104  1  0.36333840  0.60985854  0.03153351  1
  Bi  Bi105  1  0.47653022  0.46033375  0.52672019  1
  Bi  Bi106  1  0.75064538  0.50972327  0.03777880  1
  Bi  Bi107  1  0.89103150  0.17727455  -0.16855663  1
  Bi  Bi108  1  -0.11484306  0.64928558  0.82505905  1
  Bi  Bi109  1  0.24068392  0.13893658  0.09571766  1
  Bi  Bi110  1  0.44970984  0.11284848  0.88460937  1
  Bi  Bi111  1  0.74168939  0.18553670  0.14906492  1
  Bi  Bi112  1  0.53166261  0.26639108  0.05809936  1
  Bi  Bi113  1  0.47111278  0.39646217  0.22450472  1
  Bi  Bi114  1  0.23391966  0.40581717  0.41676313  1
  Bi  Bi115  1  0.59187919  0.89491066  0.83660315  1
  Bi  Bi116  1  0.50318437  0.16862188  0.66994168  1
  Bi  Bi117  1  0.08160514  0.59858733  0.41581487  1
  Bi  Bi118  1  0.14334429  0.08278661  0.85474619  1
  Bi  Bi119  1  0.93968395  0.13847455  0.37991316  1
  Bi  Bi120  1  0.57967575  0.84324077  0.56264368  1
  Bi  Bi121  1  0.82057464  0.82124902  0.34559189  1
  Bi  Bi122  1  0.19200634  0.86559546  0.27725284  1
  Bi  Bi123  1  0.64665012  0.07117668  0.41636676  1
  Bi  Bi124  1  0.97848142  0.42208460  0.82739017  1
  Bi  Bi125  1  0.34220985  0.44294279  0.76168611  1
  Bi  Bi126  1  0.10639546  0.62799214  0.10818798  1
  Bi  Bi127  1  0.19460653  0.38176560  0.06150495  1
