# generated using pymatgen
data_Ba51Fe51Bi26
_symmetry_space_group_name_H-M   'P 1'
_cell_length_a   16.31741641
_cell_length_b   16.25550502
_cell_length_c   16.75090294
_cell_angle_alpha   87.79629800
_cell_angle_beta   88.33103342
_cell_angle_gamma   87.08740442
_symmetry_Int_Tables_number   1
_chemical_formula_structural   Ba51Fe51Bi26
_chemical_formula_sum   'Ba51 Fe51 Bi26'
_cell_volume   4432.47579902
_cell_formula_units_Z   1
loop_
 _symmetry_equiv_pos_site_id
 _symmetry_equiv_pos_as_xyz
  1  'x, y, z'
loop_
 _atom_site_type_symbol
 _atom_site_label
 _atom_site_symmetry_multiplicity
 _atom_site_fract_x
 _atom_site_fract_y
 _atom_site_fract_z
 _atom_site_occupancy
  Ba  Ba0  1  -0.01632185  0.78495743  0.24111986  1
  Ba  Ba1  1  0.21710917  0.62974251  0.01850544  1
  Ba  Ba2  1  0.55865578  0.75984565  0.47970621  1
  Ba  Ba3  1  0.61032665  0.69282973  0.03749992  1
  Ba  Ba4  1  0.25967022  0.75711226  0.23751750  1
  Ba  Ba5  1  0.60627657  -0.11171071  0.75461810  1
  Ba  Ba6  1  0.03214572  0.04599487  0.78235210  1
  Ba  Ba7  1  0.01225233  0.80372240  0.72156513  1
  Ba  Ba8  1  0.81796862  0.58689385  0.47720691  1
  Ba  Ba9  1  0.83006872  0.04259720  0.65312483  1
  Ba  Ba10  1  -0.04235487  0.49523343  0.23949080  1
  Ba  Ba11  1  0.72856885  -0.10607577  -0.01566364  1
  Ba  Ba12  1  -0.00705170  0.42914470  0.57419162  1
  Ba  Ba13  1  -0.01419671  0.73715114  -0.02323589  1
  Ba  Ba14  1  0.30680124  0.45958105  0.21374035  1
  Ba  Ba15  1  0.53700116  0.19396589  0.41015926  1
  Ba  Ba16  1  0.39689392  0.83903227  -0.02348571  1
  Ba  Ba17  1  0.00999109  0.51897993  0.82235076  1
  Ba  Ba18  1  0.18426536  0.00099458  0.56662212  1
  Ba  Ba19  1  0.79297899  0.53265383  0.07903619  1
  Ba  Ba20  1  0.07531418  0.01808737  0.17047213  1
  Ba  Ba21  1  0.30834743  0.67609921  0.77232214  1
  Ba  Ba22  1  -0.12602167  0.06848701  -0.01987226  1
  Ba  Ba23  1  -0.03317306  0.23970025  0.30890278  1
  Ba  Ba24  1  0.50615149  0.45943076  0.01727715  1
  Ba  Ba25  1  0.71063782  0.28363939  0.03529319  1
  Ba  Ba26  1  0.25106007  0.52382373  0.45818963  1
  Ba  Ba27  1  0.56915205  0.66591876  0.68971809  1
  Ba  Ba28  1  0.47486495  0.39174650  0.71669698  1
  Ba  Ba29  1  0.71350362  0.88909669  0.24359916  1
  Ba  Ba30  1  -0.01241296  0.31151876  0.04280709  1
  Ba  Ba31  1  0.52601542  0.08206171  -0.05229562  1
  Ba  Ba32  1  0.26382494  0.13758585  0.24010309  1
  Ba  Ba33  1  0.57934168  0.47076792  0.47665633  1
  Ba  Ba34  1  -0.04925035  -0.04672203  0.43820235  1
  Ba  Ba35  1  0.27721320  0.75864699  0.52708580  1
  Ba  Ba36  1  0.00793733  0.18573568  0.55844523  1
  Ba  Ba37  1  0.27393227  -0.01075283  0.82027328  1
  Ba  Ba38  1  0.72990894  0.28031504  0.27552435  1
  Ba  Ba39  1  0.23927146  0.44766747  0.68991468  1
  Ba  Ba40  1  0.53124529  0.53981641  0.25627140  1
  Ba  Ba41  1  0.02579724  0.71270743  0.47551549  1
  Ba  Ba42  1  0.78744595  0.69315260  0.83100564  1
  Ba  Ba43  1  0.55647053  0.15833090  0.69595932  1
  Ba  Ba44  1  0.77418462  0.26998732  0.78010587  1
  Ba  Ba45  1  0.69756471  -0.03774404  0.49399034  1
  Ba  Ba46  1  0.42780642  -0.01317059  0.56469968  1
  Ba  Ba47  1  0.24325543  0.26459669  0.44875658  1
  Ba  Ba48  1  0.18137306  0.27922454  0.86022413  1
  Ba  Ba49  1  0.50446263  0.79595634  0.24211315  1
  Ba  Ba50  1  0.74988956  0.50456597  0.69561768  1
  Fe  Fe51  1  0.62864105  0.45315526  0.84944157  1
  Fe  Fe52  1  0.67331109  0.31889459  0.61081753  1
  Fe  Fe53  1  0.44398574  0.21016212  0.21352230  1
  Fe  Fe54  1  0.79737743  0.84077385  0.68385842  1
  Fe  Fe55  1  0.41953776  0.12308084  0.10849610  1
  Fe  Fe56  1  0.21207487  0.14814687  0.72125139  1
  Fe  Fe57  1  0.70602503  0.19540492  0.56610875  1
  Fe  Fe58  1  0.16740033  -0.03102732  -0.01376784  1
  Fe  Fe59  1  0.48933847  0.24866111  0.04516412  1
  Fe  Fe60  1  0.02172682  0.53214177  0.41157124  1
  Fe  Fe61  1  0.34607259  0.20535963  0.99886013  1
  Fe  Fe62  1  0.17491413  0.83668399  0.95088331  1
  Fe  Fe63  1  0.85030107  0.69960354  0.63836830  1
  Fe  Fe64  1  0.40715015  0.30899871  0.93443065  1
  Fe  Fe65  1  0.16211365  0.41718674  0.08614636  1
  Fe  Fe66  1  0.31551179  0.14172575  0.63540885  1
  Fe  Fe67  1  0.85884232  1.00612535  0.18465644  1
  Fe  Fe68  1  0.81422431  0.67465433  0.27765319  1
  Fe  Fe69  1  0.71509339  0.29490148  0.46912915  1
  Fe  Fe70  1  0.82038060  -0.09009818  0.80562034  1
  Fe  Fe71  1  0.30594455  0.26440498  0.67618071  1
  Fe  Fe72  1  0.88325856  1.06380927  0.29528148  1
  Fe  Fe73  1  0.11052050  0.84587780  0.06810598  1
  Fe  Fe74  1  0.09982720  0.43624761  0.37353922  1
  Fe  Fe75  1  0.80207255  0.40316530  0.41353441  1
  Fe  Fe76  1  0.84544631  0.14161049  0.17268703  1
  Fe  Fe77  1  0.62503611  0.58312867  0.87918415  1
  Fe  Fe78  1  0.77938736  0.39537771  0.54723577  1
  Fe  Fe79  1  0.45845902  1.07073358  0.24999636  1
  Fe  Fe80  1  0.23481987  0.89135734  0.07860476  1
  Fe  Fe81  1  0.40892372  0.83908601  0.69704586  1
  Fe  Fe82  1  0.86542801  0.29762092  0.46448048  1
  Fe  Fe83  1  0.81910844  0.26427699  0.58994100  1
  Fe  Fe84  1  0.74904931  0.08165373  0.27827359  1
  Fe  Fe85  1  0.69495750  0.66815499  0.21514528  1
  Fe  Fe86  1  0.50280641  0.54769104  0.83672151  1
  Fe  Fe87  1  0.28535453  0.86305140  0.68186020  1
  Fe  Fe88  1  0.60219398  0.08253912  0.26002590  1
  Fe  Fe89  1  0.29775054  0.37135629  1.01419064  1
  Fe  Fe90  1  0.04318466  0.92871092  0.95495739  1
  Fe  Fe91  1  0.92587139  0.90274585  0.87783695  1
  Fe  Fe92  1  0.86343991  0.81976741  0.56774553  1
  Fe  Fe93  1  0.18112609  0.24191275  0.63202182  1
  Fe  Fe94  1  0.52923180  1.01368581  0.14884482  1
  Fe  Fe95  1  0.73243626  0.75502341  0.60025121  1
  Fe  Fe96  1  0.55876300  0.16373747  0.14829308  1
  Fe  Fe97  1  0.52552430  0.69427365  0.86766872  1
  Fe  Fe98  1  0.43401564  0.62585385  0.93082277  1
  Fe  Fe99  1  0.37052727  0.28546943  0.10973586  1
  Fe  Fe100  1  0.68587562  0.68220186  0.34345370  1
  Fe  Fe101  1  0.17823326  0.44551678  0.96052643  1
  Bi  Bi102  1  0.37148656  0.18790265  0.81005400  1
  Bi  Bi103  1  0.12357918  0.60208333  0.29919641  1
  Bi  Bi104  1  0.57295110  0.29246411  -0.11924529  1
  Bi  Bi105  1  0.54057462  0.33501782  0.18788808  1
  Bi  Bi106  1  0.80865428  0.78799712  0.40905032  1
  Bi  Bi107  1  0.69908973  0.07073439  0.10775362  1
  Bi  Bi108  1  0.19694851  0.25242920  0.07103296  1
  Bi  Bi109  1  0.36516738  -0.05206487  0.17431350  1
  Bi  Bi110  1  0.02890014  0.52331125  0.03049440  1
  Bi  Bi111  1  0.33751472  0.47635529  -0.12079379  1
  Bi  Bi112  1  0.30191488  0.04682542  0.01839242  1
  Bi  Bi113  1  0.74063508  0.51278111  0.29595849  1
  Bi  Bi114  1  0.81366934  0.13714450  0.44158996  1
  Bi  Bi115  1  0.52907258  0.96756486  0.37064929  1
  Bi  Bi116  1  0.07722138  0.11049800  0.96649270  1
  Bi  Bi117  1  0.11928005  0.62217899  0.64879011  1
  Bi  Bi118  1  0.81821316  0.73945963  0.11508964  1
  Bi  Bi119  1  0.13563053  0.34200172  0.24256447  1
  Bi  Bi120  1  0.79585082  0.45334189  0.89181688  1
  Bi  Bi121  1  0.14302995  0.88524528  0.36905353  1
  Bi  Bi122  1  0.71688332  0.05579452  0.83107690  1
  Bi  Bi123  1  0.40773757  0.65645585  0.38725970  1
  Bi  Bi124  1  0.41656022  0.37548520  0.37860620  1
  Bi  Bi125  1  0.40931594  0.65035512  0.10038785  1
  Bi  Bi126  1  0.40927404  0.57999965  0.59243983  1
  Bi  Bi127  1  0.11208504  0.09113627  0.38827815  1
