# generated using pymatgen
data_Ba51Fe51Bi26
_symmetry_space_group_name_H-M   'P 1'
_cell_length_a   16.03237977
_cell_length_b   16.38994119
_cell_length_c   16.79533636
_cell_angle_alpha   87.16145806
_cell_angle_beta   86.43300222
_cell_angle_gamma   90.36184680
_symmetry_Int_Tables_number   1
_chemical_formula_structural   Ba51Fe51Bi26
_chemical_formula_sum   'Ba51 Fe51 Bi26'
_cell_volume   4399.15690211
_cell_formula_units_Z   1
loop_
 _symmetry_equiv_pos_site_id
 _symmetry_equiv_pos_as_xyz
  1  'x, y, z'
loop_
 _atom_site_type_symbol
 _atom_site_label
 _atom_site_symmetry_multiplicity
 _atom_site_fract_x
 _atom_site_fract_y
 _atom_site_fract_z
 _atom_site_occupancy
  Ba  Ba0  1  0.27128620  0.17435451  0.42284341  1
  Ba  Ba1  1  0.72303471  0.70035747  0.71493951  1
  Ba  Ba2  1  0.51445123  0.39423780  0.11507888  1
  Ba  Ba3  1  0.22131883  0.69388852  0.52079118  1
  Ba  Ba4  1  0.79149539  0.32423355  -0.01149011  1
  Ba  Ba5  1  0.27504358  0.51474561  0.10857263  1
  Ba  Ba6  1  0.22735512  -0.07540772  0.06940940  1
  Ba  Ba7  1  -0.10637402  0.09315587  0.31609943  1
  Ba  Ba8  1  0.01867536  0.19431239  0.48404881  1
  Ba  Ba9  1  0.59319802  0.17564981  0.87258514  1
  Ba  Ba10  1  0.76476522  0.45896122  0.47872782  1
  Ba  Ba11  1  0.02256671  0.63199447  0.68607583  1
  Ba  Ba12  1  0.78023551  0.70197042  0.46126029  1
  Ba  Ba13  1  0.00278577  0.83757810  0.03720001  1
  Ba  Ba14  1  0.78238607  0.79209264  -0.07260204  1
  Ba  Ba15  1  0.46567478  0.19183813  0.59074357  1
  Ba  Ba16  1  0.22269336  -0.03794747  0.49744394  1
  Ba  Ba17  1  0.40087068  0.47812157  0.63745332  1
  Ba  Ba18  1  0.57640700  -0.03205803  0.71171480  1
  Ba  Ba19  1  0.05488450  0.33595420  0.70142649  1
  Ba  Ba20  1  0.41538898  -0.03764647  -0.08640807  1
  Ba  Ba21  1  0.69038197  0.67088014  0.18986927  1
  Ba  Ba22  1  0.44307464  0.63558023  0.38398766  1
  Ba  Ba23  1  0.72282328  -0.04269721  0.14845004  1
  Ba  Ba24  1  0.02628427  0.22446066  -0.05871445  1
  Ba  Ba25  1  0.59896208  0.59818805  -0.04131135  1
  Ba  Ba26  1  0.09422925  0.54209498  0.90137193  1
  Ba  Ba27  1  0.75939900  -0.01514511  0.54079290  1
  Ba  Ba28  1  0.43226982  0.75408861  0.68458235  1
  Ba  Ba29  1  0.60326522  0.83015939  0.35242298  1
  Ba  Ba30  1  0.26865731  0.28894313  0.19951773  1
  Ba  Ba31  1  -0.01398940  0.70887486  0.27506478  1
  Ba  Ba32  1  0.78156550  0.43280565  0.76369499  1
  Ba  Ba33  1  0.24849039  0.23624453  0.81301438  1
  Ba  Ba34  1  0.52688213  0.40453906  0.44337073  1
  Ba  Ba35  1  0.71702545  0.29163863  0.23341018  1
  Ba  Ba36  1  0.02664521  0.46153452  0.45117304  1
  Ba  Ba37  1  0.48915346  0.80817767  0.08236831  1
  Ba  Ba38  1  -0.00747775  0.04335785  0.71254725  1
  Ba  Ba39  1  0.01875444  0.32833243  0.17229801  1
  Ba  Ba40  1  0.48145752  -0.02564445  0.48533536  1
  Ba  Ba41  1  0.49295534  0.21082859  0.29942161  1
  Ba  Ba42  1  0.24575232  -0.00243894  0.74217115  1
  Ba  Ba43  1  -0.03136381  -0.13062888  0.50143364  1
  Ba  Ba44  1  0.37730021  0.00875626  0.23311387  1
  Ba  Ba45  1  -0.07051529  0.57216146  0.08782107  1
  Ba  Ba46  1  0.25315872  0.70143811  0.25125574  1
  Ba  Ba47  1  0.84768767  0.03759955  -0.06224510  1
  Ba  Ba48  1  0.03747554  0.06128517  0.12002773  1
  Ba  Ba49  1  0.73338057  0.21633148  0.47474022  1
  Ba  Ba50  1  0.37874758  0.44703990  -0.10597003  1
  Fe  Fe51  1  0.14459070  0.74321353  0.92245611  1
  Fe  Fe52  1  0.68654125  0.47896256  0.27723845  1
  Fe  Fe53  1  0.83219528  0.15371186  0.64305525  1
  Fe  Fe54  1  0.10521305  0.83954410  0.36158048  1
  Fe  Fe55  1  0.82834793  0.45387747  0.23308342  1
  Fe  Fe56  1  0.18323864  0.19601856  0.04703093  1
  Fe  Fe57  1  0.22348172  0.10529074  0.95845577  1
  Fe  Fe58  1  0.22442376  0.85876889  0.89028944  1
  Fe  Fe59  1  0.31098628  0.24871722  1.00323481  1
  Fe  Fe60  1  0.35864501  0.13434929  0.96255205  1
  Fe  Fe61  1  0.14460350  0.75030806  0.78454946  1
  Fe  Fe62  1  0.32059449  0.47623636  0.43201140  1
  Fe  Fe63  1  0.75425933  0.08356764  0.74993574  1
  Fe  Fe64  1  0.28703165  0.11516365  0.08781936  1
  Fe  Fe65  1  0.22097972  -0.10178677  0.31839017  1
  Fe  Fe66  1  1.00785813  0.92333500  0.28226633  1
  Fe  Fe67  1  0.62317891  0.49928586  0.65516060  1
  Fe  Fe68  1  0.95167391  0.88782507  0.85331358  1
  Fe  Fe69  1  0.74517191  0.23884753  0.70299386  1
  Fe  Fe70  1  0.64893344  0.57632134  0.35957040  1
  Fe  Fe71  1  0.28618056  0.75598865  0.83263569  1
  Fe  Fe72  1  0.11615648  0.86577690  0.22497647  1
  Fe  Fe73  1  0.28114386  0.76211812  -0.00774470  1
  Fe  Fe74  1  0.15979928  0.99612288  0.24611727  1
  Fe  Fe75  1  0.15945960  0.16830916  0.61711179  1
  Fe  Fe76  1  0.26407887  0.64348235  0.93061582  1
  Fe  Fe77  1  0.79999459  0.57047529  0.31412694  1
  Fe  Fe78  1  0.25485482  0.47401585  0.31795574  1
  Fe  Fe79  1  0.09251913  -0.01266740  0.36481572  1
  Fe  Fe80  1  0.17218719  0.30031483  0.54640370  1
  Fe  Fe81  1  0.31731819  0.34412478  0.51040572  1
  Fe  Fe82  1  0.92558963  0.50827508  0.29630517  1
  Fe  Fe83  1  0.67342328  0.14168388  0.65456818  1
  Fe  Fe84  1  0.97708477  0.81378097  0.75103055  1
  Fe  Fe85  1  0.56950105  0.42231166  0.75426260  1
  Fe  Fe86  1  0.71191308  1.00130018  0.35013319  1
  Fe  Fe87  1  0.39114697  0.65279494  0.00106283  1
  Fe  Fe88  1  0.69156972  0.98031904  0.84946624  1
  Fe  Fe89  1  0.61643882  0.08780151  0.39380548  1
  Fe  Fe90  1  0.61912708  0.95491216  -0.04341406  1
  Fe  Fe91  1  0.57731749  0.02690381  0.28644841  1
  Fe  Fe92  1  0.40483377  0.76091111  -0.08873441  1
  Fe  Fe93  1  0.20787077  0.36819670  0.41931509  1
  Fe  Fe94  1  0.35197208  0.35740935  0.36100987  1
  Fe  Fe95  1  0.38882011  0.63973675  0.85417964  1
  Fe  Fe96  1  0.54899029  0.50970460  0.27463982  1
  Fe  Fe97  1  0.40089233  0.47317110  0.28860778  1
  Fe  Fe98  1  0.27064698  0.23802996  0.61389088  1
  Fe  Fe99  1  1.00426667  0.74061047  0.86677066  1
  Fe  Fe100  1  0.69203885  0.10365971  0.25796706  1
  Fe  Fe101  1  0.09329508  0.86852957  0.83078150  1
  Bi  Bi102  1  0.57385848  0.81890357  -0.12767162  1
  Bi  Bi103  1  0.13946739  0.67852675  0.07541291  1
  Bi  Bi104  1  0.11097527  0.14855516  0.29362240  1
  Bi  Bi105  1  0.62651372  0.33130753  0.62606930  1
  Bi  Bi106  1  0.81646787  -0.08730252  0.74465928  1
  Bi  Bi107  1  0.45389201  0.17842879  0.08705125  1
  Bi  Bi108  1  0.46178992  0.60667927  0.16502333  1
  Bi  Bi109  1  0.72354807  0.48173285  0.10976843  1
  Bi  Bi110  1  0.53138075  0.58475375  0.76811576  1
  Bi  Bi111  1  0.19688960  0.46962234  0.56546312  1
  Bi  Bi112  1  0.08837371  1.01318449  0.90796724  1
  Bi  Bi113  1  0.10027474  0.51545307  0.25116985  1
  Bi  Bi114  1  0.25165474  0.61593597  0.75072275  1
  Bi  Bi115  1  0.45470074  0.30026964  0.76430215  1
  Bi  Bi116  1  0.87828728  0.31672576  0.59761680  1
  Bi  Bi117  1  0.60157388  0.38529034  0.91043166  1
  Bi  Bi118  1  0.86433835  0.21189096  0.80954395  1
  Bi  Bi119  1  0.88327159  0.61182938  0.86581362  1
  Bi  Bi120  1  0.11637125  0.84736254  0.64898980  1
  Bi  Bi121  1  0.59334995  0.59781912  0.52171277  1
  Bi  Bi122  1  0.18059411  0.36296146  -0.00294461  1
  Bi  Bi123  1  0.89108661  0.33586695  0.34520688  1
  Bi  Bi124  1  0.36385190  0.83540329  0.38279470  1
  Bi  Bi125  1  0.61715640  0.82070785  0.56562023  1
  Bi  Bi126  1  0.83273681  0.87701567  0.32957222  1
  Bi  Bi127  1  0.83463920  0.15224120  0.11853141  1
