# generated using pymatgen
data_Ba51Fe51Bi26
_symmetry_space_group_name_H-M   'P 1'
_cell_length_a   16.37932913
_cell_length_b   16.98772729
_cell_length_c   15.62190850
_cell_angle_alpha   91.59785406
_cell_angle_beta   89.43457371
_cell_angle_gamma   89.07146491
_symmetry_Int_Tables_number   1
_chemical_formula_structural   Ba51Fe51Bi26
_chemical_formula_sum   'Ba51 Fe51 Bi26'
_cell_volume   4344.26580984
_cell_formula_units_Z   1
loop_
 _symmetry_equiv_pos_site_id
 _symmetry_equiv_pos_as_xyz
  1  'x, y, z'
loop_
 _atom_site_type_symbol
 _atom_site_label
 _atom_site_symmetry_multiplicity
 _atom_site_fract_x
 _atom_site_fract_y
 _atom_site_fract_z
 _atom_site_occupancy
  Ba  Ba0  1  0.00867844  0.54654720  0.83348349  1
  Ba  Ba1  1  -0.05812801  0.45564760  0.59234799  1
  Ba  Ba2  1  -0.03223930  0.26773969  0.73849314  1
  Ba  Ba3  1  0.25303796  -0.07119416  0.04810855  1
  Ba  Ba4  1  0.71767136  0.47240861  0.55513405  1
  Ba  Ba5  1  0.50939312  0.67928048  0.49268527  1
  Ba  Ba6  1  0.07834616  0.76608315  0.45435124  1
  Ba  Ba7  1  0.28070828  0.67674047  0.61080441  1
  Ba  Ba8  1  0.74065318  0.45669725  0.21255539  1
  Ba  Ba9  1  0.17289892  0.51840689  0.44433603  1
  Ba  Ba10  1  -0.08487227  -0.02722342  0.49935267  1
  Ba  Ba11  1  -0.04462254  0.75975169  0.00412138  1
  Ba  Ba12  1  -0.05011769  0.00980690  0.07499202  1
  Ba  Ba13  1  0.41478798  0.49472354  -0.07110328  1
  Ba  Ba14  1  0.21463434  0.17286720  0.77919568  1
  Ba  Ba15  1  0.92159833  0.38478965  0.01201629  1
  Ba  Ba16  1  0.68045619  0.70230804  0.03348502  1
  Ba  Ba17  1  0.45699021  0.07627762  0.16724689  1
  Ba  Ba18  1  0.46332362  0.54042694  0.69672073  1
  Ba  Ba19  1  0.25296452  0.13685435  0.34024688  1
  Ba  Ba20  1  0.23242096  0.43166072  0.73179211  1
  Ba  Ba21  1  0.72992867  0.26594948  0.80405358  1
  Ba  Ba22  1  0.14222177  0.34207924  0.26858479  1
  Ba  Ba23  1  -0.01073227  0.03648673  0.78393250  1
  Ba  Ba24  1  0.64506344  0.84762346  0.24845171  1
  Ba  Ba25  1  0.06275648  0.19912799  0.06799961  1
  Ba  Ba26  1  0.74229363  0.04981311  0.86796554  1
  Ba  Ba27  1  0.31881523  0.48987523  0.17672624  1
  Ba  Ba28  1  0.72449839  0.21551224  0.07812576  1
  Ba  Ba29  1  0.70695217  0.78456596  0.50001244  1
  Ba  Ba30  1  0.47561171  0.22848139  0.44003102  1
  Ba  Ba31  1  0.63589801  0.01648739  0.55185519  1
  Ba  Ba32  1  0.20604811  0.26418581  0.54460241  1
  Ba  Ba33  1  0.51404982  0.45246279  0.33713174  1
  Ba  Ba34  1  0.37209886  0.00122517  0.75697904  1
  Ba  Ba35  1  0.33718651  0.72559901  0.28379658  1
  Ba  Ba36  1  0.85550553  0.68816885  0.28385373  1
  Ba  Ba37  1  0.66580271  0.47999349  -0.05265023  1
  Ba  Ba38  1  0.72146138  0.63966334  0.74056690  1
  Ba  Ba39  1  0.51921279  -0.07081431  -0.03634615  1
  Ba  Ba40  1  0.26521023  0.27491578  0.02279560  1
  Ba  Ba41  1  0.51038420  0.16476523  0.73717025  1
  Ba  Ba42  1  0.10361167  0.80992272  0.19717723  1
  Ba  Ba43  1  -0.04753117  0.23419536  0.44954733  1
  Ba  Ba44  1  0.06720237  0.77343239  0.76157014  1
  Ba  Ba45  1  0.71047788  0.24436437  0.50019720  1
  Ba  Ba46  1  0.02323736  0.54068713  0.21852896  1
  Ba  Ba47  1  0.35479781  0.70073088  0.01886085  1
  Ba  Ba48  1  0.80917926  0.86095357  0.72528413  1
  Ba  Ba49  1  0.20767082  -0.04633642  0.56977071  1
  Ba  Ba50  1  0.75550802  0.06679066  0.28361272  1
  Fe  Fe51  1  0.04529696  0.16055573  0.27535597  1
  Fe  Fe52  1  0.10254373  1.02527312  0.24696529  1
  Fe  Fe53  1  0.43898090  0.89990386  0.32734735  1
  Fe  Fe54  1  -0.14115430  0.51926440  0.39399472  1
  Fe  Fe55  1  0.13705381  0.96064457  0.37181215  1
  Fe  Fe56  1  0.37413592  0.72887360  0.79127844  1
  Fe  Fe57  1  0.54462738  0.35142399  0.81084047  1
  Fe  Fe58  1  1.05040424  0.58227379  1.02510292  1
  Fe  Fe59  1  0.46598625  0.35445706  0.68818958  1
  Fe  Fe60  1  0.79568532  0.86537534  0.07470465  1
  Fe  Fe61  1  0.55616863  0.37209205  0.11253602  1
  Fe  Fe62  1  0.49795861  0.72540015  0.69455775  1
  Fe  Fe63  1  0.48859911  0.82944175  0.78605642  1
  Fe  Fe64  1  -0.03937338  0.60941546  0.46919573  1
  Fe  Fe65  1  0.23035612  0.77416883  0.88112336  1
  Fe  Fe66  1  0.12608197  0.46190535  0.05407701  1
  Fe  Fe67  1  0.96273659  0.28533631  0.23555620  1
  Fe  Fe68  1  0.83544813  0.90416087  0.95068719  1
  Fe  Fe69  1  0.62984692  0.80617648  0.83378196  1
  Fe  Fe70  1  0.38589374  0.82858713  0.67133614  1
  Fe  Fe71  1  0.51558596  0.85330711  0.60912114  1
  Fe  Fe72  1  0.43867268  0.34600128  0.04303171  1
  Fe  Fe73  1  0.42604931  -0.04886780  0.56010152  1
  Fe  Fe74  1  0.52088888  0.24413411  0.09779198  1
  Fe  Fe75  1  0.06172679  0.06974053  0.39898893  1
  Fe  Fe76  1  -0.01384093  0.48265643  0.40188840  1
  Fe  Fe77  1  0.53089003  0.64453608  0.29257510  1
  Fe  Fe78  1  0.39632249  -0.00761865  0.42308008  1
  Fe  Fe79  1  0.64181473  0.63785610  0.22019621  1
  Fe  Fe80  1  0.35003926  0.84869112  0.85333029  1
  Fe  Fe81  1  0.18751891  0.07603855  0.94361004  1
  Fe  Fe82  1  0.61913001  0.42619349  0.72272266  1
  Fe  Fe83  1  0.89422885  0.73937295  0.51288854  1
  Fe  Fe84  1  0.90974907  0.66459470  0.61709848  1
  Fe  Fe85  1  0.82363762  0.62103343  0.49811479  1
  Fe  Fe86  1  0.55640379  0.31834318  0.95755008  1
  Fe  Fe87  1  0.92023022  0.16385317  0.21750806  1
  Fe  Fe88  1  0.91858825  0.39843213  0.32278412  1
  Fe  Fe89  1  0.61678927  0.79544586  0.69049192  1
  Fe  Fe90  1  0.51154285  0.88946237  0.45205853  1
  Fe  Fe91  1  0.60288303  0.30683516  0.66143369  1
  Fe  Fe92  1  1.01742047  0.93279594  0.33163973  1
  Fe  Fe93  1  0.26061393  0.82192855  0.74820014  1
  Fe  Fe94  1  0.16816012  0.60640906  0.08719961  1
  Fe  Fe95  1  0.54495035  0.39217764  0.58080414  1
  Fe  Fe96  1  0.15089099  0.67589470  0.96391116  1
  Fe  Fe97  1  0.51792796  0.69678967  0.16896256  1
  Fe  Fe98  1  0.71134302  0.86518101  -0.05523537  1
  Fe  Fe99  1  0.47208279  0.21756854  -0.04073199  1
  Fe  Fe100  1  0.95649505  0.04733497  0.29088783  1
  Fe  Fe101  1  0.18996843  0.52937846  0.95912022  1
  Bi  Bi102  1  0.11107894  0.36589823  -0.09831549  1
  Bi  Bi103  1  0.80680703  0.27406099  0.29530403  1
  Bi  Bi104  1  0.59640627  0.95070760  0.75149252  1
  Bi  Bi105  1  0.53243364  0.53744471  0.12526981  1
  Bi  Bi106  1  0.25017599  0.61757104  0.82418125  1
  Bi  Bi107  1  0.69519468  -0.00399975  0.07657117  1
  Bi  Bi108  1  0.53023089  0.67532250  -0.13257384  1
  Bi  Bi109  1  0.17674423  -0.05543213  0.83483792  1
  Bi  Bi110  1  0.27633707  -0.06124469  0.27871473  1
  Bi  Bi111  1  0.35768492  -0.17523374  0.47926110  1
  Bi  Bi112  1  -0.11553347  -0.11344638  0.23718519  1
  Bi  Bi113  1  0.38505818  0.28874830  0.20733834  1
  Bi  Bi114  1  0.38350761  0.30973501  -0.16152615  1
  Bi  Bi115  1  0.45166605  0.84778989  0.15077105  1
  Bi  Bi116  1  0.68739895  0.59669240  0.38426092  1
  Bi  Bi117  1  0.35490356  0.10726716  0.56245676  1
  Bi  Bi118  1  0.55141046  0.02596911  0.35333861  1
  Bi  Bi119  1  0.31778201  0.37195515  0.39829420  1
  Bi  Bi120  1  0.07430002  0.61241315  0.61679465  1
  Bi  Bi121  1  0.81275604  0.10803511  0.65129563  1
  Bi  Bi122  1  0.80861933  0.45036321  0.77390559  1
  Bi  Bi123  1  0.89644486  0.18158132  0.93106922  1
  Bi  Bi124  1  0.60146829  0.26907588  0.25477863  1
  Bi  Bi125  1  0.87263553  0.58176993  0.05751686  1
  Bi  Bi126  1  0.35586126  0.09260842  0.96060906  1
  Bi  Bi127  1  0.06964157  0.11260944  0.58099121  1
