# generated using pymatgen
data_Ba51Fe51Bi26
_symmetry_space_group_name_H-M   'P 1'
_cell_length_a   16.52280944
_cell_length_b   15.96548889
_cell_length_c   16.77172722
_cell_angle_alpha   93.53421590
_cell_angle_beta   89.82183482
_cell_angle_gamma   90.29574977
_symmetry_Int_Tables_number   1
_chemical_formula_structural   Ba51Fe51Bi26
_chemical_formula_sum   'Ba51 Fe51 Bi26'
_cell_volume   4415.80288314
_cell_formula_units_Z   1
loop_
 _symmetry_equiv_pos_site_id
 _symmetry_equiv_pos_as_xyz
  1  'x, y, z'
loop_
 _atom_site_type_symbol
 _atom_site_label
 _atom_site_symmetry_multiplicity
 _atom_site_fract_x
 _atom_site_fract_y
 _atom_site_fract_z
 _atom_site_occupancy
  Ba  Ba0  1  -0.01092697  0.52060943  0.28586840  1
  Ba  Ba1  1  0.33517211  0.58758209  0.49874735  1
  Ba  Ba2  1  0.75811536  0.04124240  0.28406713  1
  Ba  Ba3  1  0.44766581  0.32581905  0.75836138  1
  Ba  Ba4  1  0.01842197  -0.00093980  0.32868531  1
  Ba  Ba5  1  0.43998746  0.24850036  0.23055497  1
  Ba  Ba6  1  -0.07257589  -0.10813164  0.56852555  1
  Ba  Ba7  1  0.04944668  0.53359821  0.52920646  1
  Ba  Ba8  1  0.06205026  -0.08664798  0.06493300  1
  Ba  Ba9  1  0.46638790  0.18518652  -0.03487408  1
  Ba  Ba10  1  -0.03132983  0.75234991  0.21574027  1
  Ba  Ba11  1  0.49850412  0.86836227  0.67209000  1
  Ba  Ba12  1  0.28846083  0.67199224  -0.03002841  1
  Ba  Ba13  1  0.54683938  0.61267797  0.66936446  1
  Ba  Ba14  1  0.61748424  -0.01117896  -0.10844609  1
  Ba  Ba15  1  0.25910131  0.76361038  0.69083758  1
  Ba  Ba16  1  0.16979572  -0.05359175  0.54777941  1
  Ba  Ba17  1  0.76553073  0.02867814  0.71959930  1
  Ba  Ba18  1  0.75072263  0.68281355  0.10408738  1
  Ba  Ba19  1  0.23958318  -0.11937720  0.31893043  1
  Ba  Ba20  1  0.75716802  0.67803347  0.87550301  1
  Ba  Ba21  1  0.44357780  0.34154703  0.48469323  1
  Ba  Ba22  1  0.37390770  0.05896334  0.43960421  1
  Ba  Ba23  1  0.40974409  0.47196005  0.04909753  1
  Ba  Ba24  1  0.52842203  0.73695736  0.01934653  1
  Ba  Ba25  1  0.03403632  0.17190196  0.69344703  1
  Ba  Ba26  1  0.26187290  0.19404720  0.63522438  1
  Ba  Ba27  1  0.18514758  0.45321644  0.14566716  1
  Ba  Ba28  1  0.00788580  -0.02299867  0.84451661  1
  Ba  Ba29  1  0.27775844  0.64479020  0.29255172  1
  Ba  Ba30  1  0.78621728  0.43937175  0.56705562  1
  Ba  Ba31  1  0.55806035  0.91039619  0.42262075  1
  Ba  Ba32  1  0.73191304  0.26993815  -0.00275963  1
  Ba  Ba33  1  0.31132399  -0.08657034  0.06819208  1
  Ba  Ba34  1  0.21354513  0.32818720  0.39563603  1
  Ba  Ba35  1  0.13073338  0.19559917  0.14702281  1
  Ba  Ba36  1  -0.09407896  0.13980957  0.11814710  1
  Ba  Ba37  1  0.54529653  0.54778264  0.25872925  1
  Ba  Ba38  1  0.07041822  0.43191471  0.74689953  1
  Ba  Ba39  1  0.66513103  0.43849613  0.82501311  1
  Ba  Ba40  1  0.56233479  -0.02459731  0.15300017  1
  Ba  Ba41  1  0.01716109  0.68965197  0.78591204  1
  Ba  Ba42  1  0.30590282  0.51695746  0.77824861  1
  Ba  Ba43  1  0.77802712  0.37413370  0.20373800  1
  Ba  Ba44  1  0.26419331  -0.00615459  0.82632467  1
  Ba  Ba45  1  0.80880881  0.27343969  0.72585086  1
  Ba  Ba46  1  -0.11499773  0.17059351  0.47394698  1
  Ba  Ba47  1  0.67294622  0.29033686  0.40534240  1
  Ba  Ba48  1  0.80769826  0.67875306  0.61508383  1
  Ba  Ba49  1  -0.01752057  0.30015306  -0.08043359  1
  Ba  Ba50  1  0.76441050  0.79942190  0.36219063  1
  Fe  Fe51  1  0.48242580  1.05082115  0.60120127  1
  Fe  Fe52  1  0.10154352  0.71436886  0.00267389  1
  Fe  Fe53  1  0.41169528  0.75445756  0.20080490  1
  Fe  Fe54  1  0.07241614  0.20563469  0.51936910  1
  Fe  Fe55  1  0.93571368  0.53192887  0.92012766  1
  Fe  Fe56  1  0.46576554  0.18591505  0.61223293  1
  Fe  Fe57  1  0.61112658  0.51984095  1.00254620  1
  Fe  Fe58  1  0.20458196  0.74714661  0.47679742  1
  Fe  Fe59  1  0.83062961  0.57654625  0.43419604  1
  Fe  Fe60  1  0.69608290  0.62810464  0.44129219  1
  Fe  Fe61  1  0.69911209  0.15820016  0.57722480  1
  Fe  Fe62  1  0.84315690  0.84329619  1.04160525  1
  Fe  Fe63  1  0.15319420  0.11872763  0.45289541  1
  Fe  Fe64  1  0.88861422  -0.03121043  1.01069399  1
  Fe  Fe65  1  1.03941331  0.47136825  1.01894399  1
  Fe  Fe66  1  0.83163795  0.44902543  0.38098359  1
  Fe  Fe67  1  0.15457657  0.16878433  0.83960423  1
  Fe  Fe68  1  0.06912689  0.61709615  0.08883794  1
  Fe  Fe69  1  0.94083765  0.55513144  0.06257598  1
  Fe  Fe70  1  0.55930601  0.14915088  0.51566258  1
  Fe  Fe71  1  0.29514949  0.19864828  0.83340880  1
  Fe  Fe72  1  0.62160504  1.02511786  0.57636770  1
  Fe  Fe73  1  0.58128497  0.70016438  0.38372580  1
  Fe  Fe74  1  0.67683722  0.09523326  0.45140431  1
  Fe  Fe75  1  0.70631938  0.49067265  0.39158775  1
  Fe  Fe76  1  0.11333250  0.67894047  0.40094512  1
  Fe  Fe77  1  0.25671932  0.15735986  0.95659835  1
  Fe  Fe78  1  0.61764771  0.72154853  0.52136076  1
  Fe  Fe79  1  0.10759934  0.33337019  0.56990280  1
  Fe  Fe80  1  0.08718950  0.74915904  0.53972457  1
  Fe  Fe81  1  0.97854641  0.32349881  0.57335520  1
  Fe  Fe82  1  0.44577310  0.75064088  0.34511162  1
  Fe  Fe83  1  0.20242864  0.30134182  0.81982668  1
  Fe  Fe84  1  0.17563057  0.27242222  -0.04262144  1
  Fe  Fe85  1  0.48936427  0.70825280  0.48001040  1
  Fe  Fe86  1  0.66840907  0.50063048  0.11107875  1
  Fe  Fe87  1  0.02203790  0.31879392  0.44791254  1
  Fe  Fe88  1  0.76145853  -0.00685513  0.05528726  1
  Fe  Fe89  1  0.06505348  0.58392752  0.94443795  1
  Fe  Fe90  1  0.42535174  0.70110831  0.80833538  1
  Fe  Fe91  1  0.58630440  0.14308777  0.67177980  1
  Fe  Fe92  1  0.75537103  1.02117623  0.51928303  1
  Fe  Fe93  1  0.80213676  -0.08635346  -0.08155552  1
  Fe  Fe94  1  0.71093308  0.86668382  1.01539091  1
  Fe  Fe95  1  0.12269830  0.12525982  -0.04471381  1
  Fe  Fe96  1  0.42970730  0.86832689  0.26453341  1
  Fe  Fe97  1  0.08002190  0.81322901  0.41936500  1
  Fe  Fe98  1  0.74497284  0.88224201  0.15116660  1
  Fe  Fe99  1  0.86745009  0.93687004  0.14862864  1
  Fe  Fe100  1  0.07551313  0.18790926  0.37669002  1
  Fe  Fe101  1  0.30703719  0.31484032  -0.08351400  1
  Bi  Bi102  1  0.77831137  0.58308123  0.27720613  1
  Bi  Bi103  1  -0.05580528  0.70559352  0.43780655  1
  Bi  Bi104  1  0.55886309  0.53484859  0.47257420  1
  Bi  Bi105  1  0.43189583  0.10090414  0.75628200  1
  Bi  Bi106  1  0.70489160  -0.13456204  0.57130152  1
  Bi  Bi107  1  0.58289150  0.77629470  0.23237341  1
  Bi  Bi108  1  0.17822154  0.74892852  0.14609327  1
  Bi  Bi109  1  0.18556436  0.44811452  -0.06791298  1
  Bi  Bi110  1  0.30703568  0.27703924  0.07566091  1
  Bi  Bi111  1  -0.05978735  0.71119572  -0.00804488  1
  Bi  Bi112  1  0.83809472  0.09389793  -0.08329527  1
  Bi  Bi113  1  0.35781393  0.82092402  0.49324984  1
  Bi  Bi114  1  0.79140914  0.48451978  -0.00242571  1
  Bi  Bi115  1  0.42420400  0.85715832  0.88092225  1
  Bi  Bi116  1  0.57410403  0.36035602  0.10385750  1
  Bi  Bi117  1  0.25211892  0.41475102  0.59782968  1
  Bi  Bi118  1  0.61249351  0.31013171  0.61424540  1
  Bi  Bi119  1  0.87043309  0.51308470  0.75806962  1
  Bi  Bi120  1  0.97835651  0.36031392  0.12600330  1
  Bi  Bi121  1  0.62850811  0.20656143  0.82511409  1
  Bi  Bi122  1  0.85554385  0.83727016  0.77179572  1
  Bi  Bi123  1  0.35905255  0.44462027  0.29763865  1
  Bi  Bi124  1  0.55558435  1.11405690  0.33889033  1
  Bi  Bi125  1  0.49426865  0.56467221  0.87570218  1
  Bi  Bi126  1  0.15991674  0.82181184  0.89003075  1
  Bi  Bi127  1  0.21969221  0.10366100  0.30450523  1
