# generated using pymatgen
data_Ba51Fe51Bi26
_symmetry_space_group_name_H-M   'P 1'
_cell_length_a   16.26935880
_cell_length_b   16.34709200
_cell_length_c   16.62068377
_cell_angle_alpha   87.10876674
_cell_angle_beta   89.94428937
_cell_angle_gamma   88.22020693
_symmetry_Int_Tables_number   1
_chemical_formula_structural   Ba51Fe51Bi26
_chemical_formula_sum   'Ba51 Fe51 Bi26'
_cell_volume   4412.62496054
_cell_formula_units_Z   1
loop_
 _symmetry_equiv_pos_site_id
 _symmetry_equiv_pos_as_xyz
  1  'x, y, z'
loop_
 _atom_site_type_symbol
 _atom_site_label
 _atom_site_symmetry_multiplicity
 _atom_site_fract_x
 _atom_site_fract_y
 _atom_site_fract_z
 _atom_site_occupancy
  Ba  Ba0  1  -0.00808644  0.16254767  -0.01480084  1
  Ba  Ba1  1  0.78288577  0.18940760  0.57940410  1
  Ba  Ba2  1  0.51148568  0.60362301  -0.00960361  1
  Ba  Ba3  1  0.56187639  0.19369297  0.76667742  1
  Ba  Ba4  1  0.14467975  0.71013968  0.71033100  1
  Ba  Ba5  1  0.03390259  -0.01098526  0.82038653  1
  Ba  Ba6  1  0.24440437  0.27170296  0.38966683  1
  Ba  Ba7  1  -0.13755040  0.77525262  0.14562717  1
  Ba  Ba8  1  0.57487418  0.00578577  0.62116808  1
  Ba  Ba9  1  0.80815082  -0.04944728  0.48827718  1
  Ba  Ba10  1  0.69504784  0.77459168  -0.02418045  1
  Ba  Ba11  1  -0.01003976  0.52422944  0.71396135  1
  Ba  Ba12  1  0.10414612  0.00500104  0.40024324  1
  Ba  Ba13  1  -0.12523634  0.31925548  0.20047866  1
  Ba  Ba14  1  0.44077129  0.21706158  0.17225698  1
  Ba  Ba15  1  0.77642701  0.33405256  0.40718926  1
  Ba  Ba16  1  -0.09874254  0.80539355  0.78515777  1
  Ba  Ba17  1  0.82792606  0.23005442  0.80179155  1
  Ba  Ba18  1  0.04560533  0.51289693  0.34973055  1
  Ba  Ba19  1  0.62981102  0.75776634  0.75279167  1
  Ba  Ba20  1  0.23565992  0.83720414  -0.04764731  1
  Ba  Ba21  1  0.25967543  0.48871757  0.17820057  1
  Ba  Ba22  1  0.78728105  0.60390033  0.31299867  1
  Ba  Ba23  1  0.57818468  0.44872375  0.22012474  1
  Ba  Ba24  1  0.01063493  -0.06625780  0.05461672  1
  Ba  Ba25  1  0.35591627  0.55023382  0.40338647  1
  Ba  Ba26  1  0.54378117  0.22092417  0.42565022  1
  Ba  Ba27  1  0.67844568  -0.00871322  0.21872201  1
  Ba  Ba28  1  0.70504589  0.17865367  0.04503942  1
  Ba  Ba29  1  0.78710282  0.00781492  0.71989042  1
  Ba  Ba30  1  0.03577321  0.39906782  0.04085537  1
  Ba  Ba31  1  0.47860838  0.42836943  0.80664218  1
  Ba  Ba32  1  0.19758551  0.04475086  0.65952737  1
  Ba  Ba33  1  0.75459264  0.52012623  0.04372141  1
  Ba  Ba34  1  0.72914207  0.44893139  0.77109992  1
  Ba  Ba35  1  0.01909346  0.65793618  0.00106942  1
  Ba  Ba36  1  0.38593069  0.71109230  0.78143239  1
  Ba  Ba37  1  0.23560249  0.78352430  0.48507520  1
  Ba  Ba38  1  0.36602986  0.23480451  0.60786805  1
  Ba  Ba39  1  0.24264743  0.53289812  -0.08337125  1
  Ba  Ba40  1  0.39418111  -0.01483338  0.44011301  1
  Ba  Ba41  1  0.75920092  0.51909844  0.54532286  1
  Ba  Ba42  1  0.47622208  0.79604001  0.14937171  1
  Ba  Ba43  1  0.02513204  0.24491974  0.47367654  1
  Ba  Ba44  1  0.27467922  0.26688600  -0.04488473  1
  Ba  Ba45  1  0.25993361  -0.12009997  0.21496288  1
  Ba  Ba46  1  0.07443350  0.25823028  0.73699478  1
  Ba  Ba47  1  0.40518144  0.03793053  -0.00351999  1
  Ba  Ba48  1  -0.09755720  0.05623383  0.25148115  1
  Ba  Ba49  1  0.64672403  0.77241747  0.49239940  1
  Ba  Ba50  1  -0.04183509  0.76260854  0.50430228  1
  Fe  Fe51  1  0.54856874  0.87738212  0.32437394  1
  Fe  Fe52  1  0.99806116  0.73963179  0.29769842  1
  Fe  Fe53  1  0.39453888  0.02143288  0.68599836  1
  Fe  Fe54  1  0.48652483  0.38258173  0.61066889  1
  Fe  Fe55  1  0.70196321  0.05831275  0.89345960  1
  Fe  Fe56  1  0.94242454  0.94440742  0.63655993  1
  Fe  Fe57  1  -0.01557312  0.07414928  0.64794800  1
  Fe  Fe58  1  0.74344255  0.12483375  0.38401886  1
  Fe  Fe59  1  0.16880343  0.42840633  0.73883668  1
  Fe  Fe60  1  0.05453080  0.95132941  0.57847467  1
  Fe  Fe61  1  0.09565139  0.16133166  0.27940145  1
  Fe  Fe62  1  0.95894846  0.05376700  0.52235515  1
  Fe  Fe63  1  0.29314959  0.37593671  0.75162459  1
  Fe  Fe64  1  0.09873251  0.81734811  0.33409504  1
  Fe  Fe65  1  0.34607498  0.89837750  0.67795424  1
  Fe  Fe66  1  0.51783475  0.63820849  0.63582217  1
  Fe  Fe67  1  0.17212441  0.12921200  0.86465137  1
  Fe  Fe68  1  0.33368601  0.43780631  0.61615340  1
  Fe  Fe69  1  0.45798622  0.67522230  0.51090775  1
  Fe  Fe70  1  0.46499262  0.02103027  0.80935367  1
  Fe  Fe71  1  0.77402056  0.61288167  0.85990439  1
  Fe  Fe72  1  0.86985434  0.13015514  0.42163131  1
  Fe  Fe73  1  0.29719544  0.51062815  0.73554103  1
  Fe  Fe74  1  0.05620393  0.91512143  0.23764941  1
  Fe  Fe75  1  0.45294050  0.52066033  0.57492443  1
  Fe  Fe76  1  0.61744881  0.35505347  0.62158063  1
  Fe  Fe77  1  0.86270531  0.91235193  0.93384458  1
  Fe  Fe78  1  0.47840114  0.89898360  0.75159631  1
  Fe  Fe79  1  0.84412983  0.04327344  -0.10260494  1
  Fe  Fe80  1  0.02938200  0.19131012  0.16815224  1
  Fe  Fe81  1  0.16549254  0.70483511  0.12512863  1
  Fe  Fe82  1  0.10554824  0.05352148  0.18864975  1
  Fe  Fe83  1  0.20510514  0.44418558  0.51691454  1
  Fe  Fe84  1  0.78338946  0.98194327  0.01533250  1
  Fe  Fe85  1  0.87622386  0.49989543  0.89349592  1
  Fe  Fe86  1  0.57099856  0.58653498  0.51371116  1
  Fe  Fe87  1  0.63402837  0.78089210  0.28529212  1
  Fe  Fe88  1  0.58071779  0.49520169  0.63608108  1
  Fe  Fe89  1  0.57579212  0.38974015  0.00723026  1
  Fe  Fe90  1  0.23405628  1.01587647  0.86820373  1
  Fe  Fe91  1  0.21133342  0.35108687  0.62997269  1
  Fe  Fe92  1  0.34247298  0.93940031  0.81032535  1
  Fe  Fe93  1  0.59249325  -0.03950975  0.83983468  1
  Fe  Fe94  1  0.16540071  0.18428408  0.14512233  1
  Fe  Fe95  1  0.65999095  0.33743359  0.92568547  1
  Fe  Fe96  1  0.95759994  0.86899773  0.31628039  1
  Fe  Fe97  1  1.08897331  0.42270037  0.58459882  1
  Fe  Fe98  1  0.07443644  0.78310725  0.18694806  1
  Fe  Fe99  1  0.73222664  0.92932418  0.87933863  1
  Fe  Fe100  1  0.90294213  0.62225152  0.85078826  1
  Fe  Fe101  1  0.19900836  0.51405021  0.63843955  1
  Bi  Bi102  1  0.18163174  0.67382669  0.29142396  1
  Bi  Bi103  1  0.18482107  0.05458544  0.02285390  1
  Bi  Bi104  1  0.46804400  0.81741416  0.60096962  1
  Bi  Bi105  1  0.47428666  -0.15764769  0.91243652  1
  Bi  Bi106  1  0.56772900  0.63450173  0.35445483  1
  Bi  Bi107  1  0.32458201  0.62339555  0.60890115  1
  Bi  Bi108  1  0.10261003  0.59678078  0.52855060  1
  Bi  Bi109  1  0.61408876  -0.02533255  0.01347997  1
  Bi  Bi110  1  0.79940097  0.81645188  0.33655789  1
  Bi  Bi111  1  0.51243051  0.24435465  -0.04009578  1
  Bi  Bi112  1  0.09262644  0.33005701  0.24519476  1
  Bi  Bi113  1  0.61303468  0.00897015  0.41735554  1
  Bi  Bi114  1  0.57819650  0.42524473  0.46789787  1
  Bi  Bi115  1  0.40779674  0.42144645  0.03046577  1
  Bi  Bi116  1  0.80806770  0.65007443  0.69447807  1
  Bi  Bi117  1  0.83627283  0.34169220  -0.03007684  1
  Bi  Bi118  1  0.91087886  0.36024560  0.61190913  1
  Bi  Bi119  1  0.93106901  0.54421019  0.16477449  1
  Bi  Bi120  1  0.41994703  0.77707204  0.37083327  1
  Bi  Bi121  1  0.33293378  0.13939658  0.79742790  1
  Bi  Bi122  1  0.40887557  0.36665682  0.31133960  1
  Bi  Bi123  1  0.68053998  0.22510353  0.25345181  1
  Bi  Bi124  1  0.31543874  0.67113166  0.06062679  1
  Bi  Bi125  1  0.65096358  0.66823802  0.15560631  1
  Bi  Bi126  1  0.45757333  0.99466900  0.22754407  1
  Bi  Bi127  1  0.25781417  0.09642453  0.27001304  1
