# generated using pymatgen
data_Ba51Fe51Bi26
_symmetry_space_group_name_H-M   'P 1'
_cell_length_a   15.68691297
_cell_length_b   16.76069538
_cell_length_c   16.74313510
_cell_angle_alpha   92.70141254
_cell_angle_beta   93.25463882
_cell_angle_gamma   88.05047733
_symmetry_Int_Tables_number   1
_chemical_formula_structural   Ba51Fe51Bi26
_chemical_formula_sum   'Ba51 Fe51 Bi26'
_cell_volume   4388.01154359
_cell_formula_units_Z   1
loop_
 _symmetry_equiv_pos_site_id
 _symmetry_equiv_pos_as_xyz
  1  'x, y, z'
loop_
 _atom_site_type_symbol
 _atom_site_label
 _atom_site_symmetry_multiplicity
 _atom_site_fract_x
 _atom_site_fract_y
 _atom_site_fract_z
 _atom_site_occupancy
  Ba  Ba0  1  0.10014973  0.05522797  -0.11123460  1
  Ba  Ba1  1  0.54599225  0.05756848  0.23713353  1
  Ba  Ba2  1  0.17956010  -0.10042651  0.23840764  1
  Ba  Ba3  1  0.11807665  0.69132886  0.64602767  1
  Ba  Ba4  1  0.20523184  0.68323704  -0.07928958  1
  Ba  Ba5  1  0.77816372  0.76958021  0.72966937  1
  Ba  Ba6  1  0.82102177  0.17947790  0.56787817  1
  Ba  Ba7  1  0.23333037  0.21182605  -0.00514148  1
  Ba  Ba8  1  0.59689677  -0.04012551  0.75717141  1
  Ba  Ba9  1  0.76134593  0.84361232  -0.00763977  1
  Ba  Ba10  1  0.46192442  0.29272577  0.02504804  1
  Ba  Ba11  1  -0.07691516  0.56001334  -0.05701162  1
  Ba  Ba12  1  0.71069960  0.82778700  0.41543692  1
  Ba  Ba13  1  0.32492941  0.58889039  0.32472318  1
  Ba  Ba14  1  0.23116954  0.19510639  0.71767014  1
  Ba  Ba15  1  -0.11747585  -0.14361532  0.22495753  1
  Ba  Ba16  1  0.27798782  0.51247603  0.06701514  1
  Ba  Ba17  1  0.94717125  0.41800917  0.43051706  1
  Ba  Ba18  1  0.33318871  0.21176277  0.50228629  1
  Ba  Ba19  1  0.69967620  0.66468075  0.26157117  1
  Ba  Ba20  1  0.20283902  -0.06303278  0.68394654  1
  Ba  Ba21  1  0.64364732  0.08621908  -0.00508308  1
  Ba  Ba22  1  0.02101045  0.32532260  0.11902179  1
  Ba  Ba23  1  0.47423503  0.51014113  0.84318868  1
  Ba  Ba24  1  0.20519857  0.43345849  0.60160209  1
  Ba  Ba25  1  0.49975344  0.19513139  0.78290514  1
  Ba  Ba26  1  0.49964208  0.29575927  0.28529468  1
  Ba  Ba27  1  0.50432247  0.87014734  0.00780392  1
  Ba  Ba28  1  0.37868644  0.77389514  0.77258261  1
  Ba  Ba29  1  0.77974243  0.42919589  0.21857680  1
  Ba  Ba30  1  0.64769613  0.63255332  0.02120232  1
  Ba  Ba31  1  0.72278254  0.34862409  0.75745509  1
  Ba  Ba32  1  -0.02689495  -0.02085496  0.54152717  1
  Ba  Ba33  1  0.71781997  0.39090968  -0.01262421  1
  Ba  Ba34  1  0.33968404  -0.04228262  0.43053760  1
  Ba  Ba35  1  0.42107819  0.77737246  0.20738170  1
  Ba  Ba36  1  -0.04068035  0.35094698  0.68310149  1
  Ba  Ba37  1  0.87049868  0.15690223  -0.02380438  1
  Ba  Ba38  1  0.01062887  0.60253280  0.25948052  1
  Ba  Ba39  1  0.55972582  0.05110561  0.52138738  1
  Ba  Ba40  1  0.19651244  0.36946853  0.33797592  1
  Ba  Ba41  1  0.06367308  0.15937949  0.36345291  1
  Ba  Ba42  1  0.10676606  0.76763617  0.42441140  1
  Ba  Ba43  1  0.02461212  0.79305789  0.02840633  1
  Ba  Ba44  1  0.04229994  0.07483951  0.13547512  1
  Ba  Ba45  1  0.12931131  0.44042199  0.84031783  1
  Ba  Ba46  1  0.64430554  0.57747373  0.64177559  1
  Ba  Ba47  1  0.77918754  0.02583104  0.35150870  1
  Ba  Ba48  1  0.62015545  0.49353351  0.40317486  1
  Ba  Ba49  1  0.55854626  0.32080451  0.55164145  1
  Ba  Ba50  1  0.38969923  0.58251709  0.57149211  1
  Fe  Fe51  1  0.77435218  0.31643094  0.38995456  1
  Fe  Fe52  1  0.88256925  0.13527831  0.24864223  1
  Fe  Fe53  1  0.85225541  0.20210871  0.76722477  1
  Fe  Fe54  1  0.44255379  0.45342552  0.18570273  1
  Fe  Fe55  1  0.27899396  -0.01287391  0.97853078  1
  Fe  Fe56  1  0.31039058  0.85291702  0.97079515  1
  Fe  Fe57  1  0.73852901  0.14425111  0.82417646  1
  Fe  Fe58  1  0.90247794  0.64729323  0.63766676  1
  Fe  Fe59  1  0.76465346  0.07909528  0.71319464  1
  Fe  Fe60  1  0.50515853  0.50378825  1.06124856  1
  Fe  Fe61  1  0.34715553  0.02898912  0.21714484  1
  Fe  Fe62  1  0.17213813  0.94411097  0.04500061  1
  Fe  Fe63  1  0.32418639  0.15982592  0.30383056  1
  Fe  Fe64  1  0.90410411  0.07671673  0.79789078  1
  Fe  Fe65  1  0.23210452  0.82235628  0.06578633  1
  Fe  Fe66  1  0.84377112  1.05482412  0.13122754  1
  Fe  Fe67  1  0.18012528  -0.12256608  0.91868709  1
  Fe  Fe68  1  0.73270570  0.98407580  0.14124590  1
  Fe  Fe69  1  -0.03219102  0.84096688  0.71141950  1
  Fe  Fe70  1  0.45976032  0.58472534  0.16082640  1
  Fe  Fe71  1  0.24470879  0.06355877  0.11224307  1
  Fe  Fe72  1  0.34617637  0.16471591  0.17410232  1
  Fe  Fe73  1  0.78642278  0.67190063  0.52101934  1
  Fe  Fe74  1  0.85132795  -0.04829335  0.72714974  1
  Fe  Fe75  1  0.77795904  1.01572346  0.84306162  1
  Fe  Fe76  1  0.06728622  0.85699203  0.81494711  1
  Fe  Fe77  1  0.45588934  0.87887926  0.61018858  1
  Fe  Fe78  1  0.56325881  0.77635206  0.67235198  1
  Fe  Fe79  1  0.22171788  0.08259564  0.25905430  1
  Fe  Fe80  1  0.83549634  0.54076142  0.55140395  1
  Fe  Fe81  1  0.73129428  0.11757799  0.18368379  1
  Fe  Fe82  1  -0.04892918  0.61963427  0.49541780  1
  Fe  Fe83  1  0.51745562  0.83801580  0.48449093  1
  Fe  Fe84  1  0.85357407  0.20460933  0.37976172  1
  Fe  Fe85  1  0.81950822  0.58365077  0.40960077  1
  Fe  Fe86  1  -0.01775083  0.56082218  0.73277370  1
  Fe  Fe87  1  0.61124507  0.86263002  0.58793402  1
  Fe  Fe88  1  0.74551397  0.23052483  0.27452976  1
  Fe  Fe89  1  0.20736783  0.19671471  0.19806372  1
  Fe  Fe90  1  0.32575449  0.93227945  0.10376938  1
  Fe  Fe91  1  0.48120514  0.74401477  0.56354954  1
  Fe  Fe92  1  0.57507096  0.41173890  0.13805038  1
  Fe  Fe93  1  -0.15056211  0.52749727  0.69666193  1
  Fe  Fe94  1  -0.01420094  0.52735659  0.60393211  1
  Fe  Fe95  1  0.83396685  0.21661352  0.15487831  1
  Fe  Fe96  1  0.89340922  0.27919147  0.28313713  1
  Fe  Fe97  1  0.99883120  0.96898186  0.74085830  1
  Fe  Fe98  1  0.62968454  0.73029686  0.54201747  1
  Fe  Fe99  1  -0.12634867  0.69784649  0.40300952  1
  Fe  Fe100  1  -0.01975900  0.21126693  0.82473146  1
  Fe  Fe101  1  0.58199615  0.52452237  0.20240177  1
  Bi  Bi102  1  -0.08066371  0.78254188  0.54863969  1
  Bi  Bi103  1  0.75190202  -0.03414441  0.58411595  1
  Bi  Bi104  1  0.01971558  0.12802149  0.68848731  1
  Bi  Bi105  1  0.19088999  0.69793680  0.16772108  1
  Bi  Bi106  1  0.52170523  0.68813644  0.40450518  1
  Bi  Bi107  1  0.30195603  0.33221004  0.16611439  1
  Bi  Bi108  1  -0.01111411  0.70821585  0.81561174  1
  Bi  Bi109  1  0.65481875  0.25865363  0.12981184  1
  Bi  Bi110  1  0.42429929  0.65679600  0.01462179  1
  Bi  Bi111  1  0.11968128  0.55979586  0.45199239  1
  Bi  Bi112  1  -0.07373858  0.34840084  0.90254885  1
  Bi  Bi113  1  0.41945331  0.07306649  0.05045449  1
  Bi  Bi114  1  0.76641492  0.39253165  0.55278400  1
  Bi  Bi115  1  0.32715314  0.34149208  0.86225800  1
  Bi  Bi116  1  0.65712339  0.19365921  0.40688192  1
  Bi  Bi117  1  0.85756293  0.67190806  0.11454679  1
  Bi  Bi118  1  0.17513853  0.06909716  0.52405778  1
  Bi  Bi119  1  0.64501438  0.85837318  0.19137507  1
  Bi  Bi120  1  0.92400246  0.93319280  0.89150233  1
  Bi  Bi121  1  0.39260842  0.41487395  0.43660228  1
  Bi  Bi122  1  0.30683897  0.78858036  0.55092518  1
  Bi  Bi123  1  0.39612372  0.34900587  0.68301995  1
  Bi  Bi124  1  0.27755603  0.57757912  0.75232580  1
  Bi  Bi125  1  0.39637540  0.04011594  0.65039537  1
  Bi  Bi126  1  0.73205170  0.54579957  0.83096342  1
  Bi  Bi127  1  0.59415624  0.75129461  0.83845346  1
