# generated using pymatgen
data_Ba51Fe51Bi26
_symmetry_space_group_name_H-M   'P 1'
_cell_length_a   15.94090119
_cell_length_b   17.00349915
_cell_length_c   15.95913065
_cell_angle_alpha   92.79841703
_cell_angle_beta   92.10941552
_cell_angle_gamma   92.92765837
_symmetry_Int_Tables_number   1
_chemical_formula_structural   Ba51Fe51Bi26
_chemical_formula_sum   'Ba51 Fe51 Bi26'
_cell_volume   4311.59181619
_cell_formula_units_Z   1
loop_
 _symmetry_equiv_pos_site_id
 _symmetry_equiv_pos_as_xyz
  1  'x, y, z'
loop_
 _atom_site_type_symbol
 _atom_site_label
 _atom_site_symmetry_multiplicity
 _atom_site_fract_x
 _atom_site_fract_y
 _atom_site_fract_z
 _atom_site_occupancy
  Ba  Ba0  1  0.45981848  -0.01427279  0.55893088  1
  Ba  Ba1  1  0.75437989  -0.01610305  0.65578658  1
  Ba  Ba2  1  -0.02032138  0.68510526  0.24499048  1
  Ba  Ba3  1  0.69618848  0.16006666  0.51045967  1
  Ba  Ba4  1  0.53905512  0.33873489  0.64002035  1
  Ba  Ba5  1  0.70256309  0.55791559  0.02978509  1
  Ba  Ba6  1  0.75028500  -0.05466831  -0.08367112  1
  Ba  Ba7  1  0.52736537  0.25282884  -0.12765696  1
  Ba  Ba8  1  0.21665447  0.11294070  0.27051454  1
  Ba  Ba9  1  0.24781163  0.75047769  0.81920335  1
  Ba  Ba10  1  0.00997342  0.72009362  0.73555946  1
  Ba  Ba11  1  -0.00307571  -0.04007854  0.27678830  1
  Ba  Ba12  1  0.25575673  0.51543968  0.50485773  1
  Ba  Ba13  1  0.47529968  0.78661913  0.72490458  1
  Ba  Ba14  1  0.16061448  0.44484095  0.02939805  1
  Ba  Ba15  1  0.78301754  0.02418647  0.16926495  1
  Ba  Ba16  1  0.23616362  0.73737251  0.55377069  1
  Ba  Ba17  1  0.26420640  0.37989968  0.25876843  1
  Ba  Ba18  1  0.63483162  0.50655987  0.79759264  1
  Ba  Ba19  1  0.01567138  -0.01849083  -0.04604840  1
  Ba  Ba20  1  0.45848277  0.73767021  0.15910252  1
  Ba  Ba21  1  0.07553408  0.41071001  0.74529188  1
  Ba  Ba22  1  0.24525164  0.17772175  0.03192780  1
  Ba  Ba23  1  -0.07568742  0.31183634  0.01099408  1
  Ba  Ba24  1  0.47054212  0.54353880  0.00044420  1
  Ba  Ba25  1  0.74115193  -0.06991703  0.41336114  1
  Ba  Ba26  1  0.76537139  0.52517870  0.26244404  1
  Ba  Ba27  1  0.06249642  -0.06286855  0.70248015  1
  Ba  Ba28  1  0.73503995  0.71620380  0.71670535  1
  Ba  Ba29  1  0.76223222  0.29304747  0.75524287  1
  Ba  Ba30  1  0.21983699  0.10839531  0.77558530  1
  Ba  Ba31  1  -0.06574034  0.63185711  0.00141182  1
  Ba  Ba32  1  0.53361756  -0.08328644  0.01724516  1
  Ba  Ba33  1  -0.05771483  0.13980209  0.76478087  1
  Ba  Ba34  1  0.31388400  0.33585941  0.83338615  1
  Ba  Ba35  1  0.67774914  0.19274167  0.04976780  1
  Ba  Ba36  1  -0.05042591  0.50135756  0.41771923  1
  Ba  Ba37  1  0.70953642  0.28411237  0.30612625  1
  Ba  Ba38  1  0.24902869  0.27675849  0.55761153  1
  Ba  Ba39  1  0.23694464  0.87661092  0.21014507  1
  Ba  Ba40  1  0.18218155  -0.01104521  0.50002407  1
  Ba  Ba41  1  0.45993974  0.02176686  0.81360406  1
  Ba  Ba42  1  0.86783675  0.50750361  0.66629620  1
  Ba  Ba43  1  0.45996798  0.18379121  0.44672898  1
  Ba  Ba44  1  0.53911451  0.58736810  0.52526781  1
  Ba  Ba45  1  0.47018428  0.79728193  0.39085817  1
  Ba  Ba46  1  0.46559644  0.22711429  0.21332816  1
  Ba  Ba47  1  -0.01535322  0.27156735  0.25647739  1
  Ba  Ba48  1  0.20917595  0.69115613  0.04320632  1
  Ba  Ba49  1  0.50022331  0.47699012  0.26921271  1
  Ba  Ba50  1  -0.06232623  0.27823286  0.52012190  1
  Fe  Fe51  1  0.43569005  0.93018807  0.22275699  1
  Fe  Fe52  1  0.66890345  0.72428464  0.44531481  1
  Fe  Fe53  1  0.13353156  0.63054849  0.37368243  1
  Fe  Fe54  1  0.82308273  0.13414967  0.92102619  1
  Fe  Fe55  1  0.22329495  0.98843457  0.04863556  1
  Fe  Fe56  1  0.28345664  0.46616230  0.70015031  1
  Fe  Fe57  1  0.85343691  0.82131739  0.06172830  1
  Fe  Fe58  1  0.89923114  0.82730281  0.60606192  1
  Fe  Fe59  1  0.61190148  0.73337936  0.02541331  1
  Fe  Fe60  1  0.51294643  -0.01068093  0.34791666  1
  Fe  Fe61  1  0.41304726  0.05132067  0.27537113  1
  Fe  Fe62  1  0.91656499  0.68771522  0.54871831  1
  Fe  Fe63  1  0.33597113  0.00960939  0.97118853  1
  Fe  Fe64  1  0.20473998  0.57475239  0.71639330  1
  Fe  Fe65  1  0.78527636  0.76647892  0.52402341  1
  Fe  Fe66  1  0.89774979  0.09126391  0.53703957  1
  Fe  Fe67  1  0.47403113  0.62188169  0.81010007  1
  Fe  Fe68  1  0.88916012  0.11969745  0.03332469  1
  Fe  Fe69  1  0.74003442  0.43602568  0.44494112  1
  Fe  Fe70  1  1.03447873  0.68485466  0.46609315  1
  Fe  Fe71  1  0.70402228  0.83833244  0.09512939  1
  Fe  Fe72  1  0.71450674  0.38131324  0.09581003  1
  Fe  Fe73  1  0.52152208  0.03900273  0.17742129  1
  Fe  Fe74  1  0.78228788  0.71656437  0.37005828  1
  Fe  Fe75  1  0.02911099  0.80387066  0.53421799  1
  Fe  Fe76  1  0.14973437  0.57721519  0.21395107  1
  Fe  Fe77  1  0.35937364  0.59678805  0.70240613  1
  Fe  Fe78  1  0.22650381  0.69029247  0.27557118  1
  Fe  Fe79  1  0.57964689  0.08829383  0.29845614  1
  Fe  Fe80  1  0.12555241  0.49916577  0.31864533  1
  Fe  Fe81  1  0.32512711  0.88312498  1.01781264  1
  Fe  Fe82  1  0.73173395  0.34824966  0.54155091  1
  Fe  Fe83  1  0.24012182  -0.06004429  0.89180174  1
  Fe  Fe84  1  0.26329948  0.57933039  0.32385874  1
  Fe  Fe85  1  0.91066909  0.77846841  0.43662214  1
  Fe  Fe86  1  0.58564800  0.36244504  0.13135643  1
  Fe  Fe87  1  0.02883902  0.09769908  0.58146299  1
  Fe  Fe88  1  0.68287759  0.46278734  0.57990998  1
  Fe  Fe89  1  0.43093761  0.48876228  0.76876457  1
  Fe  Fe90  1  0.87857464  0.87114309  0.73732612  1
  Fe  Fe91  1  0.40327739  0.46989891  0.63384409  1
  Fe  Fe92  1  0.58620216  0.39197964  1.00087333  1
  Fe  Fe93  1  0.01413398  0.10421780  0.44617433  1
  Fe  Fe94  1  0.59271002  0.69067598  0.88969480  1
  Fe  Fe95  1  0.75978078  0.72359954  0.10541932  1
  Fe  Fe96  1  0.73361272  0.74978541  0.96106007  1
  Fe  Fe97  1  0.57576957  0.14085942  0.67483126  1
  Fe  Fe98  1  0.60796720  0.38897267  0.45516162  1
  Fe  Fe99  1  0.36705827  1.00570479  0.12182248  1
  Fe  Fe100  1  0.71110249  0.36968055  0.95556478  1
  Fe  Fe101  1  0.17937185  0.87109484  0.99060374  1
  Bi  Bi102  1  0.07081736  0.58137709  0.59302897  1
  Bi  Bi103  1  0.29679200  0.54181047  0.86484599  1
  Bi  Bi104  1  0.43652969  0.74189740  -0.06154476  1
  Bi  Bi105  1  0.61458042  0.82648177  0.56763748  1
  Bi  Bi106  1  0.60490615  -0.09594506  0.23294390  1
  Bi  Bi107  1  0.76400495  0.59731766  0.49851547  1
  Bi  Bi108  1  -0.04422378  -0.05333202  0.50129176  1
  Bi  Bi109  1  0.88589162  0.79936077  -0.11376134  1
  Bi  Bi110  1  0.32061587  0.56280482  0.16488976  1
  Bi  Bi111  1  0.82147912  0.82144549  0.23995495  1
  Bi  Bi112  1  0.46743760  0.11212887  0.02573177  1
  Bi  Bi113  1  0.03963230  0.82252597  0.08587522  1
  Bi  Bi114  1  -0.00175321  0.47600197  0.18502769  1
  Bi  Bi115  1  0.61306907  0.66003887  0.29603720  1
  Bi  Bi116  1  0.10223608  0.25863269  0.88662584  1
  Bi  Bi117  1  0.03676470  0.11457612  0.12907225  1
  Bi  Bi118  1  0.42622764  0.39250552  0.45918021  1
  Bi  Bi119  1  0.85552154  0.13000981  0.36406020  1
  Bi  Bi120  1  0.40630234  0.17290030  0.67064307  1
  Bi  Bi121  1  0.67719686  0.11227319  0.81380906  1
  Bi  Bi122  1  0.28814910  0.91809664  0.69649216  1
  Bi  Bi123  1  0.09613390  0.58563316  0.86408373  1
  Bi  Bi124  1  0.84042709  0.45884031  0.88170871  1
  Bi  Bi125  1  0.41605343  0.35026416  0.05127372  1
  Bi  Bi126  1  0.11459095  0.36255977  0.41539527  1
  Bi  Bi127  1  0.12308030  0.80330830  0.38000070  1
