# generated using pymatgen
data_Ba51Fe51Bi26
_symmetry_space_group_name_H-M   'P 1'
_cell_length_a   16.11641871
_cell_length_b   16.37428047
_cell_length_c   16.43610074
_cell_angle_alpha   91.05929268
_cell_angle_beta   88.01816191
_cell_angle_gamma   89.77901768
_symmetry_Int_Tables_number   1
_chemical_formula_structural   Ba51Fe51Bi26
_chemical_formula_sum   'Ba51 Fe51 Bi26'
_cell_volume   4334.02170375
_cell_formula_units_Z   1
loop_
 _symmetry_equiv_pos_site_id
 _symmetry_equiv_pos_as_xyz
  1  'x, y, z'
loop_
 _atom_site_type_symbol
 _atom_site_label
 _atom_site_symmetry_multiplicity
 _atom_site_fract_x
 _atom_site_fract_y
 _atom_site_fract_z
 _atom_site_occupancy
  Ba  Ba0  1  0.78586364  0.36178159  0.60344176  1
  Ba  Ba1  1  0.83116755  0.54639494  -0.00570898  1
  Ba  Ba2  1  0.50322753  0.32804303  0.49968068  1
  Ba  Ba3  1  0.76593003  0.05313193  0.36115409  1
  Ba  Ba4  1  -0.06525872  -0.11518616  -0.08740045  1
  Ba  Ba5  1  0.34818280  0.84867864  0.83011110  1
  Ba  Ba6  1  0.23351420  0.39289907  0.27898625  1
  Ba  Ba7  1  0.71770178  0.20813535  0.14302660  1
  Ba  Ba8  1  -0.07376992  0.21849836  -0.07309330  1
  Ba  Ba9  1  0.82743733  0.81269020  0.40106049  1
  Ba  Ba10  1  0.78457146  0.06030030  0.58890888  1
  Ba  Ba11  1  0.50613291  0.76184131  0.55169549  1
  Ba  Ba12  1  0.47549942  0.08352823  0.19544428  1
  Ba  Ba13  1  -0.03617751  -0.00319332  0.19030198  1
  Ba  Ba14  1  0.70595634  0.48436220  0.22312505  1
  Ba  Ba15  1  0.72909334  0.20814476  -0.21571185  1
  Ba  Ba16  1  0.32173379  0.13149629  0.01662994  1
  Ba  Ba17  1  0.36249663  0.43623697  0.07144410  1
  Ba  Ba18  1  0.56814238  0.86845395  0.28475071  1
  Ba  Ba19  1  0.14666726  0.15597256  0.69630211  1
  Ba  Ba20  1  0.12930439  -0.07400876  0.71575252  1
  Ba  Ba21  1  0.67130989  0.37305406  -0.03014936  1
  Ba  Ba22  1  0.17435644  -0.05761405  0.01860051  1
  Ba  Ba23  1  0.54790184  -0.01538168  0.70960944  1
  Ba  Ba24  1  -0.00560508  0.45625220  0.24609050  1
  Ba  Ba25  1  0.27505094  -0.02063625  0.30902913  1
  Ba  Ba26  1  -0.13077887  0.26719422  0.32799368  1
  Ba  Ba27  1  0.24620170  0.44738687  0.56517153  1
  Ba  Ba28  1  0.59147696  0.04962407  -0.04231874  1
  Ba  Ba29  1  0.69306838  0.56842302  0.76685352  1
  Ba  Ba30  1  0.75815294  0.79796579  0.66178926  1
  Ba  Ba31  1  0.47824514  0.53435460  0.86425861  1
  Ba  Ba32  1  0.26450480  0.22011738  0.43243606  1
  Ba  Ba33  1  0.11234239  0.29917761  0.06426893  1
  Ba  Ba34  1  0.26362682  0.69971030  0.03868503  1
  Ba  Ba35  1  0.20996528  0.64469772  0.29592570  1
  Ba  Ba36  1  0.02306021  0.40551259  0.66831568  1
  Ba  Ba37  1  0.47230735  0.62064370  0.20528660  1
  Ba  Ba38  1  0.50585752  0.75070094  0.00922726  1
  Ba  Ba39  1  0.25422094  0.46012225  0.87132576  1
  Ba  Ba40  1  0.04541302  0.55750113  -0.11287835  1
  Ba  Ba41  1  0.47616963  0.05112970  0.48064481  1
  Ba  Ba42  1  0.14563908  0.82313507  0.44625149  1
  Ba  Ba43  1  0.64791970  0.53620490  0.52505861  1
  Ba  Ba44  1  0.71042277  0.81026768  -0.07437805  1
  Ba  Ba45  1  0.76214473  0.71701713  0.19001412  1
  Ba  Ba46  1  -0.02691529  0.59506021  0.48333108  1
  Ba  Ba47  1  0.42759086  0.54985743  0.41810834  1
  Ba  Ba48  1  0.37262037  0.29554083  0.70513306  1
  Ba  Ba49  1  0.05148869  0.70013038  0.69092028  1
  Ba  Ba50  1  0.01160844  0.70780425  0.12055835  1
  Fe  Fe51  1  0.80802661  0.89258772  0.10218402  1
  Fe  Fe52  1  0.45287609  0.48947679  0.62775324  1
  Fe  Fe53  1  0.08312278  0.24667398  0.53774243  1
  Fe  Fe54  1  0.25523689  0.64740535  0.81009490  1
  Fe  Fe55  1  0.98735118  0.10879247  0.35612498  1
  Fe  Fe56  1  0.06594415  0.99568591  0.37678800  1
  Fe  Fe57  1  0.16746053  0.17723971  0.90157060  1
  Fe  Fe58  1  0.56798877  0.36833561  0.30995470  1
  Fe  Fe59  1  0.88032733  0.60377474  0.30691450  1
  Fe  Fe60  1  0.56280162  0.51385286  0.06244046  1
  Fe  Fe61  1  0.06808957  0.21072131  0.25448871  1
  Fe  Fe62  1  0.12986508  0.11375604  0.31249331  1
  Fe  Fe63  1  0.52580647  0.31604679  0.85430828  1
  Fe  Fe64  1  0.69061184  0.23724482  0.47610527  1
  Fe  Fe65  1  0.23403859  0.61058591  0.68082085  1
  Fe  Fe66  1  0.05735187  0.23390942  0.39531001  1
  Fe  Fe67  1  0.33847122  0.82788511  0.17978549  1
  Fe  Fe68  1  0.43378033  0.19444684  0.86578956  1
  Fe  Fe69  1  0.49142743  0.60510320  0.67563155  1
  Fe  Fe70  1  0.36037896  -0.09159440  0.60296342  1
  Fe  Fe71  1  0.43599757  0.27876382  0.31294266  1
  Fe  Fe72  1  0.40024053  0.28645722  0.18121810  1
  Fe  Fe73  1  0.68390093  0.34223436  0.39891142  1
  Fe  Fe74  1  0.93101963  0.06464742  0.76204013  1
  Fe  Fe75  1  0.35090516  0.53267957  0.71881416  1
  Fe  Fe76  1  0.27556000  0.25332566  0.87499718  1
  Fe  Fe77  1  0.53477109  0.21049697  0.77245733  1
  Fe  Fe78  1  0.63837256  0.58205003  0.96232114  1
  Fe  Fe79  1  0.90107539  0.53898314  0.74861713  1
  Fe  Fe80  1  0.37671467  0.67166597  0.73755956  1
  Fe  Fe81  1  0.22317856  0.63870652  0.53477944  1
  Fe  Fe82  1  0.86147999  0.61145309  0.65502260  1
  Fe  Fe83  1  0.63740870  0.62487066  0.08271518  1
  Fe  Fe84  1  0.77899123  0.62341603  0.38481355  1
  Fe  Fe85  1  0.43985776  0.40594888  0.26724692  1
  Fe  Fe86  1  -0.02646087  0.13800524  0.50480489  1
  Fe  Fe87  1  0.07778607  0.99201492  0.53023955  1
  Fe  Fe88  1  0.39955746  0.31977280  0.91274759  1
  Fe  Fe89  1  0.10769339  0.10897128  0.46284477  1
  Fe  Fe90  1  0.95464002  0.99991089  0.46073247  1
  Fe  Fe91  1  0.34037814  0.86383568  0.48407005  1
  Fe  Fe92  1  0.54060342  0.27336084  0.20577698  1
  Fe  Fe93  1  0.32099218  0.71782442  0.48702392  1
  Fe  Fe94  1  0.97496728  1.03461346  0.61784828  1
  Fe  Fe95  1  0.67003903  0.90132546  0.10320399  1
  Fe  Fe96  1  0.71286768  0.01088796  0.16541490  1
  Fe  Fe97  1  0.53080884  0.39739436  0.15584114  1
  Fe  Fe98  1  0.91357590  0.94118877  0.71550837  1
  Fe  Fe99  1  0.36319913  0.61651188  0.59364403  1
  Fe  Fe100  1  0.76365825  0.90703269  0.22800413  1
  Fe  Fe101  1  0.96000839  0.28272249  0.50836363  1
  Bi  Bi102  1  0.80493354  0.03844296  0.02271476  1
  Bi  Bi103  1  0.59940340  0.19181401  0.34181559  1
  Bi  Bi104  1  -0.13205490  0.69004512  0.81918605  1
  Bi  Bi105  1  0.25268843  0.18891773  0.21411389  1
  Bi  Bi106  1  0.57416193  0.39205712  0.70853458  1
  Bi  Bi107  1  -0.04339308  -0.14002509  0.56828554  1
  Bi  Bi108  1  0.26641304  0.77438987  0.63861454  1
  Bi  Bi109  1  0.05897034  0.05411032  0.87779260  1
  Bi  Bi110  1  0.75773408  -0.01794672  0.79191558  1
  Bi  Bi111  1  0.10827391  0.32009724  0.84487426  1
  Bi  Bi112  1  0.25103650  0.01567258  0.53256241  1
  Bi  Bi113  1  0.50337677  0.24972793  0.03761836  1
  Bi  Bi114  1  0.07682099  0.39774860  0.44443255  1
  Bi  Bi115  1  0.87036743  0.35786500  0.10387936  1
  Bi  Bi116  1  0.61911193  0.66733386  0.35888526  1
  Bi  Bi117  1  0.39520343  0.92840918  1.05489774  1
  Bi  Bi118  1  0.93359927  0.20661774  0.66339670  1
  Bi  Bi119  1  0.53974290  0.74413904  0.77794824  1
  Bi  Bi120  1  0.13777545  0.76309095  0.88490432  1
  Bi  Bi121  1  0.84099811  0.40317679  0.82264994  1
  Bi  Bi122  1  0.37519532  0.77704747  0.33703857  1
  Bi  Bi123  1  0.16284326  0.83151420  0.19928130  1
  Bi  Bi124  1  0.14951164  0.52326050  0.09563714  1
  Bi  Bi125  1  0.81961870  0.46309286  0.40311197  1
  Bi  Bi126  1  0.59697974  0.17576060  0.61372331  1
  Bi  Bi127  1  0.64915836  0.91748205  0.49733163  1
