# generated using pymatgen
data_Ba51Fe51Bi26
_symmetry_space_group_name_H-M   'P 1'
_cell_length_a   15.56102382
_cell_length_b   16.82829283
_cell_length_c   16.85267542
_cell_angle_alpha   90.31856748
_cell_angle_beta   90.18065589
_cell_angle_gamma   88.82294287
_symmetry_Int_Tables_number   1
_chemical_formula_structural   Ba51Fe51Bi26
_chemical_formula_sum   'Ba51 Fe51 Bi26'
_cell_volume   4412.11389523
_cell_formula_units_Z   1
loop_
 _symmetry_equiv_pos_site_id
 _symmetry_equiv_pos_as_xyz
  1  'x, y, z'
loop_
 _atom_site_type_symbol
 _atom_site_label
 _atom_site_symmetry_multiplicity
 _atom_site_fract_x
 _atom_site_fract_y
 _atom_site_fract_z
 _atom_site_occupancy
  Ba  Ba0  1  0.55711861  0.69841488  0.21016348  1
  Ba  Ba1  1  0.73915477  0.23068561  0.56688414  1
  Ba  Ba2  1  0.00852131  0.55662869  0.69689578  1
  Ba  Ba3  1  0.87322894  -0.07325653  0.69422161  1
  Ba  Ba4  1  0.74737367  0.39789701  0.79584229  1
  Ba  Ba5  1  0.65559373  0.46815551  0.00350703  1
  Ba  Ba6  1  0.83187634  0.14551187  0.84863514  1
  Ba  Ba7  1  0.63065534  -0.00415086  0.58739318  1
  Ba  Ba8  1  0.74948255  0.18499889  0.25871503  1
  Ba  Ba9  1  0.73899343  0.75390643  0.00978923  1
  Ba  Ba10  1  0.30228596  0.45569036  0.65771103  1
  Ba  Ba11  1  0.24382717  0.64849979  0.82027067  1
  Ba  Ba12  1  0.88300089  0.77834307  0.20608667  1
  Ba  Ba13  1  0.51932164  -0.02641876  0.23893794  1
  Ba  Ba14  1  0.56184161  0.06369367  0.85139700  1
  Ba  Ba15  1  0.40340637  0.06848103  0.42149915  1
  Ba  Ba16  1  0.54594309  0.59982117  0.74565167  1
  Ba  Ba17  1  0.74655625  0.46572105  0.54575044  1
  Ba  Ba18  1  -0.01349380  0.77337675  0.52668098  1
  Ba  Ba19  1  0.25704555  0.29872974  0.39515854  1
  Ba  Ba20  1  0.27290081  0.76933999  0.36284536  1
  Ba  Ba21  1  -0.05400809  0.59501030  -0.07113907  1
  Ba  Ba22  1  -0.01417668  0.32086214  0.23179822  1
  Ba  Ba23  1  -0.07221553  0.05084458  0.47206764  1
  Ba  Ba24  1  0.17264245  0.83729745  0.67683855  1
  Ba  Ba25  1  0.17394904  0.49849550  0.05894622  1
  Ba  Ba26  1  0.37908764  0.45489518  -0.07283665  1
  Ba  Ba27  1  0.07988020  0.28839560  0.74058027  1
  Ba  Ba28  1  0.74416085  0.68840142  0.40548828  1
  Ba  Ba29  1  -0.06048786  0.51737604  0.39540801  1
  Ba  Ba30  1  0.30069577  0.71555707  0.05003758  1
  Ba  Ba31  1  0.48570556  0.57927298  0.50860373  1
  Ba  Ba32  1  -0.02604617  0.03610280  0.23714989  1
  Ba  Ba33  1  0.53057421  0.26435861  0.76786776  1
  Ba  Ba34  1  0.53001490  0.81837027  0.85188910  1
  Ba  Ba35  1  -0.03198979  -0.01169588  -0.01659403  1
  Ba  Ba36  1  0.37740062  -0.01736115  0.71798352  1
  Ba  Ba37  1  0.20000669  0.17657705  0.18209572  1
  Ba  Ba38  1  -0.00638043  0.32970242  -0.03823163  1
  Ba  Ba39  1  0.44470528  0.45913920  0.26195900  1
  Ba  Ba40  1  0.75163035  0.46404996  0.22304853  1
  Ba  Ba41  1  0.11686875  0.04395407  0.79558023  1
  Ba  Ba42  1  0.12873096  0.84974461  0.18866277  1
  Ba  Ba43  1  0.53658504  0.81612542  0.46573797  1
  Ba  Ba44  1  0.20479382  0.55570150  0.42322762  1
  Ba  Ba45  1  0.76692364  0.72141460  0.77825985  1
  Ba  Ba46  1  0.49381528  0.29789692  0.49223029  1
  Ba  Ba47  1  0.29213391  0.25956705  0.85249455  1
  Ba  Ba48  1  0.16665619  0.06201578  0.53890181  1
  Ba  Ba49  1  0.00882602  0.30761761  0.51829064  1
  Ba  Ba50  1  0.50504953  0.23652410  0.19068152  1
  Fe  Fe51  1  0.64680820  0.39553752  0.37787567  1
  Fe  Fe52  1  0.22204167  0.43011449  0.23874876  1
  Fe  Fe53  1  0.11741603  0.66207914  0.20194633  1
  Fe  Fe54  1  0.75660990  0.02934613  0.38224334  1
  Fe  Fe55  1  0.65907939  0.04423448  0.11348651  1
  Fe  Fe56  1  0.53477086  0.69480998  0.01671286  1
  Fe  Fe57  1  0.30300342  0.90723067  0.04513471  1
  Fe  Fe58  1  0.36018750  0.09388165  0.92864857  1
  Fe  Fe59  1  0.18020239  -0.00658071  0.06114227  1
  Fe  Fe60  1  0.63846010  0.69740084  0.59929296  1
  Fe  Fe61  1  0.66219919  0.20845292  0.95439631  1
  Fe  Fe62  1  0.35762384  0.19409762  1.03032970  1
  Fe  Fe63  1  0.22421034  0.26007244  0.60860475  1
  Fe  Fe64  1  0.61143514  0.81252959  0.66295518  1
  Fe  Fe65  1  0.31975399  0.05480088  0.06012534  1
  Fe  Fe66  1  0.73323862  0.79178484  0.59529156  1
  Fe  Fe67  1  0.60364563  0.95357218  1.00300686  1
  Fe  Fe68  1  0.41418105  0.96233362  0.96429255  1
  Fe  Fe69  1  1.02451300  0.63585176  0.10833498  1
  Fe  Fe70  1  0.35458395  0.27563936  0.66118819  1
  Fe  Fe71  1  0.41059055  0.15580179  0.64197361  1
  Fe  Fe72  1  0.79635647  0.30980041  0.09761443  1
  Fe  Fe73  1  0.65341537  0.89701467  0.11795088  1
  Fe  Fe74  1  0.80810460  0.05003676  0.10434962  1
  Fe  Fe75  1  0.46169586  0.62850146  0.92484320  1
  Fe  Fe76  1  0.48820162  0.74697985  0.63527251  1
  Fe  Fe77  1  0.64597140  0.96249683  0.39111244  1
  Fe  Fe78  1  0.88118257  0.29877552  0.69231555  1
  Fe  Fe79  1  0.16316136  0.87607756  -0.02631768  1
  Fe  Fe80  1  0.34311330  0.74047884  0.56739165  1
  Fe  Fe81  1  0.65807507  0.29521580  0.07246868  1
  Fe  Fe82  1  0.09683417  0.52700403  0.23252936  1
  Fe  Fe83  1  0.70814524  0.06171880  0.98209298  1
  Fe  Fe84  1  0.62330925  0.51699928  0.37001967  1
  Fe  Fe85  1  0.96952646  0.60038994  0.22190650  1
  Fe  Fe86  1  0.07770309  0.86331622  0.85982328  1
  Fe  Fe87  1  0.92806012  0.81888842  0.86846591  1
  Fe  Fe88  1  0.32265291  0.18936970  0.54533539  1
  Fe  Fe89  1  0.37020107  0.77771919  0.71034833  1
  Fe  Fe90  1  0.36541784  0.65585366  0.66239553  1
  Fe  Fe91  1  0.76216989  0.93982307  0.04413320  1
  Fe  Fe92  1  0.60255212  0.63422679  0.92249946  1
  Fe  Fe93  1  0.77682052  0.28727307  0.97261789  1
  Fe  Fe94  1  0.25462748  -0.00839601  0.93214371  1
  Fe  Fe95  1  0.12159021  0.42220281  0.32087037  1
  Fe  Fe96  1  0.26460565  0.15690292  0.68422662  1
  Fe  Fe97  1  0.25318079  0.95149703  0.38108919  1
  Fe  Fe98  1  0.99363205  0.77400459  0.76182293  1
  Fe  Fe99  1  0.73679905  0.17287494  1.06896025  1
  Fe  Fe100  1  0.17322516  0.04025214  0.32879141  1
  Fe  Fe101  1  0.06431495  0.73461308  0.86560412  1
  Bi  Bi102  1  0.75882352  -0.04343483  0.23460857  1
  Bi  Bi103  1  0.17230173  0.13883168  -0.02380105  1
  Bi  Bi104  1  0.49559304  0.08353998  0.05053543  1
  Bi  Bi105  1  0.48822843  0.84451385  0.06853716  1
  Bi  Bi106  1  -0.05820387  0.48551394  0.10699475  1
  Bi  Bi107  1  0.75578121  -0.07505907  -0.12289350  1
  Bi  Bi108  1  0.27674733  0.59682461  0.23031866  1
  Bi  Bi109  1  0.00667416  0.78021284  0.01808044  1
  Bi  Bi110  1  0.50654871  0.28837562  -0.02349015  1
  Bi  Bi111  1  0.29725514  -0.15236893  -0.13631402  1
  Bi  Bi112  1  0.91613838  0.18022061  0.08096386  1
  Bi  Bi113  1  0.33249884  0.89953466  0.52625435  1
  Bi  Bi114  1  0.29318456  -0.01718605  0.21755139  1
  Bi  Bi115  1  0.78574122  0.88610340  0.47148002  1
  Bi  Bi116  1  0.14796132  0.45720653  0.84580199  1
  Bi  Bi117  1  0.81962819  0.33659477  0.39191085  1
  Bi  Bi118  1  0.46950852  0.56077675  0.07939836  1
  Bi  Bi119  1  0.31531709  0.33965693  0.11932277  1
  Bi  Bi120  1  0.03956378  0.69252720  0.34275130  1
  Bi  Bi121  1  0.61466292  0.12744336  0.41643023  1
  Bi  Bi122  1  0.56248928  0.41952665  0.64530203  1
  Bi  Bi123  1  0.08060168  0.91269567  0.39145031  1
  Bi  Bi124  1  0.82634263  0.64730977  0.59344517  1
  Bi  Bi125  1  0.07887183  0.17532127  0.36867859  1
  Bi  Bi126  1  0.19468645  0.64301635  0.60871530  1
  Bi  Bi127  1  0.94368717  0.14711719  0.65849467  1
