# generated using pymatgen
data_Ba51Fe51Bi26
_symmetry_space_group_name_H-M   'P 1'
_cell_length_a   16.17316805
_cell_length_b   16.42395076
_cell_length_c   16.60092867
_cell_angle_alpha   92.22257821
_cell_angle_beta   85.71438014
_cell_angle_gamma   89.60557835
_symmetry_Int_Tables_number   1
_chemical_formula_structural   Ba51Fe51Bi26
_chemical_formula_sum   'Ba51 Fe51 Bi26'
_cell_volume   4393.81057062
_cell_formula_units_Z   1
loop_
 _symmetry_equiv_pos_site_id
 _symmetry_equiv_pos_as_xyz
  1  'x, y, z'
loop_
 _atom_site_type_symbol
 _atom_site_label
 _atom_site_symmetry_multiplicity
 _atom_site_fract_x
 _atom_site_fract_y
 _atom_site_fract_z
 _atom_site_occupancy
  Ba  Ba0  1  0.32451156  0.45041640  0.73375298  1
  Ba  Ba1  1  0.77105689  0.16383451  0.20027068  1
  Ba  Ba2  1  0.68046746  0.25698962  -0.15875530  1
  Ba  Ba3  1  0.59223084  0.01489319  0.29357246  1
  Ba  Ba4  1  0.50828579  0.02060624  -0.03173576  1
  Ba  Ba5  1  0.29342484  0.23693802  -0.09075697  1
  Ba  Ba6  1  0.07625717  0.03527454  0.26699484  1
  Ba  Ba7  1  0.19786873  0.19708928  0.64744392  1
  Ba  Ba8  1  -0.04388501  0.25592012  0.30435620  1
  Ba  Ba9  1  0.46529946  0.73341289  0.53516111  1
  Ba  Ba10  1  0.79478145  0.01994715  -0.08990869  1
  Ba  Ba11  1  -0.08201764  0.26386274  0.56818282  1
  Ba  Ba12  1  -0.06817373  0.72380278  0.04572043  1
  Ba  Ba13  1  0.10510359  0.56135794  0.87950825  1
  Ba  Ba14  1  0.46059548  0.18839509  0.72809558  1
  Ba  Ba15  1  0.71541279  0.74003987  0.55990289  1
  Ba  Ba16  1  0.32566510  0.26900322  0.14144644  1
  Ba  Ba17  1  0.76800976  0.51116189  0.44804748  1
  Ba  Ba18  1  0.81978407  0.03724252  0.67962189  1
  Ba  Ba19  1  0.00520578  0.68289367  0.54349131  1
  Ba  Ba20  1  0.04866751  -0.07517882  0.74282768  1
  Ba  Ba21  1  0.68816486  0.81040132  -0.03645207  1
  Ba  Ba22  1  0.53943430  0.48549795  0.27137332  1
  Ba  Ba23  1  0.49110268  0.77221456  0.79660378  1
  Ba  Ba24  1  0.45242939  0.72057390  0.25711735  1
  Ba  Ba25  1  0.02695351  0.79459484  0.24535904  1
  Ba  Ba26  1  0.52545693  0.59961857  -0.01698963  1
  Ba  Ba27  1  -0.02143533  0.20483377  0.80521503  1
  Ba  Ba28  1  0.46223766  -0.01932354  0.55766891  1
  Ba  Ba29  1  -0.01170724  0.46829165  0.08389976  1
  Ba  Ba30  1  -0.10075157  0.70641026  0.81709587  1
  Ba  Ba31  1  0.23028202  0.72370213  0.75446463  1
  Ba  Ba32  1  0.27255619  0.75801260  0.03513726  1
  Ba  Ba33  1  0.00205444  0.53325870  0.32870160  1
  Ba  Ba34  1  0.82540236  0.49794307  0.71466110  1
  Ba  Ba35  1  0.24426835  0.54608833  0.26360360  1
  Ba  Ba36  1  0.35562865  0.01406182  0.22885159  1
  Ba  Ba37  1  0.45106495  0.20997531  0.47178576  1
  Ba  Ba38  1  0.22822443  0.42368465  0.50085146  1
  Ba  Ba39  1  0.21436020  0.04470134  0.45497727  1
  Ba  Ba40  1  0.80699150  0.32940445  0.04297539  1
  Ba  Ba41  1  0.66150272  0.26614943  0.59998798  1
  Ba  Ba42  1  0.22762396  0.00604283  0.02228940  1
  Ba  Ba43  1  0.22735071  0.82730567  0.54840784  1
  Ba  Ba44  1  -0.08955112  -0.05715549  0.46000327  1
  Ba  Ba45  1  0.63967087  0.30897406  0.36997352  1
  Ba  Ba46  1  -0.01182050  -0.02021493  0.03205342  1
  Ba  Ba47  1  0.76069863  0.59943861  0.19473765  1
  Ba  Ba48  1  0.73063617  0.82761878  0.28321987  1
  Ba  Ba49  1  0.56169392  0.51389017  0.72783005  1
  Ba  Ba50  1  0.54771510  0.33454307  0.06587378  1
  Fe  Fe51  1  0.12590708  0.19003189  0.15551874  1
  Fe  Fe52  1  0.22431977  0.63030264  0.50216285  1
  Fe  Fe53  1  0.43555985  0.52163090  0.57282113  1
  Fe  Fe54  1  0.34701612  0.90187255  0.86870110  1
  Fe  Fe55  1  0.76598954  0.44005932  0.89303788  1
  Fe  Fe56  1  0.57897807  0.43521030  0.54036866  1
  Fe  Fe57  1  0.19150573  0.18461570  0.28856034  1
  Fe  Fe58  1  0.21787342  0.91483951  0.83747323  1
  Fe  Fe59  1  0.99149631  0.14993346  0.12341599  1
  Fe  Fe60  1  1.01653907  0.28089938  0.10661266  1
  Fe  Fe61  1  0.63633951  0.93293145  0.66656959  1
  Fe  Fe62  1  0.62764707  0.06619608  0.74277258  1
  Fe  Fe63  1  0.20763170  0.88722062  0.20230401  1
  Fe  Fe64  1  0.21539632  0.31010018  0.33075432  1
  Fe  Fe65  1  0.63518494  0.06910687  0.60441050  1
  Fe  Fe66  1  0.46246406  0.37938103  0.58468749  1
  Fe  Fe67  1  0.84235484  0.53906539  0.95507060  1
  Fe  Fe68  1  0.26863488  0.79285232  0.26394913  1
  Fe  Fe69  1  0.15348022  0.29880628  0.05528095  1
  Fe  Fe70  1  0.70370602  1.00038438  0.09360963  1
  Fe  Fe71  1  0.71182353  0.56907321  0.88307038  1
  Fe  Fe72  1  0.33210631  0.44404470  0.95787408  1
  Fe  Fe73  1  0.16330401  0.58507286  0.62540370  1
  Fe  Fe74  1  0.63278209  0.44631636  -0.08595416  1
  Fe  Fe75  1  0.80077301  0.91689268  0.10398861  1
  Fe  Fe76  1  0.77786441  0.18317353  0.42262088  1
  Fe  Fe77  1  0.64309273  0.11290511  0.46388592  1
  Fe  Fe78  1  0.76402090  0.09461042  0.51763282  1
  Fe  Fe79  1  0.18478339  0.40447377  0.95814917  1
  Fe  Fe80  1  0.32437464  0.02800364  0.82448026  1
  Fe  Fe81  1  1.03710320  0.55326828  0.69699449  1
  Fe  Fe82  1  0.26544629  0.23171979  0.42348368  1
  Fe  Fe83  1  0.33990869  0.89188872  0.73084655  1
  Fe  Fe84  1  0.46022445  0.42385277  0.45911723  1
  Fe  Fe85  1  0.72776858  0.85513720  0.74644122  1
  Fe  Fe86  1  1.05887820  0.31173910  0.95910847  1
  Fe  Fe87  1  1.00907455  0.40689074  0.71735290  1
  Fe  Fe88  1  0.12757131  0.45019228  0.67269105  1
  Fe  Fe89  1  0.10054406  0.17052051  1.00692755  1
  Fe  Fe90  1  0.24461232  0.54212115  1.01753211  1
  Fe  Fe91  1  0.96414499  0.20010741  1.00621841  1
  Fe  Fe92  1  0.22992800  0.42634391  0.08312883  1
  Fe  Fe93  1  0.64528220  0.95017430  0.80582371  1
  Fe  Fe94  1  0.20047352  0.88182086  0.34210702  1
  Fe  Fe95  1  0.76658470  1.05729123  0.37267228  1
  Fe  Fe96  1  0.31007932  0.60668971  0.59263342  1
  Fe  Fe97  1  0.33331658  0.19402509  0.31314756  1
  Fe  Fe98  1  0.69984768  0.49898529  0.02057087  1
  Fe  Fe99  1  0.25053125  -0.00959941  0.71859094  1
  Fe  Fe100  1  0.74843726  0.62615448  -0.00189657  1
  Fe  Fe101  1  0.54329573  0.54238840  0.47349540  1
  Bi  Bi102  1  -0.00212862  0.46706560  0.55478572  1
  Bi  Bi103  1  0.93420647  0.41113609  -0.12285876  1
  Bi  Bi104  1  0.37697398  0.58113573  0.42358724  1
  Bi  Bi105  1  0.12341869  0.36573859  0.21345890  1
  Bi  Bi106  1  0.15393166  0.08274690  0.84701265  1
  Bi  Bi107  1  0.48312454  0.36911074  -0.13124091  1
  Bi  Bi108  1  0.48253191  -0.02024508  0.76511811  1
  Bi  Bi109  1  0.68921593  0.68834320  0.77337603  1
  Bi  Bi110  1  0.15742797  0.71576237  0.38037900  1
  Bi  Bi111  1  0.14451317  0.34746226  -0.19860782  1
  Bi  Bi112  1  0.67984604  -0.06019898  0.48488985  1
  Bi  Bi113  1  0.10078539  0.23118522  0.44618353  1
  Bi  Bi114  1  0.50063475  0.19709337  0.24481765  1
  Bi  Bi115  1  0.39031754  0.49115582  0.11089709  1
  Bi  Bi116  1  0.09729053  0.81331200  0.91870278  1
  Bi  Bi117  1  0.62076772  0.65979764  0.37458332  1
  Bi  Bi118  1  0.11802693  0.62768082  0.11304904  1
  Bi  Bi119  1  0.37523510  0.35695851  0.33705540  1
  Bi  Bi120  1  0.66355844  0.14861162  0.02655657  1
  Bi  Bi121  1  0.37280304  0.87960790  0.38678047  1
  Bi  Bi122  1  0.87857848  0.83417064  0.65270455  1
  Bi  Bi123  1  0.87044505  0.98080067  0.24194374  1
  Bi  Bi124  1  0.34204341  0.60617791  0.88204961  1
  Bi  Bi125  1  0.02742966  0.07722864  0.59861168  1
  Bi  Bi126  1  0.80727440  0.40548457  0.25374319  1
  Bi  Bi127  1  0.86895467  0.70251827  0.37768319  1
