# generated using pymatgen
data_Ba51Fe51Bi26
_symmetry_space_group_name_H-M   'P 1'
_cell_length_a   16.37342024
_cell_length_b   16.66402389
_cell_length_c   16.06592914
_cell_angle_alpha   90.91275737
_cell_angle_beta   91.32767282
_cell_angle_gamma   91.45885711
_symmetry_Int_Tables_number   1
_chemical_formula_structural   Ba51Fe51Bi26
_chemical_formula_sum   'Ba51 Fe51 Bi26'
_cell_volume   4380.34578053
_cell_formula_units_Z   1
loop_
 _symmetry_equiv_pos_site_id
 _symmetry_equiv_pos_as_xyz
  1  'x, y, z'
loop_
 _atom_site_type_symbol
 _atom_site_label
 _atom_site_symmetry_multiplicity
 _atom_site_fract_x
 _atom_site_fract_y
 _atom_site_fract_z
 _atom_site_occupancy
  Ba  Ba0  1  0.10833482  0.80636551  0.48627261  1
  Ba  Ba1  1  0.59033210  0.55585999  0.81869507  1
  Ba  Ba2  1  0.36243508  0.23481439  0.60022358  1
  Ba  Ba3  1  -0.03303935  0.49870199  0.00681648  1
  Ba  Ba4  1  0.47288954  0.42182104  0.01808041  1
  Ba  Ba5  1  0.68386796  0.73475538  0.48596511  1
  Ba  Ba6  1  0.72254813  0.31429516  0.55139212  1
  Ba  Ba7  1  0.43787751  0.74228036  0.27008246  1
  Ba  Ba8  1  0.51350866  0.20916122  0.33209072  1
  Ba  Ba9  1  0.00775249  0.01897382  -0.05505760  1
  Ba  Ba10  1  0.78345970  -0.01356044  0.71948456  1
  Ba  Ba11  1  0.62788081  0.22265488  0.04582714  1
  Ba  Ba12  1  0.49037204  -0.09143385  0.44964897  1
  Ba  Ba13  1  0.35287333  0.81897836  0.63024412  1
  Ba  Ba14  1  -0.07360276  0.32672460  0.42140123  1
  Ba  Ba15  1  0.54170334  0.86273981  0.11217262  1
  Ba  Ba16  1  0.01752556  0.56552971  0.76033476  1
  Ba  Ba17  1  -0.10348599  0.20354410  0.04425798  1
  Ba  Ba18  1  0.64137318  0.61846133  0.23845351  1
  Ba  Ba19  1  0.75283116  0.01742568  0.16891435  1
  Ba  Ba20  1  0.56173416  0.09199347  0.62318928  1
  Ba  Ba21  1  0.25764009  0.29162109  0.01494556  1
  Ba  Ba22  1  0.53238968  0.47122803  0.56504089  1
  Ba  Ba23  1  0.26680702  0.72782457  -0.07500498  1
  Ba  Ba24  1  0.88248747  0.81110338  0.31813002  1
  Ba  Ba25  1  0.21985906  0.42909825  0.21225104  1
  Ba  Ba26  1  0.56218325  0.03126911  -0.08939139  1
  Ba  Ba27  1  0.44749930  0.47406334  0.29547973  1
  Ba  Ba28  1  0.20469827  0.49280638  -0.08515816  1
  Ba  Ba29  1  0.28990969  0.43624160  0.49336388  1
  Ba  Ba30  1  0.72592998  0.23381886  0.31062110  1
  Ba  Ba31  1  0.34088628  0.56010805  0.72568254  1
  Ba  Ba32  1  0.36733979  0.02290677  0.28566441  1
  Ba  Ba33  1  0.00022609  0.03555793  0.51965737  1
  Ba  Ba34  1  0.53107166  0.77762104  0.86787263  1
  Ba  Ba35  1  -0.05428618  0.57826166  0.52557375  1
  Ba  Ba36  1  0.78590486  0.72845627  0.04237740  1
  Ba  Ba37  1  0.77257719  0.71709205  0.71514446  1
  Ba  Ba38  1  0.20123293  0.64447623  0.31637845  1
  Ba  Ba39  1  0.32331348  0.03844578  0.77954139  1
  Ba  Ba40  1  0.14297840  0.26481334  0.36449387  1
  Ba  Ba41  1  0.15210128  0.82432861  0.12501676  1
  Ba  Ba42  1  0.56663864  0.30189633  0.78363291  1
  Ba  Ba43  1  -0.04860061  0.54293876  0.24926101  1
  Ba  Ba44  1  0.76313886  0.00360641  0.43515138  1
  Ba  Ba45  1  0.12676246  0.21685145  0.64311476  1
  Ba  Ba46  1  0.05699119  0.85246424  0.73355008  1
  Ba  Ba47  1  0.00595268  0.29138235  0.84426988  1
  Ba  Ba48  1  0.30841487  0.05287167  0.03027630  1
  Ba  Ba49  1  0.73411921  0.46603202  0.05231128  1
  Ba  Ba50  1  0.12347647  0.01720553  0.27968494  1
  Fe  Fe51  1  0.14570687  0.51371238  0.60476943  1
  Fe  Fe52  1  0.43005798  0.70684874  1.05585347  1
  Fe  Fe53  1  0.39950673  0.60113706  0.97809044  1
  Fe  Fe54  1  0.73701541  0.44021294  0.83045658  1
  Fe  Fe55  1  -0.02492738  0.09653138  0.18713752  1
  Fe  Fe56  1  0.83801603  0.17716702  0.80735523  1
  Fe  Fe57  1  0.94848741  0.69799965  0.91131056  1
  Fe  Fe58  1  0.73020258  0.18855291  0.69828074  1
  Fe  Fe59  1  0.20613837  0.32522921  0.80693792  1
  Fe  Fe60  1  0.87037013  0.42725404  0.82126391  1
  Fe  Fe61  1  0.34818250  0.02750993  0.56228094  1
  Fe  Fe62  1  0.33220765  0.20056955  0.39261253  1
  Fe  Fe63  1  0.97831664  0.14548179  0.33995555  1
  Fe  Fe64  1  0.69592627  0.90919324  0.00920437  1
  Fe  Fe65  1  0.38001357  0.61230131  0.40904194  1
  Fe  Fe66  1  0.48100780  0.72181898  0.48355980  1
  Fe  Fe67  1  0.40968429  0.62268654  0.54247958  1
  Fe  Fe68  1  0.86762876  0.21261697  0.67056794  1
  Fe  Fe69  1  -0.00121591  0.24214780  0.22285122  1
  Fe  Fe70  1  0.44369290  0.59299319  0.12995178  1
  Fe  Fe71  1  0.77470816  0.45062471  0.43080175  1
  Fe  Fe72  1  1.00714132  0.69979843  0.05244716  1
  Fe  Fe73  1  0.79307561  0.32304063  0.74078868  1
  Fe  Fe74  1  0.07793618  0.66180435  0.94255389  1
  Fe  Fe75  1  0.58906749  -0.00021148  0.29500067  1
  Fe  Fe76  1  0.31192483  0.66385101  0.11250670  1
  Fe  Fe77  1  0.83572645  0.91125212  1.00025726  1
  Fe  Fe78  1  0.88255514  0.17451591  0.24586498  1
  Fe  Fe79  1  0.69959455  0.43560693  0.70027236  1
  Fe  Fe80  1  0.34324143  0.30451123  0.31303581  1
  Fe  Fe81  1  0.74457792  0.45090467  0.29133750  1
  Fe  Fe82  1  0.64840616  0.53307171  0.41373470  1
  Fe  Fe83  1  0.40181273  0.09804731  0.46911112  1
  Fe  Fe84  1  0.06323690  0.79617267  -0.06736695  1
  Fe  Fe85  1  0.31543019  0.24420179  0.79830100  1
  Fe  Fe86  1  0.42523912  0.20017812  0.10996582  1
  Fe  Fe87  1  0.70331846  0.16462278  0.82597843  1
  Fe  Fe88  1  0.29006487  0.37194071  0.71341721  1
  Fe  Fe89  1  0.64179911  0.40353281  0.37153170  1
  Fe  Fe90  1  0.91350193  1.03447449  0.29435267  1
  Fe  Fe91  1  0.32423601  0.53742696  0.07985690  1
  Fe  Fe92  1  0.15383175  0.41599274  0.69892601  1
  Fe  Fe93  1  0.78046628  0.56941651  0.38055830  1
  Fe  Fe94  1  0.95301459  0.82097460  0.01283603  1
  Fe  Fe95  1  0.35684524  0.36492878  0.83667392  1
  Fe  Fe96  1  0.08186466  0.40703814  0.56445783  1
  Fe  Fe97  1  0.34492292  0.73393108  0.45072746  1
  Fe  Fe98  1  0.72896430  0.87790242  0.88845834  1
  Fe  Fe99  1  0.82500992  0.48776075  0.70784287  1
  Fe  Fe100  1  0.52056991  0.60887767  0.42676575  1
  Fe  Fe101  1  0.41014209  0.30479581  0.18841954  1
  Bi  Bi102  1  0.77255514  0.05315126  -0.06111601  1
  Bi  Bi103  1  0.23806298  0.64401372  0.54675911  1
  Bi  Bi104  1  0.52924293  0.68683968  0.65437518  1
  Bi  Bi105  1  0.73637985  0.54469287  0.57246449  1
  Bi  Bi106  1  0.77140594  0.30547379  0.91038263  1
  Bi  Bi107  1  0.43326220  0.20859979  -0.07475171  1
  Bi  Bi108  1  0.27299702  0.18946132  0.20665338  1
  Bi  Bi109  1  -0.03229530  0.09255263  0.73303846  1
  Bi  Bi110  1  0.81767560  0.58396319  0.87408146  1
  Bi  Bi111  1  -0.11110663  0.84239668  -0.14765628  1
  Bi  Bi112  1  0.22357519  0.09653792  0.46511066  1
  Bi  Bi113  1  -0.13350164  0.35271492  0.20269490  1
  Bi  Bi114  1  -0.05126087  -0.06996869  0.14838742  1
  Bi  Bi115  1  0.14726511  0.60648792  0.09740310  1
  Bi  Bi116  1  0.06309235  0.33707569  0.09554795  1
  Bi  Bi117  1  0.93815987  0.37534233  0.64814769  1
  Bi  Bi118  1  0.19634824  0.96542555  0.61652311  1
  Bi  Bi119  1  0.58033636  0.63758531  1.02595498  1
  Bi  Bi120  1  0.60272459  0.37651884  0.20220943  1
  Bi  Bi121  1  0.17603171  0.16428783  0.85836538  1
  Bi  Bi122  1  0.26732074  0.84816389  0.35044042  1
  Bi  Bi123  1  0.88681352  0.84144600  0.54451565  1
  Bi  Bi124  1  0.52948766  0.07117185  0.15232676  1
  Bi  Bi125  1  0.18582919  0.91273030  0.91213215  1
  Bi  Bi126  1  0.66121647  0.85134389  0.30084174  1
  Bi  Bi127  1  0.09132200  0.47256293  0.40436835  1
