# generated using pymatgen
data_Ba51Fe51Bi26
_symmetry_space_group_name_H-M   'P 1'
_cell_length_a   16.79356693
_cell_length_b   16.10544042
_cell_length_c   16.38033348
_cell_angle_alpha   90.16551090
_cell_angle_beta   90.71345343
_cell_angle_gamma   87.15786102
_symmetry_Int_Tables_number   1
_chemical_formula_structural   Ba51Fe51Bi26
_chemical_formula_sum   'Ba51 Fe51 Bi26'
_cell_volume   4424.54853516
_cell_formula_units_Z   1
loop_
 _symmetry_equiv_pos_site_id
 _symmetry_equiv_pos_as_xyz
  1  'x, y, z'
loop_
 _atom_site_type_symbol
 _atom_site_label
 _atom_site_symmetry_multiplicity
 _atom_site_fract_x
 _atom_site_fract_y
 _atom_site_fract_z
 _atom_site_occupancy
  Ba  Ba0  1  0.28523033  0.20023366  0.03980670  1
  Ba  Ba1  1  0.58712501  0.23220116  0.81682225  1
  Ba  Ba2  1  0.67757210  0.47137268  0.32809505  1
  Ba  Ba3  1  0.76288441  0.21467902  1.00184240  1
  Ba  Ba4  1  0.86879677  -0.05396767  0.29016129  1
  Ba  Ba5  1  0.77684145  0.29387358  0.57742831  1
  Ba  Ba6  1  -0.10279066  0.66899816  0.77892341  1
  Ba  Ba7  1  -0.00026877  0.81445716  0.51290316  1
  Ba  Ba8  1  0.52785043  0.66358118  0.49406455  1
  Ba  Ba9  1  0.80968408  0.24329278  0.25288608  1
  Ba  Ba10  1  0.46752502  0.68537574  0.22077156  1
  Ba  Ba11  1  -0.16189431  0.61887024  0.02940618  1
  Ba  Ba12  1  0.20357972  0.10708885  0.75560711  1
  Ba  Ba13  1  0.20466654  0.45241286  -0.01957705  1
  Ba  Ba14  1  0.46182722  -0.00995284  0.53341725  1
  Ba  Ba15  1  -0.07807990  0.26491479  0.78896726  1
  Ba  Ba16  1  0.61062696  -0.00387412  0.25826525  1
  Ba  Ba17  1  0.65240854  0.50000512  -0.04361172  1
  Ba  Ba18  1  0.78525614  -0.12907064  -0.08524782  1
  Ba  Ba19  1  0.78371606  0.04471065  0.70643911  1
  Ba  Ba20  1  0.11904985  0.68618380  -0.05338933  1
  Ba  Ba21  1  0.41584240  0.73126737  0.72015173  1
  Ba  Ba22  1  0.80693684  0.60193283  0.52649621  1
  Ba  Ba23  1  0.70031201  0.83742022  0.49207999  1
  Ba  Ba24  1  0.35649298  0.30754575  0.81610915  1
  Ba  Ba25  1  0.51244735  -0.04687715  0.77746105  1
  Ba  Ba26  1  0.27444441  0.50627913  0.39228604  1
  Ba  Ba27  1  0.73783227  0.48683873  0.73203883  1
  Ba  Ba28  1  0.02824855  -0.06028454  0.04594615  1
  Ba  Ba29  1  0.34640047  -0.02300284  0.25539323  1
  Ba  Ba30  1  0.17156884  0.74747890  0.69328089  1
  Ba  Ba31  1  0.43500644  0.44098812  0.02309661  1
  Ba  Ba32  1  0.09747293  0.11321205  0.32975646  1
  Ba  Ba33  1  0.55594206  -0.05720936  0.01836288  1
  Ba  Ba34  1  0.68568307  0.11888848  0.45686045  1
  Ba  Ba35  1  0.00041884  0.72755453  0.19062398  1
  Ba  Ba36  1  0.03561042  0.19605752  -0.00008266  1
  Ba  Ba37  1  0.27660505  0.24162757  0.56263829  1
  Ba  Ba38  1  -0.00233081  0.46895083  -0.11654671  1
  Ba  Ba39  1  0.20541139  0.81659548  0.18791236  1
  Ba  Ba40  1  -0.10501131  0.53008246  0.24949947  1
  Ba  Ba41  1  0.37629795  0.22078698  0.32757469  1
  Ba  Ba42  1  0.45883151  0.49233387  0.67462203  1
  Ba  Ba43  1  0.27339353  0.81274663  0.44454880  1
  Ba  Ba44  1  0.04601374  0.49547458  0.43135733  1
  Ba  Ba45  1  0.46169687  0.43395271  0.26478750  1
  Ba  Ba46  1  0.17019654  0.47549034  0.68451054  1
  Ba  Ba47  1  0.02350603  -0.07435234  0.79308524  1
  Ba  Ba48  1  0.44972456  0.67551210  -0.05311931  1
  Ba  Ba49  1  0.06845433  0.34793672  0.20600240  1
  Ba  Ba50  1  0.01281494  0.25694554  0.51962836  1
  Fe  Fe51  1  0.85320933  0.39804746  0.98142019  1
  Fe  Fe52  1  0.69608111  0.82097150  0.75134440  1
  Fe  Fe53  1  0.95517737  0.45012785  0.06996255  1
  Fe  Fe54  1  0.25270085  0.81081915  -0.00346927  1
  Fe  Fe55  1  0.33420265  0.56653921  0.12809299  1
  Fe  Fe56  1  0.25774278  0.62323074  0.22446814  1
  Fe  Fe57  1  0.31051163  0.01009161  0.90112261  1
  Fe  Fe58  1  0.90213327  0.32800924  0.08212595  1
  Fe  Fe59  1  0.20493770  0.90246570  0.89005007  1
  Fe  Fe60  1  0.22448669  -0.03966792  0.59217428  1
  Fe  Fe61  1  0.59228807  0.77859692  0.67997207  1
  Fe  Fe62  1  -0.05848883  0.47143890  0.69156466  1
  Fe  Fe63  1  0.89404224  0.10534771  0.41878870  1
  Fe  Fe64  1  0.35757012  0.87525645  0.91562983  1
  Fe  Fe65  1  0.18639886  0.59649642  0.11002738  1
  Fe  Fe66  1  0.59026926  0.30540124  1.02431955  1
  Fe  Fe67  1  0.75002197  0.80512565  0.12376656  1
  Fe  Fe68  1  0.47178816  0.29725396  0.62810679  1
  Fe  Fe69  1  0.13197592  0.96048095  0.46929310  1
  Fe  Fe70  1  0.62143939  0.34101173  0.15193454  1
  Fe  Fe71  1  0.72320813  0.66826145  0.32292471  1
  Fe  Fe72  1  0.80629160  0.71173414  0.21133887  1
  Fe  Fe73  1  0.58571372  0.19080620  0.61518961  1
  Fe  Fe74  1  0.87709474  0.11242782  0.54803364  1
  Fe  Fe75  1  0.13317823  0.07947114  0.55286087  1
  Fe  Fe76  1  0.62891935  0.80730830  0.17226535  1
  Fe  Fe77  1  0.48508850  0.20666651  0.52229864  1
  Fe  Fe78  1  0.27445494  -0.04815727  0.02887468  1
  Fe  Fe79  1  0.09333675  0.96130533  0.61197827  1
  Fe  Fe80  1  0.59674857  0.33378323  0.63987121  1
  Fe  Fe81  1  1.00030292  1.02900454  0.50221770  1
  Fe  Fe82  1  0.91578231  0.43511739  0.57308738  1
  Fe  Fe83  1  0.59825426  0.77291441  0.83677242  1
  Fe  Fe84  1  0.60813475  0.65532233  0.73981201  1
  Fe  Fe85  1  0.73254094  0.81477179  0.27307449  1
  Fe  Fe86  1  0.72571428  0.70332997  0.68569968  1
  Fe  Fe87  1  0.29328742  0.68522679  0.07304022  1
  Fe  Fe88  1  0.61996457  0.19398427  0.14432681  1
  Fe  Fe89  1  0.49933515  0.27331469  0.14200910  1
  Fe  Fe90  1  0.56471712  0.15827823  1.02416761  1
  Fe  Fe91  1  0.13110190  0.54903742  0.22580183  1
  Fe  Fe92  1  0.85817657  0.98925437  0.49951834  1
  Fe  Fe93  1  0.70496207  0.68514886  0.83587574  1
  Fe  Fe94  1  0.61909006  0.75359279  0.30736051  1
  Fe  Fe95  1  0.57685853  0.30748342  0.50495662  1
  Fe  Fe96  1  0.18161980  0.02532372  0.95844570  1
  Fe  Fe97  1  0.05517069  0.53888477  0.11260947  1
  Fe  Fe98  1  0.68071628  0.67515069  0.18328515  1
  Fe  Fe99  1  0.46643186  0.24871099  1.00811006  1
  Fe  Fe100  1  0.27834074  0.76830156  0.86818848  1
  Fe  Fe101  1  0.15025118  0.64230204  0.51916856  1
  Bi  Bi102  1  0.27408834  0.04885341  0.45090861  1
  Bi  Bi103  1  0.13748411  0.67329174  0.35070318  1
  Bi  Bi104  1  -0.00163808  0.09976818  0.66724454  1
  Bi  Bi105  1  0.83715462  0.83799133  0.66420638  1
  Bi  Bi106  1  0.76250264  0.42163165  0.12403829  1
  Bi  Bi107  1  0.26294785  0.42916993  0.18374478  1
  Bi  Bi108  1  0.44022719  0.11277844  -0.08820253  1
  Bi  Bi109  1  0.64648344  0.72746596  0.00714083  1
  Bi  Bi110  1  0.59932885  0.25847068  0.30358175  1
  Bi  Bi111  1  0.39196080  -0.16488837  0.08631064  1
  Bi  Bi112  1  0.86800919  0.73333184  0.36705563  1
  Bi  Bi113  1  0.43156001  0.14232895  0.68123799  1
  Bi  Bi114  1  0.29982328  -0.08831249  0.74614363  1
  Bi  Bi115  1  0.17404187  1.05392357  0.13099241  1
  Bi  Bi116  1  0.63293252  0.46940664  0.54278463  1
  Bi  Bi117  1  0.13826421  0.30245172  0.83699001  1
  Bi  Bi118  1  0.17233066  0.31035731  0.38906783  1
  Bi  Bi119  1  0.28880103  0.59047967  0.83167286  1
  Bi  Bi120  1  1.01341447  0.60570582  0.61184868  1
  Bi  Bi121  1  0.89323871  0.06326757  0.90446858  1
  Bi  Bi122  1  0.30904369  0.62758688  0.56743616  1
  Bi  Bi123  1  0.86700301  0.39051719  0.41201688  1
  Bi  Bi124  1  0.42350579  0.37430078  0.48227035  1
  Bi  Bi125  1  0.07123070  0.89937162  0.32550827  1
  Bi  Bi126  1  0.46101569  0.10886987  0.14305658  1
  Bi  Bi127  1  0.49409773  0.84921469  0.37357129  1
