# generated using pymatgen
data_Ba51Fe51Bi26
_symmetry_space_group_name_H-M   'P 1'
_cell_length_a   16.45396565
_cell_length_b   16.42570993
_cell_length_c   16.21180676
_cell_angle_alpha   90.29233351
_cell_angle_beta   89.71330016
_cell_angle_gamma   87.54800664
_symmetry_Int_Tables_number   1
_chemical_formula_structural   Ba51Fe51Bi26
_chemical_formula_sum   'Ba51 Fe51 Bi26'
_cell_volume   4377.40524699
_cell_formula_units_Z   1
loop_
 _symmetry_equiv_pos_site_id
 _symmetry_equiv_pos_as_xyz
  1  'x, y, z'
loop_
 _atom_site_type_symbol
 _atom_site_label
 _atom_site_symmetry_multiplicity
 _atom_site_fract_x
 _atom_site_fract_y
 _atom_site_fract_z
 _atom_site_occupancy
  Ba  Ba0  1  0.24334202  -0.01021309  0.44000055  1
  Ba  Ba1  1  0.18837249  0.72816670  0.75822894  1
  Ba  Ba2  1  0.16184261  0.29232711  0.31672665  1
  Ba  Ba3  1  -0.10038444  0.51012240  0.56654155  1
  Ba  Ba4  1  0.61898805  0.00481125  0.51153245  1
  Ba  Ba5  1  0.77738058  0.34628318  0.30822406  1
  Ba  Ba6  1  0.16466098  0.00656943  0.66131256  1
  Ba  Ba7  1  0.48882400  0.40539046  -0.00329279  1
  Ba  Ba8  1  0.66715662  0.57322455  0.43821371  1
  Ba  Ba9  1  0.75256441  0.71193188  -0.08556175  1
  Ba  Ba10  1  0.54383985  0.75111117  0.22937888  1
  Ba  Ba11  1  0.75424870  0.43782125  0.03689426  1
  Ba  Ba12  1  0.81279807  0.24106327  0.52463255  1
  Ba  Ba13  1  0.87082395  0.77766165  0.53881516  1
  Ba  Ba14  1  0.23150048  0.15262981  0.11896408  1
  Ba  Ba15  1  0.78947699  0.07208847  0.70552965  1
  Ba  Ba16  1  0.78587503  0.50877108  0.80041838  1
  Ba  Ba17  1  0.50230497  0.76118746  -0.04975256  1
  Ba  Ba18  1  0.21176350  -0.06102850  0.21310221  1
  Ba  Ba19  1  0.49374393  0.78114907  0.48715079  1
  Ba  Ba20  1  -0.00832695  0.02777431  -0.12054947  1
  Ba  Ba21  1  0.54438066  0.01475803  0.05047629  1
  Ba  Ba22  1  0.12467635  0.53198915  0.41986215  1
  Ba  Ba23  1  0.50236393  0.07245430  0.78467730  1
  Ba  Ba24  1  -0.07446271  0.03475994  0.46547899  1
  Ba  Ba25  1  -0.02463668  0.79709619  -0.06745653  1
  Ba  Ba26  1  0.07718099  0.52329278  0.76678991  1
  Ba  Ba27  1  0.47676999  0.49588815  0.21823214  1
  Ba  Ba28  1  0.56086401  0.54696699  0.77098912  1
  Ba  Ba29  1  0.19347011  0.54258477  0.14447672  1
  Ba  Ba30  1  0.42147486  0.35482242  0.69228221  1
  Ba  Ba31  1  0.67300700  0.29533809  0.78408272  1
  Ba  Ba32  1  0.74556505  0.15064940  0.12871551  1
  Ba  Ba33  1  0.27459374  0.35320665  -0.08339655  1
  Ba  Ba34  1  0.65698807  0.83728352  0.71419322  1
  Ba  Ba35  1  0.29765125  0.01961367  0.89747284  1
  Ba  Ba36  1  0.38876190  0.14866567  0.53157821  1
  Ba  Ba37  1  0.23876038  0.79061727  -0.01658717  1
  Ba  Ba38  1  0.45690950  0.21306857  0.22355364  1
  Ba  Ba39  1  0.24113128  0.73363783  0.48511425  1
  Ba  Ba40  1  0.74946190  -0.03297377  -0.07026598  1
  Ba  Ba41  1  0.40067720  0.68289124  0.67809655  1
  Ba  Ba42  1  0.73849701  -0.06073808  0.26180456  1
  Ba  Ba43  1  0.30754216  0.72319354  0.23955383  1
  Ba  Ba44  1  -0.03373618  0.20755863  0.07291956  1
  Ba  Ba45  1  0.07001311  0.24677496  0.84131138  1
  Ba  Ba46  1  0.18129067  0.31128133  0.59354787  1
  Ba  Ba47  1  -0.03047282  0.46905026  0.19152174  1
  Ba  Ba48  1  0.86759772  0.71035433  0.15614618  1
  Ba  Ba49  1  0.56181189  0.31469495  0.44790131  1
  Ba  Ba50  1  -0.02148723  -0.10359880  0.26294363  1
  Fe  Fe51  1  0.07866016  0.83570699  0.61621376  1
  Fe  Fe52  1  0.89978968  0.86710179  0.74910121  1
  Fe  Fe53  1  0.58148514  0.05327203  0.25531000  1
  Fe  Fe54  1  0.39818327  0.89596276  0.30608007  1
  Fe  Fe55  1  0.87775402  0.14841809  0.29849896  1
  Fe  Fe56  1  0.28941137  0.54158962  0.78406654  1
  Fe  Fe57  1  0.34065468  0.56361623  0.48925206  1
  Fe  Fe58  1  0.32982500  0.56790524  0.34584759  1
  Fe  Fe59  1  0.35188543  0.65072009  0.87132919  1
  Fe  Fe60  1  0.89108833  0.23660357  0.74702256  1
  Fe  Fe61  1  0.93577366  0.60125925  0.89053828  1
  Fe  Fe62  1  0.44485872  0.60558984  0.40336223  1
  Fe  Fe63  1  0.25050113  0.57591071  0.91848764  1
  Fe  Fe64  1  0.31826891  0.86685747  0.62079926  1
  Fe  Fe65  1  0.97363279  0.92713616  0.65439231  1
  Fe  Fe66  1  0.53914388  0.93795189  0.32995394  1
  Fe  Fe67  1  0.62940954  0.57222986  0.96126434  1
  Fe  Fe68  1  0.97971930  0.20306759  0.39296121  1
  Fe  Fe69  1  0.94716128  0.38653843  0.76674707  1
  Fe  Fe70  1  0.34911685  0.42433639  0.50948052  1
  Fe  Fe71  1  1.02694826  0.71412795  0.40960276  1
  Fe  Fe72  1  0.43978732  0.46953435  0.40674208  1
  Fe  Fe73  1  0.54077961  0.22368664  0.90618074  1
  Fe  Fe74  1  0.04114125  0.66297204  0.27654171  1
  Fe  Fe75  1  0.45864689  0.88694070  0.68168043  1
  Fe  Fe76  1  0.14026940  0.00151477  1.01915183  1
  Fe  Fe77  1  0.08702186  0.15317010  0.48282845  1
  Fe  Fe78  1  0.01257038  0.25911123  0.52243625  1
  Fe  Fe79  1  0.83795477  0.35401953  0.69129108  1
  Fe  Fe80  1  0.46098086  -0.00752031  0.22465093  1
  Fe  Fe81  1  0.85868685  0.32471534  0.84542756  1
  Fe  Fe82  1  0.66413271  0.64838952  0.07875904  1
  Fe  Fe83  1  0.65242995  0.15348064  0.92923213  1
  Fe  Fe84  1  0.06314422  0.90788166  0.06636963  1
  Fe  Fe85  1  0.51635316  0.08253276  0.36596827  1
  Fe  Fe86  1  0.39010913  0.04860702  0.32272793  1
  Fe  Fe87  1  -0.02209866  0.30993838  0.65409685  1
  Fe  Fe88  1  0.05211065  0.88326068  0.76125359  1
  Fe  Fe89  1  0.38906079  0.52169396  0.86883836  1
  Fe  Fe90  1  0.92872078  0.57568019  0.01612879  1
  Fe  Fe91  1  0.34589271  0.88263317  0.75358390  1
  Fe  Fe92  1  0.44203564  0.96836839  0.42383693  1
  Fe  Fe93  1  0.05402308  0.03552978  0.11737812  1
  Fe  Fe94  1  0.54756420  0.59526664  0.06213856  1
  Fe  Fe95  1  0.30359227  0.44416508  0.38318300  1
  Fe  Fe96  1  0.35229782  0.00333862  0.68604554  1
  Fe  Fe97  1  0.12073151  0.75978844  0.32048144  1
  Fe  Fe98  1  1.00090955  0.77541908  0.70466929  1
  Fe  Fe99  1  0.57849061  0.22203574  1.03418976  1
  Fe  Fe100  1  0.94961918  0.25098964  0.26665390  1
  Fe  Fe101  1  0.40935430  0.94970560  0.56948556  1
  Bi  Bi102  1  0.39580491  -0.12172784  0.11729816  1
  Bi  Bi103  1  0.07159447  0.87351986  0.45326018  1
  Bi  Bi104  1  -0.12039921  0.68696470  0.74906355  1
  Bi  Bi105  1  0.82372164  0.17242858  0.90351434  1
  Bi  Bi106  1  -0.00499970  0.13732658  0.64811807  1
  Bi  Bi107  1  0.06349843  0.10175430  0.28126682  1
  Bi  Bi108  1  0.49350794  0.51878230  0.55863442  1
  Bi  Bi109  1  -0.04897769  0.42348570  -0.06005689  1
  Bi  Bi110  1  0.69553715  0.13928352  0.34967619  1
  Bi  Bi111  1  0.09699118  0.75497908  0.14451647  1
  Bi  Bi112  1  0.24665830  0.51990379  0.62060635  1
  Bi  Bi113  1  0.37497382  0.61087378  0.04173179  1
  Bi  Bi114  1  0.40948319  0.17956329  -0.00456006  1
  Bi  Bi115  1  0.12861062  0.34220526  0.08440654  1
  Bi  Bi116  1  0.58520867  0.18779811  0.62224427  1
  Bi  Bi117  1  0.89579170  0.62065032  0.35852810  1
  Bi  Bi118  1  0.69628802  0.65150931  0.63575373  1
  Bi  Bi119  1  0.89970484  0.97645096  0.07995396  1
  Bi  Bi120  1  0.08926544  0.61628411  -0.03804771  1
  Bi  Bi121  1  0.29449341  0.16879984  0.73456873  1
  Bi  Bi122  1  0.70456171  0.42073567  0.60127298  1
  Bi  Bi123  1  0.31342614  0.35810401  0.14456386  1
  Bi  Bi124  1  0.05718290  0.66746172  0.58241586  1
  Bi  Bi125  1  0.61863015  0.33111945  0.16212748  1
  Bi  Bi126  1  0.68029522  0.82241845  0.08478324  1
  Bi  Bi127  1  0.97212155  0.37254879  0.39957086  1
