# generated using pymatgen
data_Ba51Fe51Bi26
_symmetry_space_group_name_H-M   'P 1'
_cell_length_a   17.32798396
_cell_length_b   15.54866253
_cell_length_c   16.41685487
_cell_angle_alpha   92.37025921
_cell_angle_beta   87.82440630
_cell_angle_gamma   90.82505197
_symmetry_Int_Tables_number   1
_chemical_formula_structural   Ba51Fe51Bi26
_chemical_formula_sum   'Ba51 Fe51 Bi26'
_cell_volume   4415.80907235
_cell_formula_units_Z   1
loop_
 _symmetry_equiv_pos_site_id
 _symmetry_equiv_pos_as_xyz
  1  'x, y, z'
loop_
 _atom_site_type_symbol
 _atom_site_label
 _atom_site_symmetry_multiplicity
 _atom_site_fract_x
 _atom_site_fract_y
 _atom_site_fract_z
 _atom_site_occupancy
  Ba  Ba0  1  -0.04349422  0.73405323  0.15348366  1
  Ba  Ba1  1  0.07328983  0.57303817  0.78691733  1
  Ba  Ba2  1  -0.06933301  0.82891931  0.52120418  1
  Ba  Ba3  1  0.72743130  0.48633451  0.07900447  1
  Ba  Ba4  1  0.76546754  0.47474036  0.38278519  1
  Ba  Ba5  1  -0.02013719  0.48331336  0.00261104  1
  Ba  Ba6  1  -0.11660458  0.04333878  0.74764434  1
  Ba  Ba7  1  0.73373626  -0.08674011  0.12178311  1
  Ba  Ba8  1  0.79902255  0.21260294  0.07786135  1
  Ba  Ba9  1  0.11773022  0.76991435  0.36591965  1
  Ba  Ba10  1  0.64311204  0.61162294  0.69003915  1
  Ba  Ba11  1  0.48804998  -0.25320946  0.27467268  1
  Ba  Ba12  1  0.81357351  0.46712661  0.62979339  1
  Ba  Ba13  1  0.74566291  0.26393607  -0.25066664  1
  Ba  Ba14  1  0.79232252  0.15450543  0.34533324  1
  Ba  Ba15  1  0.26810778  0.50976474  0.27636430  1
  Ba  Ba16  1  -0.04319195  0.30592165  0.50241511  1
  Ba  Ba17  1  0.36076709  -0.06885911  0.45337579  1
  Ba  Ba18  1  0.58935438  0.14299587  0.64091574  1
  Ba  Ba19  1  0.42532889  0.38394425  0.61340415  1
  Ba  Ba20  1  0.74198954  0.72639837  0.32522201  1
  Ba  Ba21  1  -0.02754055  -0.00265632  0.13270658  1
  Ba  Ba22  1  0.51203101  0.84219826  0.69206816  1
  Ba  Ba23  1  0.59754608  0.27776822  0.01846171  1
  Ba  Ba24  1  0.72420548  -0.07134527  0.51428778  1
  Ba  Ba25  1  0.10336622  0.19295288  0.24368416  1
  Ba  Ba26  1  0.22486762  0.25768852  0.72407467  1
  Ba  Ba27  1  -0.01833560  0.19893972  -0.04223468  1
  Ba  Ba28  1  0.56404251  0.43678284  -0.16541579  1
  Ba  Ba29  1  0.57088562  0.25579638  0.39964395  1
  Ba  Ba30  1  0.32976169  0.47051321  0.82791370  1
  Ba  Ba31  1  0.04315786  0.46986002  0.31540975  1
  Ba  Ba32  1  0.29743001  0.30171489  0.04152358  1
  Ba  Ba33  1  0.20324854  0.57057244  0.03142949  1
  Ba  Ba34  1  0.34974997  0.05600232  0.66412854  1
  Ba  Ba35  1  0.35889248  0.79504280  -0.02979450  1
  Ba  Ba36  1  0.33374515  0.17249885  0.29664923  1
  Ba  Ba37  1  0.19359140  0.26443543  0.48915476  1
  Ba  Ba38  1  -0.00447517  0.31878474  0.74869536  1
  Ba  Ba39  1  -0.01834486  0.58477661  0.55530712  1
  Ba  Ba40  1  0.27499559  0.74931455  0.74112793  1
  Ba  Ba41  1  0.24250074  0.04433032  0.04392781  1
  Ba  Ba42  1  -0.00261824  0.04994013  0.43680756  1
  Ba  Ba43  1  0.16773524  0.01412299  0.81151210  1
  Ba  Ba44  1  0.00835229  0.82244525  0.78264198  1
  Ba  Ba45  1  0.29019361  -0.13502324  0.20835711  1
  Ba  Ba46  1  0.75709158  0.79184181  0.87071291  1
  Ba  Ba47  1  0.56841985  0.67513507  0.04951481  1
  Ba  Ba48  1  0.57803173  -0.03229978  0.32338178  1
  Ba  Ba49  1  0.49023241  0.57214500  0.44403626  1
  Ba  Ba50  1  0.59469310  0.01390409  -0.08534055  1
  Fe  Fe51  1  0.85979092  0.61377000  0.78207177  1
  Fe  Fe52  1  0.19829854  0.19785855  0.90699799  1
  Fe  Fe53  1  0.40836565  0.02415709  0.16277872  1
  Fe  Fe54  1  0.42046017  0.17437430  0.11173385  1
  Fe  Fe55  1  0.52848819  0.09462046  0.08813117  1
  Fe  Fe56  1  0.72629797  0.79146995  0.65952847  1
  Fe  Fe57  1  0.41818326  0.24673377  0.76140472  1
  Fe  Fe58  1  0.15731353  0.90094058  0.50751652  1
  Fe  Fe59  1  0.93107372  0.30244199  0.31145533  1
  Fe  Fe60  1  0.98497688  -0.03180349  0.93141705  1
  Fe  Fe61  1  0.21092025  0.90181818  0.62446493  1
  Fe  Fe62  1  0.53720922  0.22453664  0.83879971  1
  Fe  Fe63  1  0.20037816  0.62779549  0.48528940  1
  Fe  Fe64  1  0.84286764  0.34923449  0.23169543  1
  Fe  Fe65  1  0.31015283  0.62570850  0.56757625  1
  Fe  Fe66  1  0.16273268  0.81119304  0.91015915  1
  Fe  Fe67  1  0.09109502  0.70387995  -0.04805440  1
  Fe  Fe68  1  0.22349251  0.44238668  0.62848521  1
  Fe  Fe69  1  0.45879039  0.51316836  0.19867655  1
  Fe  Fe70  1  0.25586848  0.77502837  0.53870307  1
  Fe  Fe71  1  0.44639647  0.40757685  0.98801350  1
  Fe  Fe72  1  0.88990506  0.47764770  0.81102316  1
  Fe  Fe73  1  0.45715158  1.12313143  0.81021501  1
  Fe  Fe74  1  0.14397807  0.48259549  0.50408818  1
  Fe  Fe75  1  0.90486415  0.86951887  0.97597112  1
  Fe  Fe76  1  0.74182430  0.28773917  0.52423668  1
  Fe  Fe77  1  0.39101969  0.73888346  0.54338345  1
  Fe  Fe78  1  1.02567275  0.82474222  -0.00767508  1
  Fe  Fe79  1  0.33418128  0.16905435  0.86651912  1
  Fe  Fe80  1  0.44791318  1.14973781  0.95860734  1
  Fe  Fe81  1  0.92619055  0.21462790  0.20720783  1
  Fe  Fe82  1  0.42643419  0.28483261  0.89121341  1
  Fe  Fe83  1  0.76054113  0.48954146  0.81808932  1
  Fe  Fe84  1  0.83024728  0.85198418  0.69530544  1
  Fe  Fe85  1  0.19495905  0.03412552  0.54713754  1
  Fe  Fe86  1  0.95605053  0.34717560  0.16461407  1
  Fe  Fe87  1  0.49364029  0.10718814  0.22703794  1
  Fe  Fe88  1  0.15578111  0.81171337  0.04364266  1
  Fe  Fe89  1  0.37406427  0.47850483  0.09868400  1
  Fe  Fe90  1  0.42496112  1.02148054  0.02790727  1
  Fe  Fe91  1  0.55392526  0.40366754  0.20392224  1
  Fe  Fe92  1  0.10090728  0.93280174  0.97472471  1
  Fe  Fe93  1  0.84135742  0.70942109  0.68241089  1
  Fe  Fe94  1  0.81112310  0.56772938  0.91243742  1
  Fe  Fe95  1  0.52319498  0.24565267  0.19701580  1
  Fe  Fe96  1  0.44543182  0.35206055  0.13471133  1
  Fe  Fe97  1  0.42986451  0.54943016  0.99991759  1
  Fe  Fe98  1  0.09886175  0.43614651  0.62204490  1
  Fe  Fe99  1  0.13965304  0.22452207  0.01907528  1
  Fe  Fe100  1  0.52807194  0.47450678  0.07614449  1
  Fe  Fe101  1  0.18245354  0.57650630  0.61793105  1
  Bi  Bi102  1  0.29902857  0.46760376  0.48066888  1
  Bi  Bi103  1  0.77289119  0.67189877  0.53299441  1
  Bi  Bi104  1  0.36565217  0.65460668  0.13053598  1
  Bi  Bi105  1  0.37494454  -0.01625425  0.86645111  1
  Bi  Bi106  1  0.42994831  0.37461543  0.30959750  1
  Bi  Bi107  1  0.82872181  0.01937551  0.95805242  1
  Bi  Bi108  1  0.43747860  0.61633225  0.67081822  1
  Bi  Bi109  1  0.11294274  0.74432662  0.60533231  1
  Bi  Bi110  1  0.65079987  0.11522546  0.18890773  1
  Bi  Bi111  1  0.82573374  0.36143869  -0.08068724  1
  Bi  Bi112  1  -0.07248842  0.69034719  -0.06382804  1
  Bi  Bi113  1  0.68586550  0.32333149  0.23439146  1
  Bi  Bi114  1  0.05973086  -0.00671372  0.63239488  1
  Bi  Bi115  1  0.31419929  0.71210188  0.38734449  1
  Bi  Bi116  1  0.69153943  0.95691153  0.72684130  1
  Bi  Bi117  1  0.62655543  0.37446140  0.60872014  1
  Bi  Bi118  1  0.19255987  0.01750914  0.37077612  1
  Bi  Bi119  1  0.60896550  0.57017394  0.24138298  1
  Bi  Bi120  1  0.11415535  0.37173570  0.12601411  1
  Bi  Bi121  1  0.88512775  0.51753629  0.19936327  1
  Bi  Bi122  1  0.82084741  0.14682724  0.56622534  1
  Bi  Bi123  1  0.51195221  0.89574033  0.10386937  1
  Bi  Bi124  1  0.93538970  0.65832416  0.35920044  1
  Bi  Bi125  1  0.84232873  0.93020602  0.31092916  1
  Bi  Bi126  1  0.53672958  0.80786759  0.47863497  1
  Bi  Bi127  1  0.14138468  0.36906681  0.89622367  1
