# generated using pymatgen
data_Ba51Fe51Bi26
_symmetry_space_group_name_H-M   'P 1'
_cell_length_a   16.82456614
_cell_length_b   16.38232792
_cell_length_c   15.85288014
_cell_angle_alpha   91.69997977
_cell_angle_beta   88.77527209
_cell_angle_gamma   88.99412216
_symmetry_Int_Tables_number   1
_chemical_formula_structural   Ba51Fe51Bi26
_chemical_formula_sum   'Ba51 Fe51 Bi26'
_cell_volume   4365.81473603
_cell_formula_units_Z   1
loop_
 _symmetry_equiv_pos_site_id
 _symmetry_equiv_pos_as_xyz
  1  'x, y, z'
loop_
 _atom_site_type_symbol
 _atom_site_label
 _atom_site_symmetry_multiplicity
 _atom_site_fract_x
 _atom_site_fract_y
 _atom_site_fract_z
 _atom_site_occupancy
  Ba  Ba0  1  0.26306360  0.00628382  -0.00787664  1
  Ba  Ba1  1  0.52169428  -0.04459868  0.25789714  1
  Ba  Ba2  1  -0.04511318  0.29700654  0.50123009  1
  Ba  Ba3  1  -0.07586917  0.78173885  0.25814604  1
  Ba  Ba4  1  0.68961919  0.74327411  0.77149836  1
  Ba  Ba5  1  -0.10419992  -0.03722964  0.47293803  1
  Ba  Ba6  1  -0.01875808  -0.04136726  0.03306801  1
  Ba  Ba7  1  0.08115350  -0.02779461  0.28873083  1
  Ba  Ba8  1  0.40624060  0.46763818  0.39557589  1
  Ba  Ba9  1  0.48851587  -0.02808829  0.69129276  1
  Ba  Ba10  1  -0.03947176  0.57361076  0.68224643  1
  Ba  Ba11  1  0.79755001  -0.06047205  0.71762511  1
  Ba  Ba12  1  0.19296937  0.56002952  0.21370976  1
  Ba  Ba13  1  0.59026030  0.22233779  0.81978491  1
  Ba  Ba14  1  0.27891545  0.06798348  0.37038532  1
  Ba  Ba15  1  0.12720362  0.18356506  0.11622307  1
  Ba  Ba16  1  0.00194102  0.55592936  0.36889837  1
  Ba  Ba17  1  0.74416857  0.51932144  -0.07862724  1
  Ba  Ba18  1  0.43446719  0.79466999  0.89630183  1
  Ba  Ba19  1  0.80002033  0.11837689  0.30442719  1
  Ba  Ba20  1  -0.02707487  0.34092723  0.25842318  1
  Ba  Ba21  1  0.25635262  0.31416029  0.27806406  1
  Ba  Ba22  1  -0.01868966  0.23443360  -0.08753895  1
  Ba  Ba23  1  0.49324724  0.02458970  0.00919934  1
  Ba  Ba24  1  0.58647023  0.29791786  0.46542034  1
  Ba  Ba25  1  0.77840669  0.10282067  -0.05762070  1
  Ba  Ba26  1  0.79620381  0.48314046  0.48969248  1
  Ba  Ba27  1  0.23515625  0.47296913  -0.01940479  1
  Ba  Ba28  1  0.17265055  0.20898043  0.55506695  1
  Ba  Ba29  1  0.49859699  0.50365378  0.01807543  1
  Ba  Ba30  1  0.71975292  0.29900661  0.12431043  1
  Ba  Ba31  1  0.74543778  0.71907275  0.11247717  1
  Ba  Ba32  1  0.23657814  -0.00259312  0.71065596  1
  Ba  Ba33  1  0.62670737  0.51855330  0.26870726  1
  Ba  Ba34  1  0.02936874  0.76269817  0.51892753  1
  Ba  Ba35  1  0.02212307  0.81951715  0.82094460  1
  Ba  Ba36  1  0.16836298  0.76682293  0.06647878  1
  Ba  Ba37  1  0.51236949  0.21490601  0.24702267  1
  Ba  Ba38  1  -0.01362089  0.11161801  0.68708579  1
  Ba  Ba39  1  0.20360156  0.25039912  0.84550562  1
  Ba  Ba40  1  0.41076467  0.25828429  0.00724924  1
  Ba  Ba41  1  0.27409661  0.70392437  0.68863363  1
  Ba  Ba42  1  0.36384633  0.71575638  0.27705385  1
  Ba  Ba43  1  0.75547895  0.22610119  0.59864789  1
  Ba  Ba44  1  0.39849321  0.27363627  0.66188742  1
  Ba  Ba45  1  0.53261527  0.53127955  0.71720151  1
  Ba  Ba46  1  -0.10727182  0.39649333  0.04295721  1
  Ba  Ba47  1  0.24672684  -0.16155320  0.46886194  1
  Ba  Ba48  1  0.22234170  0.47249862  0.72417397  1
  Ba  Ba49  1  0.73356767  -0.04346064  0.10227069  1
  Ba  Ba50  1  0.64108199  -0.01761174  0.49527853  1
  Fe  Fe51  1  1.00292254  0.15160927  0.29613750  1
  Fe  Fe52  1  0.18330594  0.49336738  0.40991620  1
  Fe  Fe53  1  0.48698620  0.09679059  0.43469371  1
  Fe  Fe54  1  0.39172026  0.09781844  0.54771502  1
  Fe  Fe55  1  0.85223616  0.67812400  0.47779670  1
  Fe  Fe56  1  0.09454502  0.44771834  0.53223600  1
  Fe  Fe57  1  -0.05431881  0.55400829  0.89436269  1
  Fe  Fe58  1  0.55228968  0.67649518  0.41914035  1
  Fe  Fe59  1  0.10079561  0.22568640  0.36185478  1
  Fe  Fe60  1  0.75857013  0.36547813  0.76142957  1
  Fe  Fe61  1  0.07196884  0.39091880  1.00867550  1
  Fe  Fe62  1  0.89169844  0.28440250  0.74467407  1
  Fe  Fe63  1  0.36198282  0.58301865  0.86917621  1
  Fe  Fe64  1  0.83831722  0.77182394  0.58180603  1
  Fe  Fe65  1  0.64648571  0.79498640  0.40351101  1
  Fe  Fe66  1  0.87832218  0.68198242  0.92391152  1
  Fe  Fe67  1  0.76261610  0.66154308  0.59438626  1
  Fe  Fe68  1  0.79094108  0.53271098  0.14286770  1
  Fe  Fe69  1  0.01298247  0.64811405  0.11759574  1
  Fe  Fe70  1  0.48750085  0.71508821  0.09571092  1
  Fe  Fe71  1  0.51399150  0.13821957  0.56180968  1
  Fe  Fe72  1  0.89951310  0.41951830  0.82086301  1
  Fe  Fe73  1  0.02789609  0.49729998  0.13553697  1
  Fe  Fe74  1  0.63523436  0.12081369  0.12356285  1
  Fe  Fe75  1  0.70511872  0.79687281  0.55649326  1
  Fe  Fe76  1  0.91097617  0.56370174  0.19375092  1
  Fe  Fe77  1  0.03539658  0.12312660  0.42211928  1
  Fe  Fe78  1  0.56233257  0.82132826  0.07779441  1
  Fe  Fe79  1  0.26424083  0.66618788  0.89063763  1
  Fe  Fe80  1  0.42671386  0.75980997  0.50042707  1
  Fe  Fe81  1  0.16944669  0.63666532  0.41785948  1
  Fe  Fe82  1  1.01313804  0.67733588  0.96646865  1
  Fe  Fe83  1  0.80846019  0.31657626  0.88036892  1
  Fe  Fe84  1  0.15664837  0.57541594  0.53837352  1
  Fe  Fe85  1  0.05082025  0.53819236  0.00112800  1
  Fe  Fe86  1  0.63885821  0.84316437  0.96569298  1
  Fe  Fe87  1  0.11653673  0.39383790  0.13165300  1
  Fe  Fe88  1  0.03832988  0.44570270  0.87089475  1
  Fe  Fe89  1  0.12101803  0.36662649  0.41849117  1
  Fe  Fe90  1  0.78658746  0.22080765  0.78952913  1
  Fe  Fe91  1  0.70143221  0.66786862  0.45400794  1
  Fe  Fe92  1  0.59754078  0.18834953  1.02591353  1
  Fe  Fe93  1  0.61321418  0.67391878  0.57058014  1
  Fe  Fe94  1  0.81926347  0.46405054  0.25064724  1
  Fe  Fe95  1  0.86238235  0.39741334  0.67747793  1
  Fe  Fe96  1  0.47636200  0.64087610  0.53878319  1
  Fe  Fe97  1  0.92547210  0.75078971  0.04235933  1
  Fe  Fe98  1  0.79009745  0.79064969  0.43546361  1
  Fe  Fe99  1  0.50414397  0.80870599  0.39204673  1
  Fe  Fe100  1  0.90478507  0.59299064  0.04572671  1
  Fe  Fe101  1  0.55851849  0.79870085  0.53188398  1
  Bi  Bi102  1  0.48307103  0.74563077  0.67969590  1
  Bi  Bi103  1  0.34225130  0.64177688  0.04691592  1
  Bi  Bi104  1  0.82699103  0.84613456  -0.07277354  1
  Bi  Bi105  1  0.80162226  0.62382318  0.31437567  1
  Bi  Bi106  1  0.03863221  0.35350391  0.70921545  1
  Bi  Bi107  1  0.57207664  0.73396754  0.24454211  1
  Bi  Bi108  1  0.10973981  0.61035794  -0.15707331  1
  Bi  Bi109  1  0.25389462  0.39662568  0.52501291  1
  Bi  Bi110  1  0.31401464  0.63352833  0.48567141  1
  Bi  Bi111  1  0.58693616  0.51742027  0.49133074  1
  Bi  Bi112  1  0.75248438  0.52644523  0.70398907  1
  Bi  Bi113  1  0.42979191  -0.05871461  0.47670390  1
  Bi  Bi114  1  0.74850658  0.90600732  0.31403115  1
  Bi  Bi115  1  0.10350577  -0.00462299  0.52045367  1
  Bi  Bi116  1  0.22822230  0.83249740  0.86220156  1
  Bi  Bi117  1  0.33859194  0.12881876  0.16534904  1
  Bi  Bi118  1  0.59787317  0.67840612  -0.03908231  1
  Bi  Bi119  1  0.63369051  0.96794849  0.85130731  1
  Bi  Bi120  1  0.76118692  0.32772098  0.34085426  1
  Bi  Bi121  1  0.39067525  0.23658036  0.43649807  1
  Bi  Bi122  1  0.09115700  0.05496233  0.87259745  1
  Bi  Bi123  1  0.38516935  0.12327146  0.83023632  1
  Bi  Bi124  1  0.39254725  0.85962503  0.10949994  1
  Bi  Bi125  1  0.39915660  0.41014452  0.84432700  1
  Bi  Bi126  1  0.91577889  0.15566852  0.12521982  1
  Bi  Bi127  1  0.12798094  0.75411187  0.30377364  1
