# generated using pymatgen
data_Ba51Fe51Bi26
_symmetry_space_group_name_H-M   'P 1'
_cell_length_a   16.03579688
_cell_length_b   16.11994610
_cell_length_c   16.77428762
_cell_angle_alpha   88.58145416
_cell_angle_beta   89.98028451
_cell_angle_gamma   89.14978975
_symmetry_Int_Tables_number   1
_chemical_formula_structural   Ba51Fe51Bi26
_chemical_formula_sum   'Ba51 Fe51 Bi26'
_cell_volume   4334.28317043
_cell_formula_units_Z   1
loop_
 _symmetry_equiv_pos_site_id
 _symmetry_equiv_pos_as_xyz
  1  'x, y, z'
loop_
 _atom_site_type_symbol
 _atom_site_label
 _atom_site_symmetry_multiplicity
 _atom_site_fract_x
 _atom_site_fract_y
 _atom_site_fract_z
 _atom_site_occupancy
  Ba  Ba0  1  0.24174937  0.19669646  0.77220192  1
  Ba  Ba1  1  0.67128844  0.33385124  0.41864310  1
  Ba  Ba2  1  0.56260416  0.47470960  0.03933319  1
  Ba  Ba3  1  0.86361946  0.55474744  -0.07335597  1
  Ba  Ba4  1  0.03301397  0.87247859  0.30693464  1
  Ba  Ba5  1  0.47900026  0.70148833  0.74074399  1
  Ba  Ba6  1  0.73553610  0.29513152  -0.05836628  1
  Ba  Ba7  1  0.52085470  0.24292601  0.08728209  1
  Ba  Ba8  1  0.24354072  0.31190442  0.00374836  1
  Ba  Ba9  1  0.27798927  -0.04972384  0.75711581  1
  Ba  Ba10  1  0.20668409  -0.11984748  -0.01524691  1
  Ba  Ba11  1  0.02347028  0.45754576  0.07567836  1
  Ba  Ba12  1  0.54264990  0.56355487  0.27310563  1
  Ba  Ba13  1  0.41533758  0.31652906  0.54935944  1
  Ba  Ba14  1  -0.01379484  0.25012369  0.68721526  1
  Ba  Ba15  1  0.74914004  0.05283447  0.67352354  1
  Ba  Ba16  1  0.44975638  0.70948975  0.06488511  1
  Ba  Ba17  1  -0.00423606  0.26382254  -0.06868043  1
  Ba  Ba18  1  0.57281994  -0.02245962  0.50942872  1
  Ba  Ba19  1  0.48631932  0.00638870  -0.02394113  1
  Ba  Ba20  1  0.78931588  0.51672771  0.15369144  1
  Ba  Ba21  1  -0.00529927  0.02067828  0.01457214  1
  Ba  Ba22  1  0.26788664  -0.05890555  0.25347804  1
  Ba  Ba23  1  0.55088958  0.47700535  0.77427545  1
  Ba  Ba24  1  -0.03047643  0.63544070  0.29315132  1
  Ba  Ba25  1  0.60809141  0.12343072  0.30019586  1
  Ba  Ba26  1  -0.14404786  0.02212181  0.22207275  1
  Ba  Ba27  1  0.53213732  -0.05637558  0.75610705  1
  Ba  Ba28  1  -0.05055957  0.21893752  0.41088328  1
  Ba  Ba29  1  -0.03042609  0.00020470  0.52443019  1
  Ba  Ba30  1  0.73341346  0.04416052  0.00926454  1
  Ba  Ba31  1  0.03168411  0.22754645  0.18637817  1
  Ba  Ba32  1  -0.02488707  0.73710196  0.53431975  1
  Ba  Ba33  1  0.25823495  0.54310086  0.05807828  1
  Ba  Ba34  1  0.76890542  0.55541726  0.42852165  1
  Ba  Ba35  1  0.17510331  0.60797961  0.57051565  1
  Ba  Ba36  1  0.54797238  0.85447199  0.23452524  1
  Ba  Ba37  1  0.85431097  0.51347797  0.68832863  1
  Ba  Ba38  1  0.24265385  0.67376988  -0.19734023  1
  Ba  Ba39  1  0.76798231  0.84842346  -0.13093807  1
  Ba  Ba40  1  -0.02849637  0.73219472  0.78800349  1
  Ba  Ba41  1  0.20696819  -0.10694851  0.47905443  1
  Ba  Ba42  1  0.79373462  0.85314151  0.39534841  1
  Ba  Ba43  1  0.28567425  0.20536919  0.23975799  1
  Ba  Ba44  1  0.29367203  0.52066201  0.33713516  1
  Ba  Ba45  1  0.21819284  0.14986312  0.50659545  1
  Ba  Ba46  1  0.14725389  0.71601998  0.16245933  1
  Ba  Ba47  1  0.04922963  0.43125180  0.46802882  1
  Ba  Ba48  1  -0.00010721  -0.02313717  0.77122965  1
  Ba  Ba49  1  0.68082519  0.71785037  0.61136247  1
  Ba  Ba50  1  0.69517095  0.28893803  0.71405009  1
  Fe  Fe51  1  0.20604030  0.11086268  0.00150690  1
  Fe  Fe52  1  0.47305882  0.72853034  0.51775281  1
  Fe  Fe53  1  0.79967480  0.71239144  0.07338376  1
  Fe  Fe54  1  0.42704342  0.11409147  0.80631379  1
  Fe  Fe55  1  0.85969495  0.18892171  0.08708191  1
  Fe  Fe56  1  0.67326368  0.67781994  0.98876996  1
  Fe  Fe57  1  0.45054592  0.68362521  0.39235416  1
  Fe  Fe58  1  0.36032054  0.68359769  0.58523917  1
  Fe  Fe59  1  0.90316754  0.74122324  0.97395925  1
  Fe  Fe60  1  0.38118925  -0.01945776  0.46955081  1
  Fe  Fe61  1  0.12027379  0.48997434  0.89130581  1
  Fe  Fe62  1  0.87042865  0.85385570  0.05690036  1
  Fe  Fe63  1  0.87946349  0.78678121  0.18997580  1
  Fe  Fe64  1  0.77717045  0.19998380  0.53679991  1
  Fe  Fe65  1  0.14640880  0.37541149  0.80498186  1
  Fe  Fe66  1  0.35254574  0.15194925  0.04253683  1
  Fe  Fe67  1  0.55367118  0.17819433  0.85414429  1
  Fe  Fe68  1  0.56178707  0.63044691  0.91596299  1
  Fe  Fe69  1  0.56006179  0.60832524  0.46355708  1
  Fe  Fe70  1  0.50601305  0.48617513  0.47927906  1
  Fe  Fe71  1  0.49556822  0.59287730  0.58710453  1
  Fe  Fe72  1  0.41917997  0.83898909  0.41680626  1
  Fe  Fe73  1  0.43303274  0.97795284  0.35154004  1
  Fe  Fe74  1  0.20999789  0.39938661  0.18969177  1
  Fe  Fe75  1  0.53369496  0.14179764  0.71587725  1
  Fe  Fe76  1  1.00398174  0.42933084  0.81637021  1
  Fe  Fe77  1  0.65878158  0.70270428  0.11881044  1
  Fe  Fe78  1  0.39259769  0.37459826  0.88573954  1
  Fe  Fe79  1  -0.04630850  0.70313907  0.09339863  1
  Fe  Fe80  1  0.13294586  -0.00660565  0.63177896  1
  Fe  Fe81  1  0.26455844  0.45842413  0.87045726  1
  Fe  Fe82  1  0.12477968  0.37096721  0.28805165  1
  Fe  Fe83  1  0.72745301  0.20404437  0.11836292  1
  Fe  Fe84  1  0.20703808  0.72951291  0.36998380  1
  Fe  Fe85  1  0.39578374  0.58774187  0.48701254  1
  Fe  Fe86  1  0.52100626  0.31246595  0.90080754  1
  Fe  Fe87  1  0.31835472  0.09235994  0.92200243  1
  Fe  Fe88  1  0.57170380  0.76374439  0.90565421  1
  Fe  Fe89  1  1.05985329  0.55188825  0.78764972  1
  Fe  Fe90  1  0.19168938  0.49404312  0.74100370  1
  Fe  Fe91  1  0.75139584  0.82672303  0.15034119  1
  Fe  Fe92  1  0.01360840  0.81301849  0.99775428  1
  Fe  Fe93  1  0.30431480  0.38966992  0.75975142  1
  Fe  Fe94  1  0.83572628  0.31898686  0.10793649  1
  Fe  Fe95  1  -0.00946403  0.84255496  0.12560859  1
  Fe  Fe96  1  0.40998125  0.21483723  0.91476902  1
  Fe  Fe97  1  1.05904013  0.44605627  0.69499747  1
  Fe  Fe98  1  0.11496898  0.49628459  0.23914405  1
  Fe  Fe99  1  0.29567126  1.03412189  0.06767964  1
  Fe  Fe100  1  0.32117987  0.72545486  0.44963139  1
  Fe  Fe101  1  0.70253082  0.33055378  0.15419574  1
  Bi  Bi102  1  0.07500144  0.65167815  -0.03665641  1
  Bi  Bi103  1  0.60728103  0.18490462  0.56297384  1
  Bi  Bi104  1  0.35605092  0.52156919  0.65492129  1
  Bi  Bi105  1  0.40504736  0.55346784  0.90845731  1
  Bi  Bi106  1  0.43529811  0.05324354  0.17405939  1
  Bi  Bi107  1  0.39436984  0.08782975  0.63484592  1
  Bi  Bi108  1  0.18573612  0.35286634  0.62456162  1
  Bi  Bi109  1  0.69819364  0.64859237  0.81614256  1
  Bi  Bi110  1  0.80333680  0.23546630  0.25963142  1
  Bi  Bi111  1  0.60043959  0.76566220  0.41660777  1
  Bi  Bi112  1  0.34660478  0.72988690  0.26589618  1
  Bi  Bi113  1  0.74597026  0.69362484  0.26000029  1
  Bi  Bi114  1  0.45000277  0.28813938  0.75171615  1
  Bi  Bi115  1  0.85204516  0.35506381  0.54552723  1
  Bi  Bi116  1  0.10320783  0.07253202  0.33947836  1
  Bi  Bi117  1  0.84666210  0.86010092  0.64838668  1
  Bi  Bi118  1  0.38784275  0.40623776  0.17211379  1
  Bi  Bi119  1  0.39449757  0.85618344  0.59411442  1
  Bi  Bi120  1  0.41062661  0.13800374  0.40393215  1
  Bi  Bi121  1  0.95458978  0.42196812  0.27816820  1
  Bi  Bi122  1  0.12352808  0.82495177  0.66229189  1
  Bi  Bi123  1  0.62985412  0.85001483  0.03575006  1
  Bi  Bi124  1  0.64135008  0.48882904  0.58419407  1
  Bi  Bi125  1  0.85290836  0.12530802  0.84600951  1
  Bi  Bi126  1  0.40114441  0.82557949  0.89129052  1
  Bi  Bi127  1  0.77959457  0.06585592  0.43717165  1
