# generated using pymatgen
data_Ba51Fe51Bi26
_symmetry_space_group_name_H-M   'P 1'
_cell_length_a   16.93181112
_cell_length_b   15.95877615
_cell_length_c   16.19596083
_cell_angle_alpha   90.00961844
_cell_angle_beta   91.71338576
_cell_angle_gamma   91.09880754
_symmetry_Int_Tables_number   1
_chemical_formula_structural   Ba51Fe51Bi26
_chemical_formula_sum   'Ba51 Fe51 Bi26'
_cell_volume   4373.56425908
_cell_formula_units_Z   1
loop_
 _symmetry_equiv_pos_site_id
 _symmetry_equiv_pos_as_xyz
  1  'x, y, z'
loop_
 _atom_site_type_symbol
 _atom_site_label
 _atom_site_symmetry_multiplicity
 _atom_site_fract_x
 _atom_site_fract_y
 _atom_site_fract_z
 _atom_site_occupancy
  Ba  Ba0  1  0.49605642  0.72217062  0.59751133  1
  Ba  Ba1  1  0.35195561  0.01298067  0.81089547  1
  Ba  Ba2  1  0.72521903  0.45846477  0.11629100  1
  Ba  Ba3  1  0.29806321  0.17591117  0.14332129  1
  Ba  Ba4  1  0.09955915  0.88920727  0.37210412  1
  Ba  Ba5  1  0.47450884  0.60660619  -0.14756659  1
  Ba  Ba6  1  -0.09578896  0.03948236  0.46569281  1
  Ba  Ba7  1  0.73920706  0.48567533  0.85260773  1
  Ba  Ba8  1  0.22532182  0.23827044  -0.14554860  1
  Ba  Ba9  1  0.51368124  0.52801162  0.42023832  1
  Ba  Ba10  1  0.53599113  -0.00603187  0.25015579  1
  Ba  Ba11  1  -0.11215389  0.10113602  0.02945320  1
  Ba  Ba12  1  0.09500692  0.36369358  0.64396354  1
  Ba  Ba13  1  0.31694445  0.00706550  0.36159347  1
  Ba  Ba14  1  0.30762031  0.80329401  -0.05692740  1
  Ba  Ba15  1  0.08568208  0.79628060  0.61631474  1
  Ba  Ba16  1  0.67627105  0.39388275  0.56623454  1
  Ba  Ba17  1  -0.09811485  0.31650476  0.51015751  1
  Ba  Ba18  1  -0.02933166  0.52686582  0.26212359  1
  Ba  Ba19  1  0.63064655  -0.03411241  0.75356317  1
  Ba  Ba20  1  0.76417131  0.55626039  0.38297170  1
  Ba  Ba21  1  0.28374170  0.14946231  0.61755821  1
  Ba  Ba22  1  0.22364461  0.55737125  0.52870489  1
  Ba  Ba23  1  0.24607932  0.73820883  0.18286048  1
  Ba  Ba24  1  0.23495585  0.48462186  0.26126121  1
  Ba  Ba25  1  0.60695423  0.17990836  0.42307860  1
  Ba  Ba26  1  0.79928132  0.70352906  0.02708235  1
  Ba  Ba27  1  0.23492870  0.26425019  0.41336766  1
  Ba  Ba28  1  -0.00651176  0.43641566  0.85503074  1
  Ba  Ba29  1  0.83608102  0.23574287  0.79984855  1
  Ba  Ba30  1  0.45386172  0.29921158  -0.07812755  1
  Ba  Ba31  1  0.06307988  0.35394941  0.07148103  1
  Ba  Ba32  1  0.62912583  0.92510169  0.49745501  1
  Ba  Ba33  1  0.85127264  -0.08836609  0.83014548  1
  Ba  Ba34  1  0.30861370  0.75339936  0.41875038  1
  Ba  Ba35  1  0.02918062  0.71002680  0.87652428  1
  Ba  Ba36  1  0.74414911  0.12552470  0.60650858  1
  Ba  Ba37  1  0.41899305  0.41044784  0.67760776  1
  Ba  Ba38  1  -0.00086080  0.23681425  0.30027344  1
  Ba  Ba39  1  -0.03176193  0.58400052  0.55020489  1
  Ba  Ba40  1  0.02384002  0.73052325  0.15322034  1
  Ba  Ba41  1  0.12940719  -0.00464824  0.04255559  1
  Ba  Ba42  1  0.70844832  0.20014055  0.19679537  1
  Ba  Ba43  1  0.68607107  0.72456857  0.79022123  1
  Ba  Ba44  1  0.24863842  0.51908529  -0.12828002  1
  Ba  Ba45  1  0.60756381  0.71207935  0.20090551  1
  Ba  Ba46  1  0.84825975  0.80140899  0.45143847  1
  Ba  Ba47  1  0.46345723  0.42939250  0.15156032  1
  Ba  Ba48  1  0.51092214  -0.02910792  0.01059764  1
  Ba  Ba49  1  0.76067909  -0.08586112  0.13108596  1
  Ba  Ba50  1  0.40986833  -0.05705017  0.58445458  1
  Fe  Fe51  1  0.36176678  0.78075252  0.73949441  1
  Fe  Fe52  1  0.49259646  0.75694425  0.36761770  1
  Fe  Fe53  1  0.87635876  0.04905152  0.23960186  1
  Fe  Fe54  1  0.89606416  0.91073718  0.28098999  1
  Fe  Fe55  1  0.04268770  0.21237948  0.76043162  1
  Fe  Fe56  1  -0.02939231  0.94119933  0.17224063  1
  Fe  Fe57  1  0.02135192  0.95922699  0.74172262  1
  Fe  Fe58  1  0.28041147  0.77817957  0.61086535  1
  Fe  Fe59  1  0.54474930  0.24606312  0.61579882  1
  Fe  Fe60  1  0.16188614  0.98700907  0.68692451  1
  Fe  Fe61  1  0.67830272  0.63003480  0.55976125  1
  Fe  Fe62  1  0.61398645  0.29164309  0.04182468  1
  Fe  Fe63  1  0.30414547  0.65988064  0.69542008  1
  Fe  Fe64  1  0.66121109  0.17450065  0.85201528  1
  Fe  Fe65  1  0.10835206  0.07039335  0.80433936  1
  Fe  Fe66  1  0.50856732  0.27524436  0.28840209  1
  Fe  Fe67  1  0.22731907  0.91952945  0.56391159  1
  Fe  Fe68  1  0.45670047  0.16171985  0.55299895  1
  Fe  Fe69  1  -0.03889347  0.15890215  0.65064089  1
  Fe  Fe70  1  0.22019848  0.73919407  0.75656712  1
  Fe  Fe71  1  0.73472803  0.75540023  0.60055778  1
  Fe  Fe72  1  0.38837802  0.30058591  0.31749676  1
  Fe  Fe73  1  0.41487047  0.18099539  0.40687737  1
  Fe  Fe74  1  0.22619119  0.53140001  0.07256315  1
  Fe  Fe75  1  0.49607145  0.73676723  0.01242205  1
  Fe  Fe76  1  0.45518072  0.20540313  0.71563878  1
  Fe  Fe77  1  0.50801378  0.08964226  0.66508820  1
  Fe  Fe78  1  0.61128732  0.65034449  0.99586522  1
  Fe  Fe79  1  0.61393965  0.78075331  0.96996237  1
  Fe  Fe80  1  0.60691489  0.16925081  0.71545538  1
  Fe  Fe81  1  0.58628428  0.16395634  -0.03304035  1
  Fe  Fe82  1  0.67142609  0.30818183  0.92499807  1
  Fe  Fe83  1  0.14482972  0.02392506  0.54598093  1
  Fe  Fe84  1  0.42538579  0.82292027  0.25901385  1
  Fe  Fe85  1  0.72112109  0.19890887  -0.00400498  1
  Fe  Fe86  1  0.00588103  0.07801356  0.17780638  1
  Fe  Fe87  1  0.19020629  0.64731325  0.01324131  1
  Fe  Fe88  1  0.79704397  0.89398283  0.63042105  1
  Fe  Fe89  1  0.46270280  0.88082433  0.39447499  1
  Fe  Fe90  1  0.10476370  0.12701216  0.67376581  1
  Fe  Fe91  1  0.43077858  0.77677562  0.12806974  1
  Fe  Fe92  1  0.25905861  0.87543879  0.70509962  1
  Fe  Fe93  1  0.77507701  0.60313829  0.64210558  1
  Fe  Fe94  1  1.09553616  0.55894048  0.03900164  1
  Fe  Fe95  1  0.99610553  0.02663919  0.29933184  1
  Fe  Fe96  1  0.43602861  0.16056323  0.27577442  1
  Fe  Fe97  1  1.02145507  1.02344006  0.61853981  1
  Fe  Fe98  1  0.97189712  0.08917371  0.77930689  1
  Fe  Fe99  1  0.92805317  0.89891353  0.63289836  1
  Fe  Fe100  1  0.88631796  0.02243894  0.67381132  1
  Fe  Fe101  1  0.52494032  0.13124741  0.82167204  1
  Bi  Bi102  1  0.45356738  0.32714976  0.48902668  1
  Bi  Bi103  1  0.14763192  0.08939494  0.26452707  1
  Bi  Bi104  1  0.74151441  0.00805764  0.33200499  1
  Bi  Bi105  1  -0.05545991  -0.12478986  0.01606106  1
  Bi  Bi106  1  0.41596374  0.63845941  0.26215246  1
  Bi  Bi107  1  0.59891881  0.32653589  0.76820003  1
  Bi  Bi108  1  0.59577943  0.55197329  0.68326139  1
  Bi  Bi109  1  0.49372010  0.82574504  -0.15898364  1
  Bi  Bi110  1  0.04435759  0.18174954  0.92555891  1
  Bi  Bi111  1  0.70351580  0.03322358  -0.05305201  1
  Bi  Bi112  1  0.06792162  0.17490611  0.51288844  1
  Bi  Bi113  1  0.50496863  0.18748958  0.12039538  1
  Bi  Bi114  1  0.14964463  0.89278661  0.83358575  1
  Bi  Bi115  1  0.12591295  0.59267067  0.71376070  1
  Bi  Bi116  1  0.34531816  0.93381391  0.14243434  1
  Bi  Bi117  1  0.88284768  0.73950632  0.68744723  1
  Bi  Bi118  1  0.63840407  0.38677569  0.30914694  1
  Bi  Bi119  1  0.86022525  0.44698482  0.67799059  1
  Bi  Bi120  1  0.11903913  0.66469491  0.35843900  1
  Bi  Bi121  1  0.83462326  0.32509491  0.99870940  1
  Bi  Bi122  1  0.07524233  0.42019750  0.42490447  1
  Bi  Bi123  1  0.64334836  0.72388268  0.42517697  1
  Bi  Bi124  1  0.27517969  0.36770392  0.03946046  1
  Bi  Bi125  1  0.93321517  0.54238956  1.03958050  1
  Bi  Bi126  1  0.36798937  0.61928980  0.04054974  1
  Bi  Bi127  1  0.83529092  0.72766682  0.24568721  1
