# generated using pymatgen
data_Ba51Fe51Bi26
_symmetry_space_group_name_H-M   'P 1'
_cell_length_a   16.24599162
_cell_length_b   16.53889283
_cell_length_c   16.56310534
_cell_angle_alpha   86.77995912
_cell_angle_beta   91.08290785
_cell_angle_gamma   91.03919659
_symmetry_Int_Tables_number   1
_chemical_formula_structural   Ba51Fe51Bi26
_chemical_formula_sum   'Ba51 Fe51 Bi26'
_cell_volume   4441.88274684
_cell_formula_units_Z   1
loop_
 _symmetry_equiv_pos_site_id
 _symmetry_equiv_pos_as_xyz
  1  'x, y, z'
loop_
 _atom_site_type_symbol
 _atom_site_label
 _atom_site_symmetry_multiplicity
 _atom_site_fract_x
 _atom_site_fract_y
 _atom_site_fract_z
 _atom_site_occupancy
  Ba  Ba0  1  -0.01373113  -0.08796671  0.15891376  1
  Ba  Ba1  1  0.49569046  0.24676204  0.05888307  1
  Ba  Ba2  1  0.04013982  -0.04896624  -0.07785654  1
  Ba  Ba3  1  0.67241363  0.51672428  0.07913176  1
  Ba  Ba4  1  0.28584569  0.31586393  0.34269777  1
  Ba  Ba5  1  0.82246957  0.18171019  0.72765471  1
  Ba  Ba6  1  0.69226535  0.54260462  -0.21058933  1
  Ba  Ba7  1  0.02729822  0.36934536  0.71592124  1
  Ba  Ba8  1  0.84825528  0.13043840  0.05076065  1
  Ba  Ba9  1  0.26264539  0.51862706  0.79457090  1
  Ba  Ba10  1  0.86684717  -0.03651511  0.75958172  1
  Ba  Ba11  1  0.24857369  0.69757615  0.47133796  1
  Ba  Ba12  1  0.72093784  0.46989776  0.49243024  1
  Ba  Ba13  1  0.50535794  0.04747650  0.75465183  1
  Ba  Ba14  1  0.70003239  0.29001550  -0.03981537  1
  Ba  Ba15  1  0.28305939  -0.02046351  0.03853570  1
  Ba  Ba16  1  -0.01846087  0.03531062  0.36981901  1
  Ba  Ba17  1  0.48199166  0.34723571  0.82176272  1
  Ba  Ba18  1  0.51103111  0.22302289  0.30642582  1
  Ba  Ba19  1  0.24824496  0.24881871  0.76573752  1
  Ba  Ba20  1  0.76226315  0.71317808  0.44408672  1
  Ba  Ba21  1  0.59846908  -0.07978807  0.49677086  1
  Ba  Ba22  1  0.02171613  0.21720621  0.53167117  1
  Ba  Ba23  1  0.76316711  -0.01167035  0.28155348  1
  Ba  Ba24  1  -0.01289405  0.45955778  -0.00420644  1
  Ba  Ba25  1  -0.01604105  0.72990940  0.56320445  1
  Ba  Ba26  1  0.74603516  0.25162786  0.27385790  1
  Ba  Ba27  1  0.25020693  -0.00183145  0.77280393  1
  Ba  Ba28  1  0.04981587  -0.03019942  0.58583814  1
  Ba  Ba29  1  0.70219437  0.23027539  0.52406063  1
  Ba  Ba30  1  -0.00344260  0.48895621  0.48436447  1
  Ba  Ba31  1  0.55165398  -0.01462544  0.02433322  1
  Ba  Ba32  1  0.47799651  0.48537167  0.21929580  1
  Ba  Ba33  1  0.51210800  0.75148629  0.77719609  1
  Ba  Ba34  1  0.45098228  0.24644373  0.57600530  1
  Ba  Ba35  1  -0.00235069  0.60887722  0.79942757  1
  Ba  Ba36  1  0.20070905  0.06724449  0.29349740  1
  Ba  Ba37  1  0.00510176  0.27165211  0.22041433  1
  Ba  Ba38  1  0.24225004  0.76334313  0.84982393  1
  Ba  Ba39  1  0.23910459  0.25672177  0.02821093  1
  Ba  Ba40  1  0.18774956  0.80340094  0.24887032  1
  Ba  Ba41  1  0.49968740  0.54032397  0.59937382  1
  Ba  Ba42  1  0.50294895  0.66916258  0.37380599  1
  Ba  Ba43  1  -0.12252058  0.50619994  0.25689511  1
  Ba  Ba44  1  0.13270667  0.54941830  0.29708138  1
  Ba  Ba45  1  0.73193878  0.84558045  -0.08026300  1
  Ba  Ba46  1  0.76668322  0.74104214  0.16709020  1
  Ba  Ba47  1  0.41325402  0.62259903  -0.02247578  1
  Ba  Ba48  1  0.46479677  -0.03130463  0.26121664  1
  Ba  Ba49  1  0.23499367  0.51807668  0.08806660  1
  Ba  Ba50  1  0.30603748  -0.07455411  0.51618342  1
  Fe  Fe51  1  0.98203373  0.13885931  -0.09568919  1
  Fe  Fe52  1  0.18936299  0.83882380  0.65323327  1
  Fe  Fe53  1  0.29828613  0.10866475  0.58848635  1
  Fe  Fe54  1  0.07323221  0.24364477  0.87269182  1
  Fe  Fe55  1  0.10809631  0.65952814  0.10667026  1
  Fe  Fe56  1  0.71697551  0.76839749  0.74132620  1
  Fe  Fe57  1  0.12536217  0.65266972  0.97565381  1
  Fe  Fe58  1  0.48562819  0.44011382  -0.00123971  1
  Fe  Fe59  1  0.06410834  0.10772000  0.03669211  1
  Fe  Fe60  1  0.75529577  0.35103578  0.78319382  1
  Fe  Fe61  1  0.03837431  0.23418837  0.00284951  1
  Fe  Fe62  1  0.06320861  0.71610853  0.37858966  1
  Fe  Fe63  1  0.77969803  0.68729807  0.65236184  1
  Fe  Fe64  1  0.08146260  0.78355311  0.04950721  1
  Fe  Fe65  1  0.47013090  0.68442489  0.15448354  1
  Fe  Fe66  1  0.04463781  0.75372637  0.91625518  1
  Fe  Fe67  1  0.17443121  0.12364873  0.62696947  1
  Fe  Fe68  1  0.95086269  0.81396480  0.34384990  1
  Fe  Fe69  1  0.43814825  0.80752208  1.05286629  1
  Fe  Fe70  1  0.87138591  0.07048833  0.55242792  1
  Fe  Fe71  1  0.38478144  0.40054593  0.07566273  1
  Fe  Fe72  1  0.93105975  0.78131728  0.00695099  1
  Fe  Fe73  1  0.86006285  0.43133890  0.79052381  1
  Fe  Fe74  1  0.35356914  0.41743005  0.94982776  1
  Fe  Fe75  1  0.38036040  0.78315271  0.17636469  1
  Fe  Fe76  1  0.87353861  0.78193372  0.71618582  1
  Fe  Fe77  1  0.53582112  0.80357515  0.16517901  1
  Fe  Fe78  1  0.21316603  0.47700362  0.48416672  1
  Fe  Fe79  1  0.77218240  0.83975239  0.61778094  1
  Fe  Fe80  1  0.31745684  0.79533471  0.66516048  1
  Fe  Fe81  1  0.63020762  0.41080678  0.33174209  1
  Fe  Fe82  1  0.21244580  0.41698739  0.61463309  1
  Fe  Fe83  1  0.80863591  0.38097461  0.66570533  1
  Fe  Fe84  1  0.64761421  0.75277432  0.62176088  1
  Fe  Fe85  1  0.18903529  0.71004690  0.67234487  1
  Fe  Fe86  1  0.06996542  0.84569249  0.40243537  1
  Fe  Fe87  1  0.33650859  0.51692459  0.43757638  1
  Fe  Fe88  1  0.76329108  -0.00735543  0.59137612  1
  Fe  Fe89  1  0.98722367  0.65735994  0.02814736  1
  Fe  Fe90  1  0.93882619  0.67674928  0.36313481  1
  Fe  Fe91  1  0.34102928  0.40932245  0.65210462  1
  Fe  Fe92  1  0.13269513  0.12971250  0.92090606  1
  Fe  Fe93  1  0.33876361  0.40374581  0.51994304  1
  Fe  Fe94  1  0.20201836  0.10970553  0.49149837  1
  Fe  Fe95  1  0.76956587  0.05795996  0.45827647  1
  Fe  Fe96  1  0.81303299  0.69215585  0.80194998  1
  Fe  Fe97  1  0.32246970  0.66240477  0.65778534  1
  Fe  Fe98  1  0.56334716  0.16222157  0.88998805  1
  Fe  Fe99  1  0.85513796  0.15882130  0.43553400  1
  Fe  Fe100  1  0.30379037  0.53641665  0.58647006  1
  Fe  Fe101  1  0.90805490  0.77466184  0.86407528  1
  Bi  Bi102  1  0.13315795  0.56374012  0.62273832  1
  Bi  Bi103  1  0.45334986  0.75491802  0.57049799  1
  Bi  Bi104  1  0.65221655  0.91675541  0.70353695  1
  Bi  Bi105  1  0.25387275  0.74787528  0.06024513  1
  Bi  Bi106  1  0.85170401  -0.09405218  0.48146557  1
  Bi  Bi107  1  0.59128686  0.72349804  0.02983788  1
  Bi  Bi108  1  -0.01572735  0.70118051  0.20221632  1
  Bi  Bi109  1  0.04885497  0.82225801  0.75174178  1
  Bi  Bi110  1  0.22969743  0.27292505  0.54933817  1
  Bi  Bi111  1  -0.16889443  0.63655721  -0.03748824  1
  Bi  Bi112  1  0.86254761  0.54119971  0.64378373  1
  Bi  Bi113  1  -0.09284452  0.29273842  -0.11113321  1
  Bi  Bi114  1  0.48720664  0.40831126  0.42497806  1
  Bi  Bi115  1  0.62943951  0.36395587  0.66661719  1
  Bi  Bi116  1  0.64019088  0.11789495  0.15849022  1
  Bi  Bi117  1  0.41387118  0.88679379  0.89642990  1
  Bi  Bi118  1  0.36744524  0.11205969  0.42697074  1
  Bi  Bi119  1  0.39471554  0.14615124  0.89991734  1
  Bi  Bi120  1  0.70396255  1.07716918  0.88575136  1
  Bi  Bi121  1  0.62617479  0.83083808  0.30506616  1
  Bi  Bi122  1  0.33008409  0.63150600  0.25769952  1
  Bi  Bi123  1  0.67707972  0.56678856  0.29079839  1
  Bi  Bi124  1  0.35454577  0.13654822  0.17482277  1
  Bi  Bi125  1  1.05315892  0.11933119  0.74935638  1
  Bi  Bi126  1  0.88257415  0.32764439  0.40866200  1
  Bi  Bi127  1  0.83572077  0.36035952  0.11268022  1
