# generated using pymatgen
data_Ba51Fe51Bi26
_symmetry_space_group_name_H-M   'P 1'
_cell_length_a   16.21441078
_cell_length_b   16.34202370
_cell_length_c   16.59291959
_cell_angle_alpha   91.75923423
_cell_angle_beta   92.27064600
_cell_angle_gamma   89.26550214
_symmetry_Int_Tables_number   1
_chemical_formula_structural   Ba51Fe51Bi26
_chemical_formula_sum   'Ba51 Fe51 Bi26'
_cell_volume   4390.91091143
_cell_formula_units_Z   1
loop_
 _symmetry_equiv_pos_site_id
 _symmetry_equiv_pos_as_xyz
  1  'x, y, z'
loop_
 _atom_site_type_symbol
 _atom_site_label
 _atom_site_symmetry_multiplicity
 _atom_site_fract_x
 _atom_site_fract_y
 _atom_site_fract_z
 _atom_site_occupancy
  Ba  Ba0  1  0.53890299  0.03215235  -0.02406076  1
  Ba  Ba1  1  0.87011723  0.69425469  0.79737175  1
  Ba  Ba2  1  0.30672727  0.05629104  -0.00239240  1
  Ba  Ba3  1  0.23907923  0.27368992  0.53165379  1
  Ba  Ba4  1  0.82205058  0.45669123  0.26589173  1
  Ba  Ba5  1  0.04603952  0.01544547  0.28419961  1
  Ba  Ba6  1  0.45151979  0.28798532  0.16658596  1
  Ba  Ba7  1  0.54262243  0.08430943  0.26642422  1
  Ba  Ba8  1  0.68425862  0.32842494  0.71120316  1
  Ba  Ba9  1  -0.08059514  0.30449565  0.85318429  1
  Ba  Ba10  1  0.07854345  0.81166476  0.75336878  1
  Ba  Ba11  1  0.59984890  0.29162230  -0.06296615  1
  Ba  Ba12  1  0.80718332  0.73880930  0.01713353  1
  Ba  Ba13  1  0.30029731  0.56578567  0.56158207  1
  Ba  Ba14  1  0.72314838  0.73833784  0.22301264  1
  Ba  Ba15  1  0.27892539  0.82281434  -0.01183301  1
  Ba  Ba16  1  0.04589631  -0.05611271  0.52527415  1
  Ba  Ba17  1  0.79203221  0.12241636  -0.03384017  1
  Ba  Ba18  1  0.19834361  0.24011646  0.81041872  1
  Ba  Ba19  1  -0.02334825  0.06427556  0.76570684  1
  Ba  Ba20  1  0.74097092  0.83225094  0.46437029  1
  Ba  Ba21  1  0.34943349  0.79196992  0.44149748  1
  Ba  Ba22  1  0.06505517  0.51120265  0.23458426  1
  Ba  Ba23  1  0.30372755  0.50257225  0.25801269  1
  Ba  Ba24  1  0.28332092  0.02957949  0.49900279  1
  Ba  Ba25  1  0.51486240  0.51908792  0.68920558  1
  Ba  Ba26  1  0.77172819  -0.02337374  0.25382956  1
  Ba  Ba27  1  0.56819664  0.51266049  0.25122092  1
  Ba  Ba28  1  -0.09140313  0.65256804  0.57964682  1
  Ba  Ba29  1  0.04459627  0.79185924  0.02078516  1
  Ba  Ba30  1  0.20826168  0.58416368  0.01978874  1
  Ba  Ba31  1  0.43802091  0.71161920  0.19796640  1
  Ba  Ba32  1  0.04445836  0.21741475  0.06393122  1
  Ba  Ba33  1  0.00890176  0.71967973  0.37672033  1
  Ba  Ba34  1  0.34075355  0.75503483  0.71441517  1
  Ba  Ba35  1  0.70280329  0.18406240  0.47867976  1
  Ba  Ba36  1  0.21041960  0.27465404  0.27437932  1
  Ba  Ba37  1  0.28141246  0.00026682  0.76001935  1
  Ba  Ba38  1  0.65993561  0.51394383  0.04177472  1
  Ba  Ba39  1  0.47723710  0.14656604  0.65730939  1
  Ba  Ba40  1  -0.01938503  0.26755350  0.46432689  1
  Ba  Ba41  1  0.76292497  0.02156824  0.62564059  1
  Ba  Ba42  1  0.59586096  0.77005648  0.67846648  1
  Ba  Ba43  1  0.14470863  0.50389874  0.73955396  1
  Ba  Ba44  1  -0.08815978  0.42890953  0.63446954  1
  Ba  Ba45  1  0.49139766  0.64502137  -0.08581593  1
  Ba  Ba46  1  0.36537637  0.38781969  -0.09618692  1
  Ba  Ba47  1  0.48505840  0.36547836  0.46190168  1
  Ba  Ba48  1  -0.05095367  0.50600493  -0.00207078  1
  Ba  Ba49  1  -0.17618583  0.21271322  0.23586451  1
  Ba  Ba50  1  0.70277089  -0.08458615  0.83565318  1
  Fe  Fe51  1  0.29327719  0.83252091  0.24298353  1
  Fe  Fe52  1  0.95755949  0.11370325  0.57146182  1
  Fe  Fe53  1  0.57483124  0.86437427  0.12558842  1
  Fe  Fe54  1  0.14301795  0.84137127  0.21378595  1
  Fe  Fe55  1  0.27346547  0.63487297  0.84216970  1
  Fe  Fe56  1  0.24637787  -0.03930138  0.19357646  1
  Fe  Fe57  1  0.66539441  0.48272577  0.83780987  1
  Fe  Fe58  1  0.33744178  0.54483730  0.77846551  1
  Fe  Fe59  1  0.21664483  0.74026560  0.15489558  1
  Fe  Fe60  1  0.23708674  0.43569961  0.42898613  1
  Fe  Fe61  1  0.67466353  0.33273267  0.15496840  1
  Fe  Fe62  1  0.95139836  0.65831145  0.16521394  1
  Fe  Fe63  1  0.24443755  0.06470326  0.31111520  1
  Fe  Fe64  1  0.79014048  0.81773259  0.65880067  1
  Fe  Fe65  1  -0.10858643  0.88578415  0.72056380  1
  Fe  Fe66  1  0.57388153  0.54423765  0.50424293  1
  Fe  Fe67  1  0.70130377  0.60598420  0.52712890  1
  Fe  Fe68  1  0.47684650  0.82487783  1.02967832  1
  Fe  Fe69  1  0.11293077  0.40783743  0.39233203  1
  Fe  Fe70  1  0.56959468  -0.01411006  0.54646221  1
  Fe  Fe71  1  0.68596075  0.45643022  0.55951651  1
  Fe  Fe72  1  0.99943821  0.02636339  0.97062468  1
  Fe  Fe73  1  0.15674426  0.39455227  1.11063561  1
  Fe  Fe74  1  0.11498763  0.07350126  0.91654502  1
  Fe  Fe75  1  0.63078598  0.63238685  0.39660042  1
  Fe  Fe76  1  0.35849016  0.96193929  0.31003223  1
  Fe  Fe77  1  0.34343065  0.08555311  0.22138218  1
  Fe  Fe78  1  0.09185202  0.56854842  0.52762839  1
  Fe  Fe79  1  0.21563925  0.91478471  0.33050294  1
  Fe  Fe80  1  0.21559882  0.10511768  0.17029152  1
  Fe  Fe81  1  0.10522780  0.94467133  0.90614081  1
  Fe  Fe82  1  0.12456726  0.44089770  0.52538440  1
  Fe  Fe83  1  0.61332491  0.98427615  0.42458102  1
  Fe  Fe84  1  0.60056084  0.82134239  0.97536894  1
  Fe  Fe85  1  0.53955243  0.73800435  0.38387627  1
  Fe  Fe86  1  0.50561495  0.08405786  0.46753581  1
  Fe  Fe87  1  0.15574871  0.54981852  0.41230962  1
  Fe  Fe88  1  0.76377261  0.41432120  0.90791074  1
  Fe  Fe89  1  0.28205871  0.41293053  0.07937845  1
  Fe  Fe90  1  0.67812115  0.48979763  0.41234706  1
  Fe  Fe91  1  0.56175077  0.69308750  0.50810540  1
  Fe  Fe92  1  0.07947004  0.70411283  0.18568323  1
  Fe  Fe93  1  0.54557061  0.85008422  0.48152936  1
  Fe  Fe94  1  0.59533754  0.73319875  0.07059077  1
  Fe  Fe95  1  0.75519238  0.37630164  0.46610958  1
  Fe  Fe96  1  0.90351485  0.84382667  0.59686369  1
  Fe  Fe97  1  0.46466113  -0.04214289  0.42316953  1
  Fe  Fe98  1  0.16636241  0.38631645  0.98249624  1
  Fe  Fe99  1  0.80632494  0.49957430  0.48254819  1
  Fe  Fe100  1  0.82085056  0.47748836  0.80981657  1
  Fe  Fe101  1  0.75767474  0.56838437  0.88814188  1
  Bi  Bi102  1  0.44493943  0.59588165  0.40459175  1
  Bi  Bi103  1  0.71104205  -0.07784329  0.05672489  1
  Bi  Bi104  1  0.25489838  0.25064370  0.06101502  1
  Bi  Bi105  1  0.12549828  -0.01440894  0.07687593  1
  Bi  Bi106  1  0.41135686  -0.06862117  0.14409643  1
  Bi  Bi107  1  0.72764538  0.56315274  0.69428064  1
  Bi  Bi108  1  0.46539707  -0.14184180  0.86217121  1
  Bi  Bi109  1  0.79955111  0.63612036  0.38808086  1
  Bi  Bi110  1  0.64888382  0.32564278  0.32271030  1
  Bi  Bi111  1  0.38013781  0.17199760  0.37766018  1
  Bi  Bi112  1  0.20687526  0.68925219  0.30931021  1
  Bi  Bi113  1  -0.02862818  0.48993710  0.43171298  1
  Bi  Bi114  1  0.57018779  0.87283381  0.30151489  1
  Bi  Bi115  1  0.42755679  0.50668173  0.07698569  1
  Bi  Bi116  1  0.86126799  0.22243320  0.65082447  1
  Bi  Bi117  1  0.91834179  0.89644862  0.88746133  1
  Bi  Bi118  1  0.92092628  0.05269138  0.11520173  1
  Bi  Bi119  1  0.12397733  0.12301352  0.62583498  1
  Bi  Bi120  1  0.43470818  0.91802770  0.60732226  1
  Bi  Bi121  1  0.65156645  0.12533911  0.79320819  1
  Bi  Bi122  1  0.93989659  0.82138381  0.20187947  1
  Bi  Bi123  1  0.81638354  0.34534635  0.05664960  1
  Bi  Bi124  1  0.63904617  0.17598719  0.11098080  1
  Bi  Bi125  1  0.88063431  0.06106667  0.42944060  1
  Bi  Bi126  1  0.33356739  0.39257780  0.68998938  1
  Bi  Bi127  1  0.40674783  0.17187793  0.85273780  1
