# generated using pymatgen
data_Ba51Fe51Bi26
_symmetry_space_group_name_H-M   'P 1'
_cell_length_a   16.09799079
_cell_length_b   16.33454347
_cell_length_c   16.56950329
_cell_angle_alpha   90.28238537
_cell_angle_beta   89.94725650
_cell_angle_gamma   88.28079270
_symmetry_Int_Tables_number   1
_chemical_formula_structural   Ba51Fe51Bi26
_chemical_formula_sum   'Ba51 Fe51 Bi26'
_cell_volume   4354.98942416
_cell_formula_units_Z   1
loop_
 _symmetry_equiv_pos_site_id
 _symmetry_equiv_pos_as_xyz
  1  'x, y, z'
loop_
 _atom_site_type_symbol
 _atom_site_label
 _atom_site_symmetry_multiplicity
 _atom_site_fract_x
 _atom_site_fract_y
 _atom_site_fract_z
 _atom_site_occupancy
  Ba  Ba0  1  0.04629522  0.07557281  0.32740170  1
  Ba  Ba1  1  0.14762252  0.51784188  0.51412282  1
  Ba  Ba2  1  0.21176503  0.50678907  0.26763323  1
  Ba  Ba3  1  0.06615653  0.26729459  0.48205480  1
  Ba  Ba4  1  0.43300327  0.70490833  0.71177658  1
  Ba  Ba5  1  0.43166841  -0.10724248  0.34729730  1
  Ba  Ba6  1  -0.05435511  0.30649805  0.18711225  1
  Ba  Ba7  1  0.51613703  0.29970086  0.76298424  1
  Ba  Ba8  1  0.22010176  0.41793445  0.04537944  1
  Ba  Ba9  1  0.31361905  -0.00451608  -0.03269475  1
  Ba  Ba10  1  0.47582050  0.28774508  0.02505820  1
  Ba  Ba11  1  0.56451498  0.18314267  0.31452123  1
  Ba  Ba12  1  0.70844421  0.52500339  -0.04892087  1
  Ba  Ba13  1  0.31470941  0.49015521  0.69655222  1
  Ba  Ba14  1  0.57260519  0.66068557  0.41564873  1
  Ba  Ba15  1  0.79252583  0.09165992  0.24552129  1
  Ba  Ba16  1  0.72588097  -0.05074916  0.91993012  1
  Ba  Ba17  1  0.32290892  0.21223869  0.44246100  1
  Ba  Ba18  1  -0.06516008  0.65264604  0.48786852  1
  Ba  Ba19  1  0.37070170  -0.04550475  0.72049250  1
  Ba  Ba20  1  0.54414166  0.03111120  0.49206285  1
  Ba  Ba21  1  0.18838540  0.11061811  0.65349237  1
  Ba  Ba22  1  -0.02684685  0.80941407  0.20011715  1
  Ba  Ba23  1  0.02197287  0.00172272  0.78255787  1
  Ba  Ba24  1  0.74280302  0.84695369  0.52230847  1
  Ba  Ba25  1  0.58851773  0.27200454  0.53671180  1
  Ba  Ba26  1  -0.02807686  0.57494958  0.24934335  1
  Ba  Ba27  1  0.30589478  0.72030715  0.49455231  1
  Ba  Ba28  1  0.17681025  0.77873522  0.72593934  1
  Ba  Ba29  1  0.27545178  0.25097173  0.81243566  1
  Ba  Ba30  1  0.26046364  0.73364244  0.22201107  1
  Ba  Ba31  1  0.83175050  0.26677522  0.54413148  1
  Ba  Ba32  1  0.23538602  0.62737566  -0.08235322  1
  Ba  Ba33  1  0.21395539  -0.03346743  0.18559719  1
  Ba  Ba34  1  0.75243635  0.50209759  0.20434164  1
  Ba  Ba35  1  0.69311262  0.88080957  0.28478879  1
  Ba  Ba36  1  0.67654807  0.66717767  0.67990552  1
  Ba  Ba37  1  0.54002988  0.02342023  0.07700373  1
  Ba  Ba38  1  0.60178351  0.03162057  0.72272362  1
  Ba  Ba39  1  0.06073522  -0.13683831  0.49382613  1
  Ba  Ba40  1  -0.08576767  0.76910595  0.71400747  1
  Ba  Ba41  1  0.48650741  0.62832559  -0.06113789  1
  Ba  Ba42  1  0.54322921  0.68915905  0.17348417  1
  Ba  Ba43  1  -0.02187327  0.76416844  -0.05144881  1
  Ba  Ba44  1  -0.06645919  0.08473610  0.03524813  1
  Ba  Ba45  1  0.79491600  0.41709125  0.73228710  1
  Ba  Ba46  1  0.76238828  0.49718516  0.44282298  1
  Ba  Ba47  1  0.81775624  0.17571741  0.80811385  1
  Ba  Ba48  1  -0.01441562  0.49294617  -0.01129034  1
  Ba  Ba49  1  0.22363554  0.23724358  0.21841104  1
  Ba  Ba50  1  0.39217038  0.44397858  0.42083059  1
  Fe  Fe51  1  0.00580875  0.45547709  0.39674500  1
  Fe  Fe52  1  1.02690305  0.33212085  0.79900995  1
  Fe  Fe53  1  0.35099352  0.80718886  0.88522342  1
  Fe  Fe54  1  0.31686476  1.03468895  0.51681023  1
  Fe  Fe55  1  0.88586813  0.09714949  0.45298508  1
  Fe  Fe56  1  0.26362849  0.03519156  0.38560586  1
  Fe  Fe57  1  0.67115978  0.84672814  0.09808094  1
  Fe  Fe58  1  0.16229269  0.03433134  0.48284310  1
  Fe  Fe59  1  0.45899025  0.82280603  0.98709942  1
  Fe  Fe60  1  0.68737243  0.70160382  0.04479621  1
  Fe  Fe61  1  0.68333129  0.34671678  0.07482557  1
  Fe  Fe62  1  0.90946698  0.08914246  0.61114237  1
  Fe  Fe63  1  0.38562198  0.42081566  0.17993369  1
  Fe  Fe64  1  0.57305153  0.46995120  0.46958382  1
  Fe  Fe65  1  0.77394130  0.74074112  0.15705355  1
  Fe  Fe66  1  0.76739803  0.07623689  0.56239137  1
  Fe  Fe67  1  0.97668843  0.46625443  0.79545178  1
  Fe  Fe68  1  0.44166036  0.52052565  0.24583608  1
  Fe  Fe69  1  0.57009540  0.48695004  0.30843354  1
  Fe  Fe70  1  0.32056357  0.78523920  0.01678611  1
  Fe  Fe71  1  0.88842466  0.97882596  0.53064504  1
  Fe  Fe72  1  0.96588730  0.56376155  0.67851499  1
  Fe  Fe73  1  0.91057258  0.37603764  0.37814859  1
  Fe  Fe74  1  0.24536883  0.91238812  0.43029833  1
  Fe  Fe75  1  0.22903818  0.92792258  0.56892417  1
  Fe  Fe76  1  0.17804217  0.79772958  0.03495769  1
  Fe  Fe77  1  0.76342329  1.01492916  0.43616263  1
  Fe  Fe78  1  0.60208080  0.80058015  0.98674811  1
  Fe  Fe79  1  0.49729147  0.43861503  0.60006133  1
  Fe  Fe80  1  0.50564213  0.56517828  0.57083651  1
  Fe  Fe81  1  0.62948898  0.47442274  0.59789946  1
  Fe  Fe82  1  0.10862917  0.29015018  0.91901994  1
  Fe  Fe83  1  0.80241003  0.88426967  0.11214842  1
  Fe  Fe84  1  0.60179595  0.37131702  0.36919356  1
  Fe  Fe85  1  1.03411245  0.19417412  0.85021967  1
  Fe  Fe86  1  0.74881077  0.27094968  0.16718217  1
  Fe  Fe87  1  0.07929128  0.23212811  0.03800146  1
  Fe  Fe88  1  0.49125911  0.37057492  0.25664058  1
  Fe  Fe89  1  0.13043410  0.10875539  0.06927042  1
  Fe  Fe90  1  0.79261643  0.78293564  1.02661474  1
  Fe  Fe91  1  0.21389351  0.83393598  0.91274432  1
  Fe  Fe92  1  0.12735492  0.13066296  0.93273560  1
  Fe  Fe93  1  0.62740937  0.15809337  0.90450731  1
  Fe  Fe94  1  0.61923979  0.23727308  0.14743306  1
  Fe  Fe95  1  0.73696802  0.14325247  0.43350019  1
  Fe  Fe96  1  0.09996642  0.60007543  0.68131932  1
  Fe  Fe97  1  0.01830775  0.06764456  0.52850150  1
  Fe  Fe98  1  0.05174020  0.58917901  0.80129523  1
  Fe  Fe99  1  0.06895558  0.45289292  0.69484768  1
  Fe  Fe100  1  0.35755972  0.90540107  0.52470972  1
  Fe  Fe101  1  0.63488274  0.35548129  0.22687703  1
  Bi  Bi102  1  0.72150700  0.14582907  0.04468680  1
  Bi  Bi103  1  0.76317504  0.29614194  0.33815074  1
  Bi  Bi104  1  -0.05372707  0.44515610  0.55560162  1
  Bi  Bi105  1  0.09906050  -0.05095429  -0.00772505  1
  Bi  Bi106  1  0.25827544  0.20539618  0.01747838  1
  Bi  Bi107  1  -0.06424204  0.29085229  -0.04616689  1
  Bi  Bi108  1  0.55303292  0.51462934  0.74805303  1
  Bi  Bi109  1  0.15147754  0.44198431  0.84231469  1
  Bi  Bi110  1  0.40819842  0.86596378  0.13837471  1
  Bi  Bi111  1  0.55567627  0.46928298  0.11819043  1
  Bi  Bi112  1  -0.00260102  0.21049340  0.68361873  1
  Bi  Bi113  1  0.81624655  -0.02882182  0.69957974  1
  Bi  Bi114  1  0.72676126  0.73838285  -0.12019510  1
  Bi  Bi115  1  0.10073482  0.65136361  0.09294670  1
  Bi  Bi116  1  0.37700222  0.08821210  0.27008173  1
  Bi  Bi117  1  0.89483335  0.92809770  0.36727159  1
  Bi  Bi118  1  0.87247765  0.59653607  0.82542955  1
  Bi  Bi119  1  0.78585193  0.68605833  0.32015044  1
  Bi  Bi120  1  0.67405150  0.31918253  0.90512481  1
  Bi  Bi121  1  0.47001886  0.11154009  0.87759324  1
  Bi  Bi122  1  0.41160515  0.14774734  0.62432457  1
  Bi  Bi123  1  0.11512986  0.68457084  0.37239364  1
  Bi  Bi124  1  0.37878655  0.43551220  0.89008119  1
  Bi  Bi125  1  0.35426896  0.57618479  0.11146373  1
  Bi  Bi126  1  0.52399702  0.85372528  0.83975769  1
  Bi  Bi127  1  0.51349520  0.82667320  0.55579746  1
