# generated using pymatgen
data_Ba51Fe51Bi26
_symmetry_space_group_name_H-M   'P 1'
_cell_length_a   16.32553199
_cell_length_b   16.52612384
_cell_length_c   16.30024533
_cell_angle_alpha   87.81540596
_cell_angle_beta   86.71671228
_cell_angle_gamma   88.70421517
_symmetry_Int_Tables_number   1
_chemical_formula_structural   Ba51Fe51Bi26
_chemical_formula_sum   'Ba51 Fe51 Bi26'
_cell_volume   4386.43992572
_cell_formula_units_Z   1
loop_
 _symmetry_equiv_pos_site_id
 _symmetry_equiv_pos_as_xyz
  1  'x, y, z'
loop_
 _atom_site_type_symbol
 _atom_site_label
 _atom_site_symmetry_multiplicity
 _atom_site_fract_x
 _atom_site_fract_y
 _atom_site_fract_z
 _atom_site_occupancy
  Ba  Ba0  1  0.40961495  0.23671207  0.65163440  1
  Ba  Ba1  1  0.58625166  0.13952608  0.02071205  1
  Ba  Ba2  1  0.71193851  0.51868404  0.28969911  1
  Ba  Ba3  1  -0.02580391  0.32198709  0.56151186  1
  Ba  Ba4  1  0.06039803  0.86246857  -0.08396211  1
  Ba  Ba5  1  0.37863661  0.48917976  0.04553006  1
  Ba  Ba6  1  0.24974066  0.80931665  0.76953857  1
  Ba  Ba7  1  0.77783056  0.17739711  0.52213383  1
  Ba  Ba8  1  0.41594703  0.07783872  0.43086562  1
  Ba  Ba9  1  0.02978040  0.31892761  0.02715480  1
  Ba  Ba10  1  0.42613462  -0.01897023  -0.06431391  1
  Ba  Ba11  1  0.19118988  0.06233531  0.63814827  1
  Ba  Ba12  1  0.26629954  0.25759171  0.41000134  1
  Ba  Ba13  1  0.64366374  0.17395588  0.76848438  1
  Ba  Ba14  1  0.64220982  0.64497919  -0.04534332  1
  Ba  Ba15  1  0.49259720  0.38742616  0.83909057  1
  Ba  Ba16  1  0.33974566  0.19547097  0.89027156  1
  Ba  Ba17  1  0.73191985  0.22836769  0.25759916  1
  Ba  Ba18  1  0.12030538  0.25168749  0.80727976  1
  Ba  Ba19  1  -0.04446002  0.72026236  0.69068966  1
  Ba  Ba20  1  0.54628530  0.34388682  0.13104208  1
  Ba  Ba21  1  0.04183094  0.71280478  0.42226066  1
  Ba  Ba22  1  0.78832207  -0.07375411  0.13844717  1
  Ba  Ba23  1  0.80142532  -0.15433937  -0.08343479  1
  Ba  Ba24  1  0.59399614  0.03639248  0.23704113  1
  Ba  Ba25  1  0.75295315  0.77513751  0.51442754  1
  Ba  Ba26  1  0.87972279  0.23061834  0.82715646  1
  Ba  Ba27  1  0.48419288  0.51450885  0.60727542  1
  Ba  Ba28  1  0.77315643  0.45029773  0.76849455  1
  Ba  Ba29  1  0.24782750  0.24450617  0.13738215  1
  Ba  Ba30  1  0.56834017  0.30164686  0.42828683  1
  Ba  Ba31  1  0.33371877  -0.03482435  0.24783599  1
  Ba  Ba32  1  0.00101920  0.21159040  0.32198017  1
  Ba  Ba33  1  0.62321964  0.76516176  0.71973501  1
  Ba  Ba34  1  0.27091565  0.55169880  0.78275063  1
  Ba  Ba35  1  0.63916214  0.75422288  0.27284603  1
  Ba  Ba36  1  0.30377139  0.62227320  0.47315602  1
  Ba  Ba37  1  -0.01181819  -0.02509594  0.45366883  1
  Ba  Ba38  1  -0.08036287  0.60086262  -0.02394159  1
  Ba  Ba39  1  0.46199168  0.52314957  0.32523676  1
  Ba  Ba40  1  -0.03260073  0.75763653  0.18618877  1
  Ba  Ba41  1  -0.16516811  -0.00912347  0.71472279  1
  Ba  Ba42  1  0.78282459  0.51375203  0.52734227  1
  Ba  Ba43  1  0.15924101  -0.01729473  0.07662538  1
  Ba  Ba44  1  -0.02607043  0.47332481  0.27852622  1
  Ba  Ba45  1  0.19173569  0.42869440  0.59401444  1
  Ba  Ba46  1  0.22946885  0.85595018  0.48869416  1
  Ba  Ba47  1  0.45672910  0.74379461  0.09570524  1
  Ba  Ba48  1  0.78260866  0.42611728  0.06496179  1
  Ba  Ba49  1  0.27913647  0.65515336  0.23855966  1
  Ba  Ba50  1  0.13712599  0.53155840  0.06732132  1
  Fe  Fe51  1  0.58701821  0.97421199  0.65975561  1
  Fe  Fe52  1  0.36609092  -0.09731993  0.63662235  1
  Fe  Fe53  1  0.48322042  0.05595575  0.73911900  1
  Fe  Fe54  1  0.95342834  0.53797473  0.79319557  1
  Fe  Fe55  1  0.45743386  0.60657719  0.89274754  1
  Fe  Fe56  1  0.33977823  0.36681760  0.25486412  1
  Fe  Fe57  1  0.16831119  0.74261192  0.08803591  1
  Fe  Fe58  1  0.79014549  -0.01238926  0.45096377  1
  Fe  Fe59  1  0.13414902  0.97389821  0.29729032  1
  Fe  Fe60  1  0.66958916  -0.07796959  0.39812897  1
  Fe  Fe61  1  0.91815674  0.16282782  1.00168511  1
  Fe  Fe62  1  0.98055938  0.51154566  0.64831318  1
  Fe  Fe63  1  0.56089763  0.81308828  0.46520939  1
  Fe  Fe64  1  0.52146393  0.91264945  0.37712694  1
  Fe  Fe65  1  0.42595413  0.88597918  0.49662519  1
  Fe  Fe66  1  0.43335472  0.65868427  0.77376743  1
  Fe  Fe67  1  0.64855605  -0.04153006  -0.00606224  1
  Fe  Fe68  1  0.07479947  0.46728566  0.86054138  1
  Fe  Fe69  1  0.55928426  0.96475386  0.50246441  1
  Fe  Fe70  1  0.15805384  0.51589455  0.33684650  1
  Fe  Fe71  1  0.30545573  0.35621332  0.77879574  1
  Fe  Fe72  1  0.93071024  1.04581781  0.07466627  1
  Fe  Fe73  1  0.02290281  0.13319393  0.12686820  1
  Fe  Fe74  1  0.94264306  1.02984473  0.92381183  1
  Fe  Fe75  1  0.69016567  0.97415633  0.55148504  1
  Fe  Fe76  1  0.64947182  0.82077638  0.06813126  1
  Fe  Fe77  1  0.51636710  0.86549534  0.60090734  1
  Fe  Fe78  1  0.55419128  -0.08296552  0.08762775  1
  Fe  Fe79  1  0.17874050  0.37276636  0.27189569  1
  Fe  Fe80  1  0.33861893  0.67927247  0.90789300  1
  Fe  Fe81  1  0.89406721  0.21208292  0.13256025  1
  Fe  Fe82  1  0.19213475  0.69757579  0.95645955  1
  Fe  Fe83  1  0.08185469  0.53345124  0.72849571  1
  Fe  Fe84  1  0.94928563  0.42021297  0.87053957  1
  Fe  Fe85  1  0.12501265  0.08950946  0.23580315  1
  Fe  Fe86  1  0.12980214  0.40034165  0.40022660  1
  Fe  Fe87  1  0.27341543  0.44523595  0.36715349  1
  Fe  Fe88  1  0.78802617  0.23095101  0.02845142  1
  Fe  Fe89  1  0.79125675  0.11647177  0.10057959  1
  Fe  Fe90  1  0.58981694  0.84908538  -0.04842513  1
  Fe  Fe91  1  0.65699614  0.05947898  0.42171038  1
  Fe  Fe92  1  0.03700803  1.04527735  0.82397619  1
  Fe  Fe93  1  0.26007681  0.46935367  0.22502815  1
  Fe  Fe94  1  0.04806534  0.10132768  0.96595997  1
  Fe  Fe95  1  0.77711950  0.03477599  0.32341282  1
  Fe  Fe96  1  0.28633597  0.66239558  0.04004114  1
  Fe  Fe97  1  0.44674430  0.00787418  0.60832479  1
  Fe  Fe98  1  0.46445933  0.91194661  0.73982003  1
  Fe  Fe99  1  1.00552384  0.40284862  0.74314413  1
  Fe  Fe100  1  0.87335454  1.09554759  0.21364055  1
  Fe  Fe101  1  0.35445370  0.01352844  0.73907992  1
  Bi  Bi102  1  -0.00964054  -0.01870278  0.22496993  1
  Bi  Bi103  1  0.46579794  0.78368778  0.86993300  1
  Bi  Bi104  1  0.08298764  0.64852601  0.84984895  1
  Bi  Bi105  1  0.77873699  0.06533077  -0.05939109  1
  Bi  Bi106  1  0.41543506  0.78524528  0.35210516  1
  Bi  Bi107  1  0.18639242  0.06726145  0.41219433  1
  Bi  Bi108  1  0.83456076  -0.13192234  0.34006821  1
  Bi  Bi109  1  0.20488485  0.04099600  0.85564330  1
  Bi  Bi110  1  0.40889111  0.73709884  0.61995721  1
  Bi  Bi111  1  0.28411547  0.82976684  -0.00568843  1
  Bi  Bi112  1  0.57509400  0.12231661  0.56872405  1
  Bi  Bi113  1  0.02791571  0.51046633  0.47975614  1
  Bi  Bi114  1  0.62397982  -0.03648121  -0.17812979  1
  Bi  Bi115  1  0.58281048  0.56515194  0.77536907  1
  Bi  Bi116  1  0.43029040  0.21055362  0.25393114  1
  Bi  Bi117  1  0.04027004  0.92303439  0.69761906  1
  Bi  Bi118  1  0.82732581  0.34805487  0.39610615  1
  Bi  Bi119  1  0.67922420  0.31689233  0.92907022  1
  Bi  Bi120  1  0.14610238  0.65288376  0.61679336  1
  Bi  Bi121  1  0.15938953  0.82127603  0.24846786  1
  Bi  Bi122  1  0.77780706  0.70680225  0.09978656  1
  Bi  Bi123  1  0.62846883  0.34798522  0.63054053  1
  Bi  Bi124  1  0.59293609  0.63906628  0.46040315  1
  Bi  Bi125  1  0.56814257  0.55104915  0.13759375  1
  Bi  Bi126  1  0.23204068  0.38297480  0.93209975  1
  Bi  Bi127  1  0.85307752  0.64984179  0.35588880  1
