# generated using pymatgen
data_Ba51Fe51Bi26
_symmetry_space_group_name_H-M   'P 1'
_cell_length_a   16.37610382
_cell_length_b   16.00747187
_cell_length_c   16.77100556
_cell_angle_alpha   89.78642369
_cell_angle_beta   91.52375481
_cell_angle_gamma   89.87245190
_symmetry_Int_Tables_number   1
_chemical_formula_structural   Ba51Fe51Bi26
_chemical_formula_sum   'Ba51 Fe51 Bi26'
_cell_volume   4394.75471792
_cell_formula_units_Z   1
loop_
 _symmetry_equiv_pos_site_id
 _symmetry_equiv_pos_as_xyz
  1  'x, y, z'
loop_
 _atom_site_type_symbol
 _atom_site_label
 _atom_site_symmetry_multiplicity
 _atom_site_fract_x
 _atom_site_fract_y
 _atom_site_fract_z
 _atom_site_occupancy
  Ba  Ba0  1  -0.00426923  0.42958363  0.50579363  1
  Ba  Ba1  1  0.75758002  0.51036406  0.00732811  1
  Ba  Ba2  1  0.72665323  0.22843329  0.30182569  1
  Ba  Ba3  1  0.46369189  0.47514614  0.50163540  1
  Ba  Ba4  1  0.48892620  0.26679705  0.20089435  1
  Ba  Ba5  1  0.72470150  0.48608176  0.49733024  1
  Ba  Ba6  1  0.20082808  -0.00157578  -0.08941163  1
  Ba  Ba7  1  -0.12312034  0.78058005  0.06991827  1
  Ba  Ba8  1  0.64291514  0.78451852  -0.01972220  1
  Ba  Ba9  1  0.53460857  0.08626572  0.48441723  1
  Ba  Ba10  1  0.03843968  -0.09258685  0.23269114  1
  Ba  Ba11  1  0.36303703  0.22420459  0.79929227  1
  Ba  Ba12  1  0.27363367  0.49345978  -0.06569236  1
  Ba  Ba13  1  0.02958600  0.65386548  0.25853933  1
  Ba  Ba14  1  0.29329769  -0.03443113  0.37612187  1
  Ba  Ba15  1  0.22332615  0.25264218  0.23802667  1
  Ba  Ba16  1  0.32810835  0.78923368  0.72124935  1
  Ba  Ba17  1  0.58398672  -0.04702683  0.68792774  1
  Ba  Ba18  1  0.01026296  0.71509098  0.75060322  1
  Ba  Ba19  1  0.48026296  0.52669605  0.76248974  1
  Ba  Ba20  1  0.34763332  0.24627638  0.43877108  1
  Ba  Ba21  1  0.80429875  0.86111918  0.79647350  1
  Ba  Ba22  1  0.76080481  0.74744707  0.56180938  1
  Ba  Ba23  1  0.18253675  0.31410972  0.61320672  1
  Ba  Ba24  1  -0.06620178  0.45142972  0.80692504  1
  Ba  Ba25  1  0.23514787  0.58688750  0.55323971  1
  Ba  Ba26  1  0.02391735  0.60700877  -0.03331230  1
  Ba  Ba27  1  0.78138539  0.00423109  0.50489311  1
  Ba  Ba28  1  0.50557450  0.54693033  0.04675136  1
  Ba  Ba29  1  0.71708237  0.55374990  0.74094181  1
  Ba  Ba30  1  0.27734090  0.24366779  0.01860464  1
  Ba  Ba31  1  0.73378153  0.04432377  -0.07141918  1
  Ba  Ba32  1  0.76655857  0.75659192  0.32221270  1
  Ba  Ba33  1  0.04852159  -0.02209835  0.50087770  1
  Ba  Ba34  1  0.01837997  0.71996212  0.50023192  1
  Ba  Ba35  1  -0.00183559  0.13612133  0.25953682  1
  Ba  Ba36  1  0.60209886  0.51830154  0.29616806  1
  Ba  Ba37  1  0.26775381  0.03791234  0.61420529  1
  Ba  Ba38  1  0.27946292  0.77396328  0.21465853  1
  Ba  Ba39  1  0.37736864  0.00039320  0.13169592  1
  Ba  Ba40  1  0.71218134  0.25846536  0.59165591  1
  Ba  Ba41  1  0.52494841  0.76451120  0.26302791  1
  Ba  Ba42  1  -0.05173094  0.20434979  0.62111755  1
  Ba  Ba43  1  0.78011468  -0.01103593  0.21244153  1
  Ba  Ba44  1  0.65782317  0.31106596  0.82739132  1
  Ba  Ba45  1  0.83819445  0.26075082  0.04558440  1
  Ba  Ba46  1  0.05786036  0.25697906  0.88753166  1
  Ba  Ba47  1  -0.02376313  0.38326960  0.27526161  1
  Ba  Ba48  1  0.24095080  0.50787947  0.29577996  1
  Ba  Ba49  1  0.23082884  0.74845353  -0.05642205  1
  Ba  Ba50  1  -0.00646802  0.01383256  0.78710403  1
  Fe  Fe51  1  0.41081796  0.21504904  0.61935126  1
  Fe  Fe52  1  0.06777475  0.55027573  0.65511537  1
  Fe  Fe53  1  0.14902172  0.80023259  0.36423703  1
  Fe  Fe54  1  0.41900951  0.03846327  -0.05163123  1
  Fe  Fe55  1  0.51009099  0.28405735  0.56405640  1
  Fe  Fe56  1  0.51887448  0.10571707  0.86681219  1
  Fe  Fe57  1  0.91058281  0.96331690  0.97751955  1
  Fe  Fe58  1  0.54955188  0.05278806  0.01472564  1
  Fe  Fe59  1  0.22924057  0.70227411  0.38860844  1
  Fe  Fe60  1  0.15877684  0.89120209  0.07273435  1
  Fe  Fe61  1  0.49578402  0.91218654  0.00655851  1
  Fe  Fe62  1  0.83985296  0.41119284  0.64014153  1
  Fe  Fe63  1  0.11624542  0.45981457  0.73778149  1
  Fe  Fe64  1  0.53577021  0.96030678  -0.11310983  1
  Fe  Fe65  1  0.55223256  0.68152442  0.46691551  1
  Fe  Fe66  1  0.13682817  0.16204130  0.50724123  1
  Fe  Fe67  1  0.61723136  0.99123634  0.32492181  1
  Fe  Fe68  1  0.59621112  0.63963038  0.58723174  1
  Fe  Fe69  1  1.02713599  0.11829161  0.05300915  1
  Fe  Fe70  1  0.96813346  0.42037842  1.03537122  1
  Fe  Fe71  1  0.38158405  0.35038198  0.62544795  1
  Fe  Fe72  1  0.15587006  0.14171287  0.38419592  1
  Fe  Fe73  1  0.94509181  0.09417097  0.95113248  1
  Fe  Fe74  1  0.91033866  1.04574462  0.08374198  1
  Fe  Fe75  1  0.90203465  0.86287027  0.41131142  1
  Fe  Fe76  1  0.03881325  -0.02872297  1.04200329  1
  Fe  Fe77  1  0.49062048  0.95840001  0.29120308  1
  Fe  Fe78  1  0.03104844  0.21713763  0.44001069  1
  Fe  Fe79  1  0.71922982  0.11584049  0.73286642  1
  Fe  Fe80  1  0.46489428  0.09062533  0.30671074  1
  Fe  Fe81  1  0.57997174  0.28790020  0.03182038  1
  Fe  Fe82  1  0.83950372  0.60275481  0.19471048  1
  Fe  Fe83  1  0.90460681  -0.02152476  0.36017889  1
  Fe  Fe84  1  0.17992575  0.42579702  0.10458391  1
  Fe  Fe85  1  0.56988856  0.07840558  0.23060126  1
  Fe  Fe86  1  0.53172092  0.68328148  0.86117930  1
  Fe  Fe87  1  0.09659906  0.41803634  0.99700085  1
  Fe  Fe88  1  0.39718500  0.87686935  0.91921040  1
  Fe  Fe89  1  0.54664268  0.78049112  0.57114087  1
  Fe  Fe90  1  0.60253744  0.18184940  0.95612456  1
  Fe  Fe91  1  0.50191054  0.82536708  0.83826765  1
  Fe  Fe92  1  0.09253957  0.77980034  1.08551791  1
  Fe  Fe93  1  0.14145651  0.28475645  0.41050292  1
  Fe  Fe94  1  0.16835103  0.58277936  0.75409659  1
  Fe  Fe95  1  0.47115210  0.18329150  0.98886245  1
  Fe  Fe96  1  0.82451245  1.05859412  0.69593458  1
  Fe  Fe97  1  0.05996068  0.48484222  0.12764122  1
  Fe  Fe98  1  0.91486223  0.50625730  0.12845939  1
  Fe  Fe99  1  0.41682107  0.72095986  0.90031032  1
  Fe  Fe100  1  0.79507082  0.47865516  0.21464920  1
  Fe  Fe101  1  0.50253161  0.33241134  0.68481253  1
  Bi  Bi102  1  0.61600218  0.74239024  0.73171064  1
  Bi  Bi103  1  0.21288797  0.81818522  0.51515300  1
  Bi  Bi104  1  0.66806852  0.38080756  0.14689044  1
  Bi  Bi105  1  0.03148818  -0.15879516  -0.06739398  1
  Bi  Bi106  1  0.61305813  0.86656105  0.44268375  1
  Bi  Bi107  1  0.05926102  0.28599004  0.10144262  1
  Bi  Bi108  1  0.42299953  0.76561966  0.05947869  1
  Bi  Bi109  1  0.39095202  -0.00904826  -0.20933953  1
  Bi  Bi110  1  0.55550392  0.16584856  0.70152587  1
  Bi  Bi111  1  0.85469981  0.19370716  0.81507275  1
  Bi  Bi112  1  0.66058260  0.15007154  0.10964358  1
  Bi  Bi113  1  0.28771701  0.45401319  0.72650081  1
  Bi  Bi114  1  0.58836562  -0.06846558  0.14617646  1
  Bi  Bi115  1  0.34565042  0.41876033  0.13737015  1
  Bi  Bi116  1  0.43282808  0.66171573  0.59556680  1
  Bi  Bi117  1  0.89367123  0.57402708  0.62371078  1
  Bi  Bi118  1  0.17980422  0.61031838  0.11011957  1
  Bi  Bi119  1  0.39228922  0.64563077  0.37844164  1
  Bi  Bi120  1  0.46449389  0.35699085  0.93350548  1
  Bi  Bi121  1  0.86407982  0.55704421  0.35813215  1
  Bi  Bi122  1  0.68521696  0.65567843  0.14922124  1
  Bi  Bi123  1  0.83381784  0.66549085  0.88310933  1
  Bi  Bi124  1  0.42415426  0.89723872  0.54503080  1
  Bi  Bi125  1  0.13107178  0.88590093  0.69192675  1
  Bi  Bi126  1  0.16979101  0.05650288  0.12950255  1
  Bi  Bi127  1  0.57609552  0.31390746  0.41479292  1
