# generated using pymatgen
data_Ba51Fe51Bi26
_symmetry_space_group_name_H-M   'P 1'
_cell_length_a   16.29746145
_cell_length_b   15.99954827
_cell_length_c   16.57492461
_cell_angle_alpha   92.75715214
_cell_angle_beta   87.89741428
_cell_angle_gamma   89.42146127
_symmetry_Int_Tables_number   1
_chemical_formula_structural   Ba51Fe51Bi26
_chemical_formula_sum   'Ba51 Fe51 Bi26'
_cell_volume   4313.73089929
_cell_formula_units_Z   1
loop_
 _symmetry_equiv_pos_site_id
 _symmetry_equiv_pos_as_xyz
  1  'x, y, z'
loop_
 _atom_site_type_symbol
 _atom_site_label
 _atom_site_symmetry_multiplicity
 _atom_site_fract_x
 _atom_site_fract_y
 _atom_site_fract_z
 _atom_site_occupancy
  Ba  Ba0  1  0.11394258  0.00129332  0.32227543  1
  Ba  Ba1  1  0.25354002  -0.09227989  -0.02023775  1
  Ba  Ba2  1  0.07467129  0.56465647  0.05935100  1
  Ba  Ba3  1  0.70430690  0.68060306  0.58956933  1
  Ba  Ba4  1  0.00643474  0.35478740  -0.02886350  1
  Ba  Ba5  1  0.47938454  0.45818354  0.29087971  1
  Ba  Ba6  1  0.70209159  0.47530101  -0.00859061  1
  Ba  Ba7  1  0.24907734  0.50928308  0.27631578  1
  Ba  Ba8  1  0.49921229  -0.01797047  0.40889127  1
  Ba  Ba9  1  0.28089368  0.43322269  -0.08614025  1
  Ba  Ba10  1  -0.07794165  0.74778780  0.50066151  1
  Ba  Ba11  1  0.83454227  0.52491200  0.41299662  1
  Ba  Ba12  1  0.82344207  0.26329954  0.27022603  1
  Ba  Ba13  1  -0.01080162  0.77468442  -0.00788432  1
  Ba  Ba14  1  0.00480842  0.38177941  0.50274028  1
  Ba  Ba15  1  0.52980029  0.20477798  -0.05966451  1
  Ba  Ba16  1  -0.03188167  0.00238239  0.78179223  1
  Ba  Ba17  1  -0.08755328  0.36936128  0.75643077  1
  Ba  Ba18  1  0.49540134  0.50505798  0.53437445  1
  Ba  Ba19  1  0.26967308  0.59469211  0.73486096  1
  Ba  Ba20  1  0.02107520  0.01607272  0.03419508  1
  Ba  Ba21  1  0.51168290  0.63892953  -0.05768127  1
  Ba  Ba22  1  0.68783847  0.48434824  0.21247456  1
  Ba  Ba23  1  0.45687833  0.12938843  0.67469570  1
  Ba  Ba24  1  0.76746299  0.05336141  0.04861734  1
  Ba  Ba25  1  -0.00829873  -0.01953105  0.54457590  1
  Ba  Ba26  1  0.30309561  0.13032347  0.42950038  1
  Ba  Ba27  1  0.39540883  -0.07724149  0.17694350  1
  Ba  Ba28  1  0.23665813  0.48093750  0.50534233  1
  Ba  Ba29  1  0.54315944  0.15544800  0.19753638  1
  Ba  Ba30  1  0.54295717  -0.08794088  -0.03905682  1
  Ba  Ba31  1  0.02570213  0.43511894  0.25566385  1
  Ba  Ba32  1  0.73376250  0.08076994  0.76288573  1
  Ba  Ba33  1  0.19211705  0.80033651  0.52529180  1
  Ba  Ba34  1  0.35042808  0.82100365  0.74108199  1
  Ba  Ba35  1  0.44358776  0.71202730  0.31764814  1
  Ba  Ba36  1  -0.06636869  0.69378850  0.24392917  1
  Ba  Ba37  1  0.16295873  0.35633722  0.69989560  1
  Ba  Ba38  1  -0.03144440  0.73629621  0.76096086  1
  Ba  Ba39  1  0.73045358  0.54738028  0.76985808  1
  Ba  Ba40  1  0.20934798  0.06304339  0.71761327  1
  Ba  Ba41  1  0.69609945  0.75721093  0.25255007  1
  Ba  Ba42  1  0.72730620  0.04313152  0.34600863  1
  Ba  Ba43  1  0.06619452  0.20488323  0.20386378  1
  Ba  Ba44  1  0.61031502  0.29526350  0.45789962  1
  Ba  Ba45  1  0.74069150  0.75552076  0.01544598  1
  Ba  Ba46  1  0.33121197  0.25742368  0.19496416  1
  Ba  Ba47  1  0.57794334  0.87147935  0.66872174  1
  Ba  Ba48  1  0.27286087  0.67513826  -0.01477448  1
  Ba  Ba49  1  0.17872703  0.75456688  0.24217022  1
  Ba  Ba50  1  0.23001035  0.17948392  -0.03731427  1
  Fe  Fe51  1  0.87587072  0.26749281  0.58332068  1
  Fe  Fe52  1  0.75774443  0.91585911  0.54799568  1
  Fe  Fe53  1  0.53828808  0.46618608  0.70535206  1
  Fe  Fe54  1  0.81099007  1.03826613  0.52197109  1
  Fe  Fe55  1  0.81359930  0.28767948  0.47173970  1
  Fe  Fe56  1  0.11136499  -0.10888333  0.85782304  1
  Fe  Fe57  1  0.09162730  0.48515841  0.85350560  1
  Fe  Fe58  1  0.38959721  0.39870483  0.70124701  1
  Fe  Fe59  1  0.15475849  0.75915215  0.84969297  1
  Fe  Fe60  1  0.59963575  0.25431640  0.75545935  1
  Fe  Fe61  1  0.71877682  0.90393381  0.85236112  1
  Fe  Fe62  1  0.15375630  0.24487612  0.53168147  1
  Fe  Fe63  1  0.34274419  0.35221636  0.38596449  1
  Fe  Fe64  1  0.86249934  0.13736750  0.61993191  1
  Fe  Fe65  1  -0.04098214  0.87989864  0.34686152  1
  Fe  Fe66  1  -0.01058740  0.88307349  0.21192682  1
  Fe  Fe67  1  0.03322307  0.53947665  0.75457197  1
  Fe  Fe68  1  0.43942320  0.26813937  0.37094742  1
  Fe  Fe69  1  0.54560390  0.78422059  0.11813871  1
  Fe  Fe70  1  0.58557684  0.40293374  0.81561303  1
  Fe  Fe71  1  0.14614968  0.84750216  0.73922384  1
  Fe  Fe72  1  0.85352673  0.39160758  0.10140197  1
  Fe  Fe73  1  0.40033796  0.59133924  0.13987721  1
  Fe  Fe74  1  0.29525988  0.51887078  0.09272017  1
  Fe  Fe75  1  0.42584942  0.72719842  1.10815849  1
  Fe  Fe76  1  0.74587151  0.77515259  0.81393390  1
  Fe  Fe77  1  0.39646420  0.43248069  0.10954055  1
  Fe  Fe78  1  0.82982985  0.90260127  0.42745917  1
  Fe  Fe79  1  0.53186774  0.36744245  0.10909403  1
  Fe  Fe80  1  0.87502083  0.88104185  0.14730595  1
  Fe  Fe81  1  0.65363556  0.36575629  0.68824586  1
  Fe  Fe82  1  0.87688009  0.53759265  0.06082698  1
  Fe  Fe83  1  0.75769711  0.25685234  0.67102864  1
  Fe  Fe84  1  0.81041359  0.29694652  0.98485610  1
  Fe  Fe85  1  0.87377800  0.51073914  0.18148631  1
  Fe  Fe86  1  0.42316510  0.82056863  0.50154003  1
  Fe  Fe87  1  0.84847332  0.88922830  0.28001073  1
  Fe  Fe88  1  0.84089707  0.86911473  0.87644020  1
  Fe  Fe89  1  0.51855228  0.32616406  0.65452253  1
  Fe  Fe90  1  0.87676846  0.24372772  0.07920449  1
  Fe  Fe91  1  0.08247633  0.17668382  0.43217731  1
  Fe  Fe92  1  0.52019337  0.51049479  0.10135293  1
  Fe  Fe93  1  0.37741828  0.07084818  0.03993137  1
  Fe  Fe94  1  0.52360525  0.73118961  0.49664599  1
  Fe  Fe95  1  0.63070686  0.21770714  0.62442170  1
  Fe  Fe96  1  0.13540734  0.11246816  0.53386061  1
  Fe  Fe97  1  0.46768787  0.33187966  0.79427840  1
  Fe  Fe98  1  0.54509898  0.64916783  0.14090323  1
  Fe  Fe99  1  0.75408941  0.18004416  0.53603524  1
  Fe  Fe100  1  0.09714548  0.61984568  0.86556657  1
  Fe  Fe101  1  0.44979426  0.48908098  0.80681849  1
  Bi  Bi102  1  -0.07668520  0.56562435  0.89862888  1
  Bi  Bi103  1  -0.08674195  0.04276114  0.22103325  1
  Bi  Bi104  1  0.63907455  0.05326715  0.55993596  1
  Bi  Bi105  1  0.02581711  0.18873831  0.65029576  1
  Bi  Bi106  1  0.76962383  0.41371473  0.57959789  1
  Bi  Bi107  1  0.65552715  0.83588342  0.44796730  1
  Bi  Bi108  1  0.48933180  0.41891748  -0.04146197  1
  Bi  Bi109  1  0.31881774  0.25534942  0.78774957  1
  Bi  Bi110  1  0.68824747  0.28091317  0.10373574  1
  Bi  Bi111  1  0.50886164  0.63884357  0.72827707  1
  Bi  Bi112  1  0.72616358  0.30784136  0.84342202  1
  Bi  Bi113  1  0.81560867  0.87006950  0.69088376  1
  Bi  Bi114  1  0.38785310  0.30859023  0.53913659  1
  Bi  Bi115  1  0.18661534  0.37913969  0.10227615  1
  Bi  Bi116  1  0.91313530  0.15242369  0.43634427  1
  Bi  Bi117  1  0.07485343  0.61022895  0.38951361  1
  Bi  Bi118  1  0.62279070  0.60488663  0.39481723  1
  Bi  Bi119  1  0.35797873  0.96050968  0.58193232  1
  Bi  Bi120  1  0.23039771  0.06302265  0.13792486  1
  Bi  Bi121  1  0.35899437  0.67041763  0.54471212  1
  Bi  Bi122  1  0.38731101  0.03205132  0.87502634  1
  Bi  Bi123  1  0.91684443  0.56667038  0.62960776  1
  Bi  Bi124  1  0.61353020  -0.06001809  0.16501511  1
  Bi  Bi125  1  0.30632232  0.88715818  0.37002016  1
  Bi  Bi126  1  0.17452157  0.30904493  0.36637318  1
  Bi  Bi127  1  0.90476565  0.16242982  0.92076912  1
