# generated using pymatgen
data_Ba51Fe51Bi26
_symmetry_space_group_name_H-M   'P 1'
_cell_length_a   16.10801225
_cell_length_b   16.59131285
_cell_length_c   16.36907464
_cell_angle_alpha   91.17928625
_cell_angle_beta   90.37576159
_cell_angle_gamma   89.95960616
_symmetry_Int_Tables_number   1
_chemical_formula_structural   Ba51Fe51Bi26
_chemical_formula_sum   'Ba51 Fe51 Bi26'
_cell_volume   4373.66408382
_cell_formula_units_Z   1
loop_
 _symmetry_equiv_pos_site_id
 _symmetry_equiv_pos_as_xyz
  1  'x, y, z'
loop_
 _atom_site_type_symbol
 _atom_site_label
 _atom_site_symmetry_multiplicity
 _atom_site_fract_x
 _atom_site_fract_y
 _atom_site_fract_z
 _atom_site_occupancy
  Ba  Ba0  1  0.52434090  0.15883675  0.53031426  1
  Ba  Ba1  1  0.79807775  0.23072397  0.70902459  1
  Ba  Ba2  1  0.01700268  -0.04101037  0.23404479  1
  Ba  Ba3  1  0.06474566  0.71865875  0.74501062  1
  Ba  Ba4  1  0.67109509  0.65249251  0.51444694  1
  Ba  Ba5  1  0.31748317  0.51733790  0.53495199  1
  Ba  Ba6  1  0.67899762  0.33874907  0.48629001  1
  Ba  Ba7  1  0.75201879  0.72476178  0.04449678  1
  Ba  Ba8  1  0.50144933  0.76398911  0.01346463  1
  Ba  Ba9  1  0.57561042  0.30605617  0.27144680  1
  Ba  Ba10  1  0.28563972  0.04047270  -0.03944952  1
  Ba  Ba11  1  -0.06389787  0.02985283  0.49356474  1
  Ba  Ba12  1  0.77976837  -0.02453403  0.76094928  1
  Ba  Ba13  1  -0.01210841  0.37824076  0.72149914  1
  Ba  Ba14  1  0.53544176  -0.01136910  0.68806954  1
  Ba  Ba15  1  0.03767581  0.52926907  0.38224498  1
  Ba  Ba16  1  0.74300901  -0.01236014  0.36039484  1
  Ba  Ba17  1  -0.00787315  0.35434113  0.01442955  1
  Ba  Ba18  1  0.75152060  0.64213311  0.25973340  1
  Ba  Ba19  1  0.19301648  0.25989511  0.11184080  1
  Ba  Ba20  1  0.03518711  -0.03163654  -0.01617513  1
  Ba  Ba21  1  0.71557000  0.48238759  0.70020108  1
  Ba  Ba22  1  0.53462500  0.75089317  0.76464543  1
  Ba  Ba23  1  0.01020639  0.78092185  0.38091743  1
  Ba  Ba24  1  0.21043443  0.75265958  0.53245736  1
  Ba  Ba25  1  0.47976095  0.52770317  0.32032197  1
  Ba  Ba26  1  0.77468670  0.73298080  0.80875380  1
  Ba  Ba27  1  -0.14322665  0.79899479  0.58554615  1
  Ba  Ba28  1  0.22990182  0.50089939  0.77012445  1
  Ba  Ba29  1  0.84479261  0.16891866  -0.05229559  1
  Ba  Ba30  1  0.26366347  0.21656272  0.51125255  1
  Ba  Ba31  1  0.45565649  0.76658301  0.40160861  1
  Ba  Ba32  1  0.59454915  0.24399434  0.04693696  1
  Ba  Ba33  1  0.27427764  0.06516159  0.24293743  1
  Ba  Ba34  1  0.22340091  0.54248477  0.17320022  1
  Ba  Ba35  1  0.05490307  0.05938870  0.76330849  1
  Ba  Ba36  1  0.25678950  0.79849012  0.19558343  1
  Ba  Ba37  1  0.53446122  0.03930804  0.26096996  1
  Ba  Ba38  1  0.26554213  -0.02789406  0.67674239  1
  Ba  Ba39  1  0.44773167  0.22461753  0.83574438  1
  Ba  Ba40  1  0.21157017  0.25872855  0.72492993  1
  Ba  Ba41  1  0.56369730  -0.00530255  -0.01653976  1
  Ba  Ba42  1  0.18192123  0.69461245  -0.03729953  1
  Ba  Ba43  1  0.82866528  0.42210172  0.18984019  1
  Ba  Ba44  1  0.48159000  0.48849563  0.74968813  1
  Ba  Ba45  1  -0.01491180  0.58647630  0.07439184  1
  Ba  Ba46  1  0.78043385  0.01332344  0.11369218  1
  Ba  Ba47  1  0.26881135  0.37600549  0.33425070  1
  Ba  Ba48  1  0.73862465  0.44462525  -0.04967208  1
  Ba  Ba49  1  0.43618842  0.50501327  0.00137819  1
  Ba  Ba50  1  0.06022768  0.21488372  0.37457597  1
  Fe  Fe51  1  0.45381599  0.64937947  0.59751653  1
  Fe  Fe52  1  0.26059233  0.02653028  0.49076049  1
  Fe  Fe53  1  0.70188042  -0.03757354  0.55754202  1
  Fe  Fe54  1  0.14423950  0.31859710  0.89798784  1
  Fe  Fe55  1  0.85007929  0.13492104  0.26770326  1
  Fe  Fe56  1  0.12635123  0.05618412  0.54899386  1
  Fe  Fe57  1  0.85194453  0.20007513  0.39531162  1
  Fe  Fe58  1  0.28484684  0.29525062  0.93551466  1
  Fe  Fe59  1  0.87974566  0.50200808  0.83418302  1
  Fe  Fe60  1  0.42570367  1.11599859  0.07928215  1
  Fe  Fe61  1  0.86217323  0.65579555  0.43765799  1
  Fe  Fe62  1  -0.02051806  0.49486644  0.56609202  1
  Fe  Fe63  1  0.06864810  0.17433004  -0.03045345  1
  Fe  Fe64  1  0.78163812  0.77490276  0.39775220  1
  Fe  Fe65  1  0.28609503  0.76315005  0.75151716  1
  Fe  Fe66  1  0.35155040  0.65980894  0.68238586  1
  Fe  Fe67  1  0.94175327  0.74451634  0.18048387  1
  Fe  Fe68  1  0.71363375  0.16728947  0.22549734  1
  Fe  Fe69  1  -0.03871464  0.63530422  0.53385896  1
  Fe  Fe70  1  0.88859243  0.34028025  0.39238290  1
  Fe  Fe71  1  0.38783039  0.94908060  0.51623625  1
  Fe  Fe72  1  0.65425417  0.85453605  0.60496092  1
  Fe  Fe73  1  0.86141269  0.40788800  0.53262661  1
  Fe  Fe74  1  0.18624588  0.18981282  0.90295262  1
  Fe  Fe75  1  0.71391031  0.88314812  0.92781197  1
  Fe  Fe76  1  0.91708976  0.26415154  0.25737197  1
  Fe  Fe77  1  0.15094128  0.04155780  0.39822264  1
  Fe  Fe78  1  0.64852602  0.80872017  0.32097154  1
  Fe  Fe79  1  0.71379645  0.17269959  0.35989483  1
  Fe  Fe80  1  0.44841833  0.34554424  0.44891079  1
  Fe  Fe81  1  0.38907141  1.03850098  0.42208610  1
  Fe  Fe82  1  0.83739251  0.89305917  0.96597105  1
  Fe  Fe83  1  0.51110726  0.83756442  0.21442308  1
  Fe  Fe84  1  0.88598681  0.25952381  0.52332366  1
  Fe  Fe85  1  0.64477018  0.85120294  0.18601552  1
  Fe  Fe86  1  0.07197704  0.72278187  0.19638584  1
  Fe  Fe87  1  0.04875800  0.79622086  0.09177792  1
  Fe  Fe88  1  1.04377024  0.23367325  0.85666399  1
  Fe  Fe89  1  0.90245309  0.61342053  0.89025815  1
  Fe  Fe90  1  0.65208126  0.29867986  0.84079160  1
  Fe  Fe91  1  0.77661972  0.27965528  0.29885721  1
  Fe  Fe92  1  0.57701717  0.72236798  0.22010835  1
  Fe  Fe93  1  0.91355996  0.84311351  0.08781731  1
  Fe  Fe94  1  -0.01147130  0.35341859  0.50799303  1
  Fe  Fe95  1  0.67682824  0.84018216  0.46770406  1
  Fe  Fe96  1  0.13216691  0.93797929  0.47200181  1
  Fe  Fe97  1  0.84740381  0.55472723  0.54101209  1
  Fe  Fe98  1  0.41087672  0.20594325  0.17361521  1
  Fe  Fe99  1  0.45138407  0.35040009  0.57843728  1
  Fe  Fe100  1  0.81398262  0.22642302  0.15610979  1
  Fe  Fe101  1  0.37979512  0.23883177  1.03409728  1
  Bi  Bi102  1  0.74741700  0.13024103  0.52753656  1
  Bi  Bi103  1  0.03464602  0.19892651  0.59439553  1
  Bi  Bi104  1  0.40396334  0.94207272  0.11504412  1
  Bi  Bi105  1  0.55034283  -0.04525964  0.46664305  1
  Bi  Bi106  1  0.27596343  -0.10023448  0.38080790  1
  Bi  Bi107  1  0.97343248  0.14932648  0.12597075  1
  Bi  Bi108  1  -0.19814929  0.49233668  0.39374874  1
  Bi  Bi109  1  0.52976620  0.49661754  0.53343235  1
  Bi  Bi110  1  -0.10171456  0.59615225  0.69421465  1
  Bi  Bi111  1  0.39981873  0.81246369  0.61671601  1
  Bi  Bi112  1  0.21743732  0.44694661  -0.01670771  1
  Bi  Bi113  1  0.81713950  -0.15999538  0.23576289  1
  Bi  Bi114  1  -0.04131571  0.76586733  -0.05984253  1
  Bi  Bi115  1  0.40133101  0.37075981  0.15597370  1
  Bi  Bi116  1  0.36490731  0.65248526  0.85435795  1
  Bi  Bi117  1  0.42234294  0.66649081  0.17822056  1
  Bi  Bi118  1  0.04718134  0.38394021  0.22684421  1
  Bi  Bi119  1  0.05736505  0.89566079  0.61285291  1
  Bi  Bi120  1  0.04560696  0.52448364  0.87544195  1
  Bi  Bi121  1  0.19130463  0.87490380  0.84661343  1
  Bi  Bi122  1  0.40765919  0.19943143  0.35178723  1
  Bi  Bi123  1  0.64999417  0.13153875  0.84832985  1
  Bi  Bi124  1  0.14189917  0.40753183  0.56114611  1
  Bi  Bi125  1  0.61717656  0.60265918  0.89476151  1
  Bi  Bi126  1  0.58432314  0.30504363  0.68720172  1
  Bi  Bi127  1  0.26540859  0.62426627  0.36258048  1
