# generated using pymatgen
data_Ba51Fe51Bi26
_symmetry_space_group_name_H-M   'P 1'
_cell_length_a   16.92720725
_cell_length_b   15.52178141
_cell_length_c   16.54587578
_cell_angle_alpha   89.59799953
_cell_angle_beta   90.43168442
_cell_angle_gamma   90.16572675
_symmetry_Int_Tables_number   1
_chemical_formula_structural   Ba51Fe51Bi26
_chemical_formula_sum   'Ba51 Fe51 Bi26'
_cell_volume   4347.02228552
_cell_formula_units_Z   1
loop_
 _symmetry_equiv_pos_site_id
 _symmetry_equiv_pos_as_xyz
  1  'x, y, z'
loop_
 _atom_site_type_symbol
 _atom_site_label
 _atom_site_symmetry_multiplicity
 _atom_site_fract_x
 _atom_site_fract_y
 _atom_site_fract_z
 _atom_site_occupancy
  Ba  Ba0  1  0.35021876  0.61204356  0.37110313  1
  Ba  Ba1  1  0.24423591  0.79767294  0.58099887  1
  Ba  Ba2  1  0.39864718  0.14332497  0.11311153  1
  Ba  Ba3  1  0.47229596  0.34246041  0.86863744  1
  Ba  Ba4  1  0.81223599  -0.07063521  0.46532162  1
  Ba  Ba5  1  0.20296755  0.47253046  0.20129380  1
  Ba  Ba6  1  0.65267336  -0.02018628  0.13117476  1
  Ba  Ba7  1  0.09513105  0.43582219  0.65740373  1
  Ba  Ba8  1  0.01823850  0.32028920  0.28563130  1
  Ba  Ba9  1  -0.04687702  0.22316717  0.00790378  1
  Ba  Ba10  1  -0.04898174  0.71556162  -0.06683828  1
  Ba  Ba11  1  0.79831446  0.68631593  0.68568381  1
  Ba  Ba12  1  0.07608005  0.22251759  0.78432001  1
  Ba  Ba13  1  -0.02449103  -0.01826576  0.79523697  1
  Ba  Ba14  1  0.30907409  -0.09772474  0.79916097  1
  Ba  Ba15  1  0.59148341  0.30764228  0.12403666  1
  Ba  Ba16  1  0.01993252  0.88954711  0.11703176  1
  Ba  Ba17  1  0.62954066  0.70110684  -0.02446772  1
  Ba  Ba18  1  0.02831681  0.72643110  0.47873952  1
  Ba  Ba19  1  0.75396931  0.78297100  0.26968724  1
  Ba  Ba20  1  0.55124833  0.77439455  0.75253653  1
  Ba  Ba21  1  0.32887469  0.28652171  0.56639501  1
  Ba  Ba22  1  0.73049475  0.22284071  0.33285212  1
  Ba  Ba23  1  0.70139647  0.53313500  0.32793625  1
  Ba  Ba24  1  0.06711103  0.00043502  0.41071330  1
  Ba  Ba25  1  0.43940890  0.33573055  0.35772638  1
  Ba  Ba26  1  -0.04943644  0.60088397  0.28562559  1
  Ba  Ba27  1  0.07948503  0.25020255  0.49987113  1
  Ba  Ba28  1  0.24800617  0.04279733  0.55088569  1
  Ba  Ba29  1  0.47092646  0.73663055  0.52717358  1
  Ba  Ba30  1  -0.16610879  0.00360356  -0.01595264  1
  Ba  Ba31  1  0.26716589  0.60435570  0.78900309  1
  Ba  Ba32  1  0.80030937  0.55189611  0.09057025  1
  Ba  Ba33  1  0.51833867  0.56596466  0.18384730  1
  Ba  Ba34  1  0.58016384  0.19067350  0.61561113  1
  Ba  Ba35  1  0.72664430  0.44980619  0.54896207  1
  Ba  Ba36  1  0.21982484  0.74857732  0.00609893  1
  Ba  Ba37  1  0.16225066  0.03511182  -0.03954896  1
  Ba  Ba38  1  0.64326783  0.15165937  -0.09806275  1
  Ba  Ba39  1  0.54277013  -0.05768599  0.37041030  1
  Ba  Ba40  1  0.24652138  0.29505337  -0.01836183  1
  Ba  Ba41  1  -0.09213662  0.07554407  0.23567531  1
  Ba  Ba42  1  0.03964468  0.67271704  0.70320023  1
  Ba  Ba43  1  0.32940250  0.14265787  0.76968411  1
  Ba  Ba44  1  0.77380178  0.40409819  0.85611657  1
  Ba  Ba45  1  0.00783514  0.45908747  0.02913057  1
  Ba  Ba46  1  0.30859188  0.06484647  0.31601466  1
  Ba  Ba47  1  0.86467716  0.23296532  0.63031182  1
  Ba  Ba48  1  0.40722121  0.54114355  -0.01352857  1
  Ba  Ba49  1  0.17732642  0.78586117  0.26418930  1
  Ba  Ba50  1  0.74343911  -0.02764196  0.72352231  1
  Fe  Fe51  1  0.53488657  -0.03484579  0.57937856  1
  Fe  Fe52  1  0.49487705  0.00949277  0.01901043  1
  Fe  Fe53  1  0.13950310  1.03393433  0.21008276  1
  Fe  Fe54  1  0.24868159  0.25568108  0.19869909  1
  Fe  Fe55  1  0.94836581  0.54131294  0.83169973  1
  Fe  Fe56  1  0.66650016  0.70802753  0.45857970  1
  Fe  Fe57  1  0.42949246  0.76532238  0.08836362  1
  Fe  Fe58  1  0.53548059  0.80759606  0.17032966  1
  Fe  Fe59  1  0.39950877  0.59151367  0.65762518  1
  Fe  Fe60  1  0.44008235  0.92262374  0.14159491  1
  Fe  Fe61  1  0.50107448  0.39893975  0.57960311  1
  Fe  Fe62  1  0.63675622  0.63868245  0.57092061  1
  Fe  Fe63  1  0.87711817  0.33029537  0.43237931  1
  Fe  Fe64  1  0.06561092  0.12450551  0.14187686  1
  Fe  Fe65  1  0.49183868  0.54502952  0.76278074  1
  Fe  Fe66  1  0.18159101  0.57070556  0.54505375  1
  Fe  Fe67  1  0.41599783  0.43790002  0.68376500  1
  Fe  Fe68  1  0.30534893  0.60663215  0.55545144  1
  Fe  Fe69  1  0.99730805  0.41335169  0.83106509  1
  Fe  Fe70  1  0.15623257  0.01362589  0.72382046  1
  Fe  Fe71  1  0.14672859  0.17016425  0.26472433  1
  Fe  Fe72  1  0.41161684  0.91064641  0.64143998  1
  Fe  Fe73  1  0.77547524  0.82482758  0.89749538  1
  Fe  Fe74  1  0.41735664  0.79743974  0.23664319  1
  Fe  Fe75  1  0.12943572  0.42011363  0.85331798  1
  Fe  Fe76  1  0.13179022  0.24726568  0.13279637  1
  Fe  Fe77  1  0.42612632  0.05097393  0.61980879  1
  Fe  Fe78  1  0.45926566  0.09152457  0.90248774  1
  Fe  Fe79  1  0.52025873  0.85970658  0.02619334  1
  Fe  Fe80  1  0.12558987  0.87907810  0.72313071  1
  Fe  Fe81  1  0.47171942  0.93564282  0.89983773  1
  Fe  Fe82  1  0.21096022  1.12294276  0.13131494  1
  Fe  Fe83  1  0.07429973  0.08319679  0.63927996  1
  Fe  Fe84  1  0.28383862  0.48505876  0.62968190  1
  Fe  Fe85  1  0.75183426  0.38041718  0.20126281  1
  Fe  Fe86  1  0.84201483  0.39675832  0.30127491  1
  Fe  Fe87  1  0.39607597  0.48875574  0.53599080  1
  Fe  Fe88  1  0.93390316  0.54344748  0.54145597  1
  Fe  Fe89  1  0.88310076  0.47804877  0.42158111  1
  Fe  Fe90  1  0.37836293  0.89745987  1.01317228  1
  Fe  Fe91  1  0.63132235  0.58060456  0.70813709  1
  Fe  Fe92  1  0.94136745  0.40136754  0.53217841  1
  Fe  Fe93  1  0.96796120  0.03687321  0.58040397  1
  Fe  Fe94  1  0.25114457  0.46707796  0.48762874  1
  Fe  Fe95  1  0.52576744  0.54171930  0.61782560  1
  Fe  Fe96  1  0.35871025  0.03083377  0.95418681  1
  Fe  Fe97  1  0.08022145  0.93970031  0.61151236  1
  Fe  Fe98  1  0.07692462  0.54892647  0.85888303  1
  Fe  Fe99  1  0.60508505  0.53699613  0.83222173  1
  Fe  Fe100  1  0.41083989  -0.05344420  0.51013845  1
  Fe  Fe101  1  0.86048724  0.32953310  0.16934007  1
  Bi  Bi102  1  0.23263517  0.29559165  0.36268292  1
  Bi  Bi103  1  0.33739458  -0.14847819  0.38862281  1
  Bi  Bi104  1  0.55919035  0.72574419  0.32353851  1
  Bi  Bi105  1  0.41858816  0.75332311  -0.08428192  1
  Bi  Bi106  1  0.51901263  0.01866024  0.75206537  1
  Bi  Bi107  1  0.64260373  -0.07643610  -0.07990994  1
  Bi  Bi108  1  0.82293064  0.65080681  0.46429966  1
  Bi  Bi109  1  0.26406451  0.94856727  0.12865749  1
  Bi  Bi110  1  0.19766754  0.51790754  -0.02404914  1
  Bi  Bi111  1  0.60215050  0.39627795  0.71598516  1
  Bi  Bi112  1  0.53958054  0.51706057  0.45340878  1
  Bi  Bi113  1  0.89054697  0.46806940  0.68965282  1
  Bi  Bi114  1  0.06575775  0.48999027  0.44470422  1
  Bi  Bi115  1  0.65540773  0.83530292  0.57455599  1
  Bi  Bi116  1  0.76663369  0.19025429  0.11099283  1
  Bi  Bi117  1  0.95014314  0.84783667  0.31298032  1
  Bi  Bi118  1  0.90229356  0.14577118  0.43862197  1
  Bi  Bi119  1  0.27251462  0.36802292  0.76761067  1
  Bi  Bi120  1  0.84595817  0.16643039  0.82927688  1
  Bi  Bi121  1  0.80566763  0.79402988  0.06248131  1
  Bi  Bi122  1  0.38372437  0.36631647  0.14249662  1
  Bi  Bi123  1  0.05210646  0.66077586  0.11461998  1
  Bi  Bi124  1  0.44906997  0.12255572  0.46705588  1
  Bi  Bi125  1  0.32787264  0.65867423  0.16822769  1
  Bi  Bi126  1  0.61697115  0.47489916  0.98915579  1
  Bi  Bi127  1  0.93220056  0.86160284  0.62534122  1
