# generated using pymatgen
data_Ba51Fe51Bi26
_symmetry_space_group_name_H-M   'P 1'
_cell_length_a   16.33156622
_cell_length_b   16.76290022
_cell_length_c   16.05511445
_cell_angle_alpha   90.27963054
_cell_angle_beta   89.20191866
_cell_angle_gamma   89.44811904
_symmetry_Int_Tables_number   1
_chemical_formula_structural   Ba51Fe51Bi26
_chemical_formula_sum   'Ba51 Fe51 Bi26'
_cell_volume   4394.63348399
_cell_formula_units_Z   1
loop_
 _symmetry_equiv_pos_site_id
 _symmetry_equiv_pos_as_xyz
  1  'x, y, z'
loop_
 _atom_site_type_symbol
 _atom_site_label
 _atom_site_symmetry_multiplicity
 _atom_site_fract_x
 _atom_site_fract_y
 _atom_site_fract_z
 _atom_site_occupancy
  Ba  Ba0  1  0.23077139  0.56934899  0.77428166  1
  Ba  Ba1  1  0.25389851  0.09661415  0.73775219  1
  Ba  Ba2  1  0.70457485  0.69877444  0.69308964  1
  Ba  Ba3  1  0.53623662  0.58657818  0.31615507  1
  Ba  Ba4  1  0.29869923  0.14633032  0.02678017  1
  Ba  Ba5  1  0.58449774  0.48607574  0.59019437  1
  Ba  Ba6  1  0.10085144  0.75464146  0.52367962  1
  Ba  Ba7  1  0.08973234  -0.06254551  -0.04775574  1
  Ba  Ba8  1  0.32028084  0.46326590  0.22962615  1
  Ba  Ba9  1  0.55722059  0.04820712  0.33635239  1
  Ba  Ba10  1  0.55050653  0.26334828  0.63922850  1
  Ba  Ba11  1  0.69185331  0.36251256  0.81653221  1
  Ba  Ba12  1  0.60776625  0.01313286  0.59427518  1
  Ba  Ba13  1  0.44121217  0.25401436  0.41557748  1
  Ba  Ba14  1  0.47210083  0.25368847  -0.09137240  1
  Ba  Ba15  1  0.45537342  0.67528935  0.70025249  1
  Ba  Ba16  1  0.11324368  0.46888427  -0.02481551  1
  Ba  Ba17  1  0.33150977  0.74742152  -0.02655783  1
  Ba  Ba18  1  -0.12068018  0.19389058  0.74408445  1
  Ba  Ba19  1  -0.07672007  0.25235270  0.50737918  1
  Ba  Ba20  1  0.70483218  0.72794601  0.11502551  1
  Ba  Ba21  1  0.55647261  0.70449520  -0.06160562  1
  Ba  Ba22  1  0.54790032  0.28716528  0.18615020  1
  Ba  Ba23  1  0.07201541  0.50302900  0.50377868  1
  Ba  Ba24  1  0.79679076  0.46600134  0.04859126  1
  Ba  Ba25  1  0.25555397  -0.07361509  0.14376988  1
  Ba  Ba26  1  0.76658907  -0.02772827  0.78457263  1
  Ba  Ba27  1  0.78460984  0.52639018  0.44443887  1
  Ba  Ba28  1  0.53134694  0.47713203  0.00937207  1
  Ba  Ba29  1  -0.11000568  0.50417791  0.74651623  1
  Ba  Ba30  1  0.78506232  0.22230613  -0.01275088  1
  Ba  Ba31  1  -0.02500865  -0.08813734  0.22404899  1
  Ba  Ba32  1  -0.07886249  0.66359660  -0.00929967  1
  Ba  Ba33  1  0.35382114  0.75765822  0.28011198  1
  Ba  Ba34  1  0.84277423  0.83613981  0.47592964  1
  Ba  Ba35  1  0.78226342  0.28899304  0.28415230  1
  Ba  Ba36  1  0.83654629  -0.09108430  0.03165469  1
  Ba  Ba37  1  0.57815997  0.81059627  0.46662131  1
  Ba  Ba38  1  0.23467401  0.83069264  0.76164514  1
  Ba  Ba39  1  0.48229802  0.03287027  0.79463152  1
  Ba  Ba40  1  -0.03357806  0.78296251  0.75881201  1
  Ba  Ba41  1  0.07932387  0.01297076  0.46228713  1
  Ba  Ba42  1  0.33482911  0.75323565  0.50892607  1
  Ba  Ba43  1  0.00290013  0.29339062  0.17216748  1
  Ba  Ba44  1  0.15766878  0.66964701  0.15287811  1
  Ba  Ba45  1  0.07705591  0.20319158  -0.04635738  1
  Ba  Ba46  1  0.23931646  0.26161928  0.53412369  1
  Ba  Ba47  1  0.11312289  0.33737204  0.74715015  1
  Ba  Ba48  1  0.71826946  0.07823529  0.14108107  1
  Ba  Ba49  1  0.82194874  0.07345574  0.36402142  1
  Ba  Ba50  1  0.24782973  0.15844689  0.26856486  1
  Fe  Fe51  1  -0.02585253  0.96890834  0.78998730  1
  Fe  Fe52  1  0.00709845  0.76761926  0.34204093  1
  Fe  Fe53  1  0.37219321  0.56433560  0.43274188  1
  Fe  Fe54  1  0.46428045  0.89700636  0.07820968  1
  Fe  Fe55  1  0.40424939  0.94999307  0.50675223  1
  Fe  Fe56  1  0.42595424  0.54466016  0.84652518  1
  Fe  Fe57  1  0.93300089  0.09197756  0.09150336  1
  Fe  Fe58  1  0.57425893  0.82286782  0.27432695  1
  Fe  Fe59  1  0.54971583  0.52836970  0.79104981  1
  Fe  Fe60  1  0.45534462  0.02123661  0.99902767  1
  Fe  Fe61  1  0.58259189  0.10181792  0.98780622  1
  Fe  Fe62  1  0.28727300  -0.07454246  0.40409158  1
  Fe  Fe63  1  0.71892771  0.57103171  0.23177603  1
  Fe  Fe64  1  0.60774725  0.89302481  0.15301886  1
  Fe  Fe65  1  0.29469603  0.45026481  0.46960403  1
  Fe  Fe66  1  0.45334511  0.84068264  0.79711412  1
  Fe  Fe67  1  0.47078142  -0.08327621  0.22593204  1
  Fe  Fe68  1  0.33914456  0.37244653  0.01188437  1
  Fe  Fe69  1  0.25939024  0.33083652  0.91652256  1
  Fe  Fe70  1  0.83528352  0.47690850  0.24644536  1
  Fe  Fe71  1  0.96909420  1.01501203  0.65955896  1
  Fe  Fe72  1  0.05199920  0.07215076  0.78123755  1
  Fe  Fe73  1  0.54478544  1.01763248  0.12048830  1
  Fe  Fe74  1  0.49070800  0.41219842  0.79722544  1
  Fe  Fe75  1  0.74081923  0.20738440  0.58216216  1
  Fe  Fe76  1  0.09494060  0.96991762  0.68823755  1
  Fe  Fe77  1  0.39233937  0.53886136  0.57218046  1
  Fe  Fe78  1  0.35830767  0.42298180  0.86554252  1
  Fe  Fe79  1  0.58128917  0.85373283  0.82005014  1
  Fe  Fe80  1  0.70222875  0.29289464  0.48073452  1
  Fe  Fe81  1  0.69398519  0.44848927  0.23527588  1
  Fe  Fe82  1  0.49074547  0.13874168  1.08129450  1
  Fe  Fe83  1  0.51212540  0.78263349  0.15554915  1
  Fe  Fe84  1  0.39356268  0.39674229  0.57849875  1
  Fe  Fe85  1  0.36256995  0.99909452  0.29655080  1
  Fe  Fe86  1  0.93876876  0.56384508  0.31280349  1
  Fe  Fe87  1  0.41256071  0.03514842  0.15599235  1
  Fe  Fe88  1  0.43463518  0.90686480  0.37435995  1
  Fe  Fe89  1  0.40269501  0.47871554  0.71261588  1
  Fe  Fe90  1  0.95389131  0.65639627  0.42647681  1
  Fe  Fe91  1  0.34546445  0.04533133  0.43086538  1
  Fe  Fe92  1  0.27381460  0.45062862  0.62204695  1
  Fe  Fe93  1  0.88056254  0.70742360  0.32071888  1
  Fe  Fe94  1  0.68237559  0.14530424  0.48032657  1
  Fe  Fe95  1  0.43823047  0.44919150  0.44917747  1
  Fe  Fe96  1  0.63226999  0.22488066  0.38763785  1
  Fe  Fe97  1  0.84659958  0.61693836  0.20541308  1
  Fe  Fe98  1  -0.02724852  0.68642854  0.21670985  1
  Fe  Fe99  1  0.47104106  0.88778015  0.92615481  1
  Fe  Fe100  1  0.26094563  0.56917356  0.54435569  1
  Fe  Fe101  1  0.05682877  0.64434512  0.33144103  1
  Bi  Bi102  1  0.60087330  0.39284782  0.38116179  1
  Bi  Bi103  1  -0.01504361  0.52330814  0.14775264  1
  Bi  Bi104  1  0.71220389  0.70571754  0.33537079  1
  Bi  Bi105  1  0.33397463  0.31849886  0.73033282  1
  Bi  Bi106  1  0.65265471  0.15277103  0.82834674  1
  Bi  Bi107  1  0.24019475  -0.06089319  0.57650975  1
  Bi  Bi108  1  0.31374518  -0.04272589  -0.08333243  1
  Bi  Bi109  1  0.31495321  0.53557192  -0.01231413  1
  Bi  Bi110  1  0.62451968  -0.06368639  -0.02027828  1
  Bi  Bi111  1  0.73697672  0.90162251  0.26687030  1
  Bi  Bi112  1  -0.08354303  0.06786290  0.92175279  1
  Bi  Bi113  1  0.21883552  0.60245231  0.37551946  1
  Bi  Bi114  1  0.15574992  0.84704291  0.32793933  1
  Bi  Bi115  1  0.82244288  0.05634368  0.57595869  1
  Bi  Bi116  1  0.94783267  0.40197047  0.35610451  1
  Bi  Bi117  1  0.93232551  0.35722263  0.90278115  1
  Bi  Bi118  1  0.90569210  0.65553484  0.59219649  1
  Bi  Bi119  1  0.76243164  0.77968396  0.87899501  1
  Bi  Bi120  1  0.07485599  0.15449640  0.63079724  1
  Bi  Bi121  1  0.11908968  0.71273185  0.91449760  1
  Bi  Bi122  1  0.41424189  0.10877370  0.57427356  1
  Bi  Bi123  1  0.44468870  0.63454827  0.12853942  1
  Bi  Bi124  1  0.77194101  0.37052816  0.61643674  1
  Bi  Bi125  1  0.20729012  0.31968010  0.10550209  1
  Bi  Bi126  1  0.09426680  0.07820407  0.13700509  1
  Bi  Bi127  1  0.70499648  0.56188073  0.86748944  1
