# generated using pymatgen
data_Ba51Fe51Bi26
_symmetry_space_group_name_H-M   'P 1'
_cell_length_a   17.02583206
_cell_length_b   16.57667006
_cell_length_c   15.42412230
_cell_angle_alpha   90.13356071
_cell_angle_beta   92.57884977
_cell_angle_gamma   88.32232462
_symmetry_Int_Tables_number   1
_chemical_formula_structural   Ba51Fe51Bi26
_chemical_formula_sum   'Ba51 Fe51 Bi26'
_cell_volume   4346.89966688
_cell_formula_units_Z   1
loop_
 _symmetry_equiv_pos_site_id
 _symmetry_equiv_pos_as_xyz
  1  'x, y, z'
loop_
 _atom_site_type_symbol
 _atom_site_label
 _atom_site_symmetry_multiplicity
 _atom_site_fract_x
 _atom_site_fract_y
 _atom_site_fract_z
 _atom_site_occupancy
  Ba  Ba0  1  0.80468617  0.03070335  0.63595878  1
  Ba  Ba1  1  0.48749417  0.26751520  0.49157934  1
  Ba  Ba2  1  0.16011457  0.20672480  -0.13376715  1
  Ba  Ba3  1  0.23835483  0.41890867  0.25766628  1
  Ba  Ba4  1  0.05052796  0.72786285  0.54255984  1
  Ba  Ba5  1  0.59338683  0.74662031  0.77612819  1
  Ba  Ba6  1  0.56115564  0.17842372  0.74145262  1
  Ba  Ba7  1  0.71119353  0.24354447  0.15329364  1
  Ba  Ba8  1  0.64746210  0.47669356  0.23144074  1
  Ba  Ba9  1  0.28789802  0.06992008  0.03921290  1
  Ba  Ba10  1  0.71125740  0.59567158  0.05265608  1
  Ba  Ba11  1  0.85446855  0.13215942  -0.03260301  1
  Ba  Ba12  1  0.71052400  0.01968961  0.32203824  1
  Ba  Ba13  1  0.53210843  0.02330865  0.51844966  1
  Ba  Ba14  1  0.35621154  0.20380382  0.23435014  1
  Ba  Ba15  1  0.83176272  0.59720645  0.54356099  1
  Ba  Ba16  1  0.63463738  0.73632951  0.24316749  1
  Ba  Ba17  1  0.53572876  0.42220445  -0.01517721  1
  Ba  Ba18  1  0.40979492  0.77073732  0.15960884  1
  Ba  Ba19  1  0.25391634  0.68974603  0.89705038  1
  Ba  Ba20  1  -0.02723188  0.37531062  -0.15957919  1
  Ba  Ba21  1  0.08305339  0.51635345  0.42191848  1
  Ba  Ba22  1  0.46630814  0.49289655  0.47916853  1
  Ba  Ba23  1  0.42408863  0.54630628  0.20886221  1
  Ba  Ba24  1  0.51938699  -0.04208116  0.89180206  1
  Ba  Ba25  1  0.08285383  0.29877298  0.57448695  1
  Ba  Ba26  1  0.20234473  -0.12834586  0.11918087  1
  Ba  Ba27  1  0.44940292  0.53879696  0.76248798  1
  Ba  Ba28  1  -0.12343906  0.50209770  0.29418683  1
  Ba  Ba29  1  0.78370486  0.26913715  0.71290221  1
  Ba  Ba30  1  0.15280951  0.16872673  0.31372232  1
  Ba  Ba31  1  0.79393739  0.85991108  0.06573852  1
  Ba  Ba32  1  0.25824147  0.44846733  -0.02657193  1
  Ba  Ba33  1  -0.03138262  0.76893120  0.82547396  1
  Ba  Ba34  1  0.04050603  0.73661828  0.25753331  1
  Ba  Ba35  1  0.71822950  0.49636417  0.80499053  1
  Ba  Ba36  1  0.05239740  0.54447260  0.69828342  1
  Ba  Ba37  1  0.06186481  -0.01128182  -0.13736443  1
  Ba  Ba38  1  0.26164751  0.82673645  0.54075403  1
  Ba  Ba39  1  0.29301178  -0.03814499  0.74936667  1
  Ba  Ba40  1  0.05188877  0.46054439  0.10806758  1
  Ba  Ba41  1  0.70962686  0.39663414  0.49578646  1
  Ba  Ba42  1  0.50409137  0.17964788  0.03557143  1
  Ba  Ba43  1  -0.07670552  0.64510681  0.06472179  1
  Ba  Ba44  1  0.29962874  0.22071745  0.64794561  1
  Ba  Ba45  1  -0.01728533  -0.02500686  0.23872975  1
  Ba  Ba46  1  0.48881477  0.74421907  0.50723394  1
  Ba  Ba47  1  0.73306913  0.81810590  0.47803583  1
  Ba  Ba48  1  0.26631880  0.68029945  0.35869324  1
  Ba  Ba49  1  -0.09646771  0.19268860  0.46083429  1
  Ba  Ba50  1  -0.03454663  0.25490803  0.13562327  1
  Fe  Fe51  1  0.73229786  0.08932641  0.81796101  1
  Fe  Fe52  1  0.56289901  0.33908006  0.32193548  1
  Fe  Fe53  1  0.93759115  -0.01217058  0.44772649  1
  Fe  Fe54  1  0.10418092  0.10940292  0.08726392  1
  Fe  Fe55  1  0.53384980  0.32126138  0.18368878  1
  Fe  Fe56  1  0.73976382  0.85967979  0.82580170  1
  Fe  Fe57  1  0.28807247  1.01996433  0.29369351  1
  Fe  Fe58  1  0.22564038  0.01614715  0.43446898  1
  Fe  Fe59  1  0.33253789  0.60921724  0.59652030  1
  Fe  Fe60  1  0.43993190  0.36915913  0.29066321  1
  Fe  Fe61  1  0.86080927  0.46589469  0.98552808  1
  Fe  Fe62  1  0.51411664  0.04004595  0.19519341  1
  Fe  Fe63  1  0.44450236  0.96384666  0.08006323  1
  Fe  Fe64  1  0.82837355  0.81142691  0.30063256  1
  Fe  Fe65  1  0.83237983  0.41210338  0.11274249  1
  Fe  Fe66  1  0.06885474  0.93598553  0.64608954  1
  Fe  Fe67  1  0.90624680  0.41442584  0.60401464  1
  Fe  Fe68  1  0.71389685  0.97640550  0.92382476  1
  Fe  Fe69  1  0.39810654  -0.04478029  0.22033007  1
  Fe  Fe70  1  0.44087981  1.04605044  0.32383830  1
  Fe  Fe71  1  0.92949219  0.85732380  0.40405969  1
  Fe  Fe72  1  0.86151967  0.61707828  0.75893279  1
  Fe  Fe73  1  0.90227501  0.56338875  0.87850815  1
  Fe  Fe74  1  0.19641452  0.46277437  0.58782714  1
  Fe  Fe75  1  0.44774055  0.71773159  0.95109381  1
  Fe  Fe76  1  0.92955951  0.40566311  0.47361178  1
  Fe  Fe77  1  0.19791518  0.60418150  0.56384803  1
  Fe  Fe78  1  0.52445302  0.63165047  0.06936138  1
  Fe  Fe79  1  0.27545396  0.52488816  0.48540623  1
  Fe  Fe80  1  1.01596683  0.04854965  0.56795856  1
  Fe  Fe81  1  0.11942806  0.08066377  0.67084979  1
  Fe  Fe82  1  0.14984470  0.11503813  0.53223504  1
  Fe  Fe83  1  0.83109540  0.69613769  0.22854350  1
  Fe  Fe84  1  0.05583751  0.91103598  0.48175240  1
  Fe  Fe85  1  0.54861851  0.91249597  0.15292385  1
  Fe  Fe86  1  0.10206585  0.69528188  0.03820347  1
  Fe  Fe87  1  0.72963236  0.40489327  1.02068404  1
  Fe  Fe88  1  0.35764899  0.94310987  0.38476062  1
  Fe  Fe89  1  0.25013484  0.54470239  0.70901700  1
  Fe  Fe90  1  0.41634688  0.36764580  0.14767797  1
  Fe  Fe91  1  0.16370989  0.98426680  0.56428716  1
  Fe  Fe92  1  0.65396058  0.09846583  0.92528337  1
  Fe  Fe93  1  0.42223027  0.58856098  -0.01063745  1
  Fe  Fe94  1  0.67522375  0.97386636  0.78100294  1
  Fe  Fe95  1  0.07864107  0.03437494  0.42854379  1
  Fe  Fe96  1  0.54996994  0.62799904  0.93229046  1
  Fe  Fe97  1  0.32254149  0.45655459  0.61639455  1
  Fe  Fe98  1  0.23642278  0.67880867  0.68200261  1
  Fe  Fe99  1  0.78160005  0.66769727  0.34836481  1
  Fe  Fe100  1  0.89766362  0.71466580  0.37959387  1
  Fe  Fe101  1  0.82837541  0.33248160  -0.02738281  1
  Bi  Bi102  1  0.20358490  0.38811458  0.75410825  1
  Bi  Bi103  1  0.16721628  -0.10464623  0.33866383  1
  Bi  Bi104  1  0.14718101  -0.18844674  0.73681845  1
  Bi  Bi105  1  0.68072065  0.26484795  -0.08201109  1
  Bi  Bi106  1  0.22222470  0.62292498  0.14175258  1
  Bi  Bi107  1  0.65734240  0.02859636  0.08948278  1
  Bi  Bi108  1  -0.07556831  -0.12091114  0.58357560  1
  Bi  Bi109  1  0.85849331  -0.03803243  0.84671093  1
  Bi  Bi110  1  0.27654316  0.35808020  0.46971468  1
  Bi  Bi111  1  0.53072327  -0.10549392  0.33808633  1
  Bi  Bi112  1  0.55735285  0.17260306  0.29441663  1
  Bi  Bi113  1  0.58629780  0.78265611  0.02489795  1
  Bi  Bi114  1  0.78694502  0.70100043  0.89047910  1
  Bi  Bi115  1  0.06947980  0.57218210  0.91990772  1
  Bi  Bi116  1  0.68700565  0.17537359  0.52331475  1
  Bi  Bi117  1  0.38520444  0.73965571  0.70613142  1
  Bi  Bi118  1  0.97921049  0.16068015  0.71540550  1
  Bi  Bi119  1  0.57937939  0.38744794  0.67190084  1
  Bi  Bi120  1  0.37513079  0.13910577  0.84832431  1
  Bi  Bi121  1  0.34937216  0.86895041  0.96231068  1
  Bi  Bi122  1  0.17312357  0.25950618  0.09447484  1
  Bi  Bi123  1  0.34742198  0.11455661  0.44967700  1
  Bi  Bi124  1  0.00970944  0.83840979  0.04988257  1
  Bi  Bi125  1  0.01883569  0.33686424  0.33804116  1
  Bi  Bi126  1  0.62168779  0.58917909  0.60062585  1
  Bi  Bi127  1  0.78581521  0.75666199  0.68711518  1
