# generated using pymatgen
data_Ba51Fe51Bi26
_symmetry_space_group_name_H-M   'P 1'
_cell_length_a   16.51023119
_cell_length_b   16.22253993
_cell_length_c   16.51320707
_cell_angle_alpha   89.69304922
_cell_angle_beta   89.96713487
_cell_angle_gamma   89.99450302
_symmetry_Int_Tables_number   1
_chemical_formula_structural   Ba51Fe51Bi26
_chemical_formula_sum   'Ba51 Fe51 Bi26'
_cell_volume   4422.79823580
_cell_formula_units_Z   1
loop_
 _symmetry_equiv_pos_site_id
 _symmetry_equiv_pos_as_xyz
  1  'x, y, z'
loop_
 _atom_site_type_symbol
 _atom_site_label
 _atom_site_symmetry_multiplicity
 _atom_site_fract_x
 _atom_site_fract_y
 _atom_site_fract_z
 _atom_site_occupancy
  Ba  Ba0  1  0.56286975  0.48432283  0.03914428  1
  Ba  Ba1  1  0.22731687  0.75557001  0.27845974  1
  Ba  Ba2  1  0.32578930  0.25202739  0.03461436  1
  Ba  Ba3  1  0.82149528  0.46309013  0.72663770  1
  Ba  Ba4  1  -0.07067033  0.27591092  0.53359159  1
  Ba  Ba5  1  0.79590507  0.53340151  -0.04301144  1
  Ba  Ba6  1  -0.03406639  0.76049859  0.57732833  1
  Ba  Ba7  1  0.24673098  0.24326417  0.52350276  1
  Ba  Ba8  1  0.45252020  0.66695421  0.17546861  1
  Ba  Ba9  1  0.53152202  0.18621489  -0.03501997  1
  Ba  Ba10  1  0.23605316  0.75050937  0.57644984  1
  Ba  Ba11  1  0.31281397  -0.02687597  0.22921608  1
  Ba  Ba12  1  0.73066255  0.05445633  0.52827877  1
  Ba  Ba13  1  0.73911694  0.77327511  -0.02449105  1
  Ba  Ba14  1  0.72566168  0.78205889  0.27344190  1
  Ba  Ba15  1  0.47303136  0.07807410  0.75546211  1
  Ba  Ba16  1  0.21947273  0.01185022  -0.05972054  1
  Ba  Ba17  1  0.50362996  -0.09609231  0.25763554  1
  Ba  Ba18  1  0.53258461  0.21387762  0.53042996  1
  Ba  Ba19  1  -0.00498554  0.78442219  -0.00403342  1
  Ba  Ba20  1  0.85209270  0.30635594  0.10235099  1
  Ba  Ba21  1  0.25850601  -0.01416085  0.69776046  1
  Ba  Ba22  1  0.48036865  0.74519598  0.43457937  1
  Ba  Ba23  1  0.28573516  0.56362264  0.76126737  1
  Ba  Ba24  1  0.04330943  0.51781195  0.26465624  1
  Ba  Ba25  1  0.04820891  0.22393153  0.26365700  1
  Ba  Ba26  1  0.54359698  0.35334206  0.72675001  1
  Ba  Ba27  1  0.03796373  -0.00719117  0.78097542  1
  Ba  Ba28  1  0.19645032  0.00217818  0.45124599  1
  Ba  Ba29  1  0.50934206  0.14167871  0.22232995  1
  Ba  Ba30  1  0.26313694  0.51113484  0.46075612  1
  Ba  Ba31  1  0.72075432  0.26686134  0.86742499  1
  Ba  Ba32  1  0.09082272  0.25969629  -0.03090172  1
  Ba  Ba33  1  0.26104321  0.28950638  0.78507253  1
  Ba  Ba34  1  0.28650738  0.51683997  0.03070300  1
  Ba  Ba35  1  0.00083460  0.51777662  0.54538329  1
  Ba  Ba36  1  0.48310011  0.78586532  0.68799167  1
  Ba  Ba37  1  0.29285804  0.21152971  0.28660597  1
  Ba  Ba38  1  0.04324222  0.50453777  -0.02725126  1
  Ba  Ba39  1  0.73363674  0.21940666  0.31608610  1
  Ba  Ba40  1  0.24878175  0.78798009  0.01244472  1
  Ba  Ba41  1  0.69333533  0.62792117  0.50894634  1
  Ba  Ba42  1  0.75658014  0.75976487  0.71596819  1
  Ba  Ba43  1  0.78878650  0.47471145  0.33903652  1
  Ba  Ba44  1  0.69922692  0.03388156  0.07476541  1
  Ba  Ba45  1  0.48011980  0.73050746  -0.08208413  1
  Ba  Ba46  1  -0.04306768  0.04890910  0.02619259  1
  Ba  Ba47  1  0.57080295  0.38620131  0.27959128  1
  Ba  Ba48  1  -0.10196178  0.17184130  0.74142543  1
  Ba  Ba49  1  -0.05456337  -0.08083789  0.41579488  1
  Ba  Ba50  1  -0.01524741  0.76471001  0.23430332  1
  Fe  Fe51  1  0.52654234  0.04409571  0.41278867  1
  Fe  Fe52  1  0.09363001  0.30868154  0.66749132  1
  Fe  Fe53  1  0.79697869  0.06270545  0.87548526  1
  Fe  Fe54  1  0.61831002  0.85754013  0.56193122  1
  Fe  Fe55  1  0.99006749  0.62193812  0.83306711  1
  Fe  Fe56  1  0.62174130  0.43871713  0.53048286  1
  Fe  Fe57  1  0.69666645  0.33362683  0.47615343  1
  Fe  Fe58  1  0.02776848  0.31645402  0.77981192  1
  Fe  Fe59  1  0.72580219  0.44767788  0.14162699  1
  Fe  Fe60  1  0.34673483  0.40799118  0.30351786  1
  Fe  Fe61  1  0.35879549  0.92584458  0.54087569  1
  Fe  Fe62  1  0.43738181  0.52344031  0.32775394  1
  Fe  Fe63  1  0.66205044  0.07042379  0.84608774  1
  Fe  Fe64  1  0.49182879  0.46285826  0.56681296  1
  Fe  Fe65  1  0.11964182  0.69245983  0.84559369  1
  Fe  Fe66  1  0.20720634  0.38875347  0.27975865  1
  Fe  Fe67  1  0.50931032  0.53891010  0.83481849  1
  Fe  Fe68  1  0.59532138  0.91316717  0.44074065  1
  Fe  Fe69  1  0.68295935  0.12651418  0.72679959  1
  Fe  Fe70  1  0.72380080  0.93757022  0.86427520  1
  Fe  Fe71  1  0.84496521  0.50833505  0.15144233  1
  Fe  Fe72  1  0.41012585  0.03754268  0.94717581  1
  Fe  Fe73  1  0.87305966  0.11632671  0.21718192  1
  Fe  Fe74  1  0.76873965  0.41881379  0.53701240  1
  Fe  Fe75  1  0.82162800  0.63614067  0.12948597  1
  Fe  Fe76  1  0.09746098  0.17167987  0.64732210  1
  Fe  Fe77  1  0.39178282  0.91620355  0.89095885  1
  Fe  Fe78  1  0.09532782  0.19568217  0.77458843  1
  Fe  Fe79  1  0.70566951  0.57691934  0.16962169  1
  Fe  Fe80  1  0.07826007  0.65132446  0.71130926  1
  Fe  Fe81  1  0.40557650  0.91047041  0.03534043  1
  Fe  Fe82  1  0.12185440  0.91764963  0.28595226  1
  Fe  Fe83  1  0.63239454  0.61141083  0.85963551  1
  Fe  Fe84  1  0.50084984  0.00210429  0.06455857  1
  Fe  Fe85  1  0.13354279  0.94542313  0.15355070  1
  Fe  Fe86  1  0.42042949  0.94297078  0.42485640  1
  Fe  Fe87  1  0.82726972  1.00129823  0.25902820  1
  Fe  Fe88  1  0.77526264  0.02033804  0.74582192  1
  Fe  Fe89  1  0.12658148  0.79075040  0.73066781  1
  Fe  Fe90  1  0.39718597  0.07857714  0.38606154  1
  Fe  Fe91  1  0.31727424  0.37929841  0.17443122  1
  Fe  Fe92  1  0.38024022  0.06063139  0.07620669  1
  Fe  Fe93  1  0.85358843  0.92836184  0.82250280  1
  Fe  Fe94  1  0.37509621  0.06254517  0.51535402  1
  Fe  Fe95  1  0.51110366  0.52536087  0.44718964  1
  Fe  Fe96  1  0.17994539  0.37651000  0.15438123  1
  Fe  Fe97  1  0.41604662  0.47109698  0.19445840  1
  Fe  Fe98  1  0.13525276  0.83366908  0.85128005  1
  Fe  Fe99  1  0.94308172  0.61882243  0.71514955  1
  Fe  Fe100  1  0.14114051  0.04605982  0.26568534  1
  Fe  Fe101  1  0.62826662  0.47890553  0.85095233  1
  Bi  Bi102  1  -0.00813131  -0.00260180  0.22450072  1
  Bi  Bi103  1  0.64112915  -0.06016075  0.71449073  1
  Bi  Bi104  1  0.66695858  0.01463236  0.31447519  1
  Bi  Bi105  1  0.50933023  -0.01227978  0.57045284  1
  Bi  Bi106  1  0.29276416  0.79326640  0.80025291  1
  Bi  Bi107  1  0.06814008  0.48034328  0.74785030  1
  Bi  Bi108  1  0.42743477  0.36784246  0.43694584  1
  Bi  Bi109  1  0.55942957  -0.04737242  -0.08699764  1
  Bi  Bi110  1  0.75595057  0.83456098  0.48333439  1
  Bi  Bi111  1  0.72953848  0.27494279  0.63759319  1
  Bi  Bi112  1  0.61662793  0.56245466  0.69803954  1
  Bi  Bi113  1  0.27499991  0.54886577  0.24628677  1
  Bi  Bi114  1  -0.03932406  0.78433386  0.79148272  1
  Bi  Bi115  1  0.17584593  0.11700989  0.11739991  1
  Bi  Bi116  1  0.84340154  0.88896208  0.12633723  1
  Bi  Bi117  1  0.90079385  0.12357562  0.38460466  1
  Bi  Bi118  1  0.41310757  0.61080157  0.57940209  1
  Bi  Bi119  1  0.42108263  0.40297434  0.89941881  1
  Bi  Bi120  1  0.09443403  0.67353325  0.42262794  1
  Bi  Bi121  1  0.12217935  0.64895970  0.11048907  1
  Bi  Bi122  1  0.56590740  0.83416233  0.08303489  1
  Bi  Bi123  1  0.91004001  0.34755945  0.89886460  1
  Bi  Bi124  1  0.89611184  0.65097639  0.39681216  1
  Bi  Bi125  1  0.35358357  0.39275181  0.63016975  1
  Bi  Bi126  1  0.59981698  0.59753731  0.31350073  1
  Bi  Bi127  1  0.88554802  0.95345532  0.64638097  1
