# generated using pymatgen
data_Ba51Fe51Bi26
_symmetry_space_group_name_H-M   'P 1'
_cell_length_a   16.63887694
_cell_length_b   16.40368591
_cell_length_c   16.18584399
_cell_angle_alpha   90.97829534
_cell_angle_beta   87.29230408
_cell_angle_gamma   87.30899507
_symmetry_Int_Tables_number   1
_chemical_formula_structural   Ba51Fe51Bi26
_chemical_formula_sum   'Ba51 Fe51 Bi26'
_cell_volume   4407.12422546
_cell_formula_units_Z   1
loop_
 _symmetry_equiv_pos_site_id
 _symmetry_equiv_pos_as_xyz
  1  'x, y, z'
loop_
 _atom_site_type_symbol
 _atom_site_label
 _atom_site_symmetry_multiplicity
 _atom_site_fract_x
 _atom_site_fract_y
 _atom_site_fract_z
 _atom_site_occupancy
  Ba  Ba0  1  0.56320640  0.44868119  0.16702907  1
  Ba  Ba1  1  -0.01395508  0.68237647  0.52120030  1
  Ba  Ba2  1  0.79493614  0.00209425  0.05198102  1
  Ba  Ba3  1  0.03732139  0.89201388  0.08108525  1
  Ba  Ba4  1  0.60910115  0.19561237  0.83591409  1
  Ba  Ba5  1  0.14100030  0.45618529  0.34813502  1
  Ba  Ba6  1  0.83857945  0.59287823  0.18463225  1
  Ba  Ba7  1  0.76025849  0.23246042  0.15224256  1
  Ba  Ba8  1  0.76169930  0.80668040  0.72555651  1
  Ba  Ba9  1  0.79159655  0.77245152  -0.00236735  1
  Ba  Ba10  1  0.76775591  0.72421777  0.40522388  1
  Ba  Ba11  1  -0.04448894  0.49732745  -0.01221819  1
  Ba  Ba12  1  0.41686729  0.57624305  0.40795397  1
  Ba  Ba13  1  0.84853244  0.06451636  0.64299528  1
  Ba  Ba14  1  0.56716001  0.24691221  0.34309075  1
  Ba  Ba15  1  0.67973058  0.00049914  0.46906665  1
  Ba  Ba16  1  0.23896856  0.85978135  0.68066934  1
  Ba  Ba17  1  0.46296073  -0.02426054  0.25883853  1
  Ba  Ba18  1  0.36406657  0.30789361  0.09340871  1
  Ba  Ba19  1  0.59427855  0.56654737  -0.10323522  1
  Ba  Ba20  1  0.56169885  0.04681253  0.01619817  1
  Ba  Ba21  1  0.73452010  0.56982520  0.63288020  1
  Ba  Ba22  1  0.26035498  0.62714552  0.21769159  1
  Ba  Ba23  1  0.00097376  0.84000870  0.73238267  1
  Ba  Ba24  1  0.14760787  0.66492009  -0.10901732  1
  Ba  Ba25  1  0.74383031  0.42448534  0.38500819  1
  Ba  Ba26  1  0.48070084  0.56951515  0.64689976  1
  Ba  Ba27  1  0.76023329  0.35332375  -0.10354112  1
  Ba  Ba28  1  0.02630641  0.25634496  0.74099468  1
  Ba  Ba29  1  -0.10983779  0.00967472  0.30701283  1
  Ba  Ba30  1  0.19349650  0.57390341  0.62181463  1
  Ba  Ba31  1  -0.01777974  0.27738347  0.27064663  1
  Ba  Ba32  1  0.51675853  0.78196031  0.00969429  1
  Ba  Ba33  1  0.43821384  0.84049632  0.49556205  1
  Ba  Ba34  1  0.32523699  -0.03045201  -0.00246079  1
  Ba  Ba35  1  -0.03798680  0.52178447  0.72929602  1
  Ba  Ba36  1  0.02537553  0.18802358  0.49729786  1
  Ba  Ba37  1  0.48655337  0.71733973  0.23300500  1
  Ba  Ba38  1  0.24520747  0.49983951  0.01534419  1
  Ba  Ba39  1  0.05828504  -0.08211168  0.46334290  1
  Ba  Ba40  1  0.00834566  0.03795699  0.88362122  1
  Ba  Ba41  1  0.45661619  0.04513538  0.67403935  1
  Ba  Ba42  1  0.49167313  0.80848918  0.77010478  1
  Ba  Ba43  1  -0.01043458  0.27033423  -0.01036238  1
  Ba  Ba44  1  0.23329955  0.10220128  0.79597386  1
  Ba  Ba45  1  0.31684775  0.20031899  0.31973431  1
  Ba  Ba46  1  0.03024721  0.70062466  0.27243668  1
  Ba  Ba47  1  0.32531831  0.38201887  0.50387703  1
  Ba  Ba48  1  0.22951766  -0.10876646  0.25577203  1
  Ba  Ba49  1  0.25185932  0.06376659  0.51126380  1
  Ba  Ba50  1  0.17057209  0.15461217  0.10593418  1
  Fe  Fe51  1  0.62940951  0.89670697  0.15377111  1
  Fe  Fe52  1  0.30712496  0.68093296  0.02818814  1
  Fe  Fe53  1  0.33622154  0.39907981  0.87095926  1
  Fe  Fe54  1  0.71671728  0.91368035  0.24750940  1
  Fe  Fe55  1  1.00662618  0.46384346  0.19526964  1
  Fe  Fe56  1  0.39147084  0.63256756  0.91478370  1
  Fe  Fe57  1  -0.02814351  0.37824877  0.45498266  1
  Fe  Fe58  1  0.72814608  0.26500707  0.69016680  1
  Fe  Fe59  1  0.24813987  0.33139387  0.77890562  1
  Fe  Fe60  1  0.08047832  0.54525330  0.13197912  1
  Fe  Fe61  1  0.85747057  0.44652194  0.54452463  1
  Fe  Fe62  1  -0.00935700  0.48916682  0.52739355  1
  Fe  Fe63  1  0.60776526  0.58221763  0.48354315  1
  Fe  Fe64  1  0.16290713  0.26632353  0.87994173  1
  Fe  Fe65  1  0.47562767  0.25413735  0.53699429  1
  Fe  Fe66  1  0.16702179  0.76006497  0.53140045  1
  Fe  Fe67  1  0.43614873  0.47238797  -0.06328660  1
  Fe  Fe68  1  0.38511076  0.52798885  0.81495819  1
  Fe  Fe69  1  0.45170194  0.31725997  -0.07992961  1
  Fe  Fe70  1  0.25944438  0.49253007  0.78979919  1
  Fe  Fe71  1  0.64951868  0.15161245  0.64645589  1
  Fe  Fe72  1  0.94694976  0.36358578  0.60377723  1
  Fe  Fe73  1  0.51012393  0.21973166  0.67073270  1
  Fe  Fe74  1  0.85438728  0.25987841  0.62721116  1
  Fe  Fe75  1  0.58749972  0.16935029  0.52968688  1
  Fe  Fe76  1  0.35399532  0.41044094  0.71279308  1
  Fe  Fe77  1  0.32337574  0.77261967  0.92583032  1
  Fe  Fe78  1  0.82595650  0.97276750  0.81607671  1
  Fe  Fe79  1  0.29211016  0.70779736  0.50720154  1
  Fe  Fe80  1  0.73964913  0.36704343  0.57992001  1
  Fe  Fe81  1  0.39931598  0.11973338  0.14622212  1
  Fe  Fe82  1  0.40396561  0.27895326  0.78421624  1
  Fe  Fe83  1  0.48018969  0.35651969  0.65463180  1
  Fe  Fe84  1  0.18083777  0.70818219  0.40396106  1
  Fe  Fe85  1  0.95096324  0.69677102  0.89796458  1
  Fe  Fe86  1  0.68803743  0.78036386  0.19002488  1
  Fe  Fe87  1  0.85403937  0.30279107  0.49667298  1
  Fe  Fe88  1  0.48005223  0.40512591  0.80069404  1
  Fe  Fe89  1  0.57288143  0.69136555  0.42833108  1
  Fe  Fe90  1  0.61197313  0.29816736  0.59622100  1
  Fe  Fe91  1  0.30577505  0.74697263  0.37592141  1
  Fe  Fe92  1  0.29805889  0.27057790  0.91208505  1
  Fe  Fe93  1  0.71678981  1.01584606  0.86985637  1
  Fe  Fe94  1  0.10526934  0.39737969  0.11575466  1
  Fe  Fe95  1  0.50847348  0.17243340  0.16669870  1
  Fe  Fe96  1  0.21987490  0.80231676  0.03620567  1
  Fe  Fe97  1  0.17778985  0.32752535  -0.00622858  1
  Fe  Fe98  1  0.23997655  0.84269061  0.45395448  1
  Fe  Fe99  1  0.82316236  0.38117850  0.68762193  1
  Fe  Fe100  1  0.73598748  0.21761974  0.53924823  1
  Fe  Fe101  1  0.33695614  0.79408018  0.08963942  1
  Bi  Bi102  1  0.46227257  0.08923166  0.45282840  1
  Bi  Bi103  1  -0.06750130  0.52512370  0.36902279  1
  Bi  Bi104  1  0.11450132  0.43054275  0.85171139  1
  Bi  Bi105  1  0.43452348  0.58118871  0.07061619  1
  Bi  Bi106  1  0.63790812  0.41002729  0.73250084  1
  Bi  Bi107  1  0.32339751  0.67883571  0.76681344  1
  Bi  Bi108  1  0.54825840  0.41959022  0.49331051  1
  Bi  Bi109  1  0.64794958  0.06618032  0.21585612  1
  Bi  Bi110  1  0.58056063  0.27278898  0.04213789  1
  Bi  Bi111  1  0.85409259  0.81972534  0.20489926  1
  Bi  Bi112  1  0.11132642  0.38072222  0.56908280  1
  Bi  Bi113  1  0.33280335  0.23020272  0.64521967  1
  Bi  Bi114  1  0.65621633  -0.00817207  0.71662220  1
  Bi  Bi115  1  0.35769511  0.41614323  0.28184026  1
  Bi  Bi116  1  0.86433916  0.86677505  0.53694107  1
  Bi  Bi117  1  0.65585652  0.63904153  0.09786855  1
  Bi  Bi118  1  0.16718704  0.88286564  0.89208552  1
  Bi  Bi119  1  0.12792659  0.08417573  0.32363639  1
  Bi  Bi120  1  0.79908391  0.20153542  0.37327041  1
  Bi  Bi121  1  0.95993032  0.10666529  0.11930440  1
  Bi  Bi122  1  0.82661390  0.14381452  0.86823228  1
  Bi  Bi123  1  0.60319668  0.83953237  0.34523157  1
  Bi  Bi124  1  0.60665312  0.73527953  0.58880967  1
  Bi  Bi125  1  0.40935536  0.14506203  0.90175297  1
  Bi  Bi126  1  0.07936976  0.03339274  0.65965544  1
  Bi  Bi127  1  0.99932774  0.68496780  0.05586310  1
