# generated using pymatgen
data_Ba51Fe51Bi26
_symmetry_space_group_name_H-M   'P 1'
_cell_length_a   16.05145048
_cell_length_b   16.36179934
_cell_length_c   16.54626576
_cell_angle_alpha   90.37057993
_cell_angle_beta   89.39655568
_cell_angle_gamma   87.79662083
_symmetry_Int_Tables_number   1
_chemical_formula_structural   Ba51Fe51Bi26
_chemical_formula_sum   'Ba51 Fe51 Bi26'
_cell_volume   4341.99947066
_cell_formula_units_Z   1
loop_
 _symmetry_equiv_pos_site_id
 _symmetry_equiv_pos_as_xyz
  1  'x, y, z'
loop_
 _atom_site_type_symbol
 _atom_site_label
 _atom_site_symmetry_multiplicity
 _atom_site_fract_x
 _atom_site_fract_y
 _atom_site_fract_z
 _atom_site_occupancy
  Ba  Ba0  1  0.50585328  0.27304913  0.79184755  1
  Ba  Ba1  1  0.00535525  -0.03823659  0.25153826  1
  Ba  Ba2  1  0.05453109  0.61523554  0.56088372  1
  Ba  Ba3  1  0.15091048  0.85509290  -0.02139675  1
  Ba  Ba4  1  -0.00714623  0.28659331  0.28131542  1
  Ba  Ba5  1  0.90569603  0.02034236  -0.02945625  1
  Ba  Ba6  1  0.26498080  0.42874301  0.00659942  1
  Ba  Ba7  1  0.55489007  0.28323577  0.42918614  1
  Ba  Ba8  1  0.45584019  0.58130086  0.11091460  1
  Ba  Ba9  1  0.50987239  0.52138924  0.35278595  1
  Ba  Ba10  1  0.89738350  0.52688508  0.14817965  1
  Ba  Ba11  1  0.12483258  -0.03338959  0.55825800  1
  Ba  Ba12  1  0.77714478  0.78804927  0.30020855  1
  Ba  Ba13  1  0.66983141  0.11901876  0.11482277  1
  Ba  Ba14  1  0.01897054  0.77149493  0.79255574  1
  Ba  Ba15  1  -0.15046223  0.52678715  0.72465422  1
  Ba  Ba16  1  0.30868626  0.77415828  0.71950754  1
  Ba  Ba17  1  0.74209699  0.04876594  0.80622278  1
  Ba  Ba18  1  0.01116880  0.31023675  0.70929060  1
  Ba  Ba19  1  0.24932903  0.23242955  0.20629375  1
  Ba  Ba20  1  0.61077562  -0.07053907  -0.01629876  1
  Ba  Ba21  1  0.69872862  0.50817736  0.00418933  1
  Ba  Ba22  1  0.16993243  0.39458244  0.52809686  1
  Ba  Ba23  1  -0.02286350  0.43174847  -0.06391853  1
  Ba  Ba24  1  0.33494530  0.05817253  0.71154624  1
  Ba  Ba25  1  0.32453985  0.02495449  -0.05007835  1
  Ba  Ba26  1  0.17041559  0.72993084  0.20055255  1
  Ba  Ba27  1  -0.04881159  0.75161239  0.08051337  1
  Ba  Ba28  1  0.51146492  0.00452431  0.44243649  1
  Ba  Ba29  1  0.56350604  0.72158580  0.71840908  1
  Ba  Ba30  1  0.31803692  0.15592041  0.44015366  1
  Ba  Ba31  1  0.44133544  0.42484215  0.60428282  1
  Ba  Ba32  1  0.70204578  0.72431958  0.04911730  1
  Ba  Ba33  1  0.73182541  0.65446750  0.51308631  1
  Ba  Ba34  1  0.01347593  0.21750873  0.02659708  1
  Ba  Ba35  1  0.43939209  0.71747496  0.49980792  1
  Ba  Ba36  1  0.16008646  0.51777049  0.77198901  1
  Ba  Ba37  1  0.38866354  0.56471042  0.84300539  1
  Ba  Ba38  1  -0.07349932  0.81225955  0.51339796  1
  Ba  Ba39  1  0.20422623  0.49338498  0.27600590  1
  Ba  Ba40  1  0.70542054  -0.06616536  0.57484681  1
  Ba  Ba41  1  0.61379762  0.35173871  0.16862047  1
  Ba  Ba42  1  0.71546273  0.18974273  0.62968269  1
  Ba  Ba43  1  0.63073064  0.46623997  0.79696775  1
  Ba  Ba44  1  0.41653724  0.79534456  -0.05485696  1
  Ba  Ba45  1  -0.02808337  0.16418429  0.52263077  1
  Ba  Ba46  1  0.77238955  0.78724696  0.80684751  1
  Ba  Ba47  1  0.50782426  0.79733980  0.22851291  1
  Ba  Ba48  1  0.78067485  0.19172281  0.36097122  1
  Ba  Ba49  1  0.44723628  0.21374783  0.04044999  1
  Ba  Ba50  1  0.78712812  0.47772111  0.35197867  1
  Fe  Fe51  1  0.31296921  0.37482768  0.78092998  1
  Fe  Fe52  1  0.97872987  0.74244998  0.30407063  1
  Fe  Fe53  1  0.69493402  -0.03172211  0.35608790  1
  Fe  Fe54  1  -0.05515277  0.43896112  0.55724998  1
  Fe  Fe55  1  0.69146798  0.38212730  0.62790603  1
  Fe  Fe56  1  0.19501159  0.68652428  0.87089513  1
  Fe  Fe57  1  0.31059023  0.24838655  0.83025261  1
  Fe  Fe58  1  0.94929591  0.09650643  0.73239754  1
  Fe  Fe59  1  0.21874743  0.66441707  0.43225788  1
  Fe  Fe60  1  0.65024121  0.44284627  0.50064995  1
  Fe  Fe61  1  0.17973176  0.19251577  0.79702824  1
  Fe  Fe62  1  0.46640847  0.97058988  0.11829508  1
  Fe  Fe63  1  0.13034774  1.07106463  0.87807567  1
  Fe  Fe64  1  0.90034129  0.35527225  0.47051377  1
  Fe  Fe65  1  0.32448263  -0.04570139  0.39435774  1
  Fe  Fe66  1  0.49239019  0.90152179  0.64947710  1
  Fe  Fe67  1  0.26255484  0.01946069  0.26508704  1
  Fe  Fe68  1  0.19086116  0.94432046  0.35948021  1
  Fe  Fe69  1  0.18306119  0.32776249  0.85265017  1
  Fe  Fe70  1  0.63959584  0.17700666  0.92446708  1
  Fe  Fe71  1  0.57878238  0.67539033  0.90657488  1
  Fe  Fe72  1  0.79601735  0.46923546  0.54653749  1
  Fe  Fe73  1  1.01715689  1.00195094  0.80662743  1
  Fe  Fe74  1  0.30615796  0.55459226  0.43814201  1
  Fe  Fe75  1  0.27411652  0.81340842  0.41872350  1
  Fe  Fe76  1  0.40013453  -0.04293634  0.26815241  1
  Fe  Fe77  1  0.32779160  0.25313689  0.68556719  1
  Fe  Fe78  1  0.84085518  0.34473913  0.60494632  1
  Fe  Fe79  1  0.47142092  0.92010065  0.78380396  1
  Fe  Fe80  1  0.77239075  0.34000887  0.91660824  1
  Fe  Fe81  1  0.65382887  0.94279749  0.22250444  1
  Fe  Fe82  1  0.38125340  0.06379446  0.17871835  1
  Fe  Fe83  1  0.10226170  0.08680871  0.72501522  1
  Fe  Fe84  1  0.07870771  0.64563580  0.37596457  1
  Fe  Fe85  1  0.78012675  1.01460079  0.25880494  1
  Fe  Fe86  1  0.53091791  1.01302317  0.22893194  1
  Fe  Fe87  1  0.54361079  0.02687352  0.68885753  1
  Fe  Fe88  1  0.63547265  0.07661535  0.30114932  1
  Fe  Fe89  1  0.10312836  0.63949330  0.94762573  1
  Fe  Fe90  1  0.64002984  0.30857955  -0.03315922  1
  Fe  Fe91  1  0.92347578  0.64518255  0.38305892  1
  Fe  Fe92  1  0.20867967  0.32056754  0.71582974  1
  Fe  Fe93  1  0.70347448  0.25823432  0.83407224  1
  Fe  Fe94  1  1.03131098  0.15686270  0.83520337  1
  Fe  Fe95  1  0.75653171  0.33532301  0.49894324  1
  Fe  Fe96  1  0.01037219  0.61586670  0.26531952  1
  Fe  Fe97  1  0.76825948  0.21117432  -0.03011003  1
  Fe  Fe98  1  0.60184967  0.91926172  0.75651771  1
  Fe  Fe99  1  0.65947832  0.51083323  0.60978140  1
  Fe  Fe100  1  0.21897501  0.76014748  0.53642735  1
  Fe  Fe101  1  0.29128106  0.85955641  0.28590736  1
  Bi  Bi102  1  0.00501074  0.48238635  0.39316141  1
  Bi  Bi103  1  0.17538214  -0.06817825  0.78339147  1
  Bi  Bi104  1  0.17923980  0.18770358  0.61129359  1
  Bi  Bi105  1  0.52035730  0.06937069  0.85669689  1
  Bi  Bi106  1  0.22519627  0.21272722  -0.02695532  1
  Bi  Bi107  1  -0.14425114  0.99133377  0.41691174  1
  Bi  Bi108  1  0.48410808  0.16980281  0.26477270  1
  Bi  Bi109  1  0.87274975  0.21881249  -0.16268723  1
  Bi  Bi110  1  0.34727798  0.67548637  0.31259237  1
  Bi  Bi111  1  0.31260184  -0.10338925  0.12357009  1
  Bi  Bi112  1  0.12641866  0.10650195  0.35387233  1
  Bi  Bi113  1  0.34106069  -0.09554432  0.55282959  1
  Bi  Bi114  1  0.50017770  0.41649648  -0.03142391  1
  Bi  Bi115  1  0.48281802  0.17343786  0.60091957  1
  Bi  Bi116  1  0.87574444  0.62928401  0.92382994  1
  Bi  Bi117  1  0.35105522  0.38577200  0.41206931  1
  Bi  Bi118  1  0.27566865  0.59624956  0.59940622  1
  Bi  Bi119  1  0.08457135  0.39650788  0.12562087  1
  Bi  Bi120  1  0.26933323  0.65308550  0.01412889  1
  Bi  Bi121  1  0.78997585  0.90794224  0.11829044  1
  Bi  Bi122  1  0.81887538  0.33330337  0.08032426  1
  Bi  Bi123  1  0.66240310  0.59660462  0.21197126  1
  Bi  Bi124  1  0.10280140  0.81105849  0.39924051  1
  Bi  Bi125  1  0.39787515  0.39261470  0.19726577  1
  Bi  Bi126  1  0.89987253  0.93630388  0.69539130  1
  Bi  Bi127  1  0.88211046  0.12687604  0.17658397  1
