# generated using pymatgen
data_Ba51Fe51Bi26
_symmetry_space_group_name_H-M   'P 1'
_cell_length_a   16.72409538
_cell_length_b   16.13162621
_cell_length_c   16.24023754
_cell_angle_alpha   91.14128294
_cell_angle_beta   89.73159726
_cell_angle_gamma   90.92941431
_symmetry_Int_Tables_number   1
_chemical_formula_structural   Ba51Fe51Bi26
_chemical_formula_sum   'Ba51 Fe51 Bi26'
_cell_volume   4379.91543342
_cell_formula_units_Z   1
loop_
 _symmetry_equiv_pos_site_id
 _symmetry_equiv_pos_as_xyz
  1  'x, y, z'
loop_
 _atom_site_type_symbol
 _atom_site_label
 _atom_site_symmetry_multiplicity
 _atom_site_fract_x
 _atom_site_fract_y
 _atom_site_fract_z
 _atom_site_occupancy
  Ba  Ba0  1  0.54396649  0.62888930  0.23094806  1
  Ba  Ba1  1  0.21694578  0.06139956  0.57958944  1
  Ba  Ba2  1  0.75399025  0.75629047  0.41468568  1
  Ba  Ba3  1  -0.01416479  0.28254231  0.35373453  1
  Ba  Ba4  1  0.26563211  0.12804102  0.84263606  1
  Ba  Ba5  1  0.24684919  0.50624961  0.10138547  1
  Ba  Ba6  1  0.46233122  0.23023107  0.25998098  1
  Ba  Ba7  1  0.59496336  0.67296102  0.74305388  1
  Ba  Ba8  1  -0.00138587  -0.05530228  0.02992511  1
  Ba  Ba9  1  -0.02553791  0.22552255  0.09754481  1
  Ba  Ba10  1  0.04060869  0.85574679  0.26180615  1
  Ba  Ba11  1  0.65655987  0.39632136  0.16195246  1
  Ba  Ba12  1  0.47727268  0.32281375  0.51492930  1
  Ba  Ba13  1  0.74761709  0.27414133  0.76693356  1
  Ba  Ba14  1  0.31648419  0.75793283  0.26778141  1
  Ba  Ba15  1  0.25399181  0.00452566  0.30874000  1
  Ba  Ba16  1  0.06360721  0.57672064  0.57517101  1
  Ba  Ba17  1  0.04620126  -0.05905252  0.79212469  1
  Ba  Ba18  1  0.47820615  0.42398621  0.74892029  1
  Ba  Ba19  1  0.46103896  -0.01425181  0.56114294  1
  Ba  Ba20  1  0.51419920  0.74516482  0.48915531  1
  Ba  Ba21  1  0.81685064  0.48215529  -0.07378505  1
  Ba  Ba22  1  0.05877286  0.68164740  0.01568679  1
  Ba  Ba23  1  0.11712710  0.28213003  0.78126523  1
  Ba  Ba24  1  0.74511465  0.25782861  -0.00149610  1
  Ba  Ba25  1  -0.06130314  0.43127716  0.70812246  1
  Ba  Ba26  1  0.17354014  0.34770718  0.54454539  1
  Ba  Ba27  1  -0.02717504  0.78009098  0.46161751  1
  Ba  Ba28  1  0.74640113  -0.00975713  0.04606619  1
  Ba  Ba29  1  0.75508501  0.16402785  0.28337185  1
  Ba  Ba30  1  0.55239170  0.79083382  0.02343980  1
  Ba  Ba31  1  -0.06099541  0.56730446  0.33459904  1
  Ba  Ba32  1  0.31285788  0.60557685  0.55680182  1
  Ba  Ba33  1  0.70857990  0.48738971  0.65803898  1
  Ba  Ba34  1  0.45075262  0.28759362  -0.01253542  1
  Ba  Ba35  1  0.23854523  0.08434926  0.07925349  1
  Ba  Ba36  1  0.17877187  0.54248210  0.33179081  1
  Ba  Ba37  1  0.83120140  0.71384969  0.67281879  1
  Ba  Ba38  1  0.78680510  -0.02953440  0.71854571  1
  Ba  Ba39  1  0.50358958  0.02301270  -0.03502603  1
  Ba  Ba40  1  0.51564104  0.16326941  0.73354167  1
  Ba  Ba41  1  -0.06435210  0.15525920  0.67834581  1
  Ba  Ba42  1  0.81070993  0.72894788  0.17700460  1
  Ba  Ba43  1  0.45478330  0.58026657  -0.04334586  1
  Ba  Ba44  1  0.72315409  0.26093832  0.52710735  1
  Ba  Ba45  1  0.70463125  -0.02184116  0.48716762  1
  Ba  Ba46  1  0.24816561  0.82077554  0.69546695  1
  Ba  Ba47  1  0.04175133  0.42040176  -0.02876762  1
  Ba  Ba48  1  0.31619643  0.82772020  -0.07094234  1
  Ba  Ba49  1  0.53898985  -0.01327643  0.25954611  1
  Ba  Ba50  1  0.82059113  0.72131323  -0.06932094  1
  Fe  Fe51  1  0.91548402  0.24709987  0.87208867  1
  Fe  Fe52  1  0.79386491  0.52999681  0.14142180  1
  Fe  Fe53  1  0.87404138  0.40451230  0.10051001  1
  Fe  Fe54  1  0.99442926  0.73497593  0.83519376  1
  Fe  Fe55  1  0.88327447  0.96158281  0.37126782  1
  Fe  Fe56  1  0.59786353  0.86067646  0.68268776  1
  Fe  Fe57  1  0.19297087  0.33907267  0.31033468  1
  Fe  Fe58  1  0.85073560  0.42659563  0.23189605  1
  Fe  Fe59  1  0.43937780  0.55030317  0.40095636  1
  Fe  Fe60  1  0.15801617  0.20819210  0.22632975  1
  Fe  Fe61  1  0.21374378  0.58087485  0.74042598  1
  Fe  Fe62  1  0.27876351  0.23636907  0.27445096  1
  Fe  Fe63  1  0.96623558  0.60905317  0.81187070  1
  Fe  Fe64  1  0.66227353  0.59083831  0.47829771  1
  Fe  Fe65  1  0.80226845  0.54872223  0.47752996  1
  Fe  Fe66  1  0.90615274  -0.03603741  0.51399618  1
  Fe  Fe67  1  0.26633341  0.43255322  0.70382403  1
  Fe  Fe68  1  0.19813939  0.45691808  0.84604018  1
  Fe  Fe69  1  0.57312633  0.50472493  0.39760976  1
  Fe  Fe70  1  0.31791783  0.38335988  0.24118356  1
  Fe  Fe71  1  0.28514969  0.27479752  0.14399741  1
  Fe  Fe72  1  0.50924211  0.84624881  0.81776380  1
  Fe  Fe73  1  0.64915495  0.82735853  0.18214648  1
  Fe  Fe74  1  0.17265169  0.33740937  0.16937146  1
  Fe  Fe75  1  0.84334868  0.42587497  0.50657250  1
  Fe  Fe76  1  0.13567289  0.46739014  0.71444733  1
  Fe  Fe77  1  0.30352674  0.35538053  0.82095786  1
  Fe  Fe78  1  0.63033183  0.39290567  0.86402508  1
  Fe  Fe79  1  0.31690770  0.44345580  0.92310284  1
  Fe  Fe80  1  0.32666526  0.52005096  0.80197293  1
  Fe  Fe81  1  0.63400849  0.52854837  0.87747808  1
  Fe  Fe82  1  0.90052313  1.00544062  0.22467724  1
  Fe  Fe83  1  0.61342652  0.81146851  0.30128223  1
  Fe  Fe84  1  0.10908906  0.67034737  0.79120118  1
  Fe  Fe85  1  0.16891076  0.73742298  0.40642254  1
  Fe  Fe86  1  0.95253029  0.07162456  0.33006846  1
  Fe  Fe87  1  0.94462888  0.89707930  0.62562754  1
  Fe  Fe88  1  0.37394494  0.52073691  0.28111137  1
  Fe  Fe89  1  0.85636473  0.12807140  0.87744184  1
  Fe  Fe90  1  0.59602843  0.44284293  -0.01898313  1
  Fe  Fe91  1  0.69580363  0.45129337  0.46252647  1
  Fe  Fe92  1  -0.07859301  0.53341122  0.12266885  1
  Fe  Fe93  1  0.46260256  0.82849117  0.69439363  1
  Fe  Fe94  1  0.47259097  0.42901450  0.31324309  1
  Fe  Fe95  1  0.08933599  0.89203326  0.57363086  1
  Fe  Fe96  1  0.15711979  0.75812005  0.53635018  1
  Fe  Fe97  1  0.01865965  0.00563652  0.59890286  1
  Fe  Fe98  1  0.80315808  0.41232046  0.37477363  1
  Fe  Fe99  1  0.16039370  0.86995057  0.44408722  1
  Fe  Fe100  1  0.08259066  0.53863016  0.82042346  1
  Fe  Fe101  1  0.57140002  -0.03543180  0.76489876  1
  Bi  Bi102  1  0.03556373  0.76138966  0.67102829  1
  Bi  Bi103  1  0.72800544  0.55899945  0.31142102  1
  Bi  Bi104  1  0.22862101  0.30528094  -0.01814798  1
  Bi  Bi105  1  0.52156217  0.54086982  0.56219357  1
  Bi  Bi106  1  0.03348506  0.42971673  0.19220723  1
  Bi  Bi107  1  0.05989162  -0.00168991  0.43558496  1
  Bi  Bi108  1  0.75081883  -0.06739493  0.26950881  1
  Bi  Bi109  1  0.31425720  0.83031441  0.48023701  1
  Bi  Bi110  1  0.32561473  0.41626922  0.41167204  1
  Bi  Bi111  1  0.39656420  -0.02291027  0.76938709  1
  Bi  Bi112  1  0.23000956  0.61633167  0.91402030  1
  Bi  Bi113  1  0.44837977  0.44234956  0.14288077  1
  Bi  Bi114  1  0.06135317  0.06649831  0.20114616  1
  Bi  Bi115  1  0.38997953  0.67844682  0.75991698  1
  Bi  Bi116  1  0.17882700  0.19020278  0.40107769  1
  Bi  Bi117  1  0.66859252  0.59993921  0.04150128  1
  Bi  Bi118  1  0.67391362  0.84797561  0.85433137  1
  Bi  Bi119  1  0.19049358  0.85448812  0.10903255  1
  Bi  Bi120  1  0.38523199  0.91339901  0.12539175  1
  Bi  Bi121  1  0.60436300  0.15267100  0.11866478  1
  Bi  Bi122  1  0.68152921  0.09381103  0.85828789  1
  Bi  Bi123  1  0.03033722  0.12671996  0.90606451  1
  Bi  Bi124  1  0.32316424  0.25950747  0.67593730  1
  Bi  Bi125  1  0.62283261  0.34063770  0.35795328  1
  Bi  Bi126  1  0.86917483  0.12368651  0.46824981  1
  Bi  Bi127  1  0.56870079  0.12956795  0.43488617  1
