# generated using pymatgen
data_Ba51Fe51Bi26
_symmetry_space_group_name_H-M   'P 1'
_cell_length_a   15.88906886
_cell_length_b   16.56143438
_cell_length_c   16.59291058
_cell_angle_alpha   91.98599004
_cell_angle_beta   89.82520634
_cell_angle_gamma   90.35165381
_symmetry_Int_Tables_number   1
_chemical_formula_structural   Ba51Fe51Bi26
_chemical_formula_sum   'Ba51 Fe51 Bi26'
_cell_volume   4363.63173474
_cell_formula_units_Z   1
loop_
 _symmetry_equiv_pos_site_id
 _symmetry_equiv_pos_as_xyz
  1  'x, y, z'
loop_
 _atom_site_type_symbol
 _atom_site_label
 _atom_site_symmetry_multiplicity
 _atom_site_fract_x
 _atom_site_fract_y
 _atom_site_fract_z
 _atom_site_occupancy
  Ba  Ba0  1  0.02188786  0.43625695  0.86448243  1
  Ba  Ba1  1  0.48039826  -0.02154196  0.76710962  1
  Ba  Ba2  1  0.01428045  0.40554671  0.21707185  1
  Ba  Ba3  1  0.79434147  0.45334734  0.50734644  1
  Ba  Ba4  1  0.50150816  0.74654098  0.43890465  1
  Ba  Ba5  1  0.21435397  0.48716278  0.28924198  1
  Ba  Ba6  1  0.21464077  0.01399213  -0.03284394  1
  Ba  Ba7  1  0.54589241  0.55546604  0.24869453  1
  Ba  Ba8  1  0.19443955  0.70459367  -0.00452072  1
  Ba  Ba9  1  -0.02331576  0.57658742  0.05469713  1
  Ba  Ba10  1  0.79680918  0.22008197  0.39469295  1
  Ba  Ba11  1  0.03511228  0.09457505  0.50165368  1
  Ba  Ba12  1  0.02993704  0.50763634  0.45595561  1
  Ba  Ba13  1  0.34205642  0.47128454  0.48290449  1
  Ba  Ba14  1  0.41622129  0.35200010  0.22831575  1
  Ba  Ba15  1  0.77241234  0.48241234  -0.08093587  1
  Ba  Ba16  1  -0.10833816  0.29435218  0.02723287  1
  Ba  Ba17  1  0.26365899  0.22705107  0.51639963  1
  Ba  Ba18  1  0.17150889  0.78374691  0.76786156  1
  Ba  Ba19  1  -0.05332671  0.02433778  0.04624216  1
  Ba  Ba20  1  0.79917895  0.67840770  0.22556333  1
  Ba  Ba21  1  0.78289306  0.66034585  0.68437505  1
  Ba  Ba22  1  0.27049863  0.49843573  -0.09238584  1
  Ba  Ba23  1  0.59207720  0.79869432  0.17045258  1
  Ba  Ba24  1  0.74348687  -0.05387809  0.76671087  1
  Ba  Ba25  1  0.02257325  -0.01201967  0.76440936  1
  Ba  Ba26  1  0.57020099  0.56154948  0.59148601  1
  Ba  Ba27  1  0.19794302  0.55060601  0.66057297  1
  Ba  Ba28  1  0.53368216  0.44081394  -0.05435595  1
  Ba  Ba29  1  0.00152613  0.72115340  0.56172828  1
  Ba  Ba30  1  0.86936148  0.19221506  0.64149581  1
  Ba  Ba31  1  0.45153322  0.00785927  0.47928367  1
  Ba  Ba32  1  0.42274744  -0.05828103  0.08445310  1
  Ba  Ba33  1  0.04313783  0.86857470  0.37492589  1
  Ba  Ba34  1  0.01891339  0.21930960  0.81810224  1
  Ba  Ba35  1  0.56071855  0.23212904  0.09147301  1
  Ba  Ba36  1  0.29883584  0.71057158  0.21396024  1
  Ba  Ba37  1  0.20863751  0.22948396  0.25645937  1
  Ba  Ba38  1  0.54588692  0.28102820  0.49786713  1
  Ba  Ba39  1  -0.00147520  0.79427976  0.15032992  1
  Ba  Ba40  1  0.26829682  0.81318615  0.46860613  1
  Ba  Ba41  1  -0.02196388  0.14577514  0.26007622  1
  Ba  Ba42  1  0.22216707  0.31885728  0.74209011  1
  Ba  Ba43  1  0.48473700  0.22094467  0.80393862  1
  Ba  Ba44  1  0.46249533  0.73369925  0.73707225  1
  Ba  Ba45  1  0.26650513  0.26240046  -0.01830843  1
  Ba  Ba46  1  0.77412515  0.74640596  -0.05728108  1
  Ba  Ba47  1  0.68477761  0.04025223  -0.00004634  1
  Ba  Ba48  1  0.77767052  0.80495380  0.46178488  1
  Ba  Ba49  1  0.47796877  0.67793526  -0.02986537  1
  Ba  Ba50  1  0.69196873  0.03861994  0.54653612  1
  Fe  Fe51  1  0.88809709  0.52981872  0.31136237  1
  Fe  Fe52  1  0.64203195  0.23730392  0.66804853  1
  Fe  Fe53  1  0.33248582  0.04175841  0.27650499  1
  Fe  Fe54  1  0.29974693  0.12956146  0.68982669  1
  Fe  Fe55  1  0.12655007  0.37404802  0.55905534  1
  Fe  Fe56  1  1.06751381  0.26789652  0.61693847  1
  Fe  Fe57  1  0.39074398  0.50826864  0.67198638  1
  Fe  Fe58  1  0.49597793  1.04638323  0.25989548  1
  Fe  Fe59  1  0.73919523  0.49911516  0.30396552  1
  Fe  Fe60  1  0.77348009  0.90623606  0.27778929  1
  Fe  Fe61  1  0.62208135  0.07593942  0.33690874  1
  Fe  Fe62  1  0.08199310  0.60721334  0.82894067  1
  Fe  Fe63  1  0.14147889  0.66514603  0.34422803  1
  Fe  Fe64  1  0.22672347  0.40925096  0.10875040  1
  Fe  Fe65  1  0.75978502  0.31492051  0.22500615  1
  Fe  Fe66  1  0.65739515  0.39831964  0.21833480  1
  Fe  Fe67  1  0.20459123  1.03997421  0.62514150  1
  Fe  Fe68  1  0.28756511  0.63730484  0.39005534  1
  Fe  Fe69  1  0.92086508  0.60744617  0.82406736  1
  Fe  Fe70  1  0.39903406  0.40897330  0.77727034  1
  Fe  Fe71  1  0.14085720  0.15506060  0.66307426  1
  Fe  Fe72  1  0.80113364  0.31278227  0.79534846  1
  Fe  Fe73  1  0.00997831  0.67712395  0.74189627  1
  Fe  Fe74  1  0.11407236  0.41621752  1.04076494  1
  Fe  Fe75  1  0.70004826  0.44345147  0.73736842  1
  Fe  Fe76  1  0.08064842  0.97804418  0.21822207  1
  Fe  Fe77  1  0.90008738  0.95759736  0.23584903  1
  Fe  Fe78  1  0.82253217  0.18951498  0.85421131  1
  Fe  Fe79  1  0.63413707  0.10728452  0.20711589  1
  Fe  Fe80  1  0.83220700  0.39911123  0.31376835  1
  Fe  Fe81  1  0.71333461  0.18398736  0.77057538  1
  Fe  Fe82  1  1.00099882  0.54953618  0.70678630  1
  Fe  Fe83  1  0.21769864  0.04144094  0.17942224  1
  Fe  Fe84  1  0.22955009  0.93491103  0.28637121  1
  Fe  Fe85  1  0.03799162  0.41180300  0.65891518  1
  Fe  Fe86  1  0.97113059  0.34145974  0.55328841  1
  Fe  Fe87  1  0.18240456  0.11207799  0.78354341  1
  Fe  Fe88  1  0.15841154  0.05241506  0.30670226  1
  Fe  Fe89  1  0.17386348  0.53425357  0.10215281  1
  Fe  Fe90  1  1.00685426  0.61574436  0.28734274  1
  Fe  Fe91  1  0.76561092  0.04377031  0.25990866  1
  Fe  Fe92  1  0.68108242  0.38491893  0.35184797  1
  Fe  Fe93  1  0.64067545  0.97516867  0.21727528  1
  Fe  Fe94  1  0.44932224  0.53419882  0.78825652  1
  Fe  Fe95  1  0.65592441  0.32276329  0.79048368  1
  Fe  Fe96  1  0.73278717  0.33151212  0.65964193  1
  Fe  Fe97  1  0.18867033  0.62957290  0.47063357  1
  Fe  Fe98  1  0.99835523  0.70174984  0.89250801  1
  Fe  Fe99  1  0.38149508  0.37810677  0.64680193  1
  Fe  Fe100  1  0.31012696  0.12617672  0.82274318  1
  Fe  Fe101  1  0.10835383  0.62641211  0.20248467  1
  Bi  Bi102  1  0.81061952  0.46294816  0.14961709  1
  Bi  Bi103  1  0.23459041  0.02062551  0.44612184  1
  Bi  Bi104  1  0.87022416  0.43691868  0.70597514  1
  Bi  Bi105  1  0.79273760  -0.11591420  0.11514838  1
  Bi  Bi106  1  0.69174251  0.26434182  -0.06451826  1
  Bi  Bi107  1  0.19660672  -0.12006596  0.12986794  1
  Bi  Bi108  1  0.26684191  -0.02696098  0.75943667  1
  Bi  Bi109  1  0.54608624  0.38212691  0.68400712  1
  Bi  Bi110  1  0.06386267  0.29514922  0.41495257  1
  Bi  Bi111  1  -0.08922969  0.80104175  0.78340046  1
  Bi  Bi112  1  -0.13678615  0.00764816  0.39343511  1
  Bi  Bi113  1  0.40934142  0.17390540  0.35253271  1
  Bi  Bi114  1  0.60256284  0.25044694  0.29509820  1
  Bi  Bi115  1  0.35897817  0.13839548  0.13086924  1
  Bi  Bi116  1  0.58239597  0.86445561  0.91713757  1
  Bi  Bi117  1  0.40495232  0.88681981  0.29647657  1
  Bi  Bi118  1  0.65550742  0.60889537  0.07057158  1
  Bi  Bi119  1  0.61005447  0.83506498  0.61472714  1
  Bi  Bi120  1  0.78940629  0.16438116  0.15031995  1
  Bi  Bi121  1  0.11126452  0.90182346  0.58618441  1
  Bi  Bi122  1  0.88704120  0.93717217  0.59487911  1
  Bi  Bi123  1  0.35152911  0.83676995  0.89944826  1
  Bi  Bi124  1  0.62230062  0.91073232  0.36773049  1
  Bi  Bi125  1  0.36151592  0.52473709  0.10510368  1
  Bi  Bi126  1  0.61816514  0.58829852  0.80404469  1
  Bi  Bi127  1  0.04442503  0.85745694  0.94603462  1
