# generated using pymatgen
data_Ba51Fe51Bi26
_symmetry_space_group_name_H-M   'P 1'
_cell_length_a   16.58884588
_cell_length_b   16.17786660
_cell_length_c   16.20317190
_cell_angle_alpha   90.05150592
_cell_angle_beta   89.78512976
_cell_angle_gamma   90.49037644
_symmetry_Int_Tables_number   1
_chemical_formula_structural   Ba51Fe51Bi26
_chemical_formula_sum   'Ba51 Fe51 Bi26'
_cell_volume   4348.28837075
_cell_formula_units_Z   1
loop_
 _symmetry_equiv_pos_site_id
 _symmetry_equiv_pos_as_xyz
  1  'x, y, z'
loop_
 _atom_site_type_symbol
 _atom_site_label
 _atom_site_symmetry_multiplicity
 _atom_site_fract_x
 _atom_site_fract_y
 _atom_site_fract_z
 _atom_site_occupancy
  Ba  Ba0  1  0.78166570  0.27841712  0.02507436  1
  Ba  Ba1  1  0.74414862  0.78426543  -0.06761433  1
  Ba  Ba2  1  0.05085354  0.06116660  0.00774559  1
  Ba  Ba3  1  0.00887946  0.21998510  0.19732966  1
  Ba  Ba4  1  0.33620203  0.24314561  0.47055872  1
  Ba  Ba5  1  0.26808101  0.69111939  0.12612713  1
  Ba  Ba6  1  0.75544314  0.24743805  0.56592270  1
  Ba  Ba7  1  0.78510311  0.03803617  -0.04637873  1
  Ba  Ba8  1  0.67033647  0.46510156  0.37652462  1
  Ba  Ba9  1  0.65335801  0.73607690  0.70334931  1
  Ba  Ba10  1  0.02496325  0.50456417  0.41513184  1
  Ba  Ba11  1  0.31289595  -0.06955907  0.03403519  1
  Ba  Ba12  1  -0.00904260  0.00744017  0.77556091  1
  Ba  Ba13  1  -0.03336031  0.76316740  0.84367856  1
  Ba  Ba14  1  -0.01699211  0.75696654  0.29060532  1
  Ba  Ba15  1  0.72896078  0.71388380  0.30458034  1
  Ba  Ba16  1  0.23171225  0.65742917  0.42695214  1
  Ba  Ba17  1  0.31669508  0.26819142  0.77418366  1
  Ba  Ba18  1  0.55199585  -0.01340340  0.03769047  1
  Ba  Ba19  1  0.77670584  -0.08746889  0.16634304  1
  Ba  Ba20  1  0.30915295  -0.13351663  0.29524610  1
  Ba  Ba21  1  0.02624753  -0.02298359  0.48344470  1
  Ba  Ba22  1  0.46591994  0.48450752  0.50268773  1
  Ba  Ba23  1  0.49642939  0.22115453  0.25288993  1
  Ba  Ba24  1  0.76160694  0.84814237  0.49996201  1
  Ba  Ba25  1  0.78329580  0.06977644  0.35401589  1
  Ba  Ba26  1  0.49727353  0.85542219  0.51729808  1
  Ba  Ba27  1  0.49192906  0.69090706  0.28832927  1
  Ba  Ba28  1  0.50070556  0.53681210  0.04478800  1
  Ba  Ba29  1  0.20662140  0.50027651  0.78615772  1
  Ba  Ba30  1  0.25333300  0.04369220  0.81243750  1
  Ba  Ba31  1  0.01825262  0.27073786  0.74074134  1
  Ba  Ba32  1  0.74398048  0.54221565  0.59763398  1
  Ba  Ba33  1  0.07215451  0.77485328  0.59617779  1
  Ba  Ba34  1  0.01609369  0.32748059  -0.00956238  1
  Ba  Ba35  1  0.22874247  0.47915449  0.03105249  1
  Ba  Ba36  1  0.53982677  0.25086167  -0.02349081  1
  Ba  Ba37  1  -0.01673182  0.56169084  0.67297427  1
  Ba  Ba38  1  0.74340570  0.56301162  0.08720913  1
  Ba  Ba39  1  0.24888083  0.79867555  0.77095611  1
  Ba  Ba40  1  0.57030691  0.07552904  0.49489431  1
  Ba  Ba41  1  0.80441681  0.31143808  0.27194887  1
  Ba  Ba42  1  0.24784988  0.20607502  0.06725091  1
  Ba  Ba43  1  0.50128484  0.75690870  -0.07645333  1
  Ba  Ba44  1  0.73810934  -0.00241489  0.70839322  1
  Ba  Ba45  1  0.27485595  -0.04496676  0.53273353  1
  Ba  Ba46  1  -0.04935211  0.55412160  -0.05409875  1
  Ba  Ba47  1  0.41878102  0.68789796  0.67485787  1
  Ba  Ba48  1  0.04438944  0.24788120  0.44841310  1
  Ba  Ba49  1  0.54461022  0.27092005  0.69973501  1
  Ba  Ba50  1  0.80872367  0.38351181  0.78239420  1
  Fe  Fe51  1  0.46163784  0.57526945  0.83692692  1
  Fe  Fe52  1  0.54557202  0.55080230  0.71938375  1
  Fe  Fe53  1  0.29629894  0.55774732  0.59198682  1
  Fe  Fe54  1  0.10506993  0.10009098  0.31904635  1
  Fe  Fe55  1  0.89399793  0.83444080  0.64327004  1
  Fe  Fe56  1  0.95396513  0.88140863  1.00492864  1
  Fe  Fe57  1  0.58671284  0.07222203  0.83482588  1
  Fe  Fe58  1  0.43130785  0.91361082  0.83544888  1
  Fe  Fe59  1  0.16445596  0.48112494  0.57761788  1
  Fe  Fe60  1  0.35427503  0.53486311  0.32449506  1
  Fe  Fe61  1  0.28584953  0.42202667  0.59852461  1
  Fe  Fe62  1  0.32439093  0.06255934  0.22527739  1
  Fe  Fe63  1  0.05093493  0.48891430  0.10876608  1
  Fe  Fe64  1  0.40633002  0.94198890  0.70311346  1
  Fe  Fe65  1  0.87967441  0.19140260  0.87249411  1
  Fe  Fe66  1  0.23563457  0.50669724  0.26998748  1
  Fe  Fe67  1  0.32148763  0.39006025  0.26068116  1
  Fe  Fe68  1  0.18241517  0.31430871  0.90169196  1
  Fe  Fe69  1  1.03688356  0.02291821  0.19490612  1
  Fe  Fe70  1  0.97961463  0.89569555  0.13903160  1
  Fe  Fe71  1  0.09183098  0.13106934  0.60984986  1
  Fe  Fe72  1  0.59269721  0.01809747  0.25562742  1
  Fe  Fe73  1  0.45547782  0.04807910  0.81641960  1
  Fe  Fe74  1  0.05568368  0.78695697  0.04834109  1
  Fe  Fe75  1  0.44979381  0.99616814  0.21929077  1
  Fe  Fe76  1  0.95705220  0.58011889  0.15254472  1
  Fe  Fe77  1  0.90469140  0.44378459  0.12058487  1
  Fe  Fe78  1  0.07030151  0.63896595  0.07098641  1
  Fe  Fe79  1  0.14208339  0.19571366  0.88449558  1
  Fe  Fe80  1  0.09561921  0.95796503  0.30211638  1
  Fe  Fe81  1  0.35904019  0.51113149  0.18651045  1
  Fe  Fe82  1  0.85078248  0.71796341  0.67499021  1
  Fe  Fe83  1  0.14565985  0.70273129  0.96471828  1
  Fe  Fe84  1  0.57285512  0.93662325  0.83459830  1
  Fe  Fe85  1  0.53602388  0.01436709  0.70326518  1
  Fe  Fe86  1  0.22602152  0.03972886  0.34056307  1
  Fe  Fe87  1  0.51537356  0.44833629  0.84134518  1
  Fe  Fe88  1  0.22238014  0.13059467  0.62253389  1
  Fe  Fe89  1  0.97333312  0.06952252  0.31828497  1
  Fe  Fe90  1  0.98530948  0.43869076  0.22557623  1
  Fe  Fe91  1  0.52114707  0.87523596  0.72362172  1
  Fe  Fe92  1  0.18482642  0.04390367  0.19873993  1
  Fe  Fe93  1  0.18117813  0.61042018  0.62233978  1
  Fe  Fe94  1  0.49845278  0.92119746  0.33313241  1
  Fe  Fe95  1  0.85207707  0.15745766  0.75266070  1
  Fe  Fe96  1  0.54722081  0.87853856  0.21258922  1
  Fe  Fe97  1  0.14037555  1.01623061  0.65213648  1
  Fe  Fe98  1  0.94513612  0.94722146  0.27735487  1
  Fe  Fe99  1  0.62955545  0.91187194  0.33477537  1
  Fe  Fe100  1  0.61229306  0.57959765  0.84793736  1
  Fe  Fe101  1  0.62651991  0.45847647  0.76266138  1
  Bi  Bi102  1  0.23141306  0.20353785  0.28163312  1
  Bi  Bi103  1  0.10805898  0.60142222  0.23453116  1
  Bi  Bi104  1  0.25101841  0.44376880  0.43122150  1
  Bi  Bi105  1  0.49154252  0.46418954  0.27406654  1
  Bi  Bi106  1  0.40276012  0.45865052  0.71227688  1
  Bi  Bi107  1  0.31531906  0.64817031  -0.08914804  1
  Bi  Bi108  1  0.17669077  0.29858928  0.61339496  1
  Bi  Bi109  1  0.70577120  0.19328344  0.82512804  1
  Bi  Bi110  1  -0.14845046  0.53226402  0.27791973  1
  Bi  Bi111  1  0.39707149  0.10622988  0.64510835  1
  Bi  Bi112  1  -0.10173270  0.73162859  0.08142934  1
  Bi  Bi113  1  0.39656009  0.04776604  0.38101655  1
  Bi  Bi114  1  0.14412854  -0.12274040  0.16097583  1
  Bi  Bi115  1  0.79924852  0.61240609  0.80386401  1
  Bi  Bi116  1  0.12669794  0.88012805  0.92179816  1
  Bi  Bi117  1  0.60543154  0.67008638  0.48493350  1
  Bi  Bi118  1  0.69367739  0.11923166  0.15389223  1
  Bi  Bi119  1  0.39120048  0.35834288  0.10371027  1
  Bi  Bi120  1  0.63680304  0.37826012  0.15769784  1
  Bi  Bi121  1  0.56840058  0.28827555  0.46855874  1
  Bi  Bi122  1  0.90780898  0.39165276  0.56798544  1
  Bi  Bi123  1  0.91717411  0.11674019  0.59881857  1
  Bi  Bi124  1  0.14264660  0.37929742  0.20461371  1
  Bi  Bi125  1  0.61823670  0.75816443  0.11237514  1
  Bi  Bi126  1  0.65648278  0.43000719  0.93082169  1
  Bi  Bi127  1  0.89903701  0.68999737  0.50996254  1
