# generated using pymatgen
data_Ba51Fe51Bi26
_symmetry_space_group_name_H-M   'P 1'
_cell_length_a   16.44784784
_cell_length_b   16.31461012
_cell_length_c   16.29583044
_cell_angle_alpha   90.52301300
_cell_angle_beta   92.35815426
_cell_angle_gamma   90.92173411
_symmetry_Int_Tables_number   1
_chemical_formula_structural   Ba51Fe51Bi26
_chemical_formula_sum   'Ba51 Fe51 Bi26'
_cell_volume   4368.34854117
_cell_formula_units_Z   1
loop_
 _symmetry_equiv_pos_site_id
 _symmetry_equiv_pos_as_xyz
  1  'x, y, z'
loop_
 _atom_site_type_symbol
 _atom_site_label
 _atom_site_symmetry_multiplicity
 _atom_site_fract_x
 _atom_site_fract_y
 _atom_site_fract_z
 _atom_site_occupancy
  Ba  Ba0  1  0.43334501  -0.06277211  0.91975855  1
  Ba  Ba1  1  0.42507807  0.62257831  0.17220534  1
  Ba  Ba2  1  0.22805770  0.02403446  0.17267771  1
  Ba  Ba3  1  0.23811882  0.79010512  0.24136245  1
  Ba  Ba4  1  0.74421876  0.75793598  0.06172899  1
  Ba  Ba5  1  0.01204165  0.47625753  0.76066510  1
  Ba  Ba6  1  -0.00250850  0.27215042  0.39691419  1
  Ba  Ba7  1  0.20401762  0.27842460  0.24280801  1
  Ba  Ba8  1  0.84233625  0.76267294  0.28485714  1
  Ba  Ba9  1  0.20744350  -0.06757643  0.73854412  1
  Ba  Ba10  1  0.56574922  0.75900235  0.84159150  1
  Ba  Ba11  1  0.43889294  0.23012974  0.26414803  1
  Ba  Ba12  1  0.26841490  0.67244242  0.79212866  1
  Ba  Ba13  1  0.51929293  0.56754506  0.69968807  1
  Ba  Ba14  1  0.01727475  0.00695402  0.55244422  1
  Ba  Ba15  1  0.72189756  0.26159428  -0.09323043  1
  Ba  Ba16  1  0.25503812  0.38279258  0.70651908  1
  Ba  Ba17  1  0.48083193  0.81657943  0.31246015  1
  Ba  Ba18  1  0.73952821  -0.02554873  0.78525334  1
  Ba  Ba19  1  -0.00585494  0.67833724  0.53740514  1
  Ba  Ba20  1  -0.03830037  0.50215837  0.22564681  1
  Ba  Ba21  1  0.86465715  -0.02584442  -0.01871912  1
  Ba  Ba22  1  0.46079238  0.07511856  0.52093338  1
  Ba  Ba23  1  0.59508934  0.34110561  0.39720820  1
  Ba  Ba24  1  0.33064302  0.17727750  0.80010011  1
  Ba  Ba25  1  0.19869520  0.54339671  0.29546030  1
  Ba  Ba26  1  0.22339429  0.78146332  0.51356532  1
  Ba  Ba27  1  0.73315448  0.01966565  0.55795748  1
  Ba  Ba28  1  0.69200061  0.51521785  0.21023451  1
  Ba  Ba29  1  0.09656390  -0.03965577  -0.05163634  1
  Ba  Ba30  1  0.74082763  0.51529028  -0.09206172  1
  Ba  Ba31  1  0.76367581  0.77864896  0.48889345  1
  Ba  Ba32  1  -0.00129020  0.42427091  0.00083164  1
  Ba  Ba33  1  0.02694442  -0.08215046  0.31070342  1
  Ba  Ba34  1  0.28139335  0.24193717  0.48650993  1
  Ba  Ba35  1  0.59783039  0.18094645  0.71401584  1
  Ba  Ba36  1  0.59699806  0.30781008  0.08913169  1
  Ba  Ba37  1  0.46461915  0.01349820  0.26972532  1
  Ba  Ba38  1  0.21923362  0.55045275  0.01741144  1
  Ba  Ba39  1  0.75763675  0.49801330  0.54677076  1
  Ba  Ba40  1  0.45144481  0.47254592  -0.07133028  1
  Ba  Ba41  1  0.30602776  0.48826525  0.50271807  1
  Ba  Ba42  1  0.70643869  -0.03829808  0.19714489  1
  Ba  Ba43  1  0.53694603  0.56598673  0.45103900  1
  Ba  Ba44  1  0.53732946  0.81242760  0.54547355  1
  Ba  Ba45  1  0.78724651  0.25322836  0.52737601  1
  Ba  Ba46  1  0.02777383  0.23087013  0.70873122  1
  Ba  Ba47  1  0.31529650  0.29296083  0.02590814  1
  Ba  Ba48  1  0.79945869  0.19375813  0.22557132  1
  Ba  Ba49  1  -0.06280116  0.19744336  -0.01844988  1
  Ba  Ba50  1  -0.04447780  0.69964204  -0.02286263  1
  Fe  Fe51  1  0.48766154  0.75750001  0.03252871  1
  Fe  Fe52  1  0.57735328  0.36943125  0.63872452  1
  Fe  Fe53  1  0.09630176  0.69931091  0.14125686  1
  Fe  Fe54  1  0.14450786  0.17273369  0.96638245  1
  Fe  Fe55  1  0.45489149  0.13918230  0.97902086  1
  Fe  Fe56  1  0.85659195  0.13742425  0.81301087  1
  Fe  Fe57  1  0.22299562  0.95637804  0.36608223  1
  Fe  Fe58  1  0.80655219  0.57114112  0.72774325  1
  Fe  Fe59  1  0.09636825  0.65739618  0.86411336  1
  Fe  Fe60  1  0.07947937  0.78602198  0.83205218  1
  Fe  Fe61  1  0.30170592  0.06644567  0.37213562  1
  Fe  Fe62  1  0.01813956  0.49172286  0.44046488  1
  Fe  Fe63  1  1.02433631  0.11112087  0.21252464  1
  Fe  Fe64  1  0.36980726  0.39938797  0.32586470  1
  Fe  Fe65  1  0.08360992  0.13289971  0.09525771  1
  Fe  Fe66  1  0.34140141  0.74308417  0.99857420  1
  Fe  Fe67  1  0.70363090  0.64822910  0.75621775  1
  Fe  Fe68  1  0.87193854  0.27909889  0.79472551  1
  Fe  Fe69  1  0.13028120  0.41810564  0.42703239  1
  Fe  Fe70  1  0.45760099  0.37800532  0.74154977  1
  Fe  Fe71  1  0.98211470  0.74515693  0.17042577  1
  Fe  Fe72  1  0.94567787  0.86838054  0.12083623  1
  Fe  Fe73  1  0.12031532  0.37415900  0.55192663  1
  Fe  Fe74  1  0.39836475  0.11791558  0.09205267  1
  Fe  Fe75  1  0.33316563  0.44151341  0.20137421  1
  Fe  Fe76  1  0.43740491  0.27051434  0.65890995  1
  Fe  Fe77  1  0.58705130  0.10626664  0.93715894  1
  Fe  Fe78  1  0.82103031  0.68562446  0.65782748  1
  Fe  Fe79  1  1.02063428  -0.00468345  0.12771755  1
  Fe  Fe80  1  0.58432446  0.38022271  0.77990632  1
  Fe  Fe81  1  0.47376162  0.45661350  0.27287595  1
  Fe  Fe82  1  0.11801781  0.26693098  0.05178512  1
  Fe  Fe83  1  0.44316028  0.39612755  0.15436089  1
  Fe  Fe84  1  0.55288312  0.86647886  0.10117256  1
  Fe  Fe85  1  0.34774278  0.93224302  0.40472086  1
  Fe  Fe86  1  0.10509862  0.50627700  0.55086892  1
  Fe  Fe87  1  0.45194405  0.40361930  0.59842445  1
  Fe  Fe88  1  0.71673497  0.78210926  0.68743997  1
  Fe  Fe89  1  0.78354266  0.21488370  0.71362566  1
  Fe  Fe90  1  0.67996429  0.65999910  0.62548187  1
  Fe  Fe91  1  0.01169807  0.85103831  0.71257407  1
  Fe  Fe92  1  0.58174901  0.74726567  0.15333109  1
  Fe  Fe93  1  0.86390789  0.82668230  0.69305105  1
  Fe  Fe94  1  0.86473230  0.11641686  0.68151201  1
  Fe  Fe95  1  0.48948112  0.28848052  0.54216611  1
  Fe  Fe96  1  0.42140662  0.66121757  0.94367736  1
  Fe  Fe97  1  0.69579495  0.09843814  0.01643917  1
  Fe  Fe98  1  0.38901602  0.68084180  0.57130829  1
  Fe  Fe99  1  0.65679996  0.95423576  0.38620506  1
  Fe  Fe100  1  0.07691227  0.84752986  0.11491968  1
  Fe  Fe101  1  0.94104255  0.84855291  0.82429801  1
  Bi  Bi102  1  0.58372076  0.61633725  0.02458638  1
  Bi  Bi103  1  0.16942677  0.75903176  -0.01343761  1
  Bi  Bi104  1  -0.02916543  0.68188408  0.74811493  1
  Bi  Bi105  1  -0.04231535  0.40199060  0.56960721  1
  Bi  Bi106  1  0.74169178  0.38246333  0.72461968  1
  Bi  Bi107  1  0.78997741  0.76927471  0.84886671  1
  Bi  Bi108  1  0.05868108  0.69968791  0.31796391  1
  Bi  Bi109  1  0.56310476  0.10533413  0.11485293  1
  Bi  Bi110  1  -0.03177533  0.01217636  0.77328182  1
  Bi  Bi111  1  0.50624308  0.27221834  0.88570284  1
  Bi  Bi112  1  0.00180194  0.27743227  0.17510289  1
  Bi  Bi113  1  0.25903789  -0.00805726  0.53307375  1
  Bi  Bi114  1  0.28382132  0.07366296  -0.02821406  1
  Bi  Bi115  1  0.86646907  0.57459879  0.39132511  1
  Bi  Bi116  1  0.80649807  0.37815740  0.07745929  1
  Bi  Bi117  1  0.13138556  0.10607711  0.35833295  1
  Bi  Bi118  1  0.80373942  0.38123876  0.34917447  1
  Bi  Bi119  1  0.82911371  0.96596673  0.38190329  1
  Bi  Bi120  1  0.38620948  0.86598878  0.11645279  1
  Bi  Bi121  1  0.64547253  0.93776903  0.97490002  1
  Bi  Bi122  1  0.35845690  0.67070131  0.40272958  1
  Bi  Bi123  1  0.39230024  0.80033481  0.69040838  1
  Bi  Bi124  1  0.64155541  0.69656411  0.30562961  1
  Bi  Bi125  1  0.63064900  0.12238265  0.38108311  1
  Bi  Bi126  1  0.14325325  0.32687632  0.88548685  1
  Bi  Bi127  1  0.19156005  0.13314528  0.64342568  1
