# generated using pymatgen
data_Ba51Fe51Bi26
_symmetry_space_group_name_H-M   'P 1'
_cell_length_a   16.38693619
_cell_length_b   16.11760607
_cell_length_c   16.59216585
_cell_angle_alpha   88.35588994
_cell_angle_beta   91.08952667
_cell_angle_gamma   89.58084136
_symmetry_Int_Tables_number   1
_chemical_formula_structural   Ba51Fe51Bi26
_chemical_formula_sum   'Ba51 Fe51 Bi26'
_cell_volume   4379.56112800
_cell_formula_units_Z   1
loop_
 _symmetry_equiv_pos_site_id
 _symmetry_equiv_pos_as_xyz
  1  'x, y, z'
loop_
 _atom_site_type_symbol
 _atom_site_label
 _atom_site_symmetry_multiplicity
 _atom_site_fract_x
 _atom_site_fract_y
 _atom_site_fract_z
 _atom_site_occupancy
  Ba  Ba0  1  -0.02379380  0.00988298  0.44345711  1
  Ba  Ba1  1  0.64066424  0.45955384  0.51346746  1
  Ba  Ba2  1  0.69849471  0.78512162  -0.00461642  1
  Ba  Ba3  1  0.43784582  0.60804398  0.48884693  1
  Ba  Ba4  1  0.05562642  -0.05184138  0.17462380  1
  Ba  Ba5  1  -0.06432177  0.27734907  0.05425474  1
  Ba  Ba6  1  0.56220857  0.06436402  0.55996294  1
  Ba  Ba7  1  0.81142631  0.29924428  0.69920065  1
  Ba  Ba8  1  0.06619314  0.27185427  0.40398534  1
  Ba  Ba9  1  0.26819387  0.20343759  0.21263882  1
  Ba  Ba10  1  0.29302067  -0.06659257  0.22366779  1
  Ba  Ba11  1  0.33262394  0.68745569  0.83383253  1
  Ba  Ba12  1  0.83425770  -0.04238321  0.25628210  1
  Ba  Ba13  1  0.10564372  0.55798075  0.53009978  1
  Ba  Ba14  1  0.47366373  0.52830131  0.27317802  1
  Ba  Ba15  1  0.18500030  0.48916179  0.01358543  1
  Ba  Ba16  1  0.74506295  0.75752308  0.47027797  1
  Ba  Ba17  1  0.48269336  0.51679931  0.00433006  1
  Ba  Ba18  1  0.03824023  0.78244847  0.57734730  1
  Ba  Ba19  1  0.23513032  -0.01245561  0.68326807  1
  Ba  Ba20  1  0.50035696  0.26748607  0.18167370  1
  Ba  Ba21  1  0.76352967  0.19316114  0.46646902  1
  Ba  Ba22  1  -0.10819750  0.51572380  -0.05718368  1
  Ba  Ba23  1  0.42610436  0.25046866  0.76583160  1
  Ba  Ba24  1  0.21890572  0.48804226  0.30827850  1
  Ba  Ba25  1  0.48267957  0.76564043  0.12628263  1
  Ba  Ba26  1  0.45732735  0.96569304  0.78527905  1
  Ba  Ba27  1  0.64177989  0.78346102  0.75411156  1
  Ba  Ba28  1  -0.03256997  0.48116202  0.70994193  1
  Ba  Ba29  1  0.71400449  0.17651520  0.23662745  1
  Ba  Ba30  1  0.54719183  0.18237912  -0.03540395  1
  Ba  Ba31  1  0.53632392  -0.06094384  0.27612907  1
  Ba  Ba32  1  0.00414176  -0.07582221  -0.05912978  1
  Ba  Ba33  1  0.15571835  0.71234573  0.23114854  1
  Ba  Ba34  1  0.24748422  0.78095838  0.46561635  1
  Ba  Ba35  1  0.18887501  0.21683951  -0.01555191  1
  Ba  Ba36  1  0.70423937  0.39457522  0.03778929  1
  Ba  Ba37  1  0.88828435  0.41889594  0.46738547  1
  Ba  Ba38  1  0.23292475  0.29479494  0.58126762  1
  Ba  Ba39  1  0.22727487  0.77545896  0.02103986  1
  Ba  Ba40  1  0.73903715  0.73500277  0.22852044  1
  Ba  Ba41  1  0.78091325  0.04393932  0.01267222  1
  Ba  Ba42  1  0.48653144  0.84499069  0.52415125  1
  Ba  Ba43  1  -0.00844670  -0.03663989  0.71265030  1
  Ba  Ba44  1  0.78542226  -0.05689339  0.61175428  1
  Ba  Ba45  1  -0.01958569  0.17408027  0.81255427  1
  Ba  Ba46  1  -0.03844923  0.52645238  0.22145564  1
  Ba  Ba47  1  0.74005639  0.57078899  0.70437092  1
  Ba  Ba48  1  0.22612219  0.43293019  0.77108808  1
  Ba  Ba49  1  0.45532840  0.27197239  0.44604005  1
  Ba  Ba50  1  0.23450006  0.06134736  0.43598207  1
  Fe  Fe51  1  0.06360975  0.84808007  0.35648440  1
  Fe  Fe52  1  0.77300366  0.09406636  0.79281096  1
  Fe  Fe53  1  0.71557020  0.41161658  0.83800994  1
  Fe  Fe54  1  0.71457835  0.12367736  0.67419793  1
  Fe  Fe55  1  0.91136366  0.69428056  0.68692615  1
  Fe  Fe56  1  0.94292981  0.11338868  0.18034758  1
  Fe  Fe57  1  0.63500143  0.16194872  0.78153351  1
  Fe  Fe58  1  0.37683245  0.93447648  0.01982095  1
  Fe  Fe59  1  0.59358840  0.37036656  0.34140496  1
  Fe  Fe60  1  0.89603592  0.82168553  0.08910212  1
  Fe  Fe61  1  0.65799563  0.93679630  0.12522332  1
  Fe  Fe62  1  0.58927149  0.46855301  0.82514932  1
  Fe  Fe63  1  0.57141911  0.11347454  0.36610367  1
  Fe  Fe64  1  0.63832791  0.40044023  0.21973907  1
  Fe  Fe65  1  0.90690454  0.68439650  0.09491048  1
  Fe  Fe66  1  0.58007504  0.40890718  0.70615943  1
  Fe  Fe67  1  0.35372188  0.69166597  0.28334615  1
  Fe  Fe68  1  0.65618425  1.00961016  0.73219938  1
  Fe  Fe69  1  0.60045356  0.05253126  0.11826005  1
  Fe  Fe70  1  0.07871062  0.16337912  0.16333605  1
  Fe  Fe71  1  0.76256396  0.46523835  0.24544558  1
  Fe  Fe72  1  0.36083000  0.37072619  0.26152132  1
  Fe  Fe73  1  0.06093604  0.70886459  0.90825091  1
  Fe  Fe74  1  0.94191671  0.81098842  0.39796594  1
  Fe  Fe75  1  0.35069442  0.77720577  0.65949320  1
  Fe  Fe76  1  0.21802733  0.76695766  0.68203888  1
  Fe  Fe77  1  0.87350034  0.78738635  0.76748355  1
  Fe  Fe78  1  0.46161685  0.67675803  0.68492114  1
  Fe  Fe79  1  0.02717471  0.76376373  0.05582898  1
  Fe  Fe80  1  0.72374209  0.36405865  0.34740296  1
  Fe  Fe81  1  0.95322238  0.65442248  0.81215306  1
  Fe  Fe82  1  0.37788382  0.05740516  0.96027963  1
  Fe  Fe83  1  0.02864352  0.63342396  0.02508943  1
  Fe  Fe84  1  0.06586757  0.71667123  0.39756138  1
  Fe  Fe85  1  0.94210383  0.67144131  0.39984136  1
  Fe  Fe86  1  0.62890449  0.31215681  0.80391412  1
  Fe  Fe87  1  0.08228687  0.30823620  0.71924234  1
  Fe  Fe88  1  0.54091900  0.61089425  0.79857488  1
  Fe  Fe89  1  0.32825181  0.41488384  0.14734165  1
  Fe  Fe90  1  0.65920019  0.50606358  0.32196078  1
  Fe  Fe91  1  1.01292237  0.30032764  0.61172797  1
  Fe  Fe92  1  0.65427878  1.03281160  0.85862581  1
  Fe  Fe93  1  0.06053182  0.10841536  0.28672611  1
  Fe  Fe94  1  0.00388082  0.24430859  0.23211840  1
  Fe  Fe95  1  0.53182209  0.54669959  0.68009515  1
  Fe  Fe96  1  0.92690709  0.15431525  0.30426580  1
  Fe  Fe97  1  1.01826033  0.77271113  0.77705701  1
  Fe  Fe98  1  0.39495312  0.79735425  0.33885570  1
  Fe  Fe99  1  0.27709123  0.06507887  0.87284524  1
  Fe  Fe100  1  0.45357837  0.11262808  0.31272925  1
  Fe  Fe101  1  0.29949389  0.93101121  0.90159724  1
  Bi  Bi102  1  0.42752478  0.48635976  0.79900938  1
  Bi  Bi103  1  -0.10730436  0.73587086  -0.06149275  1
  Bi  Bi104  1  0.55904358  -0.04429338  -0.01774676  1
  Bi  Bi105  1  0.61385376  0.26184595  0.62767397  1
  Bi  Bi106  1  -0.04858208  0.76045452  0.23966295  1
  Bi  Bi107  1  0.20630743  0.19280923  0.77639327  1
  Bi  Bi108  1  -0.13193888  0.32489152  0.27394848  1
  Bi  Bi109  1  0.79430648  -0.07409635  0.83160093  1
  Bi  Bi110  1  0.11191790  0.63285078  0.75160514  1
  Bi  Bi111  1  0.20814725  -0.00063767  0.02507656  1
  Bi  Bi112  1  0.68030296  0.58644984  -0.09747646  1
  Bi  Bi113  1  0.80110277  0.58042223  0.37056471  1
  Bi  Bi114  1  0.54737383  0.72942901  0.34569289  1
  Bi  Bi115  1  0.36810113  0.32850551  1.01217241  1
  Bi  Bi116  1  0.36774801  0.12150238  0.59033541  1
  Bi  Bi117  1  0.07209953  0.13903259  0.58967436  1
  Bi  Bi118  1  0.11405932  0.35205181  0.16880947  1
  Bi  Bi119  1  0.16530344  0.84352474  0.82401767  1
  Bi  Bi120  1  0.43567813  0.41584425  0.60578155  1
  Bi  Bi121  1  0.28857590  0.62312643  0.62677064  1
  Bi  Bi122  1  0.04671434  0.36925398  0.87995020  1
  Bi  Bi123  1  0.69518891  0.98839060  0.41455709  1
  Bi  Bi124  1  0.76275149  0.24001006  0.89735280  1
  Bi  Bi125  1  0.64251152  0.56534682  0.15049815  1
  Bi  Bi126  1  0.31930176  0.60280527  0.13963372  1
  Bi  Bi127  1  0.42664463  0.07164418  0.12738175  1
