# generated using pymatgen
data_Ba51Fe51Bi26
_symmetry_space_group_name_H-M   'P 1'
_cell_length_a   16.35411534
_cell_length_b   16.40334500
_cell_length_c   16.60037064
_cell_angle_alpha   89.41160484
_cell_angle_beta   90.88587062
_cell_angle_gamma   91.15266414
_symmetry_Int_Tables_number   1
_chemical_formula_structural   Ba51Fe51Bi26
_chemical_formula_sum   'Ba51 Fe51 Bi26'
_cell_volume   4451.59769649
_cell_formula_units_Z   1
loop_
 _symmetry_equiv_pos_site_id
 _symmetry_equiv_pos_as_xyz
  1  'x, y, z'
loop_
 _atom_site_type_symbol
 _atom_site_label
 _atom_site_symmetry_multiplicity
 _atom_site_fract_x
 _atom_site_fract_y
 _atom_site_fract_z
 _atom_site_occupancy
  Ba  Ba0  1  -0.00999259  0.20226811  0.03675616  1
  Ba  Ba1  1  0.91534282  0.23723822  0.45543288  1
  Ba  Ba2  1  0.58429345  0.52969580  0.46162795  1
  Ba  Ba3  1  0.53524972  0.72083139  0.09050745  1
  Ba  Ba4  1  0.01891727  0.42648455  0.30095843  1
  Ba  Ba5  1  0.20408176  0.53647133  -0.04079239  1
  Ba  Ba6  1  0.28562425  0.74382787  -0.13341147  1
  Ba  Ba7  1  0.49788252  0.48905286  0.02112756  1
  Ba  Ba8  1  0.80515404  0.28291847  0.69106381  1
  Ba  Ba9  1  0.32641331  0.40191576  0.57197305  1
  Ba  Ba10  1  0.48828108  0.27574587  0.12134205  1
  Ba  Ba11  1  0.53438669  -0.02437044  0.79218739  1
  Ba  Ba12  1  0.43290086  0.00286735  0.56564456  1
  Ba  Ba13  1  0.64445423  -0.00869031  0.15322095  1
  Ba  Ba14  1  0.03758276  0.51551473  0.52928821  1
  Ba  Ba15  1  0.02482720  0.22358657  0.80538132  1
  Ba  Ba16  1  0.29647932  0.80978407  0.16083259  1
  Ba  Ba17  1  0.02355911  0.80175897  -0.08378664  1
  Ba  Ba18  1  0.21614985  0.52357973  0.25722497  1
  Ba  Ba19  1  0.22407798  0.14009972  0.03425848  1
  Ba  Ba20  1  0.12420076  0.55041040  0.75290062  1
  Ba  Ba21  1  0.46667279  0.19045014  -0.11310173  1
  Ba  Ba22  1  0.02174969  -0.07795343  0.69886661  1
  Ba  Ba23  1  0.56576594  0.44653684  0.77565755  1
  Ba  Ba24  1  0.77782053  0.46069345  0.30310826  1
  Ba  Ba25  1  0.34318292  0.19401749  0.45079075  1
  Ba  Ba26  1  -0.07490005  0.42797782  0.07750767  1
  Ba  Ba27  1  0.01347376  0.67469534  0.26607253  1
  Ba  Ba28  1  0.06677992  0.18216285  0.28498679  1
  Ba  Ba29  1  0.27179597  0.33932050  0.83298551  1
  Ba  Ba30  1  0.43177464  0.05943431  0.27297606  1
  Ba  Ba31  1  -0.16309202  0.53616207  0.78605891  1
  Ba  Ba32  1  0.73556869  0.22719442  0.01554715  1
  Ba  Ba33  1  0.78134357  -0.01814303  -0.03817991  1
  Ba  Ba34  1  0.79790623  0.62047283  0.07271221  1
  Ba  Ba35  1  0.66546146  0.76278616  0.36077204  1
  Ba  Ba36  1  0.63195916  0.00414359  0.41558710  1
  Ba  Ba37  1  -0.02842048  0.80500759  0.48035550  1
  Ba  Ba38  1  0.43132660  0.59329551  0.29765463  1
  Ba  Ba39  1  0.22680132  0.71526701  0.42960714  1
  Ba  Ba40  1  0.69479985  0.21461920  0.28437036  1
  Ba  Ba41  1  0.42026087  0.63367617  0.62589242  1
  Ba  Ba42  1  0.79977698  0.63730775  0.53940481  1
  Ba  Ba43  1  0.16880727  -0.02460961  0.25338568  1
  Ba  Ba44  1  0.26386433  0.02637149  0.78042008  1
  Ba  Ba45  1  0.52529669  0.71601683  0.83542621  1
  Ba  Ba46  1  -0.08627684  -0.08534937  0.26394172  1
  Ba  Ba47  1  0.13954927  0.17246103  0.57560474  1
  Ba  Ba48  1  0.55467778  0.20616232  0.65220948  1
  Ba  Ba49  1  0.29312578  0.30436973  0.24759645  1
  Ba  Ba50  1  0.75896452  0.79052741  0.73364727  1
  Fe  Fe51  1  0.73629229  0.43471560  0.95639677  1
  Fe  Fe52  1  0.30515481  0.44029137  0.10441875  1
  Fe  Fe53  1  0.73445086  0.35079364  0.46204359  1
  Fe  Fe54  1  1.02707779  0.66088148  0.07628068  1
  Fe  Fe55  1  0.07983359  0.54240378  0.11321292  1
  Fe  Fe56  1  0.22786325  0.01619381  0.47508459  1
  Fe  Fe57  1  0.12941156  0.33805577  0.97345853  1
  Fe  Fe58  1  0.90688677  0.97730923  0.52982085  1
  Fe  Fe59  1  0.13495716  0.68332652  0.60395342  1
  Fe  Fe60  1  0.73063928  0.98684111  0.76427185  1
  Fe  Fe61  1  0.61220698  0.33318458  0.52055164  1
  Fe  Fe62  1  0.95651459  0.96003369  0.06158376  1
  Fe  Fe63  1  0.39050190  0.80004370  0.52383840  1
  Fe  Fe64  1  0.74537157  0.09451408  0.66511677  1
  Fe  Fe65  1  0.48800385  0.86766447  0.42943255  1
  Fe  Fe66  1  0.55646911  0.41425129  0.25113962  1
  Fe  Fe67  1  0.78395289  0.04173055  0.53352014  1
  Fe  Fe68  1  0.46581771  0.93446261  0.10115661  1
  Fe  Fe69  1  0.03676222  0.40867193  0.91488728  1
  Fe  Fe70  1  0.49569272  0.72440868  0.46634138  1
  Fe  Fe71  1  0.86531400  0.95018853  0.79985987  1
  Fe  Fe72  1  0.21673185  0.86272071  0.68968065  1
  Fe  Fe73  1  0.86813539  0.04450163  0.41076492  1
  Fe  Fe74  1  0.15370842  0.40668532  0.09748329  1
  Fe  Fe75  1  0.55391064  0.22446876  0.43659555  1
  Fe  Fe76  1  0.27638347  0.88502181  0.55419951  1
  Fe  Fe77  1  0.49925585  0.27645015  0.31559183  1
  Fe  Fe78  1  0.48012745  0.33641353  0.45828722  1
  Fe  Fe79  1  0.43164256  0.08702766  0.08077803  1
  Fe  Fe80  1  0.08697374  -0.01970619  1.03888913  1
  Fe  Fe81  1  0.17078089  -0.02648748  0.58904915  1
  Fe  Fe82  1  0.77327126  0.88628621  0.54976786  1
  Fe  Fe83  1  0.13784340  0.74979341  0.71653622  1
  Fe  Fe84  1  0.33981646  0.98562030  0.08441275  1
  Fe  Fe85  1  0.37109292  0.02504753  0.95514044  1
  Fe  Fe86  1  0.84740401  0.08119681  0.77813443  1
  Fe  Fe87  1  0.01955497  0.03942081  0.14643634  1
  Fe  Fe88  1  0.26384689  0.74745563  0.62194414  1
  Fe  Fe89  1  0.83210875  0.43222795  0.50028819  1
  Fe  Fe90  1  0.26599244  0.33867463  1.03834058  1
  Fe  Fe91  1  0.41107191  0.89552646  0.97831626  1
  Fe  Fe92  1  0.50492950  0.02241168  -0.00491548  1
  Fe  Fe93  1  0.60495272  0.35997581  0.37481495  1
  Fe  Fe94  1  0.15723997  0.90233328  0.45687019  1
  Fe  Fe95  1  0.41265985  0.77110833  0.37231983  1
  Fe  Fe96  1  0.67935482  0.97058860  0.62470279  1
  Fe  Fe97  1  0.13658134  0.82197656  0.57854669  1
  Fe  Fe98  1  0.45194433  0.39733274  0.33974879  1
  Fe  Fe99  1  0.83339369  0.96895127  0.65999671  1
  Fe  Fe100  1  0.81134574  0.92600508  0.42729223  1
  Fe  Fe101  1  0.15533977  0.66671803  0.11161132  1
  Bi  Bi102  1  0.22912864  -0.07899431  -0.03083860  1
  Bi  Bi103  1  0.68022447  0.40294610  0.11355679  1
  Bi  Bi104  1  0.32108836  -0.08766908  0.38714530  1
  Bi  Bi105  1  -0.01087060  0.02604101  -0.10251884  1
  Bi  Bi106  1  0.70908556  0.44305865  0.60914791  1
  Bi  Bi107  1  0.38647732  0.84054412  0.70139015  1
  Bi  Bi108  1  0.92918494  0.11395461  0.63452160  1
  Bi  Bi109  1  0.04387445  0.02385424  0.43345467  1
  Bi  Bi110  1  0.59793631  0.83363051  0.56020642  1
  Bi  Bi111  1  0.58793891  -0.11889710  -0.02674429  1
  Bi  Bi112  1  0.70694682  0.18903718  0.50782519  1
  Bi  Bi113  1  0.50500772  0.85496513  0.25327065  1
  Bi  Bi114  1  -0.02431993  0.69104485  0.66992520  1
  Bi  Bi115  1  0.86833054  0.34596889  0.89162553  1
  Bi  Bi116  1  0.66757677  0.58143864  0.91653914  1
  Bi  Bi117  1  0.88712804  0.27896683  0.22795813  1
  Bi  Bi118  1  0.84985377  0.07535773  0.14493548  1
  Bi  Bi119  1  0.68255019  0.14166742  0.82228105  1
  Bi  Bi120  1  0.62474474  0.58029888  0.22536781  1
  Bi  Bi121  1  0.33811134  0.61237759  0.10230039  1
  Bi  Bi122  1  0.16599236  0.33766480  0.42815699  1
  Bi  Bi123  1  0.34111023  0.20330645  0.67460287  1
  Bi  Bi124  1  0.99176468  0.57770707  0.93717339  1
  Bi  Bi125  1  0.63403848  0.62525518  0.67057556  1
  Bi  Bi126  1  0.06221916  0.82799576  0.12638443  1
  Bi  Bi127  1  0.36262333  0.53669993  0.80816065  1
