# generated using pymatgen
data_Ba51Fe51Bi26
_symmetry_space_group_name_H-M   'P 1'
_cell_length_a   16.47365895
_cell_length_b   16.26407725
_cell_length_c   16.41755730
_cell_angle_alpha   88.86129007
_cell_angle_beta   90.36505310
_cell_angle_gamma   88.50851615
_symmetry_Int_Tables_number   1
_chemical_formula_structural   Ba51Fe51Bi26
_chemical_formula_sum   'Ba51 Fe51 Bi26'
_cell_volume   4396.27435047
_cell_formula_units_Z   1
loop_
 _symmetry_equiv_pos_site_id
 _symmetry_equiv_pos_as_xyz
  1  'x, y, z'
loop_
 _atom_site_type_symbol
 _atom_site_label
 _atom_site_symmetry_multiplicity
 _atom_site_fract_x
 _atom_site_fract_y
 _atom_site_fract_z
 _atom_site_occupancy
  Ba  Ba0  1  0.54566769  0.19976340  0.04931768  1
  Ba  Ba1  1  0.77649364  0.24341193  0.76474675  1
  Ba  Ba2  1  0.01971253  0.06129384  0.03407618  1
  Ba  Ba3  1  0.74820203  0.20724749  0.51723670  1
  Ba  Ba4  1  -0.00964054  -0.02869100  0.47758920  1
  Ba  Ba5  1  0.88256685  0.50501711  0.84456481  1
  Ba  Ba6  1  0.02336588  0.43749132  0.33175452  1
  Ba  Ba7  1  0.24100518  0.26746839  0.68523916  1
  Ba  Ba8  1  0.26745936  0.51561120  0.33132666  1
  Ba  Ba9  1  0.30830001  -0.06404681  0.77813799  1
  Ba  Ba10  1  -0.01072376  0.30729299  0.66002034  1
  Ba  Ba11  1  0.27481508  0.59152650  0.56620447  1
  Ba  Ba12  1  0.71404555  0.01956511  0.31961296  1
  Ba  Ba13  1  0.04419870  0.13019023  0.81017665  1
  Ba  Ba14  1  0.24289327  -0.00776067  0.47663104  1
  Ba  Ba15  1  0.07537823  0.73067125  0.50583873  1
  Ba  Ba16  1  0.00680979  0.73572407  0.86098329  1
  Ba  Ba17  1  0.78272460  0.71279620  0.51864590  1
  Ba  Ba18  1  0.78606349  -0.01086497  0.79497109  1
  Ba  Ba19  1  0.81026089  0.32021513  0.04397245  1
  Ba  Ba20  1  0.25242889  0.72745491  -0.07438069  1
  Ba  Ba21  1  0.55366172  0.54091582  0.57978838  1
  Ba  Ba22  1  0.50631043  -0.00861993  0.51564481  1
  Ba  Ba23  1  -0.04386139  0.04810651  0.24704368  1
  Ba  Ba24  1  0.15610556  0.50713806  0.73019305  1
  Ba  Ba25  1  0.67792719  0.66756876  0.78442151  1
  Ba  Ba26  1  0.33912086  0.13243968  0.25657366  1
  Ba  Ba27  1  -0.01989127  0.22125237  0.42676799  1
  Ba  Ba28  1  0.26464213  0.09189896  -0.02498522  1
  Ba  Ba29  1  0.39450725  0.54932550  -0.16097285  1
  Ba  Ba30  1  -0.05610204  0.54217805  0.59547638  1
  Ba  Ba31  1  0.51636128  0.46557524  0.31365060  1
  Ba  Ba32  1  0.49887098  0.26430560  0.55051630  1
  Ba  Ba33  1  0.25444617  0.75792712  0.32983263  1
  Ba  Ba34  1  0.78226409  0.51996779  0.20898776  1
  Ba  Ba35  1  0.23646605  -0.09139428  0.14071345  1
  Ba  Ba36  1  0.20593216  0.33267004  -0.06177435  1
  Ba  Ba37  1  0.27139964  0.49992157  0.08104991  1
  Ba  Ba38  1  0.63298510  0.24570357  0.28515504  1
  Ba  Ba39  1  0.68174426  0.74335066  0.01479945  1
  Ba  Ba40  1  0.76610280  -0.04154235  0.56511681  1
  Ba  Ba41  1  0.45973214  0.19363719  0.79870483  1
  Ba  Ba42  1  0.80267304  -0.05669029  0.04886432  1
  Ba  Ba43  1  0.42710952  0.74719722  0.65784825  1
  Ba  Ba44  1  0.07959105  0.92175191  0.69748198  1
  Ba  Ba45  1  0.08935059  0.27718780  0.15624287  1
  Ba  Ba46  1  0.55085902  -0.05602836  0.78787166  1
  Ba  Ba47  1  0.23733895  0.24367873  0.44740079  1
  Ba  Ba48  1  -0.14238800  0.77294164  0.26147266  1
  Ba  Ba49  1  0.59673460  0.40223976  0.81070498  1
  Ba  Ba50  1  0.56705080  0.79256417  0.38424505  1
  Fe  Fe51  1  0.97416694  0.58359256  0.18164398  1
  Fe  Fe52  1  0.46375616  0.45906546  0.08363347  1
  Fe  Fe53  1  0.36071233  0.68844569  0.13655304  1
  Fe  Fe54  1  0.82977965  0.38453320  0.52478941  1
  Fe  Fe55  1  0.13981414  0.10912004  0.30153939  1
  Fe  Fe56  1  0.43649816  0.90757955  0.96345146  1
  Fe  Fe57  1  0.52755009  0.86765848  1.08545281  1
  Fe  Fe58  1  1.07521020  0.79131991  1.04296375  1
  Fe  Fe59  1  0.06183834  0.63322031  0.06249973  1
  Fe  Fe60  1  -0.11429817  0.70697888  0.69846932  1
  Fe  Fe61  1  0.99500417  0.39875964  0.99685117  1
  Fe  Fe62  1  0.51057996  0.70555064  0.10478480  1
  Fe  Fe63  1  0.53751897  0.48212315  0.97659010  1
  Fe  Fe64  1  0.40281742  0.45025385  0.48929332  1
  Fe  Fe65  1  0.55093927  0.62219998  0.95804773  1
  Fe  Fe66  1  0.60133220  0.00770636  0.13514250  1
  Fe  Fe67  1  0.78870117  0.80650239  0.69589757  1
  Fe  Fe68  1  -0.09501780  0.85339113  0.73457889  1
  Fe  Fe69  1  0.57701103  0.56235236  1.08828268  1
  Fe  Fe70  1  0.03942518  0.72432198  0.17700949  1
  Fe  Fe71  1  0.51690613  -0.08001503  0.22502743  1
  Fe  Fe72  1  0.36387087  0.81093372  0.48160802  1
  Fe  Fe73  1  0.69489033  0.41214169  0.46298327  1
  Fe  Fe74  1  1.00254548  0.86151150  0.12980442  1
  Fe  Fe75  1  0.92238925  0.80936958  0.61332442  1
  Fe  Fe76  1  0.45778768  0.03892598  0.93634426  1
  Fe  Fe77  1  0.06067174  0.65414120  0.29795921  1
  Fe  Fe78  1  0.43109547  0.60958148  0.02377268  1
  Fe  Fe79  1  0.83872833  0.21526166  0.24596511  1
  Fe  Fe80  1  0.52267005  0.05101914  0.24980526  1
  Fe  Fe81  1  0.29873698  0.39911544  0.53727141  1
  Fe  Fe82  1  0.41085093  0.78077492  0.03452404  1
  Fe  Fe83  1  0.03738727  0.36677311  0.85599470  1
  Fe  Fe84  1  0.81980398  0.49241564  0.43275844  1
  Fe  Fe85  1  0.90901465  0.31959905  0.21921423  1
  Fe  Fe86  1  0.75104821  0.51488749  0.55896878  1
  Fe  Fe87  1  0.72318025  0.49388033  0.69237776  1
  Fe  Fe88  1  0.81421946  0.40656858  0.66029809  1
  Fe  Fe89  1  0.44322883  0.67684125  0.25690609  1
  Fe  Fe90  1  0.94825108  0.54373645  1.03870744  1
  Fe  Fe91  1  0.15849441  0.08906842  0.17904023  1
  Fe  Fe92  1  0.26564215  0.81357005  0.56491634  1
  Fe  Fe93  1  0.11348948  0.57430981  0.19972055  1
  Fe  Fe94  1  0.07252088  0.47968010  0.09941839  1
  Fe  Fe95  1  0.42977438  0.80952007  0.18885776  1
  Fe  Fe96  1  0.02799292  0.25945176  0.96350990  1
  Fe  Fe97  1  0.92923788  0.30286282  0.88880796  1
  Fe  Fe98  1  0.94897854  0.43655742  0.13891529  1
  Fe  Fe99  1  0.56648223  -0.01857329  0.99421410  1
  Fe  Fe100  1  0.45072963  0.57497186  0.16597021  1
  Fe  Fe101  1  0.69315616  0.38051993  0.60440754  1
  Bi  Bi102  1  0.42674721  0.02592237  0.10042466  1
  Bi  Bi103  1  -0.07338193  0.61460562  0.38807495  1
  Bi  Bi104  1  0.47470947  0.75704440  -0.12252688  1
  Bi  Bi105  1  -0.09230519  0.72758840  0.05563608  1
  Bi  Bi106  1  0.41964710  0.35812292  -0.05053015  1
  Bi  Bi107  1  0.60863872  0.65033706  0.22524735  1
  Bi  Bi108  1  0.70228484  0.52703968  -0.03455136  1
  Bi  Bi109  1  0.19901064  0.69811318  0.13286646  1
  Bi  Bi110  1  0.09479893  0.53084450  -0.07076236  1
  Bi  Bi111  1  0.81052974  0.34382985  0.35305661  1
  Bi  Bi112  1  0.67358870  0.57450926  0.40578222  1
  Bi  Bi113  1  0.41957661  0.64245458  0.42763681  1
  Bi  Bi114  1  0.39181296  -0.07217192  0.33482189  1
  Bi  Bi115  1  0.66990683  0.86026328  0.19387586  1
  Bi  Bi116  1  0.90349828  0.10225623  0.64352588  1
  Bi  Bi117  1  0.12734576  0.42055049  0.52786376  1
  Bi  Bi118  1  0.13375990  0.91664785  0.92425553  1
  Bi  Bi119  1  0.36631230  0.09888135  0.62912125  1
  Bi  Bi120  1  0.40168580  0.41296598  0.67228321  1
  Bi  Bi121  1  0.62972860  0.11125397  0.67274525  1
  Bi  Bi122  1  0.05654346  0.84742833  0.30019581  1
  Bi  Bi123  1  0.62592218  0.81566353  0.62766907  1
  Bi  Bi124  1  0.74489672  0.12815097  0.13757788  1
  Bi  Bi125  1  0.61662947  0.39330192  0.12586841  1
  Bi  Bi126  1  0.11010243  0.12484208  0.58681718  1
  Bi  Bi127  1  0.20182336  0.73693037  0.70865444  1
