# generated using pymatgen
data_Ba51Fe51Bi26
_symmetry_space_group_name_H-M   'P 1'
_cell_length_a   16.56726422
_cell_length_b   16.05395947
_cell_length_c   16.30954550
_cell_angle_alpha   91.70177543
_cell_angle_beta   90.30437698
_cell_angle_gamma   89.29108740
_symmetry_Int_Tables_number   1
_chemical_formula_structural   Ba51Fe51Bi26
_chemical_formula_sum   'Ba51 Fe51 Bi26'
_cell_volume   4335.55468848
_cell_formula_units_Z   1
loop_
 _symmetry_equiv_pos_site_id
 _symmetry_equiv_pos_as_xyz
  1  'x, y, z'
loop_
 _atom_site_type_symbol
 _atom_site_label
 _atom_site_symmetry_multiplicity
 _atom_site_fract_x
 _atom_site_fract_y
 _atom_site_fract_z
 _atom_site_occupancy
  Ba  Ba0  1  0.73933095  0.08786286  0.77752178  1
  Ba  Ba1  1  0.54331069  0.52396393  0.67960365  1
  Ba  Ba2  1  0.75981248  0.58500522  0.75991061  1
  Ba  Ba3  1  0.30269645  0.69388868  0.51509652  1
  Ba  Ba4  1  0.72512242  0.80506875  0.04818669  1
  Ba  Ba5  1  0.72091261  0.22466133  -0.01787369  1
  Ba  Ba6  1  0.54718572  0.73100077  0.46761556  1
  Ba  Ba7  1  0.76327879  -0.00243248  0.56127570  1
  Ba  Ba8  1  0.00624414  -0.07207526  0.53907567  1
  Ba  Ba9  1  0.41039348  0.47388968  0.43543460  1
  Ba  Ba10  1  0.43909963  0.81004827  0.01012536  1
  Ba  Ba11  1  0.47636640  0.54690165  -0.08702839  1
  Ba  Ba12  1  0.27696808  0.12946075  0.62633113  1
  Ba  Ba13  1  -0.01263333  0.49088954  0.05220680  1
  Ba  Ba14  1  0.18645666  -0.08177752  0.03445845  1
  Ba  Ba15  1  0.47140593  0.25480500  0.24640384  1
  Ba  Ba16  1  0.05064494  0.18006875  -0.15451320  1
  Ba  Ba17  1  0.71245147  0.44445061  0.47572132  1
  Ba  Ba18  1  0.79082101  0.75056976  0.52300461  1
  Ba  Ba19  1  0.50688479  0.27335614  0.50763960  1
  Ba  Ba20  1  0.28535761  0.46372588  0.81388735  1
  Ba  Ba21  1  0.17890874  0.42613101  0.25811745  1
  Ba  Ba22  1  0.74907510  0.84166023  0.79557270  1
  Ba  Ba23  1  0.30016528  0.46700174  0.06636189  1
  Ba  Ba24  1  0.00519530  -0.04170847  0.80796155  1
  Ba  Ba25  1  0.48747324  -0.02117443  0.27871843  1
  Ba  Ba26  1  0.38435147  0.06801573  0.01428680  1
  Ba  Ba27  1  0.21722659  0.10922877  0.24908876  1
  Ba  Ba28  1  -0.01887688  0.75419165  -0.03795319  1
  Ba  Ba29  1  0.23975983  -0.13248990  0.70832454  1
  Ba  Ba30  1  -0.10301375  0.19701225  0.48282011  1
  Ba  Ba31  1  -0.06552194  0.26230161  0.06488521  1
  Ba  Ba32  1  -0.02192318  0.05345700  0.25734960  1
  Ba  Ba33  1  -0.00853983  0.45941417  0.41659891  1
  Ba  Ba34  1  0.81719520  0.32876159  0.74595949  1
  Ba  Ba35  1  0.71802476  0.52830335  0.02719682  1
  Ba  Ba36  1  -0.09824546  0.76418233  0.29063027  1
  Ba  Ba37  1  0.26284173  -0.05735821  0.43585154  1
  Ba  Ba38  1  0.79025635  0.26860958  0.28034036  1
  Ba  Ba39  1  0.20550022  0.69368674  0.12995680  1
  Ba  Ba40  1  0.54259327  0.04044582  0.52690500  1
  Ba  Ba41  1  0.05961893  0.66264754  0.54455626  1
  Ba  Ba42  1  0.58045864  0.74043573  0.23676946  1
  Ba  Ba43  1  0.49441784  0.29759487  -0.00070083  1
  Ba  Ba44  1  0.71493449  0.01693453  0.19221415  1
  Ba  Ba45  1  0.02683208  0.53926321  0.77585117  1
  Ba  Ba46  1  0.21555983  0.27781148  0.45238121  1
  Ba  Ba47  1  0.50442725  0.79715917  0.77628247  1
  Ba  Ba48  1  0.06884430  0.33487503  0.64499976  1
  Ba  Ba49  1  0.27852671  0.25300723  -0.13597666  1
  Ba  Ba50  1  0.43042565  0.01641652  0.77141850  1
  Fe  Fe51  1  0.81598327  0.42217394  0.16240520  1
  Fe  Fe52  1  0.57322442  0.42654028  0.28252319  1
  Fe  Fe53  1  1.03674518  0.36296978  0.90142829  1
  Fe  Fe54  1  0.29283648  0.64954441  0.91005438  1
  Fe  Fe55  1  0.58936498  0.55745553  0.32730574  1
  Fe  Fe56  1  0.50035079  0.44938399  0.15242968  1
  Fe  Fe57  1  0.91725376  0.80091077  0.67262569  1
  Fe  Fe58  1  0.64010808  0.75228552  0.64202757  1
  Fe  Fe59  1  0.17187804  0.14542848  0.00767010  1
  Fe  Fe60  1  0.17905070  0.75086250  0.89058240  1
  Fe  Fe61  1  0.46781063  0.53716093  0.25822993  1
  Fe  Fe62  1  0.26595559  0.39931301  0.62651872  1
  Fe  Fe63  1  0.22134813  0.55248329  0.65913864  1
  Fe  Fe64  1  0.34590885  0.50257645  0.61897052  1
  Fe  Fe65  1  0.59108712  0.54688903  0.17588112  1
  Fe  Fe66  1  0.56818137  0.11220605  0.87782279  1
  Fe  Fe67  1  0.59678112  0.24557600  0.81990938  1
  Fe  Fe68  1  0.93560510  0.42553060  0.22883436  1
  Fe  Fe69  1  0.85017366  0.94065658  0.38794206  1
  Fe  Fe70  1  0.55717670  0.31039314  0.69817742  1
  Fe  Fe71  1  0.24699319  0.76901057  0.31167846  1
  Fe  Fe72  1  0.87693875  0.94702819  0.96230061  1
  Fe  Fe73  1  0.37649516  0.75593122  0.20863947  1
  Fe  Fe74  1  0.43542742  0.23192590  0.69412471  1
  Fe  Fe75  1  0.59600421  0.87108330  0.62237078  1
  Fe  Fe76  1  0.13799351  0.78729477  0.40717408  1
  Fe  Fe77  1  0.40714401  0.37076624  0.66747480  1
  Fe  Fe78  1  0.13032670  0.29986752  0.00506035  1
  Fe  Fe79  1  0.56798093  0.95780509  0.05866908  1
  Fe  Fe80  1  0.70615639  0.48929567  0.24592899  1
  Fe  Fe81  1  0.78292177  0.05013770  0.37507002  1
  Fe  Fe82  1  0.56204613  0.15671849  0.71725768  1
  Fe  Fe83  1  0.84851531  0.55625786  0.21407621  1
  Fe  Fe84  1  0.83085399  0.46824276  0.31402165  1
  Fe  Fe85  1  0.46592631  0.20762622  0.82288139  1
  Fe  Fe86  1  0.16416195  0.64051024  0.35502715  1
  Fe  Fe87  1  0.20736782  0.65588190  0.78070654  1
  Fe  Fe88  1  0.90795726  0.72192021  0.77984686  1
  Fe  Fe89  1  0.14614584  0.41666395  0.93154122  1
  Fe  Fe90  1  0.86139371  0.05450480  0.06496959  1
  Fe  Fe91  1  0.11492620  0.20895449  0.11377666  1
  Fe  Fe92  1  0.57679008  0.08675613  0.02589070  1
  Fe  Fe93  1  0.09512227  0.73675906  0.29263466  1
  Fe  Fe94  1  0.38603071  0.79555200  0.33380611  1
  Fe  Fe95  1  0.30881512  0.76466897  0.85314318  1
  Fe  Fe96  1  0.87780553  0.08324563  0.93602498  1
  Fe  Fe97  1  0.08123983  0.11604598  0.62178369  1
  Fe  Fe98  1  0.90445284  0.66341629  0.65798922  1
  Fe  Fe99  1  0.47344445  0.35041478  0.80099036  1
  Fe  Fe100  1  0.31125026  0.87553054  0.22745952  1
  Fe  Fe101  1  0.55902996  0.97187600  0.92564985  1
  Bi  Bi102  1  0.44608072  0.62132603  0.11249214  1
  Bi  Bi103  1  0.71713431  0.00342766  -0.03271513  1
  Bi  Bi104  1  0.74508602  0.62408691  0.35184200  1
  Bi  Bi105  1  0.36516109  0.64480065  0.72600467  1
  Bi  Bi106  1  0.02841014  0.58586529  0.24436465  1
  Bi  Bi107  1  0.68511815  0.22050832  0.61161478  1
  Bi  Bi108  1  0.28629539  0.25143076  0.09752901  1
  Bi  Bi109  1  0.19754549  0.49394048  0.49530056  1
  Bi  Bi110  1  0.64875712  0.35604148  0.14204204  1
  Bi  Bi111  1  0.06726339  0.75616604  0.74702447  1
  Bi  Bi112  1  0.32515742  0.61542339  0.30131967  1
  Bi  Bi113  1  0.02548505  0.06307014  0.02922621  1
  Bi  Bi114  1  0.63718228  0.40787413  0.84975675  1
  Bi  Bi115  1  0.63912000  0.14454307  0.36281605  1
  Bi  Bi116  1  0.90224630  0.89315499  0.12191309  1
  Bi  Bi117  1  0.92713791  0.12484456  0.67693288  1
  Bi  Bi118  1  0.14207472  0.59077043  0.94837979  1
  Bi  Bi119  1  0.42316881  0.87719250  0.58941058  1
  Bi  Bi120  1  0.22412911  0.04233677  0.85977214  1
  Bi  Bi121  1  0.37265573  0.13050100  0.40819435  1
  Bi  Bi122  1  0.68680343  0.89141308  0.37653947  1
  Bi  Bi123  1  0.62988297  0.68574314  0.90074592  1
  Bi  Bi124  1  0.89236018  0.49196944  0.60615889  1
  Bi  Bi125  1  0.09832840  0.10060144  0.45728827  1
  Bi  Bi126  1  0.02529094  0.27626432  0.26457207  1
  Bi  Bi127  1  0.13904069  0.89552116  0.25217647  1
