# generated using pymatgen
data_Ba51Fe51Bi26
_symmetry_space_group_name_H-M   'P 1'
_cell_length_a   16.34000983
_cell_length_b   16.07167699
_cell_length_c   16.56604409
_cell_angle_alpha   88.98233169
_cell_angle_beta   89.53182630
_cell_angle_gamma   89.44134194
_symmetry_Int_Tables_number   1
_chemical_formula_structural   Ba51Fe51Bi26
_chemical_formula_sum   'Ba51 Fe51 Bi26'
_cell_volume   4349.39922006
_cell_formula_units_Z   1
loop_
 _symmetry_equiv_pos_site_id
 _symmetry_equiv_pos_as_xyz
  1  'x, y, z'
loop_
 _atom_site_type_symbol
 _atom_site_label
 _atom_site_symmetry_multiplicity
 _atom_site_fract_x
 _atom_site_fract_y
 _atom_site_fract_z
 _atom_site_occupancy
  Ba  Ba0  1  0.03663498  0.39825723  0.21958810  1
  Ba  Ba1  1  0.40274230  0.07425019  0.80314748  1
  Ba  Ba2  1  -0.02711298  0.46986860  0.45027936  1
  Ba  Ba3  1  0.75453077  0.55860819  -0.04006721  1
  Ba  Ba4  1  0.43295132  0.54718395  0.23422200  1
  Ba  Ba5  1  0.48080643  0.19449807  0.03224211  1
  Ba  Ba6  1  -0.16563356  0.23659819  0.16247680  1
  Ba  Ba7  1  0.44989630  -0.10807772  0.64462093  1
  Ba  Ba8  1  0.20884369  0.33259832  0.56776133  1
  Ba  Ba9  1  0.74626637  0.23474514  0.67420481  1
  Ba  Ba10  1  0.74742161  0.00864630  0.57465999  1
  Ba  Ba11  1  -0.00702991  0.78443575  0.43625526  1
  Ba  Ba12  1  0.30361912  0.08460020  0.56060836  1
  Ba  Ba13  1  0.45928281  0.28291159  0.67417388  1
  Ba  Ba14  1  0.24302259  0.37456453  0.01873606  1
  Ba  Ba15  1  0.10858544  0.77299625  0.02751702  1
  Ba  Ba16  1  0.54345305  0.69569312  0.48173887  1
  Ba  Ba17  1  -0.09673865  0.03952579  0.32191948  1
  Ba  Ba18  1  0.59102150  -0.07136044  -0.00593405  1
  Ba  Ba19  1  0.03414462  0.23116405  0.39768638  1
  Ba  Ba20  1  -0.01361873  0.41555324  -0.02762800  1
  Ba  Ba21  1  0.49716963  -0.00881541  0.42152898  1
  Ba  Ba22  1  0.58384930  0.36909226  -0.12427950  1
  Ba  Ba23  1  0.32849053  0.51912402  0.83488060  1
  Ba  Ba24  1  0.92436389  0.73417024  0.83528645  1
  Ba  Ba25  1  0.23903057  0.18716075  0.22624443  1
  Ba  Ba26  1  0.46830781  0.81679092  0.24592680  1
  Ba  Ba27  1  0.21410275  -0.11400307  0.82443986  1
  Ba  Ba28  1  -0.04351538  0.62858069  0.19637386  1
  Ba  Ba29  1  0.33630276  -0.06370185  0.05692025  1
  Ba  Ba30  1  0.75643594  0.75818393  0.63610390  1
  Ba  Ba31  1  0.76694247  0.58028644  0.46742832  1
  Ba  Ba32  1  0.00775600  0.08677889  0.58270442  1
  Ba  Ba33  1  0.63755620  0.03935738  0.21776484  1
  Ba  Ba34  1  0.18784565  0.60698806  0.54907254  1
  Ba  Ba35  1  0.82564224  0.46858790  0.68469470  1
  Ba  Ba36  1  0.45784853  0.46021913  0.50004472  1
  Ba  Ba37  1  0.03098084  0.00542312  0.09344468  1
  Ba  Ba38  1  0.07071344  0.81850479  0.66593977  1
  Ba  Ba39  1  0.07029027  0.49776885  0.73358384  1
  Ba  Ba40  1  0.19422236  0.65019320  0.26535412  1
  Ba  Ba41  1  0.23069887  -0.06028197  0.30298495  1
  Ba  Ba42  1  0.59923654  0.22015037  0.44836453  1
  Ba  Ba43  1  0.64537558  0.38408887  0.14041950  1
  Ba  Ba44  1  0.50720766  0.69875206  0.75460259  1
  Ba  Ba45  1  0.49657818  0.66288560  -0.00510778  1
  Ba  Ba46  1  0.77304343  -0.03899630  0.86996037  1
  Ba  Ba47  1  0.68581518  0.61421082  0.24249561  1
  Ba  Ba48  1  0.19044271  0.13804432  -0.05969545  1
  Ba  Ba49  1  0.83168451  0.83530095  0.25692217  1
  Ba  Ba50  1  0.46200037  0.29038147  0.25369149  1
  Fe  Fe51  1  0.64123111  0.56611606  0.62890844  1
  Fe  Fe52  1  0.18884239  0.34367596  0.37275529  1
  Fe  Fe53  1  0.03075291  0.18527285  0.18578653  1
  Fe  Fe54  1  0.23010356  0.78300649  0.45177871  1
  Fe  Fe55  1  0.10547435  0.25363407  0.10960993  1
  Fe  Fe56  1  0.37102647  0.16495428  0.37236348  1
  Fe  Fe57  1  0.88944696  0.88785485  1.00398903  1
  Fe  Fe58  1  0.72874175  0.29556530  0.32177832  1
  Fe  Fe59  1  0.31023989  0.56026976  0.06869594  1
  Fe  Fe60  1  0.69682731  0.11688634  0.00355660  1
  Fe  Fe61  1  0.67435871  0.41471296  0.36786263  1
  Fe  Fe62  1  0.15216435  0.47503406  0.36886778  1
  Fe  Fe63  1  0.04509868  0.22280158  0.85599409  1
  Fe  Fe64  1  0.64379138  0.86088492  0.46680458  1
  Fe  Fe65  1  0.01488022  0.09295176  0.79570439  1
  Fe  Fe66  1  0.79738327  0.43674338  0.30127106  1
  Fe  Fe67  1  0.23454547  0.23219492  0.76116531  1
  Fe  Fe68  1  0.91231146  0.78791032  0.08669682  1
  Fe  Fe69  1  0.25175198  0.64104436  0.97971186  1
  Fe  Fe70  1  0.25326412  0.83543216  0.58378365  1
  Fe  Fe71  1  0.71506146  0.24852909  -0.02537698  1
  Fe  Fe72  1  0.83234937  0.14399388  -0.02054423  1
  Fe  Fe73  1  0.13440617  0.33212876  0.83114544  1
  Fe  Fe74  1  0.86140526  0.32088156  0.34566228  1
  Fe  Fe75  1  0.32146142  0.90211685  0.48513712  1
  Fe  Fe76  1  0.78450438  0.36799187  0.44567699  1
  Fe  Fe77  1  0.36522309  0.80113870  0.41088557  1
  Fe  Fe78  1  0.93494173  0.98818235  0.73952274  1
  Fe  Fe79  1  0.64481906  0.83625858  0.31533101  1
  Fe  Fe80  1  0.66931988  0.74598212  0.03875389  1
  Fe  Fe81  1  -0.05138070  0.20106407  0.72405762  1
  Fe  Fe82  1  0.97660510  0.32508796  0.78747259  1
  Fe  Fe83  1  0.09587242  0.23566464  0.72410143  1
  Fe  Fe84  1  0.76394138  0.86324945  1.07744712  1
  Fe  Fe85  1  0.90309532  0.20079478  0.86126944  1
  Fe  Fe86  1  0.66791154  0.58310238  0.75221821  1
  Fe  Fe87  1  0.35559157  0.75055281  0.53891889  1
  Fe  Fe88  1  0.71919998  0.76316677  0.40666134  1
  Fe  Fe89  1  0.27967312  0.46852495  0.39746381  1
  Fe  Fe90  1  0.80691784  0.76500739  0.98215233  1
  Fe  Fe91  1  0.71118492  0.93986930  0.37881663  1
  Fe  Fe92  1  0.65992380  0.80215376  0.16110211  1
  Fe  Fe93  1  0.79578503  0.86030879  0.45226967  1
  Fe  Fe94  1  0.31073459  0.72196889  0.89029013  1
  Fe  Fe95  1  0.76200996  0.16995310  0.86389369  1
  Fe  Fe96  1  0.86088136  0.09692981  0.76518336  1
  Fe  Fe97  1  0.32875839  0.32987073  0.38040767  1
  Fe  Fe98  1  0.25137134  0.21119577  0.41656533  1
  Fe  Fe99  1  0.78293719  0.71690459  0.10880929  1
  Fe  Fe100  1  0.24223953  0.36395826  0.75650562  1
  Fe  Fe101  1  0.38883945  0.24726441  0.47192261  1
  Bi  Bi102  1  0.35001898  0.63112558  0.41017327  1
  Bi  Bi103  1  0.32658575  0.72675169  0.11245952  1
  Bi  Bi104  1  -0.01340123  0.20150714  0.01444255  1
  Bi  Bi105  1  0.17497184  0.07780111  0.72888117  1
  Bi  Bi106  1  0.69049634  0.74176578  -0.14014819  1
  Bi  Bi107  1  0.80627617  0.34789461  -0.13417982  1
  Bi  Bi108  1  -0.01025212  0.32384580  0.61177288  1
  Bi  Bi109  1  0.82011613  0.19080157  0.45464959  1
  Bi  Bi110  1  0.26254174  0.41535395  0.23789188  1
  Bi  Bi111  1  0.81361190  0.02119279  0.10055896  1
  Bi  Bi112  1  0.29954228  0.71704059  0.69812108  1
  Bi  Bi113  1  0.51584036  0.49219536  0.71393510  1
  Bi  Bi114  1  0.00462697  -0.06133810  0.88568724  1
  Bi  Bi115  1  0.35705636  0.28424195  0.86247266  1
  Bi  Bi116  1  0.13141464  0.55394575  0.07721703  1
  Bi  Bi117  1  0.65832494  0.40543399  0.55148337  1
  Bi  Bi118  1  0.94847327  0.63915553  0.60147617  1
  Bi  Bi119  1  0.45139846  0.44460174  0.04764349  1
  Bi  Bi120  1  0.42242295  0.85641924  0.87901788  1
  Bi  Bi121  1  0.83964982  0.46339546  0.13803301  1
  Bi  Bi122  1  0.04406924  0.83238929  0.22797766  1
  Bi  Bi123  1  0.59959753  0.13615139  0.86672329  1
  Bi  Bi124  1  0.14569560  0.67175943  0.84004679  1
  Bi  Bi125  1  0.14393800  0.93655533  0.49431633  1
  Bi  Bi126  1  0.54253286  0.08880000  0.61385882  1
  Bi  Bi127  1  0.41712196  1.05798331  0.22837667  1
