# generated using pymatgen
data_Ba51Fe51Bi26
_symmetry_space_group_name_H-M   'P 1'
_cell_length_a   15.84096367
_cell_length_b   16.72193333
_cell_length_c   16.57354997
_cell_angle_alpha   86.60614907
_cell_angle_beta   91.30682243
_cell_angle_gamma   91.19701711
_symmetry_Int_Tables_number   1
_chemical_formula_structural   Ba51Fe51Bi26
_chemical_formula_sum   'Ba51 Fe51 Bi26'
_cell_volume   4380.51378030
_cell_formula_units_Z   1
loop_
 _symmetry_equiv_pos_site_id
 _symmetry_equiv_pos_as_xyz
  1  'x, y, z'
loop_
 _atom_site_type_symbol
 _atom_site_label
 _atom_site_symmetry_multiplicity
 _atom_site_fract_x
 _atom_site_fract_y
 _atom_site_fract_z
 _atom_site_occupancy
  Ba  Ba0  1  0.56976220  -0.03353438  0.18576537  1
  Ba  Ba1  1  0.75019852  0.19782009  0.04684877  1
  Ba  Ba2  1  0.27748569  0.23839573  0.81976769  1
  Ba  Ba3  1  0.23306597  0.84086735  -0.08319987  1
  Ba  Ba4  1  -0.03410727  0.49959198  -0.00003374  1
  Ba  Ba5  1  0.80411269  -0.04344160  0.37703650  1
  Ba  Ba6  1  0.07680846  0.61836599  0.78685953  1
  Ba  Ba7  1  0.45791248  0.01866067  -0.03275993  1
  Ba  Ba8  1  0.86901021  -0.04102482  0.76931229  1
  Ba  Ba9  1  0.17780712  0.44541682  0.66988615  1
  Ba  Ba10  1  0.47946434  0.51124946  0.07060573  1
  Ba  Ba11  1  0.53263276  0.74960376  0.36393065  1
  Ba  Ba12  1  0.77652152  0.70433411  0.34380531  1
  Ba  Ba13  1  0.10468710  0.22552919  0.01693290  1
  Ba  Ba14  1  0.45457076  0.50111321  0.80658578  1
  Ba  Ba15  1  0.76237740  0.08811224  0.54984611  1
  Ba  Ba16  1  0.31300372  0.30626216  0.50448769  1
  Ba  Ba17  1  0.56245332  0.72541118  0.61802008  1
  Ba  Ba18  1  0.53114259  -0.03736597  0.46364919  1
  Ba  Ba19  1  0.48070627  0.22786964  0.15047922  1
  Ba  Ba20  1  0.22807064  0.53387847  -0.00992590  1
  Ba  Ba21  1  0.02001346  0.79636957  0.55090447  1
  Ba  Ba22  1  -0.08506980  0.28097552  0.81459805  1
  Ba  Ba23  1  0.79833951  0.28436022  0.34568742  1
  Ba  Ba24  1  0.34509431  0.70788056  0.75883138  1
  Ba  Ba25  1  0.71868204  0.48008825  0.67549393  1
  Ba  Ba26  1  0.71489052  0.49869923  0.25615983  1
  Ba  Ba27  1  -0.02131070  0.27793673  0.56503498  1
  Ba  Ba28  1  -0.05146890  0.76153021  -0.04672973  1
  Ba  Ba29  1  0.69611550  0.75220818  0.80722608  1
  Ba  Ba30  1  -0.02111161  0.75054208  0.21737375  1
  Ba  Ba31  1  0.12230938  0.02670605  0.58312770  1
  Ba  Ba32  1  0.09154555  0.05285861  0.81431304  1
  Ba  Ba33  1  0.10760855  0.27570696  0.31750925  1
  Ba  Ba34  1  0.06162275  -0.04398312  0.35232917  1
  Ba  Ba35  1  0.16747516  0.52745421  0.44718107  1
  Ba  Ba36  1  0.52674038  0.29955853  0.64051431  1
  Ba  Ba37  1  0.58399049  -0.02808670  0.73535089  1
  Ba  Ba38  1  0.62777501  0.74267558  0.07083927  1
  Ba  Ba39  1  0.48367207  0.47078778  0.33248783  1
  Ba  Ba40  1  0.37838697  0.76331863  0.09688555  1
  Ba  Ba41  1  0.55757789  0.28442546  -0.09181167  1
  Ba  Ba42  1  -0.02109076  0.51240816  0.23559449  1
  Ba  Ba43  1  0.74672455  -0.03721621  -0.01950814  1
  Ba  Ba44  1  0.30468393  0.07715750  0.35420052  1
  Ba  Ba45  1  0.54260432  0.21628051  0.39007828  1
  Ba  Ba46  1  0.71685699  0.52274016  -0.03307101  1
  Ba  Ba47  1  0.21176860  0.77275055  0.27160678  1
  Ba  Ba48  1  0.06764530  -0.05048438  0.07373510  1
  Ba  Ba49  1  0.26348978  0.51505658  0.22341820  1
  Ba  Ba50  1  0.91247827  0.12377280  0.20405762  1
  Fe  Fe51  1  0.73808071  0.85723386  0.22125182  1
  Fe  Fe52  1  0.27609003  0.32641590  0.11822875  1
  Fe  Fe53  1  0.71643193  0.89688579  0.61948497  1
  Fe  Fe54  1  0.83361350  0.42068537  0.51052944  1
  Fe  Fe55  1  -0.10186846  0.64794916  0.65596601  1
  Fe  Fe56  1  0.81229366  0.77906339  0.64538830  1
  Fe  Fe57  1  0.34867415  0.85614106  0.46019772  1
  Fe  Fe58  1  0.49694342  0.53832658  0.61966218  1
  Fe  Fe59  1  0.81648459  0.37484434  0.13286806  1
  Fe  Fe60  1  0.63277160  0.16625179  0.72502172  1
  Fe  Fe61  1  0.92286517  0.76052238  0.73118141  1
  Fe  Fe62  1  0.73904209  0.52977506  0.46257410  1
  Fe  Fe63  1  0.42812379  0.63436670  0.23462907  1
  Fe  Fe64  1  0.27091927  0.42904402  0.84797795  1
  Fe  Fe65  1  0.30928571  0.96663044  0.55453303  1
  Fe  Fe66  1  0.88581329  -0.08494280  0.20433605  1
  Fe  Fe67  1  0.77885839  0.13577316  0.87184158  1
  Fe  Fe68  1  0.34990657  0.58859000  0.60476940  1
  Fe  Fe69  1  0.31166262  0.94316155  0.10771287  1
  Fe  Fe70  1  0.55486513  0.62500772  0.21767709  1
  Fe  Fe71  1  0.85042265  0.89907470  0.58675196  1
  Fe  Fe72  1  0.64068049  0.11449045  0.85270278  1
  Fe  Fe73  1  0.37820615  0.91828560  0.78747470  1
  Fe  Fe74  1  0.29706219  0.08113469  0.12647597  1
  Fe  Fe75  1  0.35839292  0.02834374  0.67780250  1
  Fe  Fe76  1  0.36842197  0.50257873  0.49542067  1
  Fe  Fe77  1  0.38398616  0.45364857  0.61943996  1
  Fe  Fe78  1  0.50136142  0.45402353  0.52190247  1
  Fe  Fe79  1  0.73465100  0.82706376  0.51689216  1
  Fe  Fe80  1  0.25544643  0.82650479  0.58970966  1
  Fe  Fe81  1  0.53607581  0.65353364  0.90642197  1
  Fe  Fe82  1  0.25482459  0.91824340  0.70031507  1
  Fe  Fe83  1  0.41193930  0.66050243  0.94222718  1
  Fe  Fe84  1  0.60252602  0.55839345  0.49823264  1
  Fe  Fe85  1  0.30410167  0.02486144  0.80413913  1
  Fe  Fe86  1  0.81838698  0.83263873  0.12172547  1
  Fe  Fe87  1  0.35720801  0.72147318  0.53535546  1
  Fe  Fe88  1  0.01508671  0.59632919  0.58316422  1
  Fe  Fe89  1  0.26780876  0.20572482  0.17735478  1
  Fe  Fe90  1  0.23414566  0.96458559  0.20587393  1
  Fe  Fe91  1  0.77199873  -0.02053856  0.17047519  1
  Fe  Fe92  1  0.76268441  0.12301570  0.74099288  1
  Fe  Fe93  1  0.87553658  0.56560090  0.53372367  1
  Fe  Fe94  1  -0.06409931  0.40304671  0.40999417  1
  Fe  Fe95  1  0.46064014  0.61053756  0.50088117  1
  Fe  Fe96  1  0.21506865  0.89359616  0.46840735  1
  Fe  Fe97  1  0.86819281  0.51655405  0.39617248  1
  Fe  Fe98  1  -0.01606310  0.47969653  0.50437512  1
  Fe  Fe99  1  0.22922330  0.75495584  0.46532761  1
  Fe  Fe100  1  0.71429753  0.24523587  0.80392544  1
  Fe  Fe101  1  0.30897510  0.20411481  0.04309751  1
  Bi  Bi102  1  0.42258076  -0.13029204  0.63296325  1
  Bi  Bi103  1  0.64828401  0.38988834  0.46267095  1
  Bi  Bi104  1  -0.01354764  0.64230727  0.41181904  1
  Bi  Bi105  1  0.74357486  0.66221034  0.55312482  1
  Bi  Bi106  1  0.34149052  0.63973013  0.38234405  1
  Bi  Bi107  1  0.36684483  0.35834054  -0.02614072  1
  Bi  Bi108  1  0.76354740  0.27081788  0.64164676  1
  Bi  Bi109  1  -0.05451655  0.46349645  0.66827162  1
  Bi  Bi110  1  0.24466795  0.05821198  -0.03460311  1
  Bi  Bi111  1  0.33932983  0.30572294  0.29022197  1
  Bi  Bi112  1  0.07394665  0.85306622  0.75461723  1
  Bi  Bi113  1  0.18974872  0.66039844  0.60600102  1
  Bi  Bi114  1  0.38494925  -0.09778445  0.27482543  1
  Bi  Bi115  1  0.10548355  0.39247554  0.86771310  1
  Bi  Bi116  1  0.95524215  0.12255090  0.42809550  1
  Bi  Bi117  1  0.92787727  0.09296765  0.95692663  1
  Bi  Bi118  1  0.13510089  0.69771408  0.08013136  1
  Bi  Bi119  1  0.13315528  0.10063877  0.20652359  1
  Bi  Bi120  1  0.85905964  0.61717789  0.82256907  1
  Bi  Bi121  1  0.11685755  0.39388247  0.13125206  1
  Bi  Bi122  1  0.69321829  0.11844036  0.25818846  1
  Bi  Bi123  1  0.48389978  0.81949683  0.89658198  1
  Bi  Bi124  1  0.64700454  0.36910953  0.10469194  1
  Bi  Bi125  1  0.40995772  0.11863098  0.54018184  1
  Bi  Bi126  1  0.82508613  0.64811916  0.11203641  1
  Bi  Bi127  1  0.46338368  0.13211297  0.78344097  1
