# generated using pymatgen
data_Ba51Fe51Bi26
_symmetry_space_group_name_H-M   'P 1'
_cell_length_a   16.24906469
_cell_length_b   16.67730609
_cell_length_c   16.40086137
_cell_angle_alpha   89.57763435
_cell_angle_beta   85.79116151
_cell_angle_gamma   89.17864313
_symmetry_Int_Tables_number   1
_chemical_formula_structural   Ba51Fe51Bi26
_chemical_formula_sum   'Ba51 Fe51 Bi26'
_cell_volume   4431.94922731
_cell_formula_units_Z   1
loop_
 _symmetry_equiv_pos_site_id
 _symmetry_equiv_pos_as_xyz
  1  'x, y, z'
loop_
 _atom_site_type_symbol
 _atom_site_label
 _atom_site_symmetry_multiplicity
 _atom_site_fract_x
 _atom_site_fract_y
 _atom_site_fract_z
 _atom_site_occupancy
  Ba  Ba0  1  0.71562252  0.76565608  -0.03388723  1
  Ba  Ba1  1  0.59439546  0.54563788  0.01711385  1
  Ba  Ba2  1  0.39145922  -0.00376299  0.23091492  1
  Ba  Ba3  1  0.38702425  0.79205619  0.77724755  1
  Ba  Ba4  1  0.45384461  0.42067910  0.20347850  1
  Ba  Ba5  1  0.82649817  0.54525440  0.56145045  1
  Ba  Ba6  1  0.44042244  0.21095189  0.74623711  1
  Ba  Ba7  1  0.06187452  0.89122072  0.01007062  1
  Ba  Ba8  1  0.64078735  0.27595735  0.35853171  1
  Ba  Ba9  1  0.05159243  0.43464396  0.52168376  1
  Ba  Ba10  1  0.28817635  0.01819079  0.72589073  1
  Ba  Ba11  1  -0.02156366  0.60347101  0.06992957  1
  Ba  Ba12  1  0.80851307  0.78204633  0.46813853  1
  Ba  Ba13  1  0.82380658  0.22141357  -0.03373748  1
  Ba  Ba14  1  0.01972636  0.23901716  0.12527216  1
  Ba  Ba15  1  0.76048028  0.15527717  0.70253111  1
  Ba  Ba16  1  -0.06570166  0.01613756  0.53067615  1
  Ba  Ba17  1  0.77575377  0.08525632  0.19889166  1
  Ba  Ba18  1  -0.11657894  0.35683055  0.38093114  1
  Ba  Ba19  1  0.22822511  0.72106995  0.01571040  1
  Ba  Ba20  1  0.84844331  0.83479405  0.15547853  1
  Ba  Ba21  1  -0.00325643  0.20554627  0.72326630  1
  Ba  Ba22  1  0.43832174  0.70547786  0.50158946  1
  Ba  Ba23  1  0.02226740  0.10524716  0.32336082  1
  Ba  Ba24  1  0.27455206  0.50210607  0.52743060  1
  Ba  Ba25  1  0.46958108  0.82048100  0.02705058  1
  Ba  Ba26  1  0.45171583  0.08241466  0.49734588  1
  Ba  Ba27  1  0.45902693  0.34597097  0.49965154  1
  Ba  Ba28  1  0.57185851  0.22473770  0.11500717  1
  Ba  Ba29  1  0.44723892  0.67729957  0.23667214  1
  Ba  Ba30  1  0.68218431  0.01812176  0.49579705  1
  Ba  Ba31  1  0.18887123  0.78341189  0.61711293  1
  Ba  Ba32  1  0.25732745  0.21290861  0.19077169  1
  Ba  Ba33  1  -0.02035545  0.63794238  0.32719956  1
  Ba  Ba34  1  -0.03339333  0.46468713  0.79935656  1
  Ba  Ba35  1  0.18459264  0.41448247  0.04756668  1
  Ba  Ba36  1  0.70239748  0.41514224  0.83213276  1
  Ba  Ba37  1  0.22918510  0.42406920  0.76646112  1
  Ba  Ba38  1  0.78758157  0.45969830  0.15573862  1
  Ba  Ba39  1  0.62813468  -0.13228844  0.30209524  1
  Ba  Ba40  1  0.65151878  0.56897239  0.37789310  1
  Ba  Ba41  1  0.20867054  -0.03476900  0.46843093  1
  Ba  Ba42  1  0.08398138  0.87472880  0.26136138  1
  Ba  Ba43  1  0.21067291  0.43992826  0.29615938  1
  Ba  Ba44  1  0.81052882  -0.01802225  -0.09454714  1
  Ba  Ba45  1  0.38286547  0.54815054  -0.10123424  1
  Ba  Ba46  1  0.54488189  0.51740184  0.67735890  1
  Ba  Ba47  1  0.75648431  0.65826388  0.75628386  1
  Ba  Ba48  1  0.63865617  -0.13974743  0.71963456  1
  Ba  Ba49  1  0.11155614  0.08914113  -0.09531395  1
  Ba  Ba50  1  -0.01691274  0.69729503  0.82612946  1
  Fe  Fe51  1  0.40616389  1.00079357  0.01722472  1
  Fe  Fe52  1  0.58225716  0.06760641  0.70202675  1
  Fe  Fe53  1  1.13815167  1.04137041  0.12832191  1
  Fe  Fe54  1  1.08047489  0.65593460  0.50612502  1
  Fe  Fe55  1  0.15463181  0.28264139  0.57858715  1
  Fe  Fe56  1  0.35922946  0.09951282  0.92069688  1
  Fe  Fe57  1  0.92450823  -0.01817498  0.73376297  1
  Fe  Fe58  1  0.65124441  0.08219846  -0.01337967  1
  Fe  Fe59  1  0.44014836  0.23418935  0.93958652  1
  Fe  Fe60  1  0.74948563  0.27950611  0.52881138  1
  Fe  Fe61  1  0.20223270  0.65139280  0.78179795  1
  Fe  Fe62  1  0.40298650  0.14539942  0.05722663  1
  Fe  Fe63  1  0.64211461  0.74216892  0.15296803  1
  Fe  Fe64  1  0.74498659  0.69327384  0.24453636  1
  Fe  Fe65  1  0.14584162  0.13962611  0.58746702  1
  Fe  Fe66  1  0.52676949  1.04171325  1.07517200  1
  Fe  Fe67  1  0.26135462  0.30143756  0.45564550  1
  Fe  Fe68  1  0.21099484  0.67794293  0.28262995  1
  Fe  Fe69  1  1.00880069  0.04682346  0.11209772  1
  Fe  Fe70  1  0.28166980  0.18267163  0.55519341  1
  Fe  Fe71  1  0.16763248  0.19347398  0.45911440  1
  Fe  Fe72  1  0.96640711  0.40717320  0.05140166  1
  Fe  Fe73  1  0.25609440  0.94908104  0.09981045  1
  Fe  Fe74  1  0.83036815  -0.08615323  0.67099356  1
  Fe  Fe75  1  0.68470781  0.39473959  0.51869283  1
  Fe  Fe76  1  0.66646960  0.34599948  0.63845583  1
  Fe  Fe77  1  0.50335334  0.36476476  -0.00772354  1
  Fe  Fe78  1  0.00916406  0.89875276  0.79625880  1
  Fe  Fe79  1  0.45268461  0.21228338  0.31132033  1
  Fe  Fe80  1  0.26973284  0.07201700  0.04603060  1
  Fe  Fe81  1  0.14004632  0.74077564  0.39314328  1
  Fe  Fe82  1  0.28296273  0.31066078  0.59682144  1
  Fe  Fe83  1  0.87371024  0.40845855  0.97013313  1
  Fe  Fe84  1  0.28686463  0.76697343  0.35912883  1
  Fe  Fe85  1  0.23777397  0.67865364  0.45966011  1
  Fe  Fe86  1  0.86979078  0.84595500  0.77605495  1
  Fe  Fe87  1  0.76008003  0.64723858  0.11917292  1
  Fe  Fe88  1  0.62512209  0.06404188  0.84061853  1
  Fe  Fe89  1  0.36329301  0.35899771  0.93417180  1
  Fe  Fe90  1  0.15327541  0.59275779  0.39663790  1
  Fe  Fe91  1  0.38856034  0.30266549  0.05604958  1
  Fe  Fe92  1  0.50762881  1.10346968  0.94125550  1
  Fe  Fe93  1  0.36183051  0.30170750  0.34010663  1
  Fe  Fe94  1  0.63874628  0.61506221  0.18743284  1
  Fe  Fe95  1  0.48642379  0.36068046  0.86453869  1
  Fe  Fe96  1  0.98191245  0.70690435  0.60711880  1
  Fe  Fe97  1  0.57751633  0.96966796  -0.04667925  1
  Fe  Fe98  1  0.49782352  0.98444901  0.65940882  1
  Fe  Fe99  1  0.29952197  0.61204522  0.35576936  1
  Fe  Fe100  1  -0.01736056  0.85362693  0.65948407  1
  Fe  Fe101  1  0.86939378  0.77737524  0.64890803  1
  Bi  Bi102  1  0.66217538  -0.06733033  0.09290992  1
  Bi  Bi103  1  0.08783310  0.00041922  0.67139957  1
  Bi  Bi104  1  0.61546488  0.23090443  -0.11068191  1
  Bi  Bi105  1  0.21572084  0.21855062  0.72605330  1
  Bi  Bi106  1  0.25804989  0.22823394  -0.02666280  1
  Bi  Bi107  1  0.01003904  0.22304115  0.50763919  1
  Bi  Bi108  1  0.47693336  -0.01766047  0.82588811  1
  Bi  Bi109  1  0.15844660  0.81182367  0.82769451  1
  Bi  Bi110  1  0.27643322  -0.06704388  -0.06301434  1
  Bi  Bi111  1  0.30467421  0.14266515  0.37352449  1
  Bi  Bi112  1  0.28814224  0.81217668  0.19201435  1
  Bi  Bi113  1  0.01983606  0.82065049  0.48352415  1
  Bi  Bi114  1  0.59813529  0.20772156  0.58084422  1
  Bi  Bi115  1  0.00940546  0.44423954  0.21113600  1
  Bi  Bi116  1  0.64394919  0.67780762  0.56951039  1
  Bi  Bi117  1  0.55755200  0.67605540  0.85317700  1
  Bi  Bi118  1  0.09462697  0.58748846  0.66255221  1
  Bi  Bi119  1  0.39047998  0.89286676  0.57887966  1
  Bi  Bi120  1  0.83966275  0.35568358  0.65018397  1
  Bi  Bi121  1  0.02037540  0.30583916  0.92329054  1
  Bi  Bi122  1  0.80966645  0.56674022  0.95353399  1
  Bi  Bi123  1  0.34601982  0.60624674  0.69119517  1
  Bi  Bi124  1  0.13873887  0.56386346  0.91328156  1
  Bi  Bi125  1  0.85111595  0.94553396  0.33554251  1
  Bi  Bi126  1  0.81623053  0.16405203  0.41361197  1
  Bi  Bi127  1  0.57117778  0.08650479  0.30286669  1
