# generated using pymatgen
data_Ba51Fe51Bi26
_symmetry_space_group_name_H-M   'P 1'
_cell_length_a   16.76259901
_cell_length_b   15.80397172
_cell_length_c   16.29511624
_cell_angle_alpha   86.20190431
_cell_angle_beta   89.79219838
_cell_angle_gamma   91.51397129
_symmetry_Int_Tables_number   1
_chemical_formula_structural   Ba51Fe51Bi26
_chemical_formula_sum   'Ba51 Fe51 Bi26'
_cell_volume   4305.78376772
_cell_formula_units_Z   1
loop_
 _symmetry_equiv_pos_site_id
 _symmetry_equiv_pos_as_xyz
  1  'x, y, z'
loop_
 _atom_site_type_symbol
 _atom_site_label
 _atom_site_symmetry_multiplicity
 _atom_site_fract_x
 _atom_site_fract_y
 _atom_site_fract_z
 _atom_site_occupancy
  Ba  Ba0  1  0.16197058  0.44459534  0.07579122  1
  Ba  Ba1  1  0.47672321  0.56258648  -0.10045922  1
  Ba  Ba2  1  0.75737844  0.38241749  0.27500206  1
  Ba  Ba3  1  -0.01007930  0.73703240  0.80371013  1
  Ba  Ba4  1  -0.09262571  0.34963634  0.61374010  1
  Ba  Ba5  1  0.08304520  0.46792804  0.84832367  1
  Ba  Ba6  1  0.03121056  -0.16431607  0.02310178  1
  Ba  Ba7  1  0.82638977  0.66194804  0.52902027  1
  Ba  Ba8  1  0.01341308  -0.03584257  0.25137479  1
  Ba  Ba9  1  0.39358336  0.24568850  -0.05042912  1
  Ba  Ba10  1  0.54645597  0.89891491  0.33371112  1
  Ba  Ba11  1  0.55102476  0.28165824  0.36849956  1
  Ba  Ba12  1  0.19488761  0.59277390  0.67347941  1
  Ba  Ba13  1  0.27567470  0.86591608  0.52418376  1
  Ba  Ba14  1  0.68574722  0.69896169  0.18363835  1
  Ba  Ba15  1  0.69278263  0.15827141  0.53208626  1
  Ba  Ba16  1  -0.07740449  0.34981188  0.11228677  1
  Ba  Ba17  1  0.22477293  0.04884081  0.92034114  1
  Ba  Ba18  1  0.34339527  0.59700310  0.14373296  1
  Ba  Ba19  1  0.12982159  0.21082048  0.31648058  1
  Ba  Ba20  1  0.27925663  0.79479790  0.00482907  1
  Ba  Ba21  1  0.00072727  0.17207816  0.78957284  1
  Ba  Ba22  1  0.46115287  0.49813187  0.50595145  1
  Ba  Ba23  1  -0.17095692  -0.03617315  0.45224625  1
  Ba  Ba24  1  0.25930239  0.62702114  0.38057471  1
  Ba  Ba25  1  0.54085677  0.50847241  0.22799060  1
  Ba  Ba26  1  0.04067945  -0.01787028  0.67368686  1
  Ba  Ba27  1  0.70129047  0.82647938  0.74387990  1
  Ba  Ba28  1  0.77320938  0.20425463  0.78868070  1
  Ba  Ba29  1  0.24129071  0.28682857  0.76394586  1
  Ba  Ba30  1  0.22501345  0.11329815  0.57789075  1
  Ba  Ba31  1  0.90146976  0.20825943  0.39009612  1
  Ba  Ba32  1  0.62982951  0.36808502  -0.07357749  1
  Ba  Ba33  1  0.10262244  0.23912228  0.00302361  1
  Ba  Ba34  1  0.73813390  0.55629296  0.74009763  1
  Ba  Ba35  1  0.47807019  0.11579686  0.18607950  1
  Ba  Ba36  1  -0.04359760  0.70249130  0.27254688  1
  Ba  Ba37  1  0.78465764  0.79816122  -0.01669198  1
  Ba  Ba38  1  0.26138518  0.35465098  0.52307732  1
  Ba  Ba39  1  0.03977600  0.79359180  0.51807533  1
  Ba  Ba40  1  0.86680407  0.51131059  -0.06755788  1
  Ba  Ba41  1  0.69862880  0.14158683  0.10015358  1
  Ba  Ba42  1  0.59182932  0.70660653  0.50355466  1
  Ba  Ba43  1  0.51479365  0.79619789  -0.00987190  1
  Ba  Ba44  1  -0.10395869  0.09128060  0.00838909  1
  Ba  Ba45  1  0.26931214  0.01737249  0.30366752  1
  Ba  Ba46  1  0.05569060  0.51209385  0.51964632  1
  Ba  Ba47  1  0.47971347  0.85706255  0.69659210  1
  Ba  Ba48  1  0.30493944  0.37845850  0.28133151  1
  Ba  Ba49  1  0.46352247  0.06704437  0.54768159  1
  Ba  Ba50  1  0.52166765  0.24635353  0.72065079  1
  Fe  Fe51  1  0.74336554  -0.00336291  0.84163213  1
  Fe  Fe52  1  0.63371207  0.37541678  0.56407787  1
  Fe  Fe53  1  0.82880169  0.03129676  0.22356061  1
  Fe  Fe54  1  0.03817653  0.17286387  0.54338233  1
  Fe  Fe55  1  1.12227123  0.65044312  0.95212062  1
  Fe  Fe56  1  0.31142703  -0.07972331  0.76652808  1
  Fe  Fe57  1  0.46970498  0.42141655  0.06434329  1
  Fe  Fe58  1  0.83352773  0.87116098  0.20989209  1
  Fe  Fe59  1  0.40978678  0.77996866  0.19374101  1
  Fe  Fe60  1  0.59325785  0.95291815  0.86580235  1
  Fe  Fe61  1  0.14711525  0.51733068  0.25059107  1
  Fe  Fe62  1  0.33888652  0.65169727  0.78081538  1
  Fe  Fe63  1  0.71149196  0.48222909  0.09374337  1
  Fe  Fe64  1  0.34488857  0.38642582  0.08057435  1
  Fe  Fe65  1  0.42129434  0.40222155  0.79844927  1
  Fe  Fe66  1  0.13118264  0.41424519  0.36989825  1
  Fe  Fe67  1  0.66216408  0.47972493  0.43747362  1
  Fe  Fe68  1  0.64457229  0.51783725  0.56614335  1
  Fe  Fe69  1  0.07689307  0.30816119  0.47879134  1
  Fe  Fe70  1  0.14537238  0.10104463  0.14279661  1
  Fe  Fe71  1  0.31300457  0.48528837  0.79580220  1
  Fe  Fe72  1  0.06207393  0.39674683  0.24386624  1
  Fe  Fe73  1  0.55851658  0.99690671  -0.00707512  1
  Fe  Fe74  1  1.04375684  0.53259616  0.32943863  1
  Fe  Fe75  1  0.34867900  0.79471692  0.83380714  1
  Fe  Fe76  1  0.78364509  0.95348915  0.10867404  1
  Fe  Fe77  1  0.02326999  0.53888443  0.17083049  1
  Fe  Fe78  1  0.27142274  0.78034460  0.71920410  1
  Fe  Fe79  1  0.40624968  0.54503465  0.70670474  1
  Fe  Fe80  1  0.34346539  0.81412462  0.30781821  1
  Fe  Fe81  1  0.07442270  0.04182830  1.05821596  1
  Fe  Fe82  1  0.72908851  0.94284879  0.25686126  1
  Fe  Fe83  1  0.41883897  0.93708969  0.86500390  1
  Fe  Fe84  1  0.69769068  -0.01936771  -0.01985298  1
  Fe  Fe85  1  0.21186186  0.70239518  0.83768570  1
  Fe  Fe86  1  0.43739161  0.31667326  0.15466875  1
  Fe  Fe87  1  0.09457431  0.26872020  0.61125058  1
  Fe  Fe88  1  0.82992471  0.28195616  0.95759793  1
  Fe  Fe89  1  0.81835528  -0.00376250  0.71879864  1
  Fe  Fe90  1  0.99857899  0.38502065  0.37784100  1
  Fe  Fe91  1  -0.05949949  0.31431801  0.90950389  1
  Fe  Fe92  1  0.94017515  0.46730599  0.26800533  1
  Fe  Fe93  1  0.54480008  0.13369144  -0.02715748  1
  Fe  Fe94  1  0.35858305  0.90393701  0.16874032  1
  Fe  Fe95  1  0.73284728  0.36215791  0.47324046  1
  Fe  Fe96  1  0.76209394  0.46396196  0.55438929  1
  Fe  Fe97  1  1.02131018  0.60416854  0.03336068  1
  Fe  Fe98  1  0.37319715  0.41153140  0.67715081  1
  Fe  Fe99  1  0.25784455  0.79500413  0.20586727  1
  Fe  Fe100  1  0.49337463  0.06306698  0.86231381  1
  Fe  Fe101  1  0.64132892  0.09578352  0.89045314  1
  Bi  Bi102  1  0.14131435  0.66684863  0.14140824  1
  Bi  Bi103  1  0.86854589  0.48079857  0.42075186  1
  Bi  Bi104  1  0.19038210  -0.06085222  0.12342986  1
  Bi  Bi105  1  0.40155582  0.00520293  0.02026576  1
  Bi  Bi106  1  0.26754672  0.56912124  0.93135639  1
  Bi  Bi107  1  0.16372474  0.81520503  0.34445499  1
  Bi  Bi108  1  0.62352801  -0.08695017  0.12995363  1
  Bi  Bi109  1  0.62710574  0.04690311  0.71889930  1
  Bi  Bi110  1  0.55345130  0.46625433  0.70622352  1
  Bi  Bi111  1  0.75823438  -0.21166863  0.35313297  1
  Bi  Bi112  1  0.60438164  0.33238791  0.13777638  1
  Bi  Bi113  1  -0.14375066  0.56343874  0.13974932  1
  Bi  Bi114  1  0.36522978  0.09053885  0.74988681  1
  Bi  Bi115  1  0.46589638  0.68061188  0.32864354  1
  Bi  Bi116  1  0.62295939  0.92524514  0.53923830  1
  Bi  Bi117  1  0.07185677  1.02691254  0.45304048  1
  Bi  Bi118  1  0.37811210  0.68711464  0.60204108  1
  Bi  Bi119  1  0.88427287  0.12718452  0.61122868  1
  Bi  Bi120  1  0.90630709  0.94805505  0.85626125  1
  Bi  Bi121  1  0.35074782  0.19331476  0.40482245  1
  Bi  Bi122  1  0.27791553  0.21842279  0.13631649  1
  Bi  Bi123  1  0.94980695  0.55762595  0.69780157  1
  Bi  Bi124  1  0.16254818  0.86578453  0.82641241  1
  Bi  Bi125  1  0.67198102  0.60044515  0.96770684  1
  Bi  Bi126  1  0.70476538  0.11167931  0.31702892  1
  Bi  Bi127  1  0.87754141  0.84681289  0.64097411  1
