# generated using pymatgen
data_Ba51Fe51Bi26
_symmetry_space_group_name_H-M   'P 1'
_cell_length_a   16.52897627
_cell_length_b   16.14560885
_cell_length_c   16.46334911
_cell_angle_alpha   90.09835774
_cell_angle_beta   89.74992127
_cell_angle_gamma   91.06573907
_symmetry_Int_Tables_number   1
_chemical_formula_structural   Ba51Fe51Bi26
_chemical_formula_sum   'Ba51 Fe51 Bi26'
_cell_volume   4392.77257205
_cell_formula_units_Z   1
loop_
 _symmetry_equiv_pos_site_id
 _symmetry_equiv_pos_as_xyz
  1  'x, y, z'
loop_
 _atom_site_type_symbol
 _atom_site_label
 _atom_site_symmetry_multiplicity
 _atom_site_fract_x
 _atom_site_fract_y
 _atom_site_fract_z
 _atom_site_occupancy
  Ba  Ba0  1  0.54778588  0.40633353  0.47787925  1
  Ba  Ba1  1  0.68439762  0.78743526  0.25666777  1
  Ba  Ba2  1  0.46361694  0.24735426  0.77941026  1
  Ba  Ba3  1  0.76739561  0.56541774  0.55982869  1
  Ba  Ba4  1  0.07352132  0.11037760  0.80954815  1
  Ba  Ba5  1  0.40424322  0.72216382  -0.00542728  1
  Ba  Ba6  1  0.02337709  0.86366364  0.72304540  1
  Ba  Ba7  1  0.42775585  0.74704497  0.73785281  1
  Ba  Ba8  1  0.16256664  0.49586395  0.23327057  1
  Ba  Ba9  1  0.84309910  0.46251977  -0.09404676  1
  Ba  Ba10  1  0.01054492  0.34142470  0.76864204  1
  Ba  Ba11  1  0.28156967  0.47814725  0.44971099  1
  Ba  Ba12  1  0.04402188  0.23217096  0.49009249  1
  Ba  Ba13  1  0.25752621  -0.06552272  0.70228080  1
  Ba  Ba14  1  0.05548265  0.80699138  0.11114337  1
  Ba  Ba15  1  0.46477387  0.23173109  0.22091762  1
  Ba  Ba16  1  0.02002322  0.30719894  0.03110912  1
  Ba  Ba17  1  0.29770418  0.76373244  0.49692860  1
  Ba  Ba18  1  0.78643305  0.34614381  0.43930073  1
  Ba  Ba19  1  0.08973928  -0.01492132  0.50118029  1
  Ba  Ba20  1  0.24984540  0.26812491  0.15206805  1
  Ba  Ba21  1  0.23595148  0.00354196  0.31136417  1
  Ba  Ba22  1  -0.11453483  -0.04450857  0.17156266  1
  Ba  Ba23  1  0.26654220  -0.13502880  0.08412382  1
  Ba  Ba24  1  0.10832603  0.06820011  0.09212330  1
  Ba  Ba25  1  0.74405282  -0.06274089  -0.02197414  1
  Ba  Ba26  1  0.68269387  0.57680837  0.11658064  1
  Ba  Ba27  1  0.22238543  0.48455165  0.70778971  1
  Ba  Ba28  1  -0.09339115  0.19382771  0.26979781  1
  Ba  Ba29  1  0.29909663  0.23591519  0.41906665  1
  Ba  Ba30  1  0.58371084  0.01340014  0.71800697  1
  Ba  Ba31  1  -0.13524882  0.57066812  0.30788791  1
  Ba  Ba32  1  0.84666267  0.04739645  0.78265917  1
  Ba  Ba33  1  0.45830648  0.51462085  0.78925180  1
  Ba  Ba34  1  0.00055306  0.63123703  0.77163373  1
  Ba  Ba35  1  0.69678890  0.69223082  -0.09576269  1
  Ba  Ba36  1  0.64169972  0.41439116  0.72828038  1
  Ba  Ba37  1  0.45362213  0.54609464  0.22120747  1
  Ba  Ba38  1  0.52596341  0.04639919  0.01057835  1
  Ba  Ba39  1  0.66543284  0.35374627  0.23960790  1
  Ba  Ba40  1  0.48269122  -0.07106873  0.21522382  1
  Ba  Ba41  1  0.77770566  0.20261641  0.04534415  1
  Ba  Ba42  1  0.30463170  0.10319753  -0.08767538  1
  Ba  Ba43  1  0.60651187  -0.02820684  0.46351596  1
  Ba  Ba44  1  0.40628299  0.11861598  0.57970321  1
  Ba  Ba45  1  0.28847612  0.45454633  -0.02798605  1
  Ba  Ba46  1  0.76994945  0.81256610  0.66282862  1
  Ba  Ba47  1  0.01346192  0.47843159  0.53997513  1
  Ba  Ba48  1  0.81736677  0.11481032  0.53762713  1
  Ba  Ba49  1  0.54591846  0.69807184  0.48969649  1
  Ba  Ba50  1  -0.01480545  0.57528862  0.10038269  1
  Fe  Fe51  1  0.05100599  0.75975573  0.45649430  1
  Fe  Fe52  1  0.16120722  0.70002858  0.23461427  1
  Fe  Fe53  1  0.21241171  0.31086576  0.57944801  1
  Fe  Fe54  1  0.91569990  0.76414621  0.25648588  1
  Fe  Fe55  1  0.63917626  0.46527829  0.94113173  1
  Fe  Fe56  1  0.55707785  0.19324249  0.40486696  1
  Fe  Fe57  1  0.85313696  0.85695426  0.34776662  1
  Fe  Fe58  1  0.55554242  0.40164832  0.06824793  1
  Fe  Fe59  1  0.26493261  0.67223432  0.32425855  1
  Fe  Fe60  1  0.67875113  0.03468997  0.18637603  1
  Fe  Fe61  1  0.83663381  0.39029717  0.69764752  1
  Fe  Fe62  1  0.93801684  0.85725884  0.48910359  1
  Fe  Fe63  1  0.24306267  0.13814929  0.71635309  1
  Fe  Fe64  1  0.68453959  0.17596007  0.39484317  1
  Fe  Fe65  1  0.53862571  0.37214368  0.93217040  1
  Fe  Fe66  1  0.11096039  0.66581575  0.57177341  1
  Fe  Fe67  1  0.92390924  0.98100249  0.39501492  1
  Fe  Fe68  1  0.28993481  0.25687215  0.67644127  1
  Fe  Fe69  1  0.77624021  0.28680380  0.79106850  1
  Fe  Fe70  1  0.97785777  0.93177648  0.91325600  1
  Fe  Fe71  1  0.07369179  0.28642067  0.22637120  1
  Fe  Fe72  1  0.62152272  0.14963499  0.15190482  1
  Fe  Fe73  1  0.07349178  0.66524266  0.95031860  1
  Fe  Fe74  1  0.89284662  0.32288937  0.60019031  1
  Fe  Fe75  1  0.71022576  0.16404566  0.25871265  1
  Fe  Fe76  1  0.68997600  0.37869214  0.03289866  1
  Fe  Fe77  1  0.00608771  0.85941493  0.34645443  1
  Fe  Fe78  1  0.11843326  0.79857972  0.57361273  1
  Fe  Fe79  1  0.14285551  0.24321449  0.67356135  1
  Fe  Fe80  1  0.30363192  0.68701985  0.19274055  1
  Fe  Fe81  1  0.03016940  0.71031869  0.30606612  1
  Fe  Fe82  1  0.15037026  0.79490781  0.35033262  1
  Fe  Fe83  1  0.12529068  0.18596994  0.29737456  1
  Fe  Fe84  1  0.91086442  0.73750670  0.40369762  1
  Fe  Fe85  1  0.59413218  0.09892486  0.29566614  1
  Fe  Fe86  1  0.88948400  0.81927432  0.85919612  1
  Fe  Fe87  1  0.82082711  0.92565367  0.46964883  1
  Fe  Fe88  1  0.18201231  0.76089829  0.89828774  1
  Fe  Fe89  1  1.03699357  0.79837479  0.90772815  1
  Fe  Fe90  1  0.75244773  0.29864396  0.62751394  1
  Fe  Fe91  1  0.71589338  0.19432554  0.70773577  1
  Fe  Fe92  1  0.90918996  0.84187126  -0.01006533  1
  Fe  Fe93  1  0.27173713  0.80780759  0.27485767  1
  Fe  Fe94  1  0.20599010  0.15351064  0.58652487  1
  Fe  Fe95  1  0.19002158  0.62958234  0.87619793  1
  Fe  Fe96  1  0.86401686  0.23040354  0.69506617  1
  Fe  Fe97  1  0.67473286  0.31788203  0.90391750  1
  Fe  Fe98  1  0.56656876  0.23467771  0.93916225  1
  Fe  Fe99  1  0.59439168  0.26775031  0.06121871  1
  Fe  Fe100  1  0.14440670  0.31888204  0.33450008  1
  Fe  Fe101  1  0.92893427  0.71012474  -0.04710238  1
  Bi  Bi102  1  -0.16229422  0.73844320  0.10428377  1
  Bi  Bi103  1  0.42532728  0.73997608  0.30697634  1
  Bi  Bi104  1  0.67479277  0.13971757  0.86237901  1
  Bi  Bi105  1  0.20520659  0.64714297  0.05977628  1
  Bi  Bi106  1  0.49975428  0.54111621  -0.00174865  1
  Bi  Bi107  1  0.12937439  0.61603765  0.40782240  1
  Bi  Bi108  1  0.75100932  0.76866640  0.45845902  1
  Bi  Bi109  1  0.76879568  0.02139321  0.33558272  1
  Bi  Bi110  1  0.20004263  0.71846303  0.71131771  1
  Bi  Bi111  1  0.22062259  0.28367158  0.82699894  1
  Bi  Bi112  1  0.42124487  0.27292746  0.00881409  1
  Bi  Bi113  1  0.61569544  0.20367335  0.57133975  1
  Bi  Bi114  1  -0.05522611  0.70145207  0.58061666  1
  Bi  Bi115  1  0.33170691  0.06915656  0.12530488  1
  Bi  Bi116  1  0.65307195  0.54570336  0.34539259  1
  Bi  Bi117  1  0.15315981  0.93352173  0.90829438  1
  Bi  Bi118  1  0.93253508  0.08012539  0.98063653  1
  Bi  Bi119  1  0.58830208  0.81015690  0.06011194  1
  Bi  Bi120  1  0.44955128  0.89939794  0.59539395  1
  Bi  Bi121  1  -0.00990471  0.38968275  0.34092630  1
  Bi  Bi122  1  0.43702715  0.07303530  0.37100950  1
  Bi  Bi123  1  0.07644726  0.49051108  0.91425404  1
  Bi  Bi124  1  0.38924447  0.36479629  0.60416816  1
  Bi  Bi125  1  0.39765455  0.57957020  0.59307041  1
  Bi  Bi126  1  0.83989975  0.40634228  0.11939332  1
  Bi  Bi127  1  0.62476994  0.64493397  0.70394915  1
