# generated using pymatgen
data_Ba51Fe51Bi26
_symmetry_space_group_name_H-M   'P 1'
_cell_length_a   16.12541808
_cell_length_b   16.84465385
_cell_length_c   16.36349590
_cell_angle_alpha   88.62505743
_cell_angle_beta   91.19059648
_cell_angle_gamma   90.09374628
_symmetry_Int_Tables_number   1
_chemical_formula_structural   Ba51Fe51Bi26
_chemical_formula_sum   'Ba51 Fe51 Bi26'
_cell_volume   4442.52676877
_cell_formula_units_Z   1
loop_
 _symmetry_equiv_pos_site_id
 _symmetry_equiv_pos_as_xyz
  1  'x, y, z'
loop_
 _atom_site_type_symbol
 _atom_site_label
 _atom_site_symmetry_multiplicity
 _atom_site_fract_x
 _atom_site_fract_y
 _atom_site_fract_z
 _atom_site_occupancy
  Ba  Ba0  1  -0.04048131  0.73266615  0.01097110  1
  Ba  Ba1  1  0.73247665  0.56058365  0.76122257  1
  Ba  Ba2  1  0.58206226  0.00774869  0.53027337  1
  Ba  Ba3  1  0.01389521  0.75573493  0.26600207  1
  Ba  Ba4  1  0.04774059  0.09498842  0.02100623  1
  Ba  Ba5  1  0.73011755  0.26701630  0.51951899  1
  Ba  Ba6  1  0.38681138  0.13073822  0.33542555  1
  Ba  Ba7  1  0.84613013  0.02033422  0.59127413  1
  Ba  Ba8  1  0.06856840  0.23819812  0.82377033  1
  Ba  Ba9  1  0.59094944  -0.01199011  0.24553555  1
  Ba  Ba10  1  0.45075744  0.22466453  0.54527379  1
  Ba  Ba11  1  0.31361387  0.37491668  0.77586574  1
  Ba  Ba12  1  0.08425079  0.00662616  0.54690166  1
  Ba  Ba13  1  0.04716498  0.55683399  0.50987864  1
  Ba  Ba14  1  0.77159371  0.84208003  0.17455633  1
  Ba  Ba15  1  0.47352282  0.53334289  0.61011620  1
  Ba  Ba16  1  0.26667359  0.14559332  0.68305546  1
  Ba  Ba17  1  0.00195824  0.23080389  0.54130810  1
  Ba  Ba18  1  0.30394098  0.54218382  0.17157575  1
  Ba  Ba19  1  0.45990986  0.34516053  0.25509412  1
  Ba  Ba20  1  0.43901354  0.85289358  0.39898789  1
  Ba  Ba21  1  0.02870207  0.25157464  0.27047440  1
  Ba  Ba22  1  0.23158967  -0.10484556  0.70018084  1
  Ba  Ba23  1  0.80314865  -0.05376193  0.87262656  1
  Ba  Ba24  1  0.06491287  0.44066446  0.01997228  1
  Ba  Ba25  1  0.21743770  -0.06093547  0.38896650  1
  Ba  Ba26  1  0.72563201  0.32926238  0.27738437  1
  Ba  Ba27  1  0.55130718  -0.09609813  -0.02414936  1
  Ba  Ba28  1  -0.01128549  0.50668428  0.25427974  1
  Ba  Ba29  1  0.00542724  0.69780540  0.73782879  1
  Ba  Ba30  1  0.68650459  0.13964261  0.74021874  1
  Ba  Ba31  1  0.25502109  0.79669868  0.18736701  1
  Ba  Ba32  1  0.44637753  0.73840639  -0.19239063  1
  Ba  Ba33  1  0.52796737  0.29007048  0.85951712  1
  Ba  Ba34  1  0.27558302  0.40502480  0.45820414  1
  Ba  Ba35  1  0.78949818  0.33823079  -0.09944974  1
  Ba  Ba36  1  -0.11627259  0.77620468  0.49118615  1
  Ba  Ba37  1  0.30107993  -0.02780793  -0.02282586  1
  Ba  Ba38  1  0.64976153  0.69628493  0.48540836  1
  Ba  Ba39  1  0.64641909  0.66467830  -0.04828841  1
  Ba  Ba40  1  0.81982656  0.11503527  0.33152819  1
  Ba  Ba41  1  0.46631601  0.59889251  0.35547352  1
  Ba  Ba42  1  0.76293831  0.49103661  0.08146864  1
  Ba  Ba43  1  0.26366396  0.66912788  0.53783850  1
  Ba  Ba44  1  -0.01387969  0.45329725  0.74086919  1
  Ba  Ba45  1  0.23298767  0.69577563  -0.03750626  1
  Ba  Ba46  1  0.48650557  0.46877912  0.03178625  1
  Ba  Ba47  1  0.76573891  0.12828644  0.08686651  1
  Ba  Ba48  1  0.45992836  0.15169633  0.07293476  1
  Ba  Ba49  1  0.76779290  0.50014966  0.44219970  1
  Ba  Ba50  1  0.18636523  0.09264683  0.20941571  1
  Fe  Fe51  1  0.46992788  0.83334520  0.16820935  1
  Fe  Fe52  1  0.53881394  0.61938048  0.15213364  1
  Fe  Fe53  1  0.12799022  0.13869999  0.40354388  1
  Fe  Fe54  1  0.30972753  0.55722894  0.70673290  1
  Fe  Fe55  1  0.91549010  0.12586764  0.74085602  1
  Fe  Fe56  1  0.22061338  0.23238051  0.37167225  1
  Fe  Fe57  1  0.76527029  0.72547373  0.67402910  1
  Fe  Fe58  1  0.60503931  0.42566127  0.72887729  1
  Fe  Fe59  1  0.60469091  0.19438174  0.20887300  1
  Fe  Fe60  1  0.24753263  0.12160639  0.47385000  1
  Fe  Fe61  1  0.04619942  0.92111253  0.87996708  1
  Fe  Fe62  1  0.74281495  0.68852028  0.30695217  1
  Fe  Fe63  1  0.83421690  0.65938076  0.18432199  1
  Fe  Fe64  1  0.44374617  0.90900638  0.66374948  1
  Fe  Fe65  1  0.15745333  0.26819536  0.10022782  1
  Fe  Fe66  1  0.97895836  1.03029725  0.83730167  1
  Fe  Fe67  1  0.41537601  -0.05037618  0.79626523  1
  Fe  Fe68  1  0.21553519  0.30084987  0.96252114  1
  Fe  Fe69  1  0.45076899  0.66545331  0.04976090  1
  Fe  Fe70  1  0.33303931  0.56798020  0.83632516  1
  Fe  Fe71  1  0.64843537  0.46150146  0.58925474  1
  Fe  Fe72  1  -0.07718865  0.97108560  0.41927818  1
  Fe  Fe73  1  0.43148242  0.70782673  0.18371875  1
  Fe  Fe74  1  0.25682186  0.36533023  0.09155623  1
  Fe  Fe75  1  0.34957000  0.30689208  1.01153914  1
  Fe  Fe76  1  1.02557694  0.04498349  0.34298093  1
  Fe  Fe77  1  0.02773354  0.90206225  0.38256339  1
  Fe  Fe78  1  0.17999526  0.52447230  0.67610207  1
  Fe  Fe79  1  0.03366853  0.06831518  0.71812595  1
  Fe  Fe80  1  0.75264422  0.40587603  0.65559516  1
  Fe  Fe81  1  0.45365438  0.04972814  0.69522039  1
  Fe  Fe82  1  0.56560868  0.74869869  0.10639117  1
  Fe  Fe83  1  0.25184436  0.19075191  0.04105038  1
  Fe  Fe84  1  0.19431811  0.23536780  0.50545175  1
  Fe  Fe85  1  0.59478804  0.34252808  0.62415843  1
  Fe  Fe86  1  0.06071339  0.94254746  0.23892137  1
  Fe  Fe87  1  0.91242779  0.93941805  0.28649194  1
  Fe  Fe88  1  0.86626164  0.63941292  0.33184173  1
  Fe  Fe89  1  0.56682375  0.83709720  0.66433581  1
  Fe  Fe90  1  0.41351354  0.78879913  0.05332610  1
  Fe  Fe91  1  0.96374379  0.05579162  0.20836630  1
  Fe  Fe92  1  0.61702124  0.71358657  0.68013029  1
  Fe  Fe93  1  0.68190364  0.65452043  0.17360693  1
  Fe  Fe94  1  0.95629720  0.94642481  0.14368008  1
  Fe  Fe95  1  0.30533872  0.25297030  0.15191237  1
  Fe  Fe96  1  0.19427665  0.53904106  0.81119216  1
  Fe  Fe97  1  0.78290626  0.56034725  0.25718243  1
  Fe  Fe98  1  0.46347463  0.07065622  0.83344059  1
  Fe  Fe99  1  0.68239388  0.80752636  0.76199606  1
  Fe  Fe100  1  0.68926829  0.32262766  0.73350480  1
  Fe  Fe101  1  0.82935914  0.83271991  0.70917001  1
  Bi  Bi102  1  0.62035925  0.50676229  0.24746734  1
  Bi  Bi103  1  0.33296862  0.18541799  -0.10899368  1
  Bi  Bi104  1  0.45701459  0.74671494  0.58411311  1
  Bi  Bi105  1  0.58680533  0.76360073  0.27743362  1
  Bi  Bi106  1  0.26979930  0.47211646  -0.03932323  1
  Bi  Bi107  1  0.21117179  0.35862922  0.25239279  1
  Bi  Bi108  1  0.50039651  0.52054942  0.82277743  1
  Bi  Bi109  1  -0.01566511  -0.09478459  0.71608702  1
  Bi  Bi110  1  0.10033748  -0.10637630  0.06662477  1
  Bi  Bi111  1  -0.13828195  0.28133765  0.69896174  1
  Bi  Bi112  1  0.22692262  0.69265419  0.74845348  1
  Bi  Bi113  1  0.81851564  0.73932157  0.84494374  1
  Bi  Bi114  1  0.58779341  -0.04652261  0.76899284  1
  Bi  Bi115  1  0.76021587  0.92365272  0.38080706  1
  Bi  Bi116  1  0.14546370  0.36452752  0.62331732  1
  Bi  Bi117  1  0.71313334  0.85918970  0.59140994  1
  Bi  Bi118  1  0.09620723  0.78907254  0.49883764  1
  Bi  Bi119  1  0.62617377  0.30440893  0.08370889  1
  Bi  Bi120  1  0.60770989  0.10002826  0.93278712  1
  Bi  Bi121  1  0.87130333  0.14422641  0.90185045  1
  Bi  Bi122  1  0.15588630  0.04153211  0.83605275  1
  Bi  Bi123  1  0.89314433  0.54000965  0.91458689  1
  Bi  Bi124  1  0.55269154  0.40331891  0.45786570  1
  Bi  Bi125  1  0.60029923  0.16546057  0.37388902  1
  Bi  Bi126  1  0.36287628  1.01216250  0.54150608  1
  Bi  Bi127  1  0.11121064  0.62601153  0.12819516  1
