# generated using pymatgen
data_Ba51Fe51Bi26
_symmetry_space_group_name_H-M   'P 1'
_cell_length_a   16.08566318
_cell_length_b   16.80163271
_cell_length_c   16.18432916
_cell_angle_alpha   90.61548170
_cell_angle_beta   87.85175833
_cell_angle_gamma   91.94509884
_symmetry_Int_Tables_number   1
_chemical_formula_structural   Ba51Fe51Bi26
_chemical_formula_sum   'Ba51 Fe51 Bi26'
_cell_volume   4368.27521605
_cell_formula_units_Z   1
loop_
 _symmetry_equiv_pos_site_id
 _symmetry_equiv_pos_as_xyz
  1  'x, y, z'
loop_
 _atom_site_type_symbol
 _atom_site_label
 _atom_site_symmetry_multiplicity
 _atom_site_fract_x
 _atom_site_fract_y
 _atom_site_fract_z
 _atom_site_occupancy
  Ba  Ba0  1  -0.10172237  -0.05349679  0.64634460  1
  Ba  Ba1  1  -0.03300003  0.23138883  0.74447079  1
  Ba  Ba2  1  0.26906616  0.82471092  0.30780410  1
  Ba  Ba3  1  0.25104733  0.51073375  0.80092308  1
  Ba  Ba4  1  0.30803089  0.19653906  -0.03930356  1
  Ba  Ba5  1  0.75445374  0.80962908  0.49878627  1
  Ba  Ba6  1  0.71156344  0.71952362  0.73206867  1
  Ba  Ba7  1  0.20693232  0.26220885  0.74093384  1
  Ba  Ba8  1  0.33599361  0.12834321  0.26270225  1
  Ba  Ba9  1  0.52958824  0.35269153  0.33688602  1
  Ba  Ba10  1  0.78760725  0.77240580  -0.04703726  1
  Ba  Ba11  1  0.07186075  0.26727403  0.45816628  1
  Ba  Ba12  1  0.29032665  0.45554443  0.52941528  1
  Ba  Ba13  1  0.56492605  0.60590193  0.52673457  1
  Ba  Ba14  1  0.41541796  -0.12271534  0.12117143  1
  Ba  Ba15  1  0.37172742  0.46806226  0.02529516  1
  Ba  Ba16  1  0.77255363  0.68909334  0.25913203  1
  Ba  Ba17  1  0.02361259  0.79815910  0.25421652  1
  Ba  Ba18  1  0.78537716  0.54664027  0.03456993  1
  Ba  Ba19  1  -0.07883949  0.47670395  0.67145482  1
  Ba  Ba20  1  -0.03272307  0.48578361  0.43964609  1
  Ba  Ba21  1  0.37109464  0.20848732  0.51836853  1
  Ba  Ba22  1  0.73581013  0.13020123  0.72094651  1
  Ba  Ba23  1  0.62208212  -0.08059263  0.93719873  1
  Ba  Ba24  1  0.38330838  0.51709512  0.28329972  1
  Ba  Ba25  1  0.54700781  0.29900925  0.02798882  1
  Ba  Ba26  1  0.50889524  0.49492428  0.75592316  1
  Ba  Ba27  1  -0.01979819  0.71926214  0.65475526  1
  Ba  Ba28  1  0.82315591  -0.04815370  0.26027320  1
  Ba  Ba29  1  0.02010099  0.21516632  0.03277356  1
  Ba  Ba30  1  0.46715193  -0.06210321  0.75865207  1
  Ba  Ba31  1  0.04741591  0.50966144  0.16685147  1
  Ba  Ba32  1  -0.01317687  -0.04053069  0.01372088  1
  Ba  Ba33  1  0.06338418  0.73975969  -0.05455457  1
  Ba  Ba34  1  0.26979811  0.74381290  0.66841963  1
  Ba  Ba35  1  0.27322167  -0.01964466  0.53673188  1
  Ba  Ba36  1  0.77518379  0.45176172  0.26042276  1
  Ba  Ba37  1  0.51998689  0.72187606  0.31331580  1
  Ba  Ba38  1  0.78105137  0.25878629  -0.06877657  1
  Ba  Ba39  1  0.10050182  0.00714319  0.73979966  1
  Ba  Ba40  1  0.71026408  0.42766496  0.48843846  1
  Ba  Ba41  1  0.51261680  -0.03848223  0.36973405  1
  Ba  Ba42  1  0.03521861  0.12535312  0.26553570  1
  Ba  Ba43  1  0.00792906  0.45628369  -0.08574500  1
  Ba  Ba44  1  0.71950265  0.05418332  0.49261126  1
  Ba  Ba45  1  0.55173457  0.66646425  0.08463102  1
  Ba  Ba46  1  0.76870645  0.21889775  0.24923715  1
  Ba  Ba47  1  0.50965656  0.21349463  0.73738263  1
  Ba  Ba48  1  0.62392190  0.05657171  0.13524394  1
  Ba  Ba49  1  0.27109955  -0.04492574  -0.07884022  1
  Ba  Ba50  1  0.14139113  0.67663359  0.44270721  1
  Fe  Fe51  1  0.44944907  0.75641564  0.57005164  1
  Fe  Fe52  1  0.99687706  0.84994989  0.48208477  1
  Fe  Fe53  1  0.45912149  0.03429066  0.97726649  1
  Fe  Fe54  1  0.25311089  0.57300231  0.15718287  1
  Fe  Fe55  1  0.70427701  0.55963555  0.85108013  1
  Fe  Fe56  1  0.66967401  0.27895872  0.60734552  1
  Fe  Fe57  1  0.39860021  0.81974092  0.46497940  1
  Fe  Fe58  1  -0.10612624  0.06624113  0.84951710  1
  Fe  Fe59  1  0.21946036  0.70817493  0.12087879  1
  Fe  Fe60  1  0.92262724  0.71405071  0.09995372  1
  Fe  Fe61  1  0.78234450  0.05727146  0.93436570  1
  Fe  Fe62  1  0.56735395  0.80971080  0.62866338  1
  Fe  Fe63  1  0.37466677  0.35874939  0.67741697  1
  Fe  Fe64  1  0.35414741  0.04955024  0.07939523  1
  Fe  Fe65  1  0.66817476  0.41019350  0.83532839  1
  Fe  Fe66  1  1.11054848  0.85283997  0.55757365  1
  Fe  Fe67  1  0.43367631  0.64049726  0.89864130  1
  Fe  Fe68  1  0.58989391  0.64243489  0.88600343  1
  Fe  Fe69  1  0.59854897  0.54515827  0.26507565  1
  Fe  Fe70  1  0.23398504  0.41633774  0.17999519  1
  Fe  Fe71  1  0.33892944  0.67964164  0.17701637  1
  Fe  Fe72  1  0.81311036  0.96296642  0.83606401  1
  Fe  Fe73  1  0.77270390  0.60649599  0.43809076  1
  Fe  Fe74  1  0.72647047  0.23868475  0.46033061  1
  Fe  Fe75  1  0.73208645  0.35039217  0.72293323  1
  Fe  Fe76  1  0.42397958  0.75454599  0.97991997  1
  Fe  Fe77  1  0.84978788  0.30321199  0.41401133  1
  Fe  Fe78  1  0.55179292  0.81182482  0.48164882  1
  Fe  Fe79  1  0.12287990  0.33353387  0.23445550  1
  Fe  Fe80  1  0.37716326  0.77975212  0.85780247  1
  Fe  Fe81  1  0.34208708  0.64885021  0.04002276  1
  Fe  Fe82  1  0.79628019  0.45469303  0.82506563  1
  Fe  Fe83  1  0.45165649  0.89885824  0.56483570  1
  Fe  Fe84  1  0.52922501  0.75882081  0.87633825  1
  Fe  Fe85  1  0.58509803  0.48582969  0.15165410  1
  Fe  Fe86  1  0.09321970  0.41515932  0.72989666  1
  Fe  Fe87  1  0.87466552  0.18011787  0.44519875  1
  Fe  Fe88  1  0.91266093  0.13072870  0.57203543  1
  Fe  Fe89  1  0.59055554  0.92145545  0.56311652  1
  Fe  Fe90  1  0.27897865  0.77266693  -0.00117414  1
  Fe  Fe91  1  0.58923650  0.21672374  0.51806701  1
  Fe  Fe92  1  0.10159286  0.39420838  0.60556035  1
  Fe  Fe93  1  0.10079299  0.90866524  0.41432233  1
  Fe  Fe94  1  0.21128349  0.26324183  0.15668892  1
  Fe  Fe95  1  0.04178338  0.11018938  0.57467090  1
  Fe  Fe96  1  0.85814731  0.81530328  0.12662996  1
  Fe  Fe97  1  0.24665841  0.32281523  0.29482812  1
  Fe  Fe98  1  0.80984557  0.61023027  0.55991729  1
  Fe  Fe99  1  0.46144470  0.12723854  0.07016203  1
  Fe  Fe100  1  0.29168499  0.67910782  0.90088556  1
  Fe  Fe101  1  0.06847407  0.97950353  0.53485581  1
  Bi  Bi102  1  0.71079563  0.51504169  0.68219380  1
  Bi  Bi103  1  0.47560710  0.69972448  0.72629356  1
  Bi  Bi104  1  0.84985489  0.29099254  0.58457819  1
  Bi  Bi105  1  0.50822003  0.36695630  0.56483119  1
  Bi  Bi106  1  -0.04390308  0.32509298  0.28117796  1
  Bi  Bi107  1  -0.05855510  0.02322335  0.43568848  1
  Bi  Bi108  1  0.38021666  0.31421948  0.17820229  1
  Bi  Bi109  1  0.18116421  0.58693424  0.00097457  1
  Bi  Bi110  1  0.58827664  0.49287668  -0.03248590  1
  Bi  Bi111  1  -0.07711449  0.69563520  0.43479706  1
  Bi  Bi112  1  0.50684369  0.06294156  0.57156844  1
  Bi  Bi113  1  0.35675559  0.65777010  0.46125290  1
  Bi  Bi114  1  0.17170504  0.46782724  0.34305949  1
  Bi  Bi115  1  0.12507513  0.56040409  0.63007396  1
  Bi  Bi116  1  0.30903017  0.08401431  0.73339559  1
  Bi  Bi117  1  0.60060152  0.12420854  0.91923430  1
  Bi  Bi118  1  0.58015912  0.15874006  0.35447078  1
  Bi  Bi119  1  0.17368303  0.86424195  0.10295579  1
  Bi  Bi120  1  0.88229472  0.61261573  0.84206740  1
  Bi  Bi121  1  0.68607297  0.92275793  0.70536105  1
  Bi  Bi122  1  0.38456864  0.34871853  0.84338796  1
  Bi  Bi123  1  0.88105266  0.37051841  0.08614759  1
  Bi  Bi124  1  0.17038380  0.36591776  0.02809844  1
  Bi  Bi125  1  0.67192410  0.84234530  0.14577304  1
  Bi  Bi126  1  0.18538735  0.09262082  0.10532898  1
  Bi  Bi127  1  0.84319588  0.09181297  0.09149516  1
