# generated using pymatgen
data_Ba51Fe51Bi26
_symmetry_space_group_name_H-M   'P 1'
_cell_length_a   16.61155741
_cell_length_b   16.34986822
_cell_length_c   16.26381008
_cell_angle_alpha   91.46144344
_cell_angle_beta   90.04439137
_cell_angle_gamma   88.96866034
_symmetry_Int_Tables_number   1
_chemical_formula_structural   Ba51Fe51Bi26
_chemical_formula_sum   'Ba51 Fe51 Bi26'
_cell_volume   4415.04593288
_cell_formula_units_Z   1
loop_
 _symmetry_equiv_pos_site_id
 _symmetry_equiv_pos_as_xyz
  1  'x, y, z'
loop_
 _atom_site_type_symbol
 _atom_site_label
 _atom_site_symmetry_multiplicity
 _atom_site_fract_x
 _atom_site_fract_y
 _atom_site_fract_z
 _atom_site_occupancy
  Ba  Ba0  1  0.20649171  0.52477319  0.03728619  1
  Ba  Ba1  1  0.75783412  0.25503987  0.78499376  1
  Ba  Ba2  1  0.51113660  0.25545700  -0.02313750  1
  Ba  Ba3  1  0.22173601  -0.04750673  0.46967354  1
  Ba  Ba4  1  0.28717979  0.25931007  0.09190252  1
  Ba  Ba5  1  -0.00569353  0.39424292  0.83511262  1
  Ba  Ba6  1  -0.06017295  0.74101066  0.27797234  1
  Ba  Ba7  1  0.28271622  0.23376397  0.53735291  1
  Ba  Ba8  1  0.45278324  0.56647303  0.03698570  1
  Ba  Ba9  1  0.81093323  0.75046894  0.57332475  1
  Ba  Ba10  1  0.17500911  0.27738099  0.31449053  1
  Ba  Ba11  1  -0.09756162  0.03418064  0.04129497  1
  Ba  Ba12  1  0.17209838  0.91398336  0.17931388  1
  Ba  Ba13  1  0.01926250  0.74068999  0.75129533  1
  Ba  Ba14  1  0.52564128  0.03293876  0.81207770  1
  Ba  Ba15  1  0.05132577  0.16180544  0.49773327  1
  Ba  Ba16  1  -0.08095565  0.00450697  0.31193767  1
  Ba  Ba17  1  0.63084905  0.71462636  0.15355641  1
  Ba  Ba18  1  -0.04023479  0.76292115  0.00162616  1
  Ba  Ba19  1  0.26546443  0.74477424  0.33862433  1
  Ba  Ba20  1  0.58642653  -0.06099446  0.55677588  1
  Ba  Ba21  1  0.42524550  0.83862542  0.19847282  1
  Ba  Ba22  1  0.35163408  -0.08563214  0.70974488  1
  Ba  Ba23  1  0.09307942  0.67952052  0.49474606  1
  Ba  Ba24  1  0.79655337  0.17954962  0.51333700  1
  Ba  Ba25  1  0.76363183  0.26381115  0.12220512  1
  Ba  Ba26  1  0.52549531  0.29138094  0.70577183  1
  Ba  Ba27  1  0.19212068  0.51884375  0.74733240  1
  Ba  Ba28  1  0.54914639  0.21361103  0.21829542  1
  Ba  Ba29  1  0.18835019  0.03626477  -0.03849167  1
  Ba  Ba30  1  0.04973595  0.25393371  0.07824232  1
  Ba  Ba31  1  0.60391318  0.75414954  0.73045921  1
  Ba  Ba32  1  0.74437084  0.45009865  0.53720881  1
  Ba  Ba33  1  0.52858050  0.69846042  0.44475736  1
  Ba  Ba34  1  0.33326320  0.08036323  0.28861459  1
  Ba  Ba35  1  0.42099739  0.60399516  -0.21211610  1
  Ba  Ba36  1  0.24444433  0.48085745  0.48924103  1
  Ba  Ba37  1  0.29581174  0.20233352  0.77731875  1
  Ba  Ba38  1  0.56251809  0.16134494  0.45680102  1
  Ba  Ba39  1  0.67357999  -0.00993488  0.15551677  1
  Ba  Ba40  1  -0.09411746  0.34495954  0.32848511  1
  Ba  Ba41  1  -0.00768946  -0.04760477  0.60700153  1
  Ba  Ba42  1  0.73340822  0.48139858  -0.02880000  1
  Ba  Ba43  1  0.48894186  0.40489410  0.49240454  1
  Ba  Ba44  1  0.03025616  0.14871634  0.79174049  1
  Ba  Ba45  1  0.25211022  0.78176525  -0.03875923  1
  Ba  Ba46  1  0.66060860  -0.12583277  -0.05679853  1
  Ba  Ba47  1  0.26657092  0.51539540  0.25815316  1
  Ba  Ba48  1  -0.03956167  0.49844370  0.61365459  1
  Ba  Ba49  1  0.74208730  0.51904011  0.27190880  1
  Ba  Ba50  1  0.50790525  0.49960552  0.28941561  1
  Fe  Fe51  1  0.83025139  0.94481584  0.86828606  1
  Fe  Fe52  1  0.47844362  0.91834579  0.03253340  1
  Fe  Fe53  1  0.16627658  0.12692460  0.18297166  1
  Fe  Fe54  1  0.38812623  0.96677097  0.94106459  1
  Fe  Fe55  1  0.94495700  0.54187337  0.25725597  1
  Fe  Fe56  1  0.90729905  0.39336444  1.01565388  1
  Fe  Fe57  1  0.41148575  -0.02926135  0.47822477  1
  Fe  Fe58  1  0.50798208  0.04922728  1.01010732  1
  Fe  Fe59  1  0.87391735  0.03870487  0.76232953  1
  Fe  Fe60  1  0.72988871  0.84580217  0.27075137  1
  Fe  Fe61  1  0.25561924  0.77780544  0.56952515  1
  Fe  Fe62  1  0.35553965  0.99654838  0.07521585  1
  Fe  Fe63  1  0.33842828  0.67231604  0.49895488  1
  Fe  Fe64  1  0.72259108  0.03726105  0.80110936  1
  Fe  Fe65  1  0.90475472  0.46775457  0.13442186  1
  Fe  Fe66  1  0.39478236  0.72284392  0.61813246  1
  Fe  Fe67  1  0.16488377  0.86520454  0.64343236  1
  Fe  Fe68  1  0.83085819  0.62323466  0.72800088  1
  Fe  Fe69  1  0.71320137  0.73676024  0.34337891  1
  Fe  Fe70  1  0.12204979  1.07262133  0.29883645  1
  Fe  Fe71  1  0.87210698  0.89803503  0.74084277  1
  Fe  Fe72  1  0.30809022  0.68223086  0.14242948  1
  Fe  Fe73  1  0.09548521  0.32474629  0.63240127  1
  Fe  Fe74  1  0.07962718  0.59353380  0.26307898  1
  Fe  Fe75  1  0.03069846  0.16070167  0.25400968  1
  Fe  Fe76  1  1.04262611  0.51302148  0.36305638  1
  Fe  Fe77  1  0.05505781  1.06594220  0.15801366  1
  Fe  Fe78  1  0.15040116  -0.08627506  0.76691968  1
  Fe  Fe79  1  0.42527514  0.38598747  0.14923926  1
  Fe  Fe80  1  0.48160063  0.01541168  0.14898789  1
  Fe  Fe81  1  0.41493210  0.11783074  0.09622382  1
  Fe  Fe82  1  0.81928693  0.09134984  -0.11902628  1
  Fe  Fe83  1  0.71087963  0.58592557  0.67863364  1
  Fe  Fe84  1  0.38038346  0.09889991  0.96458800  1
  Fe  Fe85  1  1.00649841  0.57962128  0.12691899  1
  Fe  Fe86  1  0.73628246  0.62038456  0.82286231  1
  Fe  Fe87  1  0.78032263  1.00203569  0.66868237  1
  Fe  Fe88  1  0.45058191  0.87540981  0.39618452  1
  Fe  Fe89  1  0.64216179  0.45592934  0.70768195  1
  Fe  Fe90  1  0.81071939  0.84905961  0.37691880  1
  Fe  Fe91  1  0.02552438  0.46027145  1.03232879  1
  Fe  Fe92  1  0.38161198  0.82420425  0.50766842  1
  Fe  Fe93  1  0.60064169  0.84771582  0.33358689  1
  Fe  Fe94  1  0.61612690  0.55370448  0.79330607  1
  Fe  Fe95  1  0.27161186  0.63858321  0.61072246  1
  Fe  Fe96  1  -0.07674816  0.54475772  0.00128752  1
  Fe  Fe97  1  0.73944329  0.90174077  0.75110951  1
  Fe  Fe98  1  0.38871200  0.56933144  0.59469923  1
  Fe  Fe99  1  0.70206386  -0.03771925  0.36091383  1
  Fe  Fe100  1  0.40426671  0.64770581  0.21496305  1
  Fe  Fe101  1  0.69420580  0.83560274  0.43643287  1
  Bi  Bi102  1  0.45181895  -0.18427578  -0.10821725  1
  Bi  Bi103  1  0.80326499  -0.03844533  0.50243307  1
  Bi  Bi104  1  0.00547104  -0.05815119  0.85607975  1
  Bi  Bi105  1  0.81714114  0.76516367  0.82510799  1
  Bi  Bi106  1  0.89412484  0.58023933  0.42277786  1
  Bi  Bi107  1  0.67307890  0.10315731  0.96662986  1
  Bi  Bi108  1  0.07735695  0.42937222  0.20021727  1
  Bi  Bi109  1  0.80110172  0.46435438  0.76386394  1
  Bi  Bi110  1  0.23293312  0.74144248  0.74400046  1
  Bi  Bi111  1  0.52665834  0.00076150  0.31818677  1
  Bi  Bi112  1  -0.16438267  0.63210948  0.12106465  1
  Bi  Bi113  1  0.55770917  0.57016657  0.61438908  1
  Bi  Bi114  1  0.89105839  0.23524629  -0.05342714  1
  Bi  Bi115  1  0.42234818  0.09413922  0.61138153  1
  Bi  Bi116  1  0.06970169  0.37469150  0.47260969  1
  Bi  Bi117  1  0.65480321  0.11884459  0.66098918  1
  Bi  Bi118  1  0.93699628  0.27998520  0.64772645  1
  Bi  Bi119  1  0.58513694  0.40947582  0.11153020  1
  Bi  Bi120  1  0.13676217  0.70381356  0.14928541  1
  Bi  Bi121  1  0.35494897  0.40953196  0.66396118  1
  Bi  Bi122  1  0.60959692  0.65588961  0.93366415  1
  Bi  Bi123  1  0.74667774  0.13164224  0.30351006  1
  Bi  Bi124  1  0.17691180  0.04866799  0.66314777  1
  Bi  Bi125  1  0.66745500  0.34050477  0.36605385  1
  Bi  Bi126  1  0.37916863  0.32490270  0.30350635  1
  Bi  Bi127  1  0.05508219  0.58996741  0.90761870  1
