# generated using pymatgen
data_Ba51Fe51Bi26
_symmetry_space_group_name_H-M   'P 1'
_cell_length_a   16.09231374
_cell_length_b   17.34508814
_cell_length_c   15.84158922
_cell_angle_alpha   90.23426027
_cell_angle_beta   91.06510945
_cell_angle_gamma   88.63709251
_symmetry_Int_Tables_number   1
_chemical_formula_structural   Ba51Fe51Bi26
_chemical_formula_sum   'Ba51 Fe51 Bi26'
_cell_volume   4419.70145423
_cell_formula_units_Z   1
loop_
 _symmetry_equiv_pos_site_id
 _symmetry_equiv_pos_as_xyz
  1  'x, y, z'
loop_
 _atom_site_type_symbol
 _atom_site_label
 _atom_site_symmetry_multiplicity
 _atom_site_fract_x
 _atom_site_fract_y
 _atom_site_fract_z
 _atom_site_occupancy
  Ba  Ba0  1  0.54020853  0.02015585  0.78104299  1
  Ba  Ba1  1  0.23971707  0.05921763  0.07780958  1
  Ba  Ba2  1  0.09771524  0.42036795  0.05990803  1
  Ba  Ba3  1  0.18289416  0.79439771  -0.10600594  1
  Ba  Ba4  1  0.27193008  0.10417535  0.68914178  1
  Ba  Ba5  1  0.58514635  0.46609429  0.75869505  1
  Ba  Ba6  1  0.36242029  0.34365309  0.81913135  1
  Ba  Ba7  1  0.67719169  0.28939384  0.30892218  1
  Ba  Ba8  1  0.24344347  0.52663057  0.22748919  1
  Ba  Ba9  1  0.49495292  0.23621339  0.11113814  1
  Ba  Ba10  1  0.78647780  0.34298037  0.63378835  1
  Ba  Ba11  1  0.13739027  0.22149168  -0.07625427  1
  Ba  Ba12  1  -0.10539025  0.54543456  0.00232702  1
  Ba  Ba13  1  0.00303517  0.77830050  0.04993430  1
  Ba  Ba14  1  0.38031966  -0.05823548  -0.06521256  1
  Ba  Ba15  1  0.70814569  0.14133065  0.48825339  1
  Ba  Ba16  1  0.72828696  0.49187693  0.22593869  1
  Ba  Ba17  1  0.57718513  0.82791976  0.27932090  1
  Ba  Ba18  1  0.27758234  0.55463309  0.93398572  1
  Ba  Ba19  1  0.00714864  0.29000059  0.73172658  1
  Ba  Ba20  1  0.82867745  -0.09442186  0.38529637  1
  Ba  Ba21  1  0.64078720  0.48849903  0.51225119  1
  Ba  Ba22  1  0.46842564  0.73311508  0.76345039  1
  Ba  Ba23  1  -0.03412979  0.03425542  0.67609178  1
  Ba  Ba24  1  0.77109104  0.15557510  0.79623490  1
  Ba  Ba25  1  0.47037965  0.59449374  0.29241141  1
  Ba  Ba26  1  0.15399594  0.55210025  0.70117598  1
  Ba  Ba27  1  0.70456042  0.79597357  0.56457834  1
  Ba  Ba28  1  0.13452076  0.86418585  0.66070581  1
  Ba  Ba29  1  0.61504511  0.01156220  0.04847798  1
  Ba  Ba30  1  0.48337104  0.67502746  0.53010037  1
  Ba  Ba31  1  0.27415072  0.02632645  0.33819423  1
  Ba  Ba32  1  0.78592903  -0.09788731  0.83630271  1
  Ba  Ba33  1  0.88541040  0.17774011  0.26067604  1
  Ba  Ba34  1  0.05082613  0.47505861  0.40006721  1
  Ba  Ba35  1  0.01386341  0.00726214  0.21856859  1
  Ba  Ba36  1  0.82834575  0.69707317  0.22644296  1
  Ba  Ba37  1  0.18143480  0.30226839  0.52041750  1
  Ba  Ba38  1  0.08205396  0.72744972  0.47105287  1
  Ba  Ba39  1  0.54714134  0.06279133  0.31045773  1
  Ba  Ba40  1  0.68032480  0.67267563  -0.07042925  1
  Ba  Ba41  1  0.74232119  0.28081640  0.02530287  1
  Ba  Ba42  1  0.26707922  0.27703980  0.24714428  1
  Ba  Ba43  1  0.85763027  0.60959481  0.50157047  1
  Ba  Ba44  1  0.53944141  0.22549765  0.66755434  1
  Ba  Ba45  1  -0.09274006  0.71127351  0.75133620  1
  Ba  Ba46  1  0.51734687  0.48001663  0.05010302  1
  Ba  Ba47  1  0.32650350  0.50490172  0.51219289  1
  Ba  Ba48  1  0.24777771  0.83340763  0.23412429  1
  Ba  Ba49  1  0.43538380  0.75114312  0.05994158  1
  Ba  Ba50  1  0.40057957  0.15576308  0.48279842  1
  Fe  Fe51  1  0.37512820  0.84624153  0.42901821  1
  Fe  Fe52  1  0.49549630  0.42047711  0.40934227  1
  Fe  Fe53  1  0.37923046  0.41914684  0.33023311  1
  Fe  Fe54  1  0.93725668  0.32958071  0.13893005  1
  Fe  Fe55  1  0.45726697  -0.03446260  0.46767708  1
  Fe  Fe56  1  0.10136768  0.91119481  0.38682292  1
  Fe  Fe57  1  0.90586334  0.36157837  0.27360149  1
  Fe  Fe58  1  0.40981108  0.16472562  0.83657919  1
  Fe  Fe59  1  0.43914136  0.11888337  0.96289003  1
  Fe  Fe60  1  0.61628273  -0.04288481  0.47636256  1
  Fe  Fe61  1  0.82134009  0.51624858  0.68521634  1
  Fe  Fe62  1  0.55388911  0.04477517  0.55725633  1
  Fe  Fe63  1  0.13528326  0.68441036  0.26354573  1
  Fe  Fe64  1  0.92790902  0.16878185  0.92451065  1
  Fe  Fe65  1  0.41553406  0.39180476  1.19950373  1
  Fe  Fe66  1  1.01262508  0.63962657  0.29048514  1
  Fe  Fe67  1  0.37726708  0.33062817  0.43386703  1
  Fe  Fe68  1  0.45969458  0.35874133  0.54102971  1
  Fe  Fe69  1  0.07955367  0.96637637  -0.00950693  1
  Fe  Fe70  1  0.04358883  0.32219507  0.25231132  1
  Fe  Fe71  1  0.53290460  0.29495522  0.44880642  1
  Fe  Fe72  1  0.96164208  0.32511549  0.53119389  1
  Fe  Fe73  1  0.29957759  1.11328111  0.89065775  1
  Fe  Fe74  1  0.68977222  0.14561538  0.17336025  1
  Fe  Fe75  1  0.52737275  0.41110048  0.27128532  1
  Fe  Fe76  1  0.02749392  0.06621829  0.88513465  1
  Fe  Fe77  1  1.06106408  0.61774969  0.16262470  1
  Fe  Fe78  1  0.46445502  0.29839393  0.31498831  1
  Fe  Fe79  1  0.00595801  0.09068173  0.02993242  1
  Fe  Fe80  1  0.43248589  0.85346426  0.57779104  1
  Fe  Fe81  1  0.84911785  0.43038804  0.81569253  1
  Fe  Fe82  1  0.93681838  0.21499958  0.06175841  1
  Fe  Fe83  1  0.90409908  0.19811676  0.58027030  1
  Fe  Fe84  1  0.74053449  1.04890253  0.23392186  1
  Fe  Fe85  1  0.52566366  0.85282627  0.47010229  1
  Fe  Fe86  1  0.31638327  0.94265804  0.53552916  1
  Fe  Fe87  1  0.22020091  0.86649681  0.45252598  1
  Fe  Fe88  1  0.43181723  -0.00256821  0.60852002  1
  Fe  Fe89  1  -0.00335685  0.45362047  0.84562815  1
  Fe  Fe90  1  -0.13149606  0.24778470  0.45222693  1
  Fe  Fe91  1  0.30254496  0.79534333  0.54706166  1
  Fe  Fe92  1  0.01608030  0.20045207  0.50142049  1
  Fe  Fe93  1  0.33964271  0.21196263  -0.02763686  1
  Fe  Fe94  1  0.00467240  0.93032108  0.87520315  1
  Fe  Fe95  1  0.94019760  0.53862749  0.76500402  1
  Fe  Fe96  1  -0.01119690  0.29969638  0.38738850  1
  Fe  Fe97  1  0.94345179  0.96725767  0.00987366  1
  Fe  Fe98  1  1.01524328  0.93927765  0.48354074  1
  Fe  Fe99  1  0.89683911  1.03921611  0.90307864  1
  Fe  Fe100  1  0.79347766  0.55118173  0.81436009  1
  Fe  Fe101  1  0.55643751  0.91636063  0.60480563  1
  Bi  Bi102  1  0.71104021  -0.00363297  0.63850527  1
  Bi  Bi103  1  0.15793014  0.01766790  0.52063693  1
  Bi  Bi104  1  0.08853625  0.20529959  0.13665433  1
  Bi  Bi105  1  0.34365658  -0.10111403  0.71467976  1
  Bi  Bi106  1  -0.17098749  0.40493914  0.42163738  1
  Bi  Bi107  1  0.28914673  0.69703498  0.39840757  1
  Bi  Bi108  1  -0.17617478  0.08308077  0.05915329  1
  Bi  Bi109  1  -0.04841044  0.50317877  0.20816608  1
  Bi  Bi110  1  0.70972417  0.46667076  -0.06343143  1
  Bi  Bi111  1  0.17752396  0.00054934  -0.14910829  1
  Bi  Bi112  1  0.01326813  0.80585402  0.27428168  1
  Bi  Bi113  1  0.68814287  0.63121573  0.69092185  1
  Bi  Bi114  1  -0.06409063  0.33188454  -0.05921975  1
  Bi  Bi115  1  0.05923088  0.60872081  0.88395173  1
  Bi  Bi116  1  0.56757994  0.21205931  0.89403018  1
  Bi  Bi117  1  0.91540834  0.07683254  0.45711775  1
  Bi  Bi118  1  0.10540608  0.18208720  0.35074350  1
  Bi  Bi119  1  0.97888124  0.46444061  0.61666767  1
  Bi  Bi120  1  0.92342304  0.83828643  0.58156918  1
  Bi  Bi121  1  0.66994544  0.65732909  0.38468446  1
  Bi  Bi122  1  0.37953120  0.54469734  0.72722971  1
  Bi  Bi123  1  0.20523382  0.68552425  0.09210564  1
  Bi  Bi124  1  0.32115284  0.36730193  1.04533809  1
  Bi  Bi125  1  0.61530503  0.65613555  0.14141470  1
  Bi  Bi126  1  0.42303011  0.94790126  0.16403401  1
  Bi  Bi127  1  0.57980868  0.85187780  0.90842882  1
