# generated using pymatgen
data_Ba51Fe51Bi26
_symmetry_space_group_name_H-M   'P 1'
_cell_length_a   16.54252377
_cell_length_b   15.99797925
_cell_length_c   16.51346342
_cell_angle_alpha   89.82313128
_cell_angle_beta   88.50864480
_cell_angle_gamma   87.82545553
_symmetry_Int_Tables_number   1
_chemical_formula_structural   Ba51Fe51Bi26
_chemical_formula_sum   'Ba51 Fe51 Bi26'
_cell_volume   4365.60169672
_cell_formula_units_Z   1
loop_
 _symmetry_equiv_pos_site_id
 _symmetry_equiv_pos_as_xyz
  1  'x, y, z'
loop_
 _atom_site_type_symbol
 _atom_site_label
 _atom_site_symmetry_multiplicity
 _atom_site_fract_x
 _atom_site_fract_y
 _atom_site_fract_z
 _atom_site_occupancy
  Ba  Ba0  1  0.53154487  0.72691505  0.57729806  1
  Ba  Ba1  1  0.75813721  0.77692357  0.49028477  1
  Ba  Ba2  1  0.26736394  0.59387498  0.25875056  1
  Ba  Ba3  1  0.68608199  0.07343948  0.54282473  1
  Ba  Ba4  1  0.06047858  0.82071420  -0.02362974  1
  Ba  Ba5  1  -0.05256114  0.60683989  0.00205574  1
  Ba  Ba6  1  0.75218026  0.87170410  0.71776031  1
  Ba  Ba7  1  0.01851568  0.67507666  0.23485189  1
  Ba  Ba8  1  0.12586308  0.15852448  0.25785825  1
  Ba  Ba9  1  0.53557317  0.50760607  -0.06737561  1
  Ba  Ba10  1  0.20252334  0.49800742  -0.00440564  1
  Ba  Ba11  1  0.03745659  -0.08330248  0.34765948  1
  Ba  Ba12  1  0.15800347  0.39707121  0.31679718  1
  Ba  Ba13  1  -0.00452838  0.05598642  0.05120003  1
  Ba  Ba14  1  0.92436228  0.56904215  0.71928379  1
  Ba  Ba15  1  -0.01247674  0.12819425  0.50644964  1
  Ba  Ba16  1  0.33831777  0.53877366  0.75047977  1
  Ba  Ba17  1  -0.02881795  0.44386477  0.48308475  1
  Ba  Ba18  1  0.71141986  -0.03530449  0.26524223  1
  Ba  Ba19  1  0.25214122  0.73262871  0.09104332  1
  Ba  Ba20  1  0.32260274  0.24429503  0.64805386  1
  Ba  Ba21  1  0.15154873  0.35532965  0.79519600  1
  Ba  Ba22  1  0.53744784  0.77968897  0.83552262  1
  Ba  Ba23  1  0.71037583  0.50066800  0.12641906  1
  Ba  Ba24  1  0.40484018  0.33304976  0.06911089  1
  Ba  Ba25  1  0.49524852  0.49016133  0.50115964  1
  Ba  Ba26  1  0.46644560  -0.02412915  0.26457701  1
  Ba  Ba27  1  0.27133108  -0.03775132  0.73647078  1
  Ba  Ba28  1  -0.01820099  -0.02282616  0.77007018  1
  Ba  Ba29  1  0.51544227  0.65235716  0.23485489  1
  Ba  Ba30  1  -0.17207084  0.37410989  -0.07674848  1
  Ba  Ba31  1  0.13649469  0.74818333  0.72576240  1
  Ba  Ba32  1  0.50986400  0.87397529  0.06948035  1
  Ba  Ba33  1  -0.02982420  0.20250433  0.85620473  1
  Ba  Ba34  1  0.60870647  0.24046870  -0.01235139  1
  Ba  Ba35  1  0.26540875  -0.03150586  0.09381780  1
  Ba  Ba36  1  0.21347978  0.02294441  0.52048654  1
  Ba  Ba37  1  0.79930673  0.34335448  0.62966862  1
  Ba  Ba38  1  0.78673027  0.89356968  -0.01007545  1
  Ba  Ba39  1  0.35484545  0.20858781  0.24541413  1
  Ba  Ba40  1  -0.12793233  0.12576737  0.23535712  1
  Ba  Ba41  1  0.72437507  0.30145689  0.34337945  1
  Ba  Ba42  1  0.76597887  0.54099770  0.37883820  1
  Ba  Ba43  1  0.58579126  0.03818404  -0.09573779  1
  Ba  Ba44  1  0.76350088  0.73285191  0.20243349  1
  Ba  Ba45  1  0.73777428  0.63697975  -0.14662894  1
  Ba  Ba46  1  0.46982445  0.24269954  0.44608825  1
  Ba  Ba47  1  0.45538610  -0.04798094  0.49022201  1
  Ba  Ba48  1  0.56763010  0.34182892  0.72983125  1
  Ba  Ba49  1  0.01568967  0.67792629  0.50434429  1
  Ba  Ba50  1  0.27309379  0.16207192  0.92360437  1
  Fe  Fe51  1  0.45548148  0.18848618  0.81060858  1
  Fe  Fe52  1  0.36609460  0.64207713  0.92875845  1
  Fe  Fe53  1  1.04617429  0.38686308  0.64062728  1
  Fe  Fe54  1  0.24362764  0.70698115  0.90141130  1
  Fe  Fe55  1  0.59731642  1.05925194  0.11512415  1
  Fe  Fe56  1  0.96926719  0.45071381  0.27088916  1
  Fe  Fe57  1  0.20781430  0.82892462  0.25984357  1
  Fe  Fe58  1  0.65848473  1.05192072  0.73177591  1
  Fe  Fe59  1  0.71481834  0.10814930  0.11347343  1
  Fe  Fe60  1  0.87830802  0.36786543  0.21150153  1
  Fe  Fe61  1  0.45609059  0.69039525  0.01073209  1
  Fe  Fe62  1  0.50640813  0.45076325  0.18319259  1
  Fe  Fe63  1  0.92835689  0.82098092  0.64642172  1
  Fe  Fe64  1  0.68831051  0.18085976  0.71697551  1
  Fe  Fe65  1  0.02633226  0.48058448  0.14494608  1
  Fe  Fe66  1  0.54541826  0.13157226  0.70444252  1
  Fe  Fe67  1  0.71511429  0.65506844  0.65838407  1
  Fe  Fe68  1  0.28399009  0.48292651  0.57911339  1
  Fe  Fe69  1  0.51641270  0.32061598  0.27015799  1
  Fe  Fe70  1  0.33316840  0.79294150  0.28210265  1
  Fe  Fe71  1  0.26108018  0.63758924  0.55709208  1
  Fe  Fe72  1  0.31590611  0.53722703  0.44357957  1
  Fe  Fe73  1  0.91970387  0.86052259  0.51884972  1
  Fe  Fe74  1  0.67304134  0.53470709  0.57279384  1
  Fe  Fe75  1  0.03353348  0.38202086  1.02407099  1
  Fe  Fe76  1  0.33943314  0.10327186  0.40270085  1
  Fe  Fe77  1  0.88819814  0.52773153  0.20027248  1
  Fe  Fe78  1  0.72190144  0.51868948  0.69547885  1
  Fe  Fe79  1  0.95824357  0.36354051  0.73647194  1
  Fe  Fe80  1  0.22095250  0.65999819  0.42692678  1
  Fe  Fe81  1  0.10783106  0.26573117  0.59009234  1
  Fe  Fe82  1  0.36723201  0.78957209  0.94663646  1
  Fe  Fe83  1  0.57718831  0.43941335  0.29573535  1
  Fe  Fe84  1  0.29263548  0.39638133  0.46950937  1
  Fe  Fe85  1  0.91156822  0.43168363  0.09392709  1
  Fe  Fe86  1  0.05166261  0.24652012  1.04465410  1
  Fe  Fe87  1  0.60256902  0.34051444  0.17239349  1
  Fe  Fe88  1  0.15012398  0.75665936  0.35626353  1
  Fe  Fe89  1  0.75074435  0.20934924  0.82868380  1
  Fe  Fe90  1  0.98964070  0.25087554  0.66640495  1
  Fe  Fe91  1  0.17991193  0.52252046  0.48050818  1
  Fe  Fe92  1  0.79808926  0.57909470  0.57448834  1
  Fe  Fe93  1  0.43715856  0.06551439  0.76901455  1
  Fe  Fe94  1  -0.07327356  0.28162024  0.08073939  1
  Fe  Fe95  1  0.76435395  1.07391455  0.80739746  1
  Fe  Fe96  1  0.88639364  -0.03704298  0.59646620  1
  Fe  Fe97  1  0.26708687  0.81858015  0.40392977  1
  Fe  Fe98  1  0.25077420  0.84454075  0.90069299  1
  Fe  Fe99  1  0.02164140  0.33299861  0.17269795  1
  Fe  Fe100  1  0.17189185  0.38808954  0.55246658  1
  Fe  Fe101  1  0.17912279  0.77265814  0.50741561  1
  Bi  Bi102  1  -0.03951815  0.28773382  0.34030367  1
  Bi  Bi103  1  0.85048250  0.12736067  0.67585298  1
  Bi  Bi104  1  0.19083722  0.30574848  0.10408119  1
  Bi  Bi105  1  0.06516447  -0.10506096  0.57889439  1
  Bi  Bi106  1  0.25980582  -0.01566729  0.31397133  1
  Bi  Bi107  1  0.38815397  0.42019057  0.32632170  1
  Bi  Bi108  1  0.76262109  0.28529652  0.12504096  1
  Bi  Bi109  1  0.56044169  0.56770632  0.72256690  1
  Bi  Bi110  1  0.13045380  0.53922004  0.65103360  1
  Bi  Bi111  1  0.38587983  -0.04262909  0.90612034  1
  Bi  Bi112  1  0.39129609  0.68633407  0.41248376  1
  Bi  Bi113  1  0.80329583  0.11409306  -0.03615922  1
  Bi  Bi114  1  0.34419841  0.75100286  0.77762135  1
  Bi  Bi115  1  0.84588630  -0.01521609  0.42654090  1
  Bi  Bi116  1  0.62759195  0.68999851  0.03393894  1
  Bi  Bi117  1  0.43979635  0.10360505  0.07061831  1
  Bi  Bi118  1  0.31765436  0.81391636  0.57553596  1
  Bi  Bi119  1  0.23048329  0.23363147  0.45110480  1
  Bi  Bi120  1  0.59005313  0.16375281  0.25114832  1
  Bi  Bi121  1  0.54223988  0.94588817  0.68354576  1
  Bi  Bi122  1  0.39088524  0.55168383  0.08492511  1
  Bi  Bi123  1  0.13184698  0.14278325  0.70984137  1
  Bi  Bi124  1  0.92123734  0.87713009  0.15661943  1
  Bi  Bi125  1  0.91955127  0.76738071  0.82297494  1
  Bi  Bi126  1  0.59625375  0.81150893  0.36181511  1
  Bi  Bi127  1  0.37736401  0.34378002  0.85208213  1
