# generated using pymatgen
data_Ba51Fe51Bi26
_symmetry_space_group_name_H-M   'P 1'
_cell_length_a   15.90169225
_cell_length_b   17.05976596
_cell_length_c   16.34232906
_cell_angle_alpha   93.11648203
_cell_angle_beta   88.05058154
_cell_angle_gamma   88.66506005
_symmetry_Int_Tables_number   1
_chemical_formula_structural   Ba51Fe51Bi26
_chemical_formula_sum   'Ba51 Fe51 Bi26'
_cell_volume   4422.80972132
_cell_formula_units_Z   1
loop_
 _symmetry_equiv_pos_site_id
 _symmetry_equiv_pos_as_xyz
  1  'x, y, z'
loop_
 _atom_site_type_symbol
 _atom_site_label
 _atom_site_symmetry_multiplicity
 _atom_site_fract_x
 _atom_site_fract_y
 _atom_site_fract_z
 _atom_site_occupancy
  Ba  Ba0  1  0.83568989  0.47325192  0.81460540  1
  Ba  Ba1  1  -0.04983621  0.59432569  0.24313220  1
  Ba  Ba2  1  0.32137996  0.32850738  0.22062570  1
  Ba  Ba3  1  0.14456991  0.58987444  0.84716043  1
  Ba  Ba4  1  0.60822862  0.44195980  0.62599859  1
  Ba  Ba5  1  0.48391680  0.09142137  0.61147237  1
  Ba  Ba6  1  -0.02479623  0.74079927  0.75328940  1
  Ba  Ba7  1  0.73532212  0.74680557  0.56325182  1
  Ba  Ba8  1  0.57591227  0.07092615  0.06248016  1
  Ba  Ba9  1  0.43490074  0.75395500  0.48123198  1
  Ba  Ba10  1  0.16467715  0.25901403  0.01292105  1
  Ba  Ba11  1  0.10106973  0.03506331  -0.04623020  1
  Ba  Ba12  1  0.24343867  0.46523936  0.64873676  1
  Ba  Ba13  1  0.85862887  -0.03280027  -0.07006781  1
  Ba  Ba14  1  -0.05859094  -0.01521793  0.21165975  1
  Ba  Ba15  1  0.34248789  -0.06519680  0.07399716  1
  Ba  Ba16  1  0.44042035  0.23585978  -0.00607104  1
  Ba  Ba17  1  0.42902166  0.40528752  -0.17449742  1
  Ba  Ba18  1  0.74477381  -0.05091716  0.48127956  1
  Ba  Ba19  1  0.67808300  0.60082932  0.02865613  1
  Ba  Ba20  1  0.48939867  0.27866009  0.39945741  1
  Ba  Ba21  1  0.47051883  0.74065281  0.16495908  1
  Ba  Ba22  1  -0.11400679  0.35586912  0.57227743  1
  Ba  Ba23  1  0.23543504  0.63676664  0.46671784  1
  Ba  Ba24  1  0.75625850  0.19282802  0.30575994  1
  Ba  Ba25  1  0.44185951  0.67953266  -0.07709476  1
  Ba  Ba26  1  0.27339591  0.49393672  0.02188275  1
  Ba  Ba27  1  0.10731031  0.44805103  0.41457203  1
  Ba  Ba28  1  0.64751275  -0.03715181  0.22897364  1
  Ba  Ba29  1  0.41401544  -0.03319045  0.41462955  1
  Ba  Ba30  1  0.74217347  0.28113703  -0.01471357  1
  Ba  Ba31  1  0.74060500  0.70887665  -0.18931150  1
  Ba  Ba32  1  0.02811475  0.09977102  0.52405088  1
  Ba  Ba33  1  0.26000942  0.59104620  0.23505896  1
  Ba  Ba34  1  0.61004901  -0.07620952  0.81587590  1
  Ba  Ba35  1  0.68506043  0.21058625  0.56239636  1
  Ba  Ba36  1  0.68932313  0.67201287  0.31427021  1
  Ba  Ba37  1  0.19903390  -0.01832297  0.29604084  1
  Ba  Ba38  1  -0.04745521  0.26314329  0.15281544  1
  Ba  Ba39  1  0.21360673  0.80031644  -0.08243700  1
  Ba  Ba40  1  0.52096401  0.49276911  0.33500552  1
  Ba  Ba41  1  0.00155445  0.83837088  0.53990711  1
  Ba  Ba42  1  0.20403699  0.75991551  0.66966391  1
  Ba  Ba43  1  0.74221893  0.41823641  0.22607991  1
  Ba  Ba44  1  0.00058541  0.47024178  0.01589295  1
  Ba  Ba45  1  0.24836451  0.22201020  0.72188885  1
  Ba  Ba46  1  0.08623860  0.77819199  0.29355729  1
  Ba  Ba47  1  0.32625415  -0.02936382  0.74693542  1
  Ba  Ba48  1  -0.03325996  0.74306838  0.02127105  1
  Ba  Ba49  1  0.51451935  0.71682169  0.69812821  1
  Ba  Ba50  1  0.85475551  0.10432228  0.73433684  1
  Fe  Fe51  1  0.06219511  0.22867920  0.82104103  1
  Fe  Fe52  1  0.56477877  0.27590938  0.71951795  1
  Fe  Fe53  1  1.00301646  0.93980740  0.71831641  1
  Fe  Fe54  1  0.92422803  0.65728396  0.58131010  1
  Fe  Fe55  1  0.14342338  0.94536974  0.63648433  1
  Fe  Fe56  1  0.11202808  0.28509069  0.28409422  1
  Fe  Fe57  1  0.03719720  0.36114526  0.74558223  1
  Fe  Fe58  1  0.11704144  0.91414631  0.77519193  1
  Fe  Fe59  1  0.23601197  0.28639920  0.39138940  1
  Fe  Fe60  1  0.34805266  0.62802414  0.63509880  1
  Fe  Fe61  1  0.51747149  0.11787560  0.83644617  1
  Fe  Fe62  1  0.21729827  0.83015190  0.46539783  1
  Fe  Fe63  1  0.51460836  0.12029234  0.26763085  1
  Fe  Fe64  1  0.56272405  0.86613519  1.05051340  1
  Fe  Fe65  1  0.96550601  0.28700366  0.35345422  1
  Fe  Fe66  1  0.16306834  0.94755456  0.49144611  1
  Fe  Fe67  1  0.58729823  0.24690370  0.85313788  1
  Fe  Fe68  1  0.66944993  0.79185819  0.12496107  1
  Fe  Fe69  1  0.16196273  0.17027093  0.33821832  1
  Fe  Fe70  1  0.31299943  0.11757450  0.15942335  1
  Fe  Fe71  1  0.27907215  0.31704557  0.52354301  1
  Fe  Fe72  1  0.15269659  0.69132857  0.08576015  1
  Fe  Fe73  1  0.91033267  0.28244619  0.79210909  1
  Fe  Fe74  1  0.42913811  0.54755689  0.55632541  1
  Fe  Fe75  1  1.00043784  0.33711696  0.87971928  1
  Fe  Fe76  1  0.77153311  0.82147297  0.24426743  1
  Fe  Fe77  1  0.33422831  0.60701267  0.76580074  1
  Fe  Fe78  1  0.25251674  0.77424625  0.14510286  1
  Fe  Fe79  1  0.19745863  0.19344298  0.48717984  1
  Fe  Fe80  1  0.28382934  0.68207902  0.05190894  1
  Fe  Fe81  1  0.43302079  0.17572225  0.18052791  1
  Fe  Fe82  1  0.27616404  0.89862042  0.56362107  1
  Fe  Fe83  1  0.81162272  0.85967632  0.11117213  1
  Fe  Fe84  1  0.41363675  0.04176485  0.21846269  1
  Fe  Fe85  1  0.45728133  0.21343504  0.77185647  1
  Fe  Fe86  1  0.61764565  0.15308072  0.74328983  1
  Fe  Fe87  1  0.00293596  0.65056020  0.44691377  1
  Fe  Fe88  1  0.61893734  0.77346537  0.97420673  1
  Fe  Fe89  1  0.75185536  0.52583591  0.45913808  1
  Fe  Fe90  1  0.85776207  0.61100565  0.44674406  1
  Fe  Fe91  1  0.00893600  0.23186111  0.69681805  1
  Fe  Fe92  1  -0.05384857  0.53236937  0.52153328  1
  Fe  Fe93  1  0.89584401  0.78447404  0.20749474  1
  Fe  Fe94  1  0.44379229  0.54699779  0.70551204  1
  Fe  Fe95  1  0.33895088  0.19837796  0.50011951  1
  Fe  Fe96  1  0.79983185  0.71620330  0.13627807  1
  Fe  Fe97  1  0.69562957  0.89189291  0.01833161  1
  Fe  Fe98  1  0.76113841  0.77534188  1.00349373  1
  Fe  Fe99  1  0.06012167  0.62588785  0.56660246  1
  Fe  Fe100  1  1.07836233  0.25777628  0.42734845  1
  Fe  Fe101  1  1.01851762  0.16960706  0.31501679  1
  Bi  Bi102  1  0.87341172  0.76911253  0.37782655  1
  Bi  Bi103  1  0.73537035  0.29746935  0.75560721  1
  Bi  Bi104  1  -0.10733894  0.44602310  0.37585163  1
  Bi  Bi105  1  0.42832989  0.29872449  0.62034162  1
  Bi  Bi106  1  0.32982083  0.44347336  0.42679762  1
  Bi  Bi107  1  0.79592489  0.55974433  0.62619160  1
  Bi  Bi108  1  0.30698935  0.79084015  0.31137968  1
  Bi  Bi109  1  0.26120383  0.06412393  0.56585814  1
  Bi  Bi110  1  0.12878755  0.13115039  0.17051557  1
  Bi  Bi111  1  0.10656615  0.31040663  0.58596802  1
  Bi  Bi112  1  0.08853729  0.07928926  0.74042972  1
  Bi  Bi113  1  0.33500596  0.14577477  0.33505353  1
  Bi  Bi114  1  0.17400031  0.38872104  0.85642617  1
  Bi  Bi115  1  0.68602203  0.10467398  0.88444132  1
  Bi  Bi116  1  0.80031707  0.10486409  0.10806366  1
  Bi  Bi117  1  0.94481414  0.19222899  0.93936615  1
  Bi  Bi118  1  0.55093734  0.89382733  0.60097889  1
  Bi  Bi119  1  0.59958774  0.08562955  0.40951775  1
  Bi  Bi120  1  0.83047652  0.89342423  0.70802043  1
  Bi  Bi121  1  1.01488032  0.52298755  0.68406144  1
  Bi  Bi122  1  0.57087299  0.27274999  0.18185657  1
  Bi  Bi123  1  0.12313172  0.42074545  0.17903145  1
  Bi  Bi124  1  0.58571435  0.60586530  0.50073239  1
  Bi  Bi125  1  0.12172441  0.87638666  0.10245945  1
  Bi  Bi126  1  0.58972605  0.55301501  0.81809364  1
  Bi  Bi127  1  0.68769561  0.37168411  0.42779539  1
