# generated using pymatgen
data_Ba51Fe51Bi26
_symmetry_space_group_name_H-M   'P 1'
_cell_length_a   16.60282677
_cell_length_b   16.73859302
_cell_length_c   16.03917111
_cell_angle_alpha   92.02147055
_cell_angle_beta   91.49470715
_cell_angle_gamma   94.22433865
_symmetry_Int_Tables_number   1
_chemical_formula_structural   Ba51Fe51Bi26
_chemical_formula_sum   'Ba51 Fe51 Bi26'
_cell_volume   4440.69725682
_cell_formula_units_Z   1
loop_
 _symmetry_equiv_pos_site_id
 _symmetry_equiv_pos_as_xyz
  1  'x, y, z'
loop_
 _atom_site_type_symbol
 _atom_site_label
 _atom_site_symmetry_multiplicity
 _atom_site_fract_x
 _atom_site_fract_y
 _atom_site_fract_z
 _atom_site_occupancy
  Ba  Ba0  1  0.68277143  0.53883017  -0.05566857  1
  Ba  Ba1  1  0.10821514  0.59741902  0.45687368  1
  Ba  Ba2  1  0.78215232  -0.02792152  0.43470452  1
  Ba  Ba3  1  -0.07562006  0.86055884  0.85643889  1
  Ba  Ba4  1  0.77457729  0.02236048  0.79820990  1
  Ba  Ba5  1  0.54837089  0.52031820  0.66273928  1
  Ba  Ba6  1  0.14268463  0.49953481  -0.11108633  1
  Ba  Ba7  1  0.18916014  -0.03503936  0.72397419  1
  Ba  Ba8  1  0.17869349  0.50725798  0.19179825  1
  Ba  Ba9  1  0.06994413  -0.01686725  0.46929740  1
  Ba  Ba10  1  0.37447119  0.47433955  -0.02450820  1
  Ba  Ba11  1  0.13630796  0.72053297  0.79715065  1
  Ba  Ba12  1  0.54138000  0.74318858  0.03970132  1
  Ba  Ba13  1  -0.06424330  -0.01142357  0.25400792  1
  Ba  Ba14  1  -0.06526350  0.52544144  0.71150266  1
  Ba  Ba15  1  0.74475932  0.46492625  0.54770858  1
  Ba  Ba16  1  0.68655524  0.38995714  0.20014361  1
  Ba  Ba17  1  0.42497764  0.20283212  -0.02803568  1
  Ba  Ba18  1  0.27968982  0.77171301  0.51379699  1
  Ba  Ba19  1  0.20578290  0.12526403  -0.10679058  1
  Ba  Ba20  1  0.51614749  0.32994479  0.79630241  1
  Ba  Ba21  1  -0.04121765  0.80703540  0.59040218  1
  Ba  Ba22  1  0.55387785  0.14650945  0.59153190  1
  Ba  Ba23  1  -0.06013305  0.56447636  0.04606813  1
  Ba  Ba24  1  0.32551737  -0.01739842  0.06259319  1
  Ba  Ba25  1  0.43142432  0.45165412  0.24624851  1
  Ba  Ba26  1  0.69109153  0.69163887  0.51711959  1
  Ba  Ba27  1  0.72090076  0.28652889  -0.03749550  1
  Ba  Ba28  1  0.35256119  0.02096684  0.55389629  1
  Ba  Ba29  1  0.15510774  0.22480380  0.50484524  1
  Ba  Ba30  1  0.80582023  0.20975769  0.58026484  1
  Ba  Ba31  1  0.58711269  0.31704514  0.42530380  1
  Ba  Ba32  1  0.31885961  0.59866876  0.71508781  1
  Ba  Ba33  1  0.03172679  0.80106789  0.07996994  1
  Ba  Ba34  1  -0.04055484  0.38250427  0.48842205  1
  Ba  Ba35  1  0.33234936  0.44306083  0.49786417  1
  Ba  Ba36  1  0.71761614  0.71367123  0.21459959  1
  Ba  Ba37  1  0.55846873  0.01896825  0.29827759  1
  Ba  Ba38  1  0.45235198  0.21843365  0.21542553  1
  Ba  Ba39  1  0.27232621  0.01638331  0.31172087  1
  Ba  Ba40  1  -0.01572914  0.29986754  0.22250044  1
  Ba  Ba41  1  0.83445880  0.08954163  0.06028197  1
  Ba  Ba42  1  0.22190805  0.24744938  0.26326541  1
  Ba  Ba43  1  0.23398260  0.30333874  0.72918351  1
  Ba  Ba44  1  0.47220985  0.67756257  0.31629490  1
  Ba  Ba45  1  0.61585304  -0.02492083  0.00450373  1
  Ba  Ba46  1  -0.13475960  0.55183872  0.30172914  1
  Ba  Ba47  1  0.24051924  0.77403386  0.23294416  1
  Ba  Ba48  1  0.09335297  0.06544560  0.08166234  1
  Ba  Ba49  1  0.00035579  0.28703330  -0.10875547  1
  Ba  Ba50  1  0.53875326  -0.14003456  0.57437457  1
  Fe  Fe51  1  0.09025897  0.41637600  0.69463375  1
  Fe  Fe52  1  0.45724727  0.05192809  0.85911322  1
  Fe  Fe53  1  0.79507335  0.88979666  0.02634579  1
  Fe  Fe54  1  0.07917692  0.09988806  0.63695198  1
  Fe  Fe55  1  0.73518423  0.08943411  0.23844713  1
  Fe  Fe56  1  0.59934275  0.11430050  0.88237690  1
  Fe  Fe57  1  0.85225458  0.74445031  0.38939203  1
  Fe  Fe58  1  0.21546943  0.68210844  -0.00338716  1
  Fe  Fe59  1  0.88904688  0.99631523  0.62950259  1
  Fe  Fe60  1  0.44200883  0.15327881  0.41194918  1
  Fe  Fe61  1  0.38602193  0.28362358  0.39517223  1
  Fe  Fe62  1  0.75884580  0.77156285  0.77041944  1
  Fe  Fe63  1  0.35346658  0.77008218  0.01075355  1
  Fe  Fe64  1  0.22695910  0.80808980  0.02938694  1
  Fe  Fe65  1  0.52008950  0.52758458  0.45948911  1
  Fe  Fe66  1  0.26949952  0.34660551  0.10187865  1
  Fe  Fe67  1  0.40870795  0.74757297  0.85395987  1
  Fe  Fe68  1  0.40062897  0.24797920  0.52540035  1
  Fe  Fe69  1  0.76776494  0.15851679  0.37973094  1
  Fe  Fe70  1  0.13157468  0.25792303  0.07340276  1
  Fe  Fe71  1  -0.01952066  0.71795446  0.38993985  1
  Fe  Fe72  1  0.65523496  0.85140520  0.76589342  1
  Fe  Fe73  1  0.15049436  0.38222688  0.04226709  1
  Fe  Fe74  1  0.85295199  0.83760534  0.13223487  1
  Fe  Fe75  1  0.52148706  0.14137963  0.78254157  1
  Fe  Fe76  1  0.68058114  0.20456006  0.28823961  1
  Fe  Fe77  1  0.48253857  0.73651338  0.72531321  1
  Fe  Fe78  1  0.31625080  0.17062328  0.42599165  1
  Fe  Fe79  1  0.55527302  0.79841048  0.84636755  1
  Fe  Fe80  1  0.03949652  0.81797298  0.32300680  1
  Fe  Fe81  1  0.78981360  0.34488171  0.74699672  1
  Fe  Fe82  1  0.61573908  0.71631645  0.72354680  1
  Fe  Fe83  1  0.80909820  0.28242517  0.34069585  1
  Fe  Fe84  1  0.14652114  0.42600515  0.56473320  1
  Fe  Fe85  1  0.95682205  0.09680982  0.57432203  1
  Fe  Fe86  1  0.67039408  0.34414883  0.67666355  1
  Fe  Fe87  1  0.28313639  0.80380231  0.89300359  1
  Fe  Fe88  1  0.71472855  0.44365288  0.76864763  1
  Fe  Fe89  1  0.93455271  0.12202970  0.71717796  1
  Fe  Fe90  1  0.21967053  0.30914662  0.95704323  1
  Fe  Fe91  1  0.92991695  0.85480501  0.39311204  1
  Fe  Fe92  1  0.00090626  1.00550717  0.71037980  1
  Fe  Fe93  1  0.71458888  0.84036851  0.90590651  1
  Fe  Fe94  1  0.85328102  0.15745994  0.27256961  1
  Fe  Fe95  1  0.32206475  0.65624399  0.92240738  1
  Fe  Fe96  1  0.25708494  0.21944621  0.06543072  1
  Fe  Fe97  1  0.06680447  0.14358253  0.76082784  1
  Fe  Fe98  1  0.91367293  0.77536566  0.25594201  1
  Fe  Fe99  1  0.13622044  0.52887658  0.65087921  1
  Fe  Fe100  1  0.66501204  0.71339520  0.86153048  1
  Fe  Fe101  1  0.77941007  0.23102915  0.19522140  1
  Bi  Bi102  1  -0.01992179  0.07196762  0.88600933  1
  Bi  Bi103  1  0.44447124  0.64751516  0.53779431  1
  Bi  Bi104  1  0.73020766  -0.07205739  0.18984379  1
  Bi  Bi105  1  0.50316832  0.61886180  0.85145774  1
  Bi  Bi106  1  0.80910021  0.72607260  -0.00345363  1
  Bi  Bi107  1  0.76671430  0.87050976  0.63436988  1
  Bi  Bi108  1  0.04497144  0.65935819  0.23803572  1
  Bi  Bi109  1  0.74022610  0.60864624  0.73116068  1
  Bi  Bi110  1  0.56368346  -0.01450369  0.75556684  1
  Bi  Bi111  1  0.43546209  0.89762469  -0.08416106  1
  Bi  Bi112  1  0.63110713  0.16107410  0.12181314  1
  Bi  Bi113  1  0.01326740  0.26463737  0.66373922  1
  Bi  Bi114  1  0.68485882  0.20500936  0.76289075  1
  Bi  Bi115  1  0.36155101  0.14043243  0.74283274  1
  Bi  Bi116  1  0.85830018  0.43488141  0.88502246  1
  Bi  Bi117  1  0.14197903  0.40217599  0.38300437  1
  Bi  Bi118  1  0.54037211  0.37343935  0.03790040  1
  Bi  Bi119  1  0.90259117  0.61445747  0.50634074  1
  Bi  Bi120  1  0.64879140  0.52919537  0.36101818  1
  Bi  Bi121  1  0.33773708  0.63459147  0.10946832  1
  Bi  Bi122  1  0.56841358  0.55697852  0.12749972  1
  Bi  Bi123  1  0.94699363  0.16485854  0.41446785  1
  Bi  Bi124  1  0.61434618  0.83403507  0.36942594  1
  Bi  Bi125  1  0.33683447  0.82223456  0.71834969  1
  Bi  Bi126  1  0.14919842  0.90907817  0.92889264  1
  Bi  Bi127  1  0.40510024  0.87745901  0.37856647  1
