# generated using pymatgen
data_Ba51Fe51Bi26
_symmetry_space_group_name_H-M   'P 1'
_cell_length_a   17.15299299
_cell_length_b   15.64833477
_cell_length_c   16.66962526
_cell_angle_alpha   90.18955532
_cell_angle_beta   85.60564694
_cell_angle_gamma   85.28537857
_symmetry_Int_Tables_number   1
_chemical_formula_structural   Ba51Fe51Bi26
_chemical_formula_sum   'Ba51 Fe51 Bi26'
_cell_volume   4445.93448279
_cell_formula_units_Z   1
loop_
 _symmetry_equiv_pos_site_id
 _symmetry_equiv_pos_as_xyz
  1  'x, y, z'
loop_
 _atom_site_type_symbol
 _atom_site_label
 _atom_site_symmetry_multiplicity
 _atom_site_fract_x
 _atom_site_fract_y
 _atom_site_fract_z
 _atom_site_occupancy
  Ba  Ba0  1  0.32816816  0.82540697  -0.19762474  1
  Ba  Ba1  1  0.84590908  0.56513288  0.30560659  1
  Ba  Ba2  1  0.84160063  0.58447595  -0.09296470  1
  Ba  Ba3  1  0.09836556  -0.14212090  0.48774089  1
  Ba  Ba4  1  0.33971348  0.71279274  0.21278932  1
  Ba  Ba5  1  0.08506080  0.62011199  0.61744044  1
  Ba  Ba6  1  0.46136345  0.50226311  0.82436928  1
  Ba  Ba7  1  0.31978030  0.69634555  0.46413649  1
  Ba  Ba8  1  0.01869494  0.73890872  0.00894050  1
  Ba  Ba9  1  0.74481404  0.33464310  0.22804511  1
  Ba  Ba10  1  0.77750144  0.33172132  0.61604259  1
  Ba  Ba11  1  -0.01210107  0.01605756  0.02308689  1
  Ba  Ba12  1  0.28933064  0.17099793  0.63812924  1
  Ba  Ba13  1  0.50931723  -0.11678237  0.14014674  1
  Ba  Ba14  1  0.52974443  0.73459780  0.72200610  1
  Ba  Ba15  1  0.06383197  0.21928469  0.48077729  1
  Ba  Ba16  1  0.27767258  0.44145177  0.20411457  1
  Ba  Ba17  1  0.90729361  0.05246694  0.58661156  1
  Ba  Ba18  1  0.75597650  -0.00767284  0.13197950  1
  Ba  Ba19  1  0.18673390  0.22227880  0.21982752  1
  Ba  Ba20  1  0.69033183  0.55685842  0.72148099  1
  Ba  Ba21  1  0.36887727  0.05105526  0.27193187  1
  Ba  Ba22  1  0.31080806  -0.04387390  0.49970176  1
  Ba  Ba23  1  -0.04252998  0.47765219  0.49176873  1
  Ba  Ba24  1  0.51626696  0.00070691  0.63875180  1
  Ba  Ba25  1  0.10556277  0.19553909  0.78610531  1
  Ba  Ba26  1  0.22135493  0.49206652  0.76986063  1
  Ba  Ba27  1  -0.03789967  0.40389176  0.74962518  1
  Ba  Ba28  1  0.73353322  0.06745430  0.88285339  1
  Ba  Ba29  1  0.50644755  0.20155884  0.17450994  1
  Ba  Ba30  1  0.79872325  0.80813431  0.75648658  1
  Ba  Ba31  1  0.32555995  0.19096975  -0.03550520  1
  Ba  Ba32  1  0.78716841  0.11861364  0.37665756  1
  Ba  Ba33  1  0.67566353  0.78556637  -0.01037329  1
  Ba  Ba34  1  0.22320758  -0.01929793  0.08184799  1
  Ba  Ba35  1  -0.13066442  0.27613944  -0.03059861  1
  Ba  Ba36  1  0.40433770  0.38012127  0.62400469  1
  Ba  Ba37  1  0.58474568  -0.00800967  0.39482808  1
  Ba  Ba38  1  0.57927766  0.65646388  0.35934928  1
  Ba  Ba39  1  0.73899079  0.73494786  0.53346218  1
  Ba  Ba40  1  0.50491110  0.37540370  0.01883169  1
  Ba  Ba41  1  0.68143289  0.53234831  0.08744853  1
  Ba  Ba42  1  0.61382435  0.28102024  0.48695148  1
  Ba  Ba43  1  0.48778699  0.43217717  0.32125708  1
  Ba  Ba44  1  -0.01303819  -0.01238011  0.80235081  1
  Ba  Ba45  1  0.26647035  0.41607213  0.45771836  1
  Ba  Ba46  1  0.54682508  0.19767803  0.75234044  1
  Ba  Ba47  1  0.28419090  0.61267240  -0.01268221  1
  Ba  Ba48  1  0.07756994  0.41554130  -0.00995417  1
  Ba  Ba49  1  0.10195413  0.74881431  0.24915370  1
  Ba  Ba50  1  0.86730251  0.87443002  0.39230174  1
  Fe  Fe51  1  0.44676642  0.54451318  0.50610220  1
  Fe  Fe52  1  0.41457198  0.95772070  -0.05170701  1
  Fe  Fe53  1  0.67615691  0.11070887  0.58093260  1
  Fe  Fe54  1  0.59023976  0.60069327  0.55812455  1
  Fe  Fe55  1  0.14534060  0.87108072  0.71608046  1
  Fe  Fe56  1  0.43725017  0.55773681  1.10931424  1
  Fe  Fe57  1  0.74757434  0.39724666  0.84087564  1
  Fe  Fe58  1  0.47150949  0.66997996  0.55606071  1
  Fe  Fe59  1  1.06803043  0.40218612  0.18100910  1
  Fe  Fe60  1  0.58916456  0.06365842  0.05240569  1
  Fe  Fe61  1  0.50157651  0.71682697  0.02804725  1
  Fe  Fe62  1  0.40931232  0.26231224  0.47021330  1
  Fe  Fe63  1  0.50731671  0.20066711  0.36348048  1
  Fe  Fe64  1  -0.03327589  0.36655136  0.27850035  1
  Fe  Fe65  1  1.07967708  0.09082074  0.30248279  1
  Fe  Fe66  1  0.52019397  0.57660077  0.99525004  1
  Fe  Fe67  1  0.48975592  0.04466975  0.87728426  1
  Fe  Fe68  1  0.20224726  0.73444067  0.69447648  1
  Fe  Fe69  1  0.50495295  0.82988055  -0.08142570  1
  Fe  Fe70  1  0.97522264  1.07391756  0.38376397  1
  Fe  Fe71  1  0.02717438  0.94784090  0.32659745  1
  Fe  Fe72  1  0.92200275  0.71726548  0.55801421  1
  Fe  Fe73  1  0.94188037  1.04989545  0.25460601  1
  Fe  Fe74  1  0.02565099  0.51366138  0.25489637  1
  Fe  Fe75  1  0.06682855  0.98554010  0.20233532  1
  Fe  Fe76  1  0.73518379  0.98557047  0.55837151  1
  Fe  Fe77  1  0.70279727  1.00445557  0.68633164  1
  Fe  Fe78  1  0.19612027  -0.00474704  0.77358427  1
  Fe  Fe79  1  0.49130861  0.54817706  0.63702033  1
  Fe  Fe80  1  0.63234253  0.26669965  0.89846372  1
  Fe  Fe81  1  0.56172201  0.96521016  0.96342773  1
  Fe  Fe82  1  0.46025124  0.06140825  0.03539521  1
  Fe  Fe83  1  0.03545927  0.13469812  0.16969255  1
  Fe  Fe84  1  0.17301326  0.71439874  0.82640164  1
  Fe  Fe85  1  0.96617708  0.20575327  0.29240846  1
  Fe  Fe86  1  0.63494990  0.50597899  0.90258111  1
  Fe  Fe87  1  0.52098468  0.63721139  0.14182000  1
  Fe  Fe88  1  0.62332721  0.38432701  0.81030073  1
  Fe  Fe89  1  0.06755763  0.76768523  0.77516076  1
  Fe  Fe90  1  0.38704474  0.25580926  0.34025741  1
  Fe  Fe91  1  0.72344949  0.26019748  0.79354766  1
  Fe  Fe92  1  0.68907694  0.37297918  -0.04487832  1
  Fe  Fe93  1  0.58087036  0.65849754  0.89813299  1
  Fe  Fe94  1  0.54953948  0.14887256  0.95226480  1
  Fe  Fe95  1  0.56051169  0.47772578  0.49597588  1
  Fe  Fe96  1  0.74007828  0.14047292  0.68892658  1
  Fe  Fe97  1  0.58645773  0.44999468  0.62300724  1
  Fe  Fe98  1  0.18788331  0.04754256  0.89514536  1
  Fe  Fe99  1  0.42600507  0.12675496  0.44162440  1
  Fe  Fe100  1  -0.00700055  0.28146658  0.15859153  1
  Fe  Fe101  1  0.45054473  0.69600225  -0.09221266  1
  Bi  Bi102  1  -0.12075008  0.19602164  0.75825911  1
  Bi  Bi103  1  0.34410629  0.62232547  0.66055531  1
  Bi  Bi104  1  0.35786480  0.81182071  0.01882742  1
  Bi  Bi105  1  0.34822034  0.04823951  0.80380760  1
  Bi  Bi106  1  0.26659135  0.18104894  0.42890664  1
  Bi  Bi107  1  0.19393936  -0.06029753  0.30295051  1
  Bi  Bi108  1  -0.02445074  0.83671511  0.65392085  1
  Bi  Bi109  1  -0.05770467  0.88078813  0.18911617  1
  Bi  Bi110  1  -0.12972947  0.16657412  0.15842021  1
  Bi  Bi111  1  0.67396689  0.21904728  0.05074136  1
  Bi  Bi112  1  0.71842869  0.50511527  0.48339329  1
  Bi  Bi113  1  0.60760610  -0.07996035  -0.19376174  1
  Bi  Bi114  1  0.10828055  0.39743937  0.34566996  1
  Bi  Bi115  1  0.87694573  0.59937715  0.67146531  1
  Bi  Bi116  1  0.12802666  0.56788726  0.12755382  1
  Bi  Bi117  1  0.53572937  0.81648387  0.51557584  1
  Bi  Bi118  1  0.90438992  0.44183211  0.12776821  1
  Bi  Bi119  1  0.85413241  0.87134705  0.94740569  1
  Bi  Bi120  1  0.98399736  0.67684763  0.40911656  1
  Bi  Bi121  1  0.14612806  0.36242211  0.62941091  1
  Bi  Bi122  1  0.14227182  0.87985165  0.90278895  1
  Bi  Bi123  1  0.43962466  0.84238512  0.34277729  1
  Bi  Bi124  1  0.11634750  0.18053069  0.01084579  1
  Bi  Bi125  1  0.85600870  0.31791603  0.40001275  1
  Bi  Bi126  1  0.04955921  0.59938807  0.84586766  1
  Bi  Bi127  1  0.12992713  0.03659745  0.62587378  1
