# generated using pymatgen
data_Ba51Fe51Bi26
_symmetry_space_group_name_H-M   'P 1'
_cell_length_a   16.20101390
_cell_length_b   16.28461637
_cell_length_c   16.58445174
_cell_angle_alpha   90.74045094
_cell_angle_beta   89.33030920
_cell_angle_gamma   90.71719604
_symmetry_Int_Tables_number   1
_chemical_formula_structural   Ba51Fe51Bi26
_chemical_formula_sum   'Ba51 Fe51 Bi26'
_cell_volume   4374.43223535
_cell_formula_units_Z   1
loop_
 _symmetry_equiv_pos_site_id
 _symmetry_equiv_pos_as_xyz
  1  'x, y, z'
loop_
 _atom_site_type_symbol
 _atom_site_label
 _atom_site_symmetry_multiplicity
 _atom_site_fract_x
 _atom_site_fract_y
 _atom_site_fract_z
 _atom_site_occupancy
  Ba  Ba0  1  0.79559240  0.75276483  0.53406795  1
  Ba  Ba1  1  0.34826392  0.06028844  0.53258664  1
  Ba  Ba2  1  0.54428884  0.35604419  0.57276639  1
  Ba  Ba3  1  0.14708862  -0.06024857  0.54210051  1
  Ba  Ba4  1  0.58095657  0.49091969  0.78444692  1
  Ba  Ba5  1  0.43466993  0.18078069  0.06385756  1
  Ba  Ba6  1  0.78433010  -0.12506933  0.31154275  1
  Ba  Ba7  1  0.51865533  0.47234404  0.02814649  1
  Ba  Ba8  1  0.74664671  0.73662427  0.78472140  1
  Ba  Ba9  1  0.11495582  0.33772226  0.78377373  1
  Ba  Ba10  1  0.72028722  0.51411363  0.41480295  1
  Ba  Ba11  1  0.57198585  0.71495624  0.17999452  1
  Ba  Ba12  1  0.49182764  0.00055808  0.71067930  1
  Ba  Ba13  1  0.25156894  0.52887561  0.50367073  1
  Ba  Ba14  1  0.46844260  0.61890748  0.52730694  1
  Ba  Ba15  1  -0.04581383  0.27171017  -0.00046937  1
  Ba  Ba16  1  0.48296422  -0.02183024  0.32344628  1
  Ba  Ba17  1  0.04550722  -0.01266619  0.01819823  1
  Ba  Ba18  1  0.70468503  0.22809502  0.35859475  1
  Ba  Ba19  1  -0.01909682  0.69469433  0.73392967  1
  Ba  Ba20  1  0.11729026  -0.06506260  0.78462644  1
  Ba  Ba21  1  -0.06420851  0.27945358  0.24312348  1
  Ba  Ba22  1  0.10928983  0.66928612  0.11332670  1
  Ba  Ba23  1  0.18140629  0.25134523  0.24216166  1
  Ba  Ba24  1  0.28304402  0.14772772  0.77504394  1
  Ba  Ba25  1  0.74468267  -0.00179854  0.73202665  1
  Ba  Ba26  1  0.01651645  0.53503638  -0.07344575  1
  Ba  Ba27  1  -0.11818786  0.35720102  0.49824409  1
  Ba  Ba28  1  0.03138137  -0.07439122  0.29343411  1
  Ba  Ba29  1  0.22776834  0.50443743  0.25854524  1
  Ba  Ba30  1  0.91046410  0.19928474  0.73076837  1
  Ba  Ba31  1  0.49693721  0.25597188  0.81844045  1
  Ba  Ba32  1  0.78490987  0.49889625  -0.03782751  1
  Ba  Ba33  1  0.23175229  0.26638732  0.50487918  1
  Ba  Ba34  1  0.25171254  0.82605672  -0.00502286  1
  Ba  Ba35  1  0.52358675  0.77083044  0.70975804  1
  Ba  Ba36  1  0.20912023  0.24695485  0.00848304  1
  Ba  Ba37  1  0.52872190  0.46838237  0.26456263  1
  Ba  Ba38  1  0.00027093  0.13893829  0.45645520  1
  Ba  Ba39  1  0.84121325  0.77053782  0.03055044  1
  Ba  Ba40  1  0.05019304  0.47777766  0.61865561  1
  Ba  Ba41  1  0.42996382  0.23597826  0.31285698  1
  Ba  Ba42  1  0.46593538  0.75261899  -0.04048316  1
  Ba  Ba43  1  0.06209529  0.72800856  0.51448837  1
  Ba  Ba44  1  -0.06124430  0.52077554  0.25613343  1
  Ba  Ba45  1  0.25571546  0.48376054  -0.02729750  1
  Ba  Ba46  1  0.73201719  0.26908266  -0.07787363  1
  Ba  Ba47  1  0.77591793  0.05701182  0.10368081  1
  Ba  Ba48  1  0.54469985  -0.03204186  0.06403933  1
  Ba  Ba49  1  0.73902268  0.03854958  0.49881159  1
  Ba  Ba50  1  0.36364761  0.60377926  0.80065174  1
  Fe  Fe51  1  0.90098880  0.69714192  0.35885791  1
  Fe  Fe52  1  0.93126562  0.90024345  0.67235812  1
  Fe  Fe53  1  0.35349444  0.80362302  0.32637054  1
  Fe  Fe54  1  0.84326199  0.53965085  0.62835325  1
  Fe  Fe55  1  0.61964861  0.26770863  0.08284087  1
  Fe  Fe56  1  0.58943802  0.76589440  0.51259373  1
  Fe  Fe57  1  0.80660273  0.37429595  0.11855927  1
  Fe  Fe58  1  0.42177049  0.92475691  0.88944101  1
  Fe  Fe59  1  0.79465074  0.67721560  0.26263184  1
  Fe  Fe60  1  0.20596125  -0.07024806  0.15044571  1
  Fe  Fe61  1  0.97110625  0.01921512  0.63571783  1
  Fe  Fe62  1  0.74545715  0.43974134  0.63906332  1
  Fe  Fe63  1  0.23216236  0.49312169  0.72291927  1
  Fe  Fe64  1  0.87457465  0.40068343  0.68584512  1
  Fe  Fe65  1  0.73675488  0.38107808  0.23536875  1
  Fe  Fe66  1  0.77536740  0.39658432  0.77856773  1
  Fe  Fe67  1  0.15637099  0.58357215  0.80117973  1
  Fe  Fe68  1  0.19285421  0.78028258  0.66438149  1
  Fe  Fe69  1  0.89990396  0.38785957  0.83067670  1
  Fe  Fe70  1  0.26009228  0.37805679  0.65030782  1
  Fe  Fe71  1  0.65301888  0.83340816  -0.06008254  1
  Fe  Fe72  1  0.46145364  0.04784755  0.89897409  1
  Fe  Fe73  1  0.91711454  0.73103802  0.23319688  1
  Fe  Fe74  1  0.32521224  0.84554817  0.62527688  1
  Fe  Fe75  1  0.36963035  0.29787955  0.66708519  1
  Fe  Fe76  1  0.74344285  0.25348997  0.14506774  1
  Fe  Fe77  1  0.37339924  0.44956990  0.66670238  1
  Fe  Fe78  1  0.77634985  0.53458814  0.75182505  1
  Fe  Fe79  1  0.45683402  0.18561230  0.63491449  1
  Fe  Fe80  1  0.24138750  0.69480960  0.33615085  1
  Fe  Fe81  1  0.20959546  0.83253412  0.36647169  1
  Fe  Fe82  1  0.33338247  0.39131181  0.78119434  1
  Fe  Fe83  1  0.49818227  0.78112176  0.39050359  1
  Fe  Fe84  1  0.30984058  0.70594001  0.21541677  1
  Fe  Fe85  1  0.27920319  0.93905072  0.28134141  1
  Fe  Fe86  1  0.21803703  0.80763703  0.22756212  1
  Fe  Fe87  1  0.18423243  0.71651812  0.79419101  1
  Fe  Fe88  1  0.72384823  0.94300901  0.91715850  1
  Fe  Fe89  1  0.22944822  0.07907165  0.10813001  1
  Fe  Fe90  1  0.30692334  0.08550506  0.24207983  1
  Fe  Fe91  1  0.61417266  0.86580762  0.42624605  1
  Fe  Fe92  1  0.57004308  0.92600000  0.87501351  1
  Fe  Fe93  1  0.90609407  0.50688803  0.76620017  1
  Fe  Fe94  1  0.58465523  0.16149805  0.64093377  1
  Fe  Fe95  1  0.63424474  0.88127834  0.56718669  1
  Fe  Fe96  1  0.61445088  0.30711820  0.20811333  1
  Fe  Fe97  1  0.17630179  0.03953257  0.22304361  1
  Fe  Fe98  1  0.33395554  0.99848251  0.14272137  1
  Fe  Fe99  1  0.30497127  0.70630948  0.65410259  1
  Fe  Fe100  1  0.67327733  0.39255699  0.10147504  1
  Fe  Fe101  1  0.18104802  0.62602359  0.67508538  1
  Bi  Bi102  1  0.32446647  0.82468756  0.78977918  1
  Bi  Bi103  1  -0.10507290  -0.11282002  0.84210774  1
  Bi  Bi104  1  0.39130567  0.84262403  0.15842437  1
  Bi  Bi105  1  -0.06995537  -0.07814108  0.49964016  1
  Bi  Bi106  1  0.07361455  0.71256450  0.30877432  1
  Bi  Bi107  1  0.59515792  0.13601260  0.19879830  1
  Bi  Bi108  1  0.27932851  0.75080801  0.49470019  1
  Bi  Bi109  1  0.30148601  0.03540375  -0.03697350  1
  Bi  Bi110  1  0.65507580  0.70598447  0.36881988  1
  Bi  Bi111  1  0.20272937  0.08147057  0.37990930  1
  Bi  Bi112  1  0.72514351  0.54109752  0.17561703  1
  Bi  Bi113  1  0.46604550  0.88309457  0.52862209  1
  Bi  Bi114  1  0.66783558  0.59356986  0.62121258  1
  Bi  Bi115  1  0.06410574  0.75253683  0.92121955  1
  Bi  Bi116  1  0.40636660  0.63132438  0.32693357  1
  Bi  Bi117  1  0.65004928  0.66013806  -0.03843309  1
  Bi  Bi118  1  0.54116244  0.14633846  0.48178388  1
  Bi  Bi119  1  0.62291653  0.08874561  0.89735597  1
  Bi  Bi120  1  0.07640558  0.14161832  0.87060854  1
  Bi  Bi121  1  0.85696233  0.07734207  0.91042710  1
  Bi  Bi122  1  0.85837241  0.08077631  0.30527746  1
  Bi  Bi123  1  0.08151368  0.37766475  0.39848402  1
  Bi  Bi124  1  0.35690153  0.37016614  0.14272450  1
  Bi  Bi125  1  0.10894885  0.13289679  0.64191513  1
  Bi  Bi126  1  0.91594602  0.57401606  0.47805366  1
  Bi  Bi127  1  0.08426827  0.42225467  0.10449480  1
