# generated using pymatgen
data_Ba51Fe51Bi26
_symmetry_space_group_name_H-M   'P 1'
_cell_length_a   16.10242472
_cell_length_b   16.68482278
_cell_length_c   16.57605351
_cell_angle_alpha   89.81348400
_cell_angle_beta   87.27771004
_cell_angle_gamma   90.09263830
_symmetry_Int_Tables_number   1
_chemical_formula_structural   Ba51Fe51Bi26
_chemical_formula_sum   'Ba51 Fe51 Bi26'
_cell_volume   4448.36732180
_cell_formula_units_Z   1
loop_
 _symmetry_equiv_pos_site_id
 _symmetry_equiv_pos_as_xyz
  1  'x, y, z'
loop_
 _atom_site_type_symbol
 _atom_site_label
 _atom_site_symmetry_multiplicity
 _atom_site_fract_x
 _atom_site_fract_y
 _atom_site_fract_z
 _atom_site_occupancy
  Ba  Ba0  1  0.54416423  0.49713788  0.25709722  1
  Ba  Ba1  1  0.27874006  0.08692758  0.84198505  1
  Ba  Ba2  1  0.05788312  0.00439944  0.78240351  1
  Ba  Ba3  1  0.51477687  0.74974617  0.80668421  1
  Ba  Ba4  1  0.39471167  0.59733518  0.63601031  1
  Ba  Ba5  1  0.04496726  0.50204238  0.46228516  1
  Ba  Ba6  1  0.01820395  0.32258094  -0.00889907  1
  Ba  Ba7  1  0.00634549  -0.09810165  0.43084070  1
  Ba  Ba8  1  -0.02074264  0.03702876  0.23549940  1
  Ba  Ba9  1  0.70127655  0.81728051  -0.01288062  1
  Ba  Ba10  1  0.44832384  0.69365312  0.37611570  1
  Ba  Ba11  1  0.22522392  0.32162616  0.42969572  1
  Ba  Ba12  1  0.44262162  0.33061301  0.77421097  1
  Ba  Ba13  1  0.49557981  0.25765999  0.25899093  1
  Ba  Ba14  1  0.56156330  0.59361029  0.02063148  1
  Ba  Ba15  1  -0.04101888  0.22056965  0.76302726  1
  Ba  Ba16  1  0.74988290  -0.07314920  0.29908227  1
  Ba  Ba17  1  0.24410501  0.23229124  0.03738473  1
  Ba  Ba18  1  0.79614970  0.00699341  0.63113335  1
  Ba  Ba19  1  -0.04572736  0.25597661  0.35368808  1
  Ba  Ba20  1  0.75034521  0.43952625  -0.04495852  1
  Ba  Ba21  1  -0.08199537  0.01945553  0.00542473  1
  Ba  Ba22  1  0.79896228  0.29146874  0.52930774  1
  Ba  Ba23  1  0.71850114  0.28612403  0.78172512  1
  Ba  Ba24  1  0.24424236  0.20766679  0.64429022  1
  Ba  Ba25  1  0.06725581  0.42253888  0.70229520  1
  Ba  Ba26  1  0.02398853  0.43340584  0.21530472  1
  Ba  Ba27  1  0.21969343  0.73842447  0.48116971  1
  Ba  Ba28  1  0.13316812  0.57090623  0.04337092  1
  Ba  Ba29  1  0.02746296  0.70928219  0.26446627  1
  Ba  Ba30  1  0.51751799  -0.01210690  -0.02414599  1
  Ba  Ba31  1  0.75748266  0.77679010  0.71725476  1
  Ba  Ba32  1  0.53095156  0.11935202  0.73645848  1
  Ba  Ba33  1  0.52063063  0.29281247  -0.00460974  1
  Ba  Ba34  1  0.24463534  0.09954999  0.27975322  1
  Ba  Ba35  1  0.04677974  0.77307076  0.69396881  1
  Ba  Ba36  1  0.35483522  0.40892175  0.12462400  1
  Ba  Ba37  1  0.58486149  0.11643893  0.47754480  1
  Ba  Ba38  1  0.77976888  0.54579004  0.19699446  1
  Ba  Ba39  1  0.69677983  0.52448725  0.47658972  1
  Ba  Ba40  1  0.41919406  0.88733726  0.55267423  1
  Ba  Ba41  1  0.46332960  0.38556504  0.48008889  1
  Ba  Ba42  1  0.74115409  0.20149134  0.04247238  1
  Ba  Ba43  1  0.66146948  0.76998310  0.47971757  1
  Ba  Ba44  1  0.37606378  -0.10885032  0.22356475  1
  Ba  Ba45  1  0.06922022  0.08706425  0.53042917  1
  Ba  Ba46  1  0.85502106  0.54794006  0.70690116  1
  Ba  Ba47  1  0.72556153  0.16310031  0.27211157  1
  Ba  Ba48  1  0.28155510  0.76437747  -0.09353879  1
  Ba  Ba49  1  0.21313386  -0.01672045  0.04610979  1
  Ba  Ba50  1  -0.05497123  0.70552418  -0.04729613  1
  Fe  Fe51  1  0.67251862  0.74853392  0.17991529  1
  Fe  Fe52  1  0.28044226  0.53897141  0.87460802  1
  Fe  Fe53  1  0.69441542  0.36536925  0.21732173  1
  Fe  Fe54  1  0.39053941  1.02572373  0.41225463  1
  Fe  Fe55  1  0.25483509  0.02412237  0.59138387  1
  Fe  Fe56  1  0.55620472  0.46461470  0.67047123  1
  Fe  Fe57  1  0.26077153  0.58167027  0.18000035  1
  Fe  Fe58  1  0.81762154  0.13855321  0.87813683  1
  Fe  Fe59  1  0.46789398  0.07070253  0.29871295  1
  Fe  Fe60  1  0.36856729  0.44051347  -0.07765139  1
  Fe  Fe61  1  0.85426761  0.77647529  0.43605549  1
  Fe  Fe62  1  0.40888001  0.14748590  0.96291816  1
  Fe  Fe63  1  0.82572247  0.02665878  0.81380670  1
  Fe  Fe64  1  0.82383744  0.33160213  0.21096328  1
  Fe  Fe65  1  0.53044581  0.72006414  0.18458380  1
  Fe  Fe66  1  0.69090060  0.10145417  0.84644648  1
  Fe  Fe67  1  0.29393883  0.71448811  0.10907072  1
  Fe  Fe68  1  0.35309249  0.43227364  0.31743303  1
  Fe  Fe69  1  0.47480315  0.93868770  0.73970807  1
  Fe  Fe70  1  0.18700102  0.90434570  0.60411768  1
  Fe  Fe71  1  0.64124515  0.47726194  0.79698818  1
  Fe  Fe72  1  0.23850345  0.40877561  -0.04771569  1
  Fe  Fe73  1  0.59866733  0.80031504  0.28703952  1
  Fe  Fe74  1  0.79789812  0.39877599  0.32359642  1
  Fe  Fe75  1  0.67912740  0.34213909  0.34858675  1
  Fe  Fe76  1  0.58013557  0.86976845  0.16588402  1
  Fe  Fe77  1  0.24188587  0.94299890  0.71657073  1
  Fe  Fe78  1  0.83239767  0.67897952  0.55228523  1
  Fe  Fe79  1  0.36932817  1.01723688  0.68259564  1
  Fe  Fe80  1  0.73844267  1.00899518  0.92729926  1
  Fe  Fe81  1  0.86292873  0.64336850  0.42527591  1
  Fe  Fe82  1  0.13657866  0.46396178  0.87007928  1
  Fe  Fe83  1  0.62666243  0.57789848  0.71050046  1
  Fe  Fe84  1  0.34912862  0.55955885  0.28102894  1
  Fe  Fe85  1  0.06844388  0.13407005  0.05858247  1
  Fe  Fe86  1  0.55442445  0.00491385  0.21108890  1
  Fe  Fe87  1  0.26687558  0.40161161  0.81159854  1
  Fe  Fe88  1  0.22954374  0.45700250  0.26608662  1
  Fe  Fe89  1  0.35750765  0.91066486  0.79055991  1
  Fe  Fe90  1  0.23109461  0.52003266  0.75123611  1
  Fe  Fe91  1  0.40058146  0.65160361  0.16859851  1
  Fe  Fe92  1  0.63034117  0.66821137  0.28771665  1
  Fe  Fe93  1  0.09397553  0.13871928  0.93340409  1
  Fe  Fe94  1  0.38868732  0.09164168  0.55076118  1
  Fe  Fe95  1  0.39908019  0.15893190  0.41280598  1
  Fe  Fe96  1  0.19601479  0.57145663  0.31620967  1
  Fe  Fe97  1  0.93117455  0.42798353  0.86260977  1
  Fe  Fe98  1  1.00372182  0.52735515  0.88344218  1
  Fe  Fe99  1  0.87384114  0.80619846  0.56031796  1
  Fe  Fe100  1  0.27994449  0.11044970  0.47298992  1
  Fe  Fe101  1  0.68889277  0.44239730  0.66473355  1
  Bi  Bi102  1  0.26014074  0.71880616  0.27416973  1
  Bi  Bi103  1  0.47901210  0.53342750  0.82069148  1
  Bi  Bi104  1  0.64007665  -0.05699115  0.79547353  1
  Bi  Bi105  1  0.46205922  0.78695049  0.04665382  1
  Bi  Bi106  1  0.79270332  0.72299855  0.29666069  1
  Bi  Bi107  1  0.28639130  0.78727288  0.69098115  1
  Bi  Bi108  1  0.23249577  -0.05014995  0.44216863  1
  Bi  Bi109  1  0.69749381  0.00030155  0.10365599  1
  Bi  Bi110  1  0.00243665  0.70340347  0.49343586  1
  Bi  Bi111  1  0.16318948  0.27033448  0.84016913  1
  Bi  Bi112  1  0.34729956  0.58335556  0.01727418  1
  Bi  Bi113  1  0.29596806  0.52854678  0.44157824  1
  Bi  Bi114  1  0.53540696  -0.06923678  0.37083387  1
  Bi  Bi115  1  0.92891315  0.21228999  0.14673710  1
  Bi  Bi116  1  0.12675597  0.63118448  0.83403220  1
  Bi  Bi117  1  0.02895636  0.28957577  0.54892740  1
  Bi  Bi118  1  0.13713216  0.78368579  0.07515530  1
  Bi  Bi119  1  0.89088889  0.87817599  0.84477951  1
  Bi  Bi120  1  0.59699944  0.30339383  0.61194215  1
  Bi  Bi121  1  0.85137260  0.07933997  0.43096225  1
  Bi  Bi122  1  0.41471458  0.11072030  0.12711528  1
  Bi  Bi123  1  0.92551613  0.50868636  0.03438552  1
  Bi  Bi124  1  0.29331327  0.40787507  0.63729680  1
  Bi  Bi125  1  0.13899843  0.90418996  0.23558221  1
  Bi  Bi126  1  0.71200626  0.62679497  0.85789084  1
  Bi  Bi127  1  0.16235505  0.59254019  0.62338392  1
