# generated using pymatgen
data_Ba51Fe51Bi26
_symmetry_space_group_name_H-M   'P 1'
_cell_length_a   16.47953707
_cell_length_b   16.54309884
_cell_length_c   16.32295574
_cell_angle_alpha   88.30413358
_cell_angle_beta   90.57358551
_cell_angle_gamma   89.47684231
_symmetry_Int_Tables_number   1
_chemical_formula_structural   Ba51Fe51Bi26
_chemical_formula_sum   'Ba51 Fe51 Bi26'
_cell_volume   4447.63697330
_cell_formula_units_Z   1
loop_
 _symmetry_equiv_pos_site_id
 _symmetry_equiv_pos_as_xyz
  1  'x, y, z'
loop_
 _atom_site_type_symbol
 _atom_site_label
 _atom_site_symmetry_multiplicity
 _atom_site_fract_x
 _atom_site_fract_y
 _atom_site_fract_z
 _atom_site_occupancy
  Ba  Ba0  1  0.76224515  0.03024524  -0.01298325  1
  Ba  Ba1  1  0.57749580  0.75751246  0.66932288  1
  Ba  Ba2  1  0.26715681  0.17944026  0.32582986  1
  Ba  Ba3  1  0.73274458  0.56238099  0.61327480  1
  Ba  Ba4  1  0.07567569  0.56211036  0.79193679  1
  Ba  Ba5  1  0.38455324  0.55214162  0.43328036  1
  Ba  Ba6  1  0.50508352  0.29885997  0.51252725  1
  Ba  Ba7  1  0.78422885  0.79604116  -0.06617689  1
  Ba  Ba8  1  0.26864316  -0.11931115  -0.09721042  1
  Ba  Ba9  1  -0.03019380  0.49302734  0.54486107  1
  Ba  Ba10  1  0.51464976  0.24606981  0.23015437  1
  Ba  Ba11  1  -0.06337299  0.07504155  0.67944698  1
  Ba  Ba12  1  0.00657305  0.68914968  0.01284899  1
  Ba  Ba13  1  -0.09497161  0.41274604  0.30195532  1
  Ba  Ba14  1  -0.04475829  0.33915961  -0.05558588  1
  Ba  Ba15  1  0.05846219  0.22312341  0.15858895  1
  Ba  Ba16  1  -0.10587001  0.73059388  0.47220597  1
  Ba  Ba17  1  0.07679517  0.22058359  0.47907026  1
  Ba  Ba18  1  0.75882221  -0.05950711  0.23600766  1
  Ba  Ba19  1  -0.07147410  -0.01495962  0.41845911  1
  Ba  Ba20  1  0.52864133  0.27401807  0.82678594  1
  Ba  Ba21  1  0.68555006  0.11660295  0.73475471  1
  Ba  Ba22  1  0.53937034  0.51251193  0.23682101  1
  Ba  Ba23  1  0.01368070  0.32097858  0.72542511  1
  Ba  Ba24  1  0.33720389  0.55230619  0.68555819  1
  Ba  Ba25  1  0.13666138  0.83605054  0.42782789  1
  Ba  Ba26  1  0.22946774  0.19004453  -0.05590956  1
  Ba  Ba27  1  0.62438105  0.52924625  0.83573104  1
  Ba  Ba28  1  0.20306935  0.02386547  0.54430044  1
  Ba  Ba29  1  0.53804942  0.75020239  -0.08437136  1
  Ba  Ba30  1  0.28842465  0.61958884  -0.04807835  1
  Ba  Ba31  1  0.37453113  0.79694980  0.50715701  1
  Ba  Ba32  1  0.57227894  0.38707893  0.04109631  1
  Ba  Ba33  1  0.45664211  0.04392065  0.44256905  1
  Ba  Ba34  1  0.29479427  0.29633334  0.73266046  1
  Ba  Ba35  1  0.16227254  0.74929622  0.66607547  1
  Ba  Ba36  1  0.73987239  0.15088293  0.33657911  1
  Ba  Ba37  1  0.28417389  0.70572049  0.21578408  1
  Ba  Ba38  1  0.50831391  0.84450739  0.24430064  1
  Ba  Ba39  1  0.01208754  0.84945097  0.82722430  1
  Ba  Ba40  1  0.64062987  0.67790626  0.40402412  1
  Ba  Ba41  1  0.76232972  0.31824271  0.49500647  1
  Ba  Ba42  1  -0.01054435  -0.04716035  0.13954660  1
  Ba  Ba43  1  0.45855469  -0.02492010  0.68798414  1
  Ba  Ba44  1  0.80575669  0.85695373  0.68069581  1
  Ba  Ba45  1  0.32633520  0.39739677  0.07530323  1
  Ba  Ba46  1  0.75610063  0.70247422  0.18727407  1
  Ba  Ba47  1  0.26623474  -0.00768741  0.10956831  1
  Ba  Ba48  1  0.51308695  0.00773607  -0.02539927  1
  Ba  Ba49  1  0.17341681  0.45722709  0.28756974  1
  Ba  Ba50  1  0.02836773  0.69830513  0.25370123  1
  Fe  Fe51  1  0.68199168  0.21637293  1.01068860  1
  Fe  Fe52  1  0.72743589  0.85478612  0.40483772  1
  Fe  Fe53  1  0.97416760  1.02154866  0.91952917  1
  Fe  Fe54  1  0.74877450  0.48409095  0.14766537  1
  Fe  Fe55  1  0.83297541  0.38085771  0.66007021  1
  Fe  Fe56  1  0.74106770  0.41057414  0.74799033  1
  Fe  Fe57  1  0.03749829  0.14377227  0.87841124  1
  Fe  Fe58  1  0.70352857  0.81452637  0.52733115  1
  Fe  Fe59  1  0.82696731  0.21489205  1.02346136  1
  Fe  Fe60  1  0.45429975  0.08479491  0.13583739  1
  Fe  Fe61  1  0.78440979  0.65542611  0.79608052  1
  Fe  Fe62  1  0.06522340  0.50320743  0.98172151  1
  Fe  Fe63  1  0.11645435  1.02579260  0.85161960  1
  Fe  Fe64  1  0.89854960  0.64344881  0.85475932  1
  Fe  Fe65  1  0.72364527  0.21406367  0.13717561  1
  Fe  Fe66  1  0.73017755  0.51180035  0.29510569  1
  Fe  Fe67  1  0.62822971  0.93876386  0.56255332  1
  Fe  Fe68  1  0.15991760  0.53740629  0.08107996  1
  Fe  Fe69  1  0.84357607  0.57552800  0.07455684  1
  Fe  Fe70  1  0.78686567  0.60631711  0.93643122  1
  Fe  Fe71  1  0.12784250  0.41174692  0.06440123  1
  Fe  Fe72  1  0.68960366  0.31720022  0.67647835  1
  Fe  Fe73  1  0.12747575  -0.03481773  0.71658763  1
  Fe  Fe74  1  0.24659969  0.03305627  0.76909144  1
  Fe  Fe75  1  0.25200554  0.91403511  0.71045558  1
  Fe  Fe76  1  0.32645352  0.38565042  0.52996111  1
  Fe  Fe77  1  0.39774118  0.05220505  0.24913251  1
  Fe  Fe78  1  0.23150069  0.65671112  0.50998509  1
  Fe  Fe79  1  0.95203360  0.13564293  0.00751729  1
  Fe  Fe80  1  0.08547768  0.08103029  0.00300009  1
  Fe  Fe81  1  0.83080386  0.59423024  0.33514135  1
  Fe  Fe82  1  0.16185524  0.89348388  0.24373510  1
  Fe  Fe83  1  0.91519362  0.52633922  0.95812312  1
  Fe  Fe84  1  0.19062205  0.64680163  0.38508493  1
  Fe  Fe85  1  0.80645924  0.27380533  0.73835950  1
  Fe  Fe86  1  0.07704858  0.57898397  0.40377004  1
  Fe  Fe87  1  0.77056927  0.47245572  0.99135907  1
  Fe  Fe88  1  0.47999221  0.55845843  1.00321774  1
  Fe  Fe89  1  0.75434232  0.34496840  1.06412813  1
  Fe  Fe90  1  0.24137091  0.34247619  0.44062271  1
  Fe  Fe91  1  1.09004170  0.95410078  -0.02699659  1
  Fe  Fe92  1  0.34703204  0.15919373  0.15230134  1
  Fe  Fe93  1  0.09633354  0.65732823  0.50383970  1
  Fe  Fe94  1  0.63716258  -0.02643439  0.40462898  1
  Fe  Fe95  1  0.47106395  0.64776577  0.09126538  1
  Fe  Fe96  1  0.74455220  -0.04227775  0.49291725  1
  Fe  Fe97  1  0.58527305  0.85798653  0.46406882  1
  Fe  Fe98  1  0.85342044  0.29101522  0.14687125  1
  Fe  Fe99  1  0.19442916  0.34050198  0.56691595  1
  Fe  Fe100  1  0.78186929  0.52111105  0.42967923  1
  Fe  Fe101  1  0.87370782  0.43012562  0.09247729  1
  Bi  Bi102  1  0.70560877  0.34820133  0.24177471  1
  Bi  Bi103  1  0.64645253  0.59457857  0.04337807  1
  Bi  Bi104  1  0.64706484  0.10604662  0.52432213  1
  Bi  Bi105  1  0.00667300  0.51379083  0.14381126  1
  Bi  Bi106  1  0.86980520  0.12111793  0.16877967  1
  Bi  Bi107  1  0.30977822  0.20813349  0.53661672  1
  Bi  Bi108  1  0.43897831  0.21459717  0.02243572  1
  Bi  Bi109  1  0.57052899  0.04357047  0.25525375  1
  Bi  Bi110  1  0.12925859  0.14560655  0.72064374  1
  Bi  Bi111  1  0.72794115  0.32968939  0.89215626  1
  Bi  Bi112  1  0.18644691  0.49963244  0.51977453  1
  Bi  Bi113  1  -0.12907480  0.16196827  -0.14549201  1
  Bi  Bi114  1  0.87711061  0.49975072  0.77299813  1
  Bi  Bi115  1  0.42186613  0.46195632  0.87652655  1
  Bi  Bi116  1  0.61802017  0.47280292  0.44185017  1
  Bi  Bi117  1  0.31476277  0.91491538  0.32110869  1
  Bi  Bi118  1  0.14454526  0.82189858  0.08915050  1
  Bi  Bi119  1  0.01255937  0.89375225  0.60239487  1
  Bi  Bi120  1  0.39598046  0.79759884  0.06109615  1
  Bi  Bi121  1  0.38400920  0.10834842  0.82424785  1
  Bi  Bi122  1  0.64104111  0.91814626  0.80795325  1
  Bi  Bi123  1  0.37213262  0.37265760  0.33254363  1
  Bi  Bi124  1  0.17177424  0.40011735  0.89749869  1
  Bi  Bi125  1  0.10523219  0.04014915  0.30856620  1
  Bi  Bi126  1  0.36642227  0.77543433  0.73347952  1
  Bi  Bi127  1  0.64722558  0.86220848  0.07672436  1
