# generated using pymatgen
data_Ba51Fe51Bi26
_symmetry_space_group_name_H-M   'P 1'
_cell_length_a   16.70779655
_cell_length_b   16.14616138
_cell_length_c   16.36815485
_cell_angle_alpha   90.24090408
_cell_angle_beta   90.40156323
_cell_angle_gamma   89.90288697
_symmetry_Int_Tables_number   1
_chemical_formula_structural   Ba51Fe51Bi26
_chemical_formula_sum   'Ba51 Fe51 Bi26'
_cell_volume   4415.43081898
_cell_formula_units_Z   1
loop_
 _symmetry_equiv_pos_site_id
 _symmetry_equiv_pos_as_xyz
  1  'x, y, z'
loop_
 _atom_site_type_symbol
 _atom_site_label
 _atom_site_symmetry_multiplicity
 _atom_site_fract_x
 _atom_site_fract_y
 _atom_site_fract_z
 _atom_site_occupancy
  Ba  Ba0  1  0.06340275  -0.05299761  0.45835742  1
  Ba  Ba1  1  -0.00691413  0.04520402  0.76220133  1
  Ba  Ba2  1  0.04931778  0.42312699  0.54901794  1
  Ba  Ba3  1  0.72603391  0.52921006  0.69764563  1
  Ba  Ba4  1  0.44456534  0.55142251  0.45959832  1
  Ba  Ba5  1  0.77574934  0.24574686  0.27245463  1
  Ba  Ba6  1  0.45337926  0.75223632  -0.08493431  1
  Ba  Ba7  1  0.74290471  0.00106547  0.05960463  1
  Ba  Ba8  1  0.44033537  0.76846110  0.64414450  1
  Ba  Ba9  1  0.67697389  0.53291363  0.19724154  1
  Ba  Ba10  1  0.19854684  0.48486698  0.78432172  1
  Ba  Ba11  1  -0.01422951  0.32371326  -0.01291033  1
  Ba  Ba12  1  0.79861745  0.75584018  0.54874195  1
  Ba  Ba13  1  0.44778378  0.50895847  0.72237624  1
  Ba  Ba14  1  0.74864597  0.77617463  0.29504510  1
  Ba  Ba15  1  0.84942458  0.00793727  0.30737056  1
  Ba  Ba16  1  0.40120385  0.28568803  0.54684652  1
  Ba  Ba17  1  0.55527474  0.25222390  0.76114458  1
  Ba  Ba18  1  0.76604214  0.32048066  0.55297769  1
  Ba  Ba19  1  0.21506527  0.74175289  0.72122163  1
  Ba  Ba20  1  0.56078204  0.81043704  0.43073099  1
  Ba  Ba21  1  0.52223711  -0.01070246  0.75174915  1
  Ba  Ba22  1  0.85395565  0.08670665  0.52796094  1
  Ba  Ba23  1  0.27105107  -0.00693453  0.83172270  1
  Ba  Ba24  1  0.24780377  0.20281916  -0.00354546  1
  Ba  Ba25  1  -0.03081467  0.77548989  0.01403746  1
  Ba  Ba26  1  0.43337090  0.48756360  0.21656151  1
  Ba  Ba27  1  0.04777197  -0.00839156  0.19456833  1
  Ba  Ba28  1  0.02998270  0.07345879  -0.02744491  1
  Ba  Ba29  1  0.31897414  0.10019077  0.22690643  1
  Ba  Ba30  1  0.78034069  0.51246536  -0.03652027  1
  Ba  Ba31  1  0.23095664  0.84751419  0.21219854  1
  Ba  Ba32  1  0.26671798  0.06368142  0.47516803  1
  Ba  Ba33  1  0.04477851  0.17240092  0.59362302  1
  Ba  Ba34  1  0.50709587  0.04373430  0.48882062  1
  Ba  Ba35  1  0.72248416  0.25703081  -0.01192077  1
  Ba  Ba36  1  0.20770164  0.42770700  0.35527760  1
  Ba  Ba37  1  0.70983421  0.73719203  -0.00961255  1
  Ba  Ba38  1  -0.06359747  0.46684282  0.78796975  1
  Ba  Ba39  1  0.27681861  0.79024400  0.44388354  1
  Ba  Ba40  1  0.47412940  0.25606819  0.09096931  1
  Ba  Ba41  1  0.07519027  0.64269459  0.21199096  1
  Ba  Ba42  1  0.19862944  0.70494089  -0.03046843  1
  Ba  Ba43  1  0.75183985  -0.04865276  0.72950471  1
  Ba  Ba44  1  0.24034182  0.46421762  0.05022364  1
  Ba  Ba45  1  -0.09923935  0.50842917  0.31332525  1
  Ba  Ba46  1  0.57579433  0.33440746  0.37869485  1
  Ba  Ba47  1  0.02265583  0.70276382  0.49354501  1
  Ba  Ba48  1  0.04026454  0.27014275  0.22340583  1
  Ba  Ba49  1  0.46055629  0.74740311  0.17464019  1
  Ba  Ba50  1  0.58976754  0.02419047  0.26023290  1
  Fe  Fe51  1  0.65990219  0.52291792  0.50970703  1
  Fe  Fe52  1  0.09653244  0.23033405  0.40925616  1
  Fe  Fe53  1  0.19996463  0.28968815  0.69548537  1
  Fe  Fe54  1  0.89561467  0.25929627  0.69737118  1
  Fe  Fe55  1  0.18055992  0.60281464  0.57329188  1
  Fe  Fe56  1  0.73790976  0.62426672  0.42546914  1
  Fe  Fe57  1  0.21901283  0.22137760  0.35980349  1
  Fe  Fe58  1  0.51851497  0.36537494  0.92641801  1
  Fe  Fe59  1  0.60254091  0.78608327  0.77040527  1
  Fe  Fe60  1  0.55022201  0.57394924  0.02230064  1
  Fe  Fe61  1  0.79812468  0.16954694  0.72750684  1
  Fe  Fe62  1  0.42333503  0.94691669  0.13005299  1
  Fe  Fe63  1  0.59721605  0.46941320  0.91498211  1
  Fe  Fe64  1  0.17140944  0.16649881  0.79609106  1
  Fe  Fe65  1  0.92688249  0.81310768  0.79198692  1
  Fe  Fe66  1  0.54883517  0.92701140  0.07019092  1
  Fe  Fe67  1  1.01941501  0.12409399  0.37667711  1
  Fe  Fe68  1  0.23407711  0.59897834  0.45410406  1
  Fe  Fe69  1  0.93800712  0.80070153  0.23009229  1
  Fe  Fe70  1  0.36676665  0.04676127  0.03874335  1
  Fe  Fe71  1  0.92823842  0.82820415  0.36201205  1
  Fe  Fe72  1  0.01828473  0.68939233  0.82895625  1
  Fe  Fe73  1  0.89315919  0.22868710  0.82662634  1
  Fe  Fe74  1  0.69226743  0.99426764  0.46197029  1
  Fe  Fe75  1  0.63074246  0.79450092  0.63563194  1
  Fe  Fe76  1  0.22756430  0.01139223  0.06195535  1
  Fe  Fe77  1  0.44681593  0.44262946  0.02741846  1
  Fe  Fe78  1  0.56119934  0.05616628  0.97831508  1
  Fe  Fe79  1  0.30534848  0.63699920  0.57593570  1
  Fe  Fe80  1  0.23034672  0.15773486  0.67272375  1
  Fe  Fe81  1  0.46169846  0.51734958  0.91565962  1
  Fe  Fe82  1  0.90884888  0.67344984  0.72065893  1
  Fe  Fe83  1  0.88587680  0.67790382  0.85468195  1
  Fe  Fe84  1  -0.06297354  0.53482502  0.08845074  1
  Fe  Fe85  1  0.02003705  0.77031276  0.69934340  1
  Fe  Fe86  1  0.62676911  0.66375166  0.53502391  1
  Fe  Fe87  1  0.41967584  0.58385995  0.03831253  1
  Fe  Fe88  1  0.02918027  0.45916446  0.13055765  1
  Fe  Fe89  1  0.21456063  0.29224743  0.83085667  1
  Fe  Fe90  1  0.45640419  0.96307845  0.96896935  1
  Fe  Fe91  1  0.15390715  0.91698261  0.01200059  1
  Fe  Fe92  1  0.49706847  0.06331564  0.09428128  1
  Fe  Fe93  1  0.14164634  0.11127854  0.32968136  1
  Fe  Fe94  1  0.57963425  0.43537395  0.04597961  1
  Fe  Fe95  1  0.04628150  0.81992236  0.30621075  1
  Fe  Fe96  1  0.68443473  0.12079572  0.43271729  1
  Fe  Fe97  1  0.71942110  0.49110564  0.39275663  1
  Fe  Fe98  1  0.61489271  0.60625526  0.39131844  1
  Fe  Fe99  1  0.59958102  0.66955196  0.67386557  1
  Fe  Fe100  1  0.08478775  0.88527398  0.68206461  1
  Fe  Fe101  1  0.31729926  0.21406871  0.77636605  1
  Bi  Bi102  1  -0.06602634  0.27185631  0.41501161  1
  Bi  Bi103  1  0.61549873  -0.09528441  -0.08775902  1
  Bi  Bi104  1  0.59477533  0.61998227  -0.15736060  1
  Bi  Bi105  1  0.35774630  0.36656753  0.88586773  1
  Bi  Bi106  1  0.84392599  0.52971719  0.51802465  1
  Bi  Bi107  1  0.04917555  0.28188886  0.78620898  1
  Bi  Bi108  1  0.31763548  -0.12760814  0.02029289  1
  Bi  Bi109  1  0.05569519  0.60124597  0.68048558  1
  Bi  Bi110  1  0.04830976  0.55096118  -0.03363801  1
  Bi  Bi111  1  0.20430968  0.27012867  0.52528192  1
  Bi  Bi112  1  0.76067590  0.73935710  0.76249286  1
  Bi  Bi113  1  0.28065422  0.46757185  0.57783351  1
  Bi  Bi114  1  0.76349396  0.33451630  0.79037797  1
  Bi  Bi115  1  0.89321115  0.14184084  0.12542442  1
  Bi  Bi116  1  0.84970136  0.66413554  0.15075365  1
  Bi  Bi117  1  0.85137025  0.39515333  0.13577882  1
  Bi  Bi118  1  0.37149604  0.29274322  0.31578220  1
  Bi  Bi119  1  0.82335449  0.08824550  0.88235261  1
  Bi  Bi120  1  0.57255350  0.40239932  0.58634604  1
  Bi  Bi121  1  0.38212002  0.10250483  0.65576453  1
  Bi  Bi122  1  0.28583891  0.63168163  0.29071893  1
  Bi  Bi123  1  0.93423044  0.89779608  0.61806710  1
  Bi  Bi124  1  0.66485320  0.11729733  0.60897293  1
  Bi  Bi125  1  0.08853127  0.86588983  0.85665296  1
  Bi  Bi126  1  0.40845413  0.92023992  0.31438932  1
  Bi  Bi127  1  0.43027447  0.13011665  0.90397230  1
