# generated using pymatgen
data_Ba51Fe51Bi26
_symmetry_space_group_name_H-M   'P 1'
_cell_length_a   16.04231585
_cell_length_b   16.87222605
_cell_length_c   16.43142903
_cell_angle_alpha   90.31163021
_cell_angle_beta   92.38040876
_cell_angle_gamma   88.66084542
_symmetry_Int_Tables_number   1
_chemical_formula_structural   Ba51Fe51Bi26
_chemical_formula_sum   'Ba51 Fe51 Bi26'
_cell_volume   4442.39206996
_cell_formula_units_Z   1
loop_
 _symmetry_equiv_pos_site_id
 _symmetry_equiv_pos_as_xyz
  1  'x, y, z'
loop_
 _atom_site_type_symbol
 _atom_site_label
 _atom_site_symmetry_multiplicity
 _atom_site_fract_x
 _atom_site_fract_y
 _atom_site_fract_z
 _atom_site_occupancy
  Ba  Ba0  1  0.70857514  0.24562231  0.27400659  1
  Ba  Ba1  1  -0.02159062  0.25364810  0.31538622  1
  Ba  Ba2  1  0.29164972  0.23868384  0.50160175  1
  Ba  Ba3  1  0.76496384  0.51598843  0.80762538  1
  Ba  Ba4  1  0.26812950  0.75379308  0.74170985  1
  Ba  Ba5  1  0.25014633  -0.00171043  0.44754409  1
  Ba  Ba6  1  0.19982698  -0.03971751  0.08003613  1
  Ba  Ba7  1  0.57188523  0.28002699  0.78484038  1
  Ba  Ba8  1  0.21285074  0.72225219  0.45355033  1
  Ba  Ba9  1  0.33984997  0.43785136  0.71942331  1
  Ba  Ba10  1  0.56054662  0.80001532  0.75940913  1
  Ba  Ba11  1  0.06451452  0.55706212  0.06332891  1
  Ba  Ba12  1  0.70801474  0.67312191  0.01701538  1
  Ba  Ba13  1  0.33339018  0.18568031  0.01117400  1
  Ba  Ba14  1  1.01736376  0.50008469  0.51146726  1
  Ba  Ba15  1  0.16598443  0.23065621  0.78158066  1
  Ba  Ba16  1  0.37783403  -0.02803835  0.67901401  1
  Ba  Ba17  1  0.26916810  0.48576094  0.46507859  1
  Ba  Ba18  1  0.67576548  0.79631565  0.25607156  1
  Ba  Ba19  1  0.79166985  0.24705589  0.56331825  1
  Ba  Ba20  1  0.52353847  0.03402880  -0.04543498  1
  Ba  Ba21  1  0.22149697  0.13435595  0.25638351  1
  Ba  Ba22  1  0.54345230  0.18008939  0.54501738  1
  Ba  Ba23  1  0.68910456  0.50911464  0.25462154  1
  Ba  Ba24  1  0.73236534  0.27134759  0.04258226  1
  Ba  Ba25  1  0.72892705  0.49617441  0.53206598  1
  Ba  Ba26  1  0.77341342  -0.13866253  -0.07722807  1
  Ba  Ba27  1  0.22551363  0.43112715  -0.03842691  1
  Ba  Ba28  1  0.06011279  0.80651046  -0.08480612  1
  Ba  Ba29  1  -0.06478973  0.07356552  -0.06722491  1
  Ba  Ba30  1  0.01241335  0.29047934  0.05714251  1
  Ba  Ba31  1  0.21451914  0.40673610  0.22033008  1
  Ba  Ba32  1  0.41857354  0.80274260  0.37223789  1
  Ba  Ba33  1  0.04402776  0.52963331  0.78675392  1
  Ba  Ba34  1  -0.07197176  0.49699839  0.28854425  1
  Ba  Ba35  1  0.37202873  0.83156866  -0.03285036  1
  Ba  Ba36  1  0.41599513  0.59163484  -0.10919743  1
  Ba  Ba37  1  0.58204385  0.46394518  0.00228739  1
  Ba  Ba38  1  0.06764864  -0.01518165  0.74325171  1
  Ba  Ba39  1  -0.02538761  0.01559310  0.50988820  1
  Ba  Ba40  1  0.74857492  -0.00403904  0.13267196  1
  Ba  Ba41  1  0.01162089  -0.01609519  0.25154569  1
  Ba  Ba42  1  0.43760249  0.26189828  0.28402191  1
  Ba  Ba43  1  0.00993188  0.75473306  0.61487150  1
  Ba  Ba44  1  0.66970799  0.82455723  0.50606818  1
  Ba  Ba45  1  0.48370360  0.69215941  0.15946492  1
  Ba  Ba46  1  0.22559765  0.70107719  0.14625771  1
  Ba  Ba47  1  0.79289795  0.73257484  0.69422103  1
  Ba  Ba48  1  0.45134176  0.49097313  0.29934177  1
  Ba  Ba49  1  0.85689096  0.27723539  0.81776060  1
  Ba  Ba50  1  0.65822859  0.03694253  0.36259564  1
  Fe  Fe51  1  0.85943492  0.76169975  0.37431833  1
  Fe  Fe52  1  1.00601762  0.30456895  0.59435795  1
  Fe  Fe53  1  0.85996339  0.76176378  0.13741422  1
  Fe  Fe54  1  0.43355990  0.90530349  0.15865126  1
  Fe  Fe55  1  0.59641868  0.99244626  0.64355490  1
  Fe  Fe56  1  0.41972410  0.36858157  0.09158974  1
  Fe  Fe57  1  0.52980479  0.50861819  0.47378118  1
  Fe  Fe58  1  0.85062390  0.04308906  0.69129436  1
  Fe  Fe59  1  0.17080900  0.05346347  0.90967909  1
  Fe  Fe60  1  -0.06939334  0.80134487  0.26042968  1
  Fe  Fe61  1  0.85766958  0.60083555  0.13308380  1
  Fe  Fe62  1  0.63592952  0.98338464  0.79532080  1
  Fe  Fe63  1  -0.02466175  0.68112512  0.35433951  1
  Fe  Fe64  1  0.55187471  0.42400264  0.59146741  1
  Fe  Fe65  1  0.45881370  0.63259988  0.66963109  1
  Fe  Fe66  1  0.80836532  0.41965371  0.96706143  1
  Fe  Fe67  1  0.40496831  0.05309610  0.17555351  1
  Fe  Fe68  1  0.56680647  0.58882595  0.59051064  1
  Fe  Fe69  1  -0.10415743  0.45048601  0.09414267  1
  Fe  Fe70  1  0.43230593  0.51125612  0.58340642  1
  Fe  Fe71  1  0.22528008  0.93501891  0.87378103  1
  Fe  Fe72  1  0.55544903  0.08074367  0.74219052  1
  Fe  Fe73  1  0.48755858  0.95520329  0.29708945  1
  Fe  Fe74  1  0.77073063  0.49549110  0.07257670  1
  Fe  Fe75  1  0.92844289  0.69368681  0.04503160  1
  Fe  Fe76  1  0.32638847  1.01757935  0.90634406  1
  Fe  Fe77  1  0.44611515  0.63091301  0.50250028  1
  Fe  Fe78  1  0.50521381  0.08967395  0.26345163  1
  Fe  Fe79  1  0.11101876  0.19300039  0.58057284  1
  Fe  Fe80  1  0.72972984  0.93121365  0.69455747  1
  Fe  Fe81  1  0.87150103  0.55867833  0.98930980  1
  Fe  Fe82  1  0.01706310  0.77695743  0.13494635  1
  Fe  Fe83  1  0.45612291  0.38547554  0.50266498  1
  Fe  Fe84  1  -0.06301413  0.43973954  0.95675992  1
  Fe  Fe85  1  0.07428806  -0.24373854  0.27277061  1
  Fe  Fe86  1  0.54158194  -0.01688643  0.16915632  1
  Fe  Fe87  1  0.10709767  0.17074468  0.44578255  1
  Fe  Fe88  1  0.78903732  0.00617861  0.80414581  1
  Fe  Fe89  1  0.25111084  0.06305002  0.80382153  1
  Fe  Fe90  1  0.34509380  0.96762078  0.25635601  1
  Fe  Fe91  1  0.54734313  0.33630881  0.14572662  1
  Fe  Fe92  1  0.09271433  0.30197253  0.47258565  1
  Fe  Fe93  1  0.70042018  0.08786530  0.70955360  1
  Fe  Fe94  1  0.84383702  0.67593517  0.25909971  1
  Fe  Fe95  1  0.85573050  0.91513254  0.62896609  1
  Fe  Fe96  1  -0.02100791  0.66434103  0.20131472  1
  Fe  Fe97  1  0.34220432  0.62831631  0.59677545  1
  Fe  Fe98  1  0.51543492  0.27908821  1.03087208  1
  Fe  Fe99  1  0.40345591  0.06632220  0.34236499  1
  Fe  Fe100  1  0.87998153  0.91124719  0.75842092  1
  Fe  Fe101  1  0.98022947  0.20716784  0.50596196  1
  Bi  Bi102  1  0.56909214  0.15239248  0.12906529  1
  Bi  Bi103  1  0.21068278  -0.12886934  0.27654511  1
  Bi  Bi104  1  0.12273666  0.58684110  0.29912738  1
  Bi  Bi105  1  0.48441160  -0.01469365  0.47859353  1
  Bi  Bi106  1  0.39965600  0.14335352  0.79918813  1
  Bi  Bi107  1  0.74498482  0.03685634  0.55420829  1
  Bi  Bi108  1  0.42740027  0.77413577  0.58778317  1
  Bi  Bi109  1  0.02274819  0.83114428  0.41381311  1
  Bi  Bi110  1  -0.10285360  0.67515961  0.87544217  1
  Bi  Bi111  1  -0.02808801  0.16274686  0.67980441  1
  Bi  Bi112  1  0.55348604  0.50483926  0.74259636  1
  Bi  Bi113  1  0.57822117  -0.14568165  0.06054977  1
  Bi  Bi114  1  -0.05994013  0.90268776  0.06173755  1
  Bi  Bi115  1  0.17466643  0.88572460  0.59549283  1
  Bi  Bi116  1  0.85675091  0.65297970  0.49178596  1
  Bi  Bi117  1  0.70451891  0.12493292  0.88223768  1
  Bi  Bi118  1  0.88567774  0.15581405  0.15050730  1
  Bi  Bi119  1  0.20742414  0.64789606  0.92232480  1
  Bi  Bi120  1  0.17759620  0.59804057  0.62937294  1
  Bi  Bi121  1  0.16425995  0.36369606  0.61757452  1
  Bi  Bi122  1  0.83087074  0.91814696  0.34531456  1
  Bi  Bi123  1  0.60287066  0.35750352  0.42009358  1
  Bi  Bi124  1  0.41590384  0.35891274  0.91258907  1
  Bi  Bi125  1  0.35898641  0.52694306  0.10553183  1
  Bi  Bi126  1  0.89580191  0.41468627  0.66498868  1
  Bi  Bi127  1  0.58144113  0.64565399  0.39075216  1
