# generated using pymatgen
data_Ba51Fe51Bi26
_symmetry_space_group_name_H-M   'P 1'
_cell_length_a   16.73590301
_cell_length_b   16.02911649
_cell_length_c   16.17508697
_cell_angle_alpha   89.13182450
_cell_angle_beta   90.38203507
_cell_angle_gamma   89.50423637
_symmetry_Int_Tables_number   1
_chemical_formula_structural   Ba51Fe51Bi26
_chemical_formula_sum   'Ba51 Fe51 Bi26'
_cell_volume   4338.39611871
_cell_formula_units_Z   1
loop_
 _symmetry_equiv_pos_site_id
 _symmetry_equiv_pos_as_xyz
  1  'x, y, z'
loop_
 _atom_site_type_symbol
 _atom_site_label
 _atom_site_symmetry_multiplicity
 _atom_site_fract_x
 _atom_site_fract_y
 _atom_site_fract_z
 _atom_site_occupancy
  Ba  Ba0  1  0.27440358  0.49595571  0.38318660  1
  Ba  Ba1  1  0.25267584  0.24418757  0.22796732  1
  Ba  Ba2  1  0.33914235  0.24359958  0.82976547  1
  Ba  Ba3  1  0.72622000  0.01593235  0.48652571  1
  Ba  Ba4  1  0.69541326  0.25248419  0.63878139  1
  Ba  Ba5  1  0.17009167  0.09212540  0.79379047  1
  Ba  Ba6  1  -0.01690003  0.51000487  0.33361682  1
  Ba  Ba7  1  0.55962143  0.51452695  0.71527333  1
  Ba  Ba8  1  0.74849196  0.64826850  0.15340571  1
  Ba  Ba9  1  0.65756533  0.44962940  -0.00950384  1
  Ba  Ba10  1  0.35361349  0.75483008  0.42428722  1
  Ba  Ba11  1  0.24181818  0.26096911  0.55923728  1
  Ba  Ba12  1  0.43418769  0.55701713  -0.02166685  1
  Ba  Ba13  1  0.02385260  0.24534842  0.23414548  1
  Ba  Ba14  1  0.46103042  0.17333094  0.47978965  1
  Ba  Ba15  1  -0.04661645  0.70689076  0.72195693  1
  Ba  Ba16  1  0.54710462  0.47144067  0.20375352  1
  Ba  Ba17  1  0.79673694  0.78538175  0.39772376  1
  Ba  Ba18  1  0.02351538  0.46505332  0.85295690  1
  Ba  Ba19  1  0.82746332  0.21702341  0.11542929  1
  Ba  Ba20  1  0.27862001  0.74636693  0.00395030  1
  Ba  Ba21  1  -0.04163660  0.48335502  0.09622956  1
  Ba  Ba22  1  0.86980265  0.03690845  0.71731913  1
  Ba  Ba23  1  0.53514575  0.18907359  0.25421168  1
  Ba  Ba24  1  0.54533965  0.15985990  0.79026143  1
  Ba  Ba25  1  0.79849361  0.55695950  0.83858236  1
  Ba  Ba26  1  0.43216728  0.74014303  0.74502192  1
  Ba  Ba27  1  0.18860600  0.64547241  0.79983660  1
  Ba  Ba28  1  0.90127348  0.71768547  -0.01035601  1
  Ba  Ba29  1  0.32616388  0.46002823  0.74271284  1
  Ba  Ba30  1  0.76685936  0.18156788  0.88425307  1
  Ba  Ba31  1  0.44109979  -0.15344201  0.16215585  1
  Ba  Ba32  1  -0.01601551  -0.00071978  0.46620157  1
  Ba  Ba33  1  0.27445037  -0.00503535  -0.00819644  1
  Ba  Ba34  1  0.72444938  0.27539877  0.35155701  1
  Ba  Ba35  1  0.51892368  -0.08733170  0.57526559  1
  Ba  Ba36  1  0.55955159  0.70756972  0.31164457  1
  Ba  Ba37  1  0.26244476  -0.00637176  0.28956243  1
  Ba  Ba38  1  0.19153604  0.76830204  0.60119087  1
  Ba  Ba39  1  -0.06951048  0.25877039  0.48191166  1
  Ba  Ba40  1  0.67858296  -0.02298708  0.22403689  1
  Ba  Ba41  1  0.50942213  0.46943862  0.48620407  1
  Ba  Ba42  1  0.16980173  0.68444209  0.22617560  1
  Ba  Ba43  1  0.43020108  0.28257246  0.05772543  1
  Ba  Ba44  1  0.73885367  0.54178276  0.37819373  1
  Ba  Ba45  1  0.05581649  0.47644341  0.58977606  1
  Ba  Ba46  1  0.01584230  0.08520293  -0.01239880  1
  Ba  Ba47  1  0.71415181  -0.14874677  -0.08853882  1
  Ba  Ba48  1  0.54877454  0.01360348  -0.00298610  1
  Ba  Ba49  1  -0.01048779  -0.08190319  0.22392668  1
  Ba  Ba50  1  0.21305779  0.00180227  0.55944825  1
  Fe  Fe51  1  0.98980126  0.28649480  -0.01265843  1
  Fe  Fe52  1  0.02324886  0.86574250  0.62292850  1
  Fe  Fe53  1  0.42994184  0.95423175  0.39960068  1
  Fe  Fe54  1  0.10452056  0.92322661  0.90326479  1
  Fe  Fe55  1  1.00657242  0.74022537  0.37422179  1
  Fe  Fe56  1  0.61979288  0.76496544  0.71522237  1
  Fe  Fe57  1  0.70398753  0.90002535  0.69944433  1
  Fe  Fe58  1  0.74102992  0.41209384  0.54246138  1
  Fe  Fe59  1  0.74967600  0.44934946  0.67908107  1
  Fe  Fe60  1  0.14528547  0.46961535  0.02855668  1
  Fe  Fe61  1  0.37037437  0.94295558  0.73884216  1
  Fe  Fe62  1  0.64674162  0.16280057  0.09679327  1
  Fe  Fe63  1  0.47736304  -0.00068767  0.28216473  1
  Fe  Fe64  1  0.07879822  0.86235602  0.77117520  1
  Fe  Fe65  1  0.05595047  0.97661196  0.68717650  1
  Fe  Fe66  1  1.00633356  0.88538958  0.01465929  1
  Fe  Fe67  1  0.64973169  0.29704393  0.12793350  1
  Fe  Fe68  1  0.10853233  0.33145191  0.03828966  1
  Fe  Fe69  1  1.07555389  0.78826993  -0.07699858  1
  Fe  Fe70  1  0.79563241  0.68505865  0.59724462  1
  Fe  Fe71  1  0.19617998  0.36804576  0.91886936  1
  Fe  Fe72  1  0.13185283  0.87907741  0.05014582  1
  Fe  Fe73  1  0.85038345  0.47395869  0.52093379  1
  Fe  Fe74  1  0.70271753  0.63359273  0.68786206  1
  Fe  Fe75  1  0.39936510  0.03388888  0.83283249  1
  Fe  Fe76  1  0.68997771  0.01765629  0.79592381  1
  Fe  Fe77  1  0.55228031  0.89564282  0.37141452  1
  Fe  Fe78  1  0.06201997  0.76765972  0.08183548  1
  Fe  Fe79  1  0.61629677  0.24743305  0.99852889  1
  Fe  Fe80  1  0.70026839  0.78921555  0.59780727  1
  Fe  Fe81  1  0.76161738  0.75893962  0.73644030  1
  Fe  Fe82  1  0.64935346  0.68108269  0.82609889  1
  Fe  Fe83  1  0.71854596  0.55362689  0.56696196  1
  Fe  Fe84  1  0.56056474  0.03048290  0.38467498  1
  Fe  Fe85  1  0.40572681  0.90282032  0.87741330  1
  Fe  Fe86  1  0.26204597  0.53877647  0.09219210  1
  Fe  Fe87  1  0.87024922  0.38016918  0.63258014  1
  Fe  Fe88  1  0.08784412  0.26981064  0.89352068  1
  Fe  Fe89  1  0.94933930  0.25881894  0.84363715  1
  Fe  Fe90  1  0.88703619  0.23644159  0.70127416  1
  Fe  Fe91  1  -0.00674487  0.31183162  0.71335893  1
  Fe  Fe92  1  0.61505617  0.77632272  0.08178541  1
  Fe  Fe93  1  0.65463442  0.03789426  0.67402941  1
  Fe  Fe94  1  0.25719797  0.38466318  1.05685630  1
  Fe  Fe95  1  1.00987073  0.78288597  0.50252278  1
  Fe  Fe96  1  0.63081068  0.66964907  -0.02636010  1
  Fe  Fe97  1  0.85033198  0.35743370  0.77014582  1
  Fe  Fe98  1  0.24602435  0.50358204  0.94726042  1
  Fe  Fe99  1  0.33016723  0.44590332  0.17149647  1
  Fe  Fe100  1  0.84285461  0.54298479  0.64346049  1
  Fe  Fe101  1  0.55402754  0.66106160  0.09467404  1
  Bi  Bi102  1  0.59461965  0.67446321  0.54246003  1
  Bi  Bi103  1  0.24266542  -0.13698857  0.80873620  1
  Bi  Bi104  1  0.15728632  0.33213074  0.74692922  1
  Bi  Bi105  1  -0.04941079  0.70106656  0.21230467  1
  Bi  Bi106  1  0.54756670  -0.06724123  0.78702794  1
  Bi  Bi107  1  -0.06044670  0.89391752  -0.13870604  1
  Bi  Bi108  1  -0.14974332  0.36871934  -0.05580025  1
  Bi  Bi109  1  0.49475901  0.77639110  -0.03975188  1
  Bi  Bi110  1  0.10275952  0.62684685  -0.00566011  1
  Bi  Bi111  1  0.15406335  0.44389826  0.19678441  1
  Bi  Bi112  1  0.21353979  0.20459877  0.00232188  1
  Bi  Bi113  1  -0.14785816  0.85782078  0.59609534  1
  Bi  Bi114  1  0.91516785  0.63093928  0.49882986  1
  Bi  Bi115  1  0.76005982  0.42281178  0.19029108  1
  Bi  Bi116  1  0.37200836  0.09704690  0.66531532  1
  Bi  Bi117  1  0.13628262  0.85575673  0.39285149  1
  Bi  Bi118  1  0.40124475  0.07080373  0.14488587  1
  Bi  Bi119  1  0.13743617  0.14170311  0.39364139  1
  Bi  Bi120  1  0.85063759  0.09773654  0.31022799  1
  Bi  Bi121  1  0.12688696  0.63799246  0.44287476  1
  Bi  Bi122  1  0.38697211  0.62366737  0.18483794  1
  Bi  Bi123  1  0.11174431  0.34648026  0.41149373  1
  Bi  Bi124  1  0.41129029  0.35379531  0.30984653  1
  Bi  Bi125  1  0.46989783  0.32073316  0.64790880  1
  Bi  Bi126  1  0.03168686  0.14858019  0.63832239  1
  Bi  Bi127  1  0.35090642  0.60754462  0.59104958  1
