# generated using pymatgen
data_Ba51Fe51Bi26
_symmetry_space_group_name_H-M   'P 1'
_cell_length_a   17.05054568
_cell_length_b   16.02572446
_cell_length_c   16.07015763
_cell_angle_alpha   92.56426611
_cell_angle_beta   88.87941670
_cell_angle_gamma   90.92894491
_symmetry_Int_Tables_number   1
_chemical_formula_structural   Ba51Fe51Bi26
_chemical_formula_sum   'Ba51 Fe51 Bi26'
_cell_volume   4385.37487336
_cell_formula_units_Z   1
loop_
 _symmetry_equiv_pos_site_id
 _symmetry_equiv_pos_as_xyz
  1  'x, y, z'
loop_
 _atom_site_type_symbol
 _atom_site_label
 _atom_site_symmetry_multiplicity
 _atom_site_fract_x
 _atom_site_fract_y
 _atom_site_fract_z
 _atom_site_occupancy
  Ba  Ba0  1  0.71394704  0.67418440  -0.00366838  1
  Ba  Ba1  1  -0.10166498  -0.04395674  0.06257316  1
  Ba  Ba2  1  0.76746284  -0.04513643  0.85346816  1
  Ba  Ba3  1  0.04379479  -0.10553099  0.28485855  1
  Ba  Ba4  1  0.71757396  0.40705914  0.89285712  1
  Ba  Ba5  1  0.23301012  0.73482224  0.16787673  1
  Ba  Ba6  1  0.27736939  0.04732948  0.55562521  1
  Ba  Ba7  1  0.44623028  0.35590338  0.75921605  1
  Ba  Ba8  1  -0.04796879  0.75213291  -0.10105532  1
  Ba  Ba9  1  0.23977353  0.68411916  0.45743541  1
  Ba  Ba10  1  0.12141792  0.82015803  0.68833741  1
  Ba  Ba11  1  0.04865990  0.42194939  0.78272390  1
  Ba  Ba12  1  0.46485322  0.68569968  0.76998596  1
  Ba  Ba13  1  0.81060327  0.22746187  0.53718261  1
  Ba  Ba14  1  0.21530940  0.49833605  0.24958133  1
  Ba  Ba15  1  0.72910159  0.85765915  0.58007483  1
  Ba  Ba16  1  -0.01755468  0.25350655  0.02025704  1
  Ba  Ba17  1  0.74009283  0.87401700  0.32437525  1
  Ba  Ba18  1  0.25159417  0.80059314  -0.11848291  1
  Ba  Ba19  1  0.52190855  0.73734001  0.18474244  1
  Ba  Ba20  1  0.25944389  0.57505118  0.66361052  1
  Ba  Ba21  1  0.47957230  -0.02469440  0.70558048  1
  Ba  Ba22  1  0.24571954  0.02845167  0.80444935  1
  Ba  Ba23  1  0.05424612  0.28679994  0.25240261  1
  Ba  Ba24  1  -0.04862094  0.67996164  0.16413525  1
  Ba  Ba25  1  0.52666258  0.26588923  0.01012788  1
  Ba  Ba26  1  -0.04737079  0.46087672  0.40765113  1
  Ba  Ba27  1  0.23628411  -0.01066727  0.05336513  1
  Ba  Ba28  1  0.75259300  0.64754039  0.72911321  1
  Ba  Ba29  1  0.76345232  0.31904906  0.11261537  1
  Ba  Ba30  1  0.51710964  0.03205730  0.13379860  1
  Ba  Ba31  1  0.21787410  0.05594618  0.30145645  1
  Ba  Ba32  1  0.65157232  0.18704133  0.77082741  1
  Ba  Ba33  1  0.47292449  0.70186020  0.48384479  1
  Ba  Ba34  1  0.73282378  0.45844066  0.55693893  1
  Ba  Ba35  1  -0.02968550  0.59544591  0.64547246  1
  Ba  Ba36  1  0.85181250  0.14178759  0.28505152  1
  Ba  Ba37  1  -0.06076342  0.20429115  0.75186400  1
  Ba  Ba38  1  0.32751935  0.26957523  0.39602930  1
  Ba  Ba39  1  0.64117472  0.29214337  0.34383038  1
  Ba  Ba40  1  0.45401701  0.00804244  0.38772484  1
  Ba  Ba41  1  -0.04903189  0.76905183  0.47315801  1
  Ba  Ba42  1  0.05258720  0.51274858  0.02189401  1
  Ba  Ba43  1  0.75026679  0.57493917  0.28308374  1
  Ba  Ba44  1  0.46896322  0.44915582  0.25698921  1
  Ba  Ba45  1  0.22677501  0.30959926  0.61060062  1
  Ba  Ba46  1  -0.00512083  0.00424898  0.62585154  1
  Ba  Ba47  1  0.25670306  0.24778298  -0.09490000  1
  Ba  Ba48  1  0.53505278  0.84568830  -0.04486917  1
  Ba  Ba49  1  0.25236000  0.52433077  -0.06813274  1
  Ba  Ba50  1  0.33250954  0.23041849  0.14065966  1
  Fe  Fe51  1  0.32479462  0.86632684  0.47545146  1
  Fe  Fe52  1  0.62409472  0.14323757  0.47576289  1
  Fe  Fe53  1  0.33820394  0.41798642  0.07768280  1
  Fe  Fe54  1  0.10686045  0.54842197  0.47718316  1
  Fe  Fe55  1  0.10239989  0.46070874  0.57060288  1
  Fe  Fe56  1  1.03008442  0.10469493  0.34796096  1
  Fe  Fe57  1  0.52172333  0.59576990  0.02822354  1
  Fe  Fe58  1  0.73755436  1.04379205  0.48532358  1
  Fe  Fe59  1  0.97605140  0.94084606  0.81859951  1
  Fe  Fe60  1  0.43217072  0.33660482  0.56272879  1
  Fe  Fe61  1  0.12519549  0.68971651  -0.02033541  1
  Fe  Fe62  1  0.79394716  0.12084243  0.08529401  1
  Fe  Fe63  1  0.67881506  0.65814152  0.50068081  1
  Fe  Fe64  1  0.88275347  0.59252966  0.99522782  1
  Fe  Fe65  1  0.49599890  0.22037353  0.46496302  1
  Fe  Fe66  1  0.06515911  0.06713923  0.83158783  1
  Fe  Fe67  1  0.42425503  0.19895542  0.58300361  1
  Fe  Fe68  1  0.58659762  0.59096441  0.59018981  1
  Fe  Fe69  1  0.66903469  0.14811361  0.15605790  1
  Fe  Fe70  1  0.09662739  0.15797419  0.54956525  1
  Fe  Fe71  1  0.08611750  0.08763583  0.97858145  1
  Fe  Fe72  1  0.57192646  0.58880205  0.89541723  1
  Fe  Fe73  1  0.48021734  0.45630146  0.06146536  1
  Fe  Fe74  1  0.53807569  0.44353917  0.56717054  1
  Fe  Fe75  1  0.80142049  0.51571548  0.06739806  1
  Fe  Fe76  1  0.87675158  0.51836686  0.87979718  1
  Fe  Fe77  1  0.39212226  0.11115608  -0.01765366  1
  Fe  Fe78  1  0.73171851  1.02759205  0.16797971  1
  Fe  Fe79  1  0.37523680  0.80431105  0.34378362  1
  Fe  Fe80  1  0.08594011  0.04777901  0.45393703  1
  Fe  Fe81  1  0.40374293  0.99760586  0.90786872  1
  Fe  Fe82  1  0.40174066  0.40668595  0.95940899  1
  Fe  Fe83  1  0.26792653  0.87596809  0.35557820  1
  Fe  Fe84  1  0.98255975  0.15938963  0.46942905  1
  Fe  Fe85  1  0.46309043  0.53733575  0.62660675  1
  Fe  Fe86  1  0.43229330  0.54441523  0.93068003  1
  Fe  Fe87  1  0.67936983  0.15479836  1.01150782  1
  Fe  Fe88  1  0.07124269  0.94630610  0.91162690  1
  Fe  Fe89  1  0.38374356  0.55191513  0.08424666  1
  Fe  Fe90  1  0.88455629  0.43962372  0.99202104  1
  Fe  Fe91  1  0.95768518  0.05501456  0.90448409  1
  Fe  Fe92  1  0.80017006  0.64465776  0.50533680  1
  Fe  Fe93  1  0.51903172  0.10338311  0.56093652  1
  Fe  Fe94  1  0.42851207  0.13039927  0.85485827  1
  Fe  Fe95  1  0.54082284  0.46095518  0.92854154  1
  Fe  Fe96  1  0.49820535  0.36947006  0.44820975  1
  Fe  Fe97  1  0.15189300  0.17358599  0.06951692  1
  Fe  Fe98  1  0.64366052  1.05973965  0.60392535  1
  Fe  Fe99  1  0.11971306  0.20227763  0.42474827  1
  Fe  Fe100  1  0.61305393  0.99598718  0.48373393  1
  Fe  Fe101  1  0.68664911  1.02221835  1.03568127  1
  Bi  Bi102  1  0.14676184  -0.11070642  0.47574885  1
  Bi  Bi103  1  0.59332369  0.51964805  0.41786294  1
  Bi  Bi104  1  0.15361877  0.38584870  0.42023208  1
  Bi  Bi105  1  0.56757670  0.05519603  -0.08584449  1
  Bi  Bi106  1  0.01243033  0.30776771  0.57150315  1
  Bi  Bi107  1  0.79191676  0.05761137  0.66260869  1
  Bi  Bi108  1  0.38813784  0.70087925  0.00082997  1
  Bi  Bi109  1  0.63595329  0.49466695  0.10006255  1
  Bi  Bi110  1  0.65016922  0.06797726  0.31800592  1
  Bi  Bi111  1  0.81795891  0.16508056  -0.07812541  1
  Bi  Bi112  1  0.59240992  0.50760454  0.73943212  1
  Bi  Bi113  1  0.04680054  0.08375001  0.16543285  1
  Bi  Bi114  1  0.59622043  0.28143988  0.58625558  1
  Bi  Bi115  1  0.08060731  0.83611379  0.05426889  1
  Bi  Bi116  1  0.36800725  0.47598071  0.49668977  1
  Bi  Bi117  1  0.17693784  0.35037642  0.08065020  1
  Bi  Bi118  1  0.68643421  0.86692900  0.10792015  1
  Bi  Bi119  1  0.36184677  0.90738323  0.20828828  1
  Bi  Bi120  1  0.33142139  0.81771328  0.64784926  1
  Bi  Bi121  1  0.06873467  0.64212365  0.33712830  1
  Bi  Bi122  1  0.37335323  0.63846145  0.28765404  1
  Bi  Bi123  1  0.91411805  0.45609796  0.17657185  1
  Bi  Bi124  1  0.11160332  0.63499126  0.81625063  1
  Bi  Bi125  1  0.89954875  -0.00186681  0.43031427  1
  Bi  Bi126  1  0.85237269  0.42605916  0.72667353  1
  Bi  Bi127  1  0.90528457  0.81630059  0.70096941  1
