# generated using pymatgen
data_Ba51Fe51Bi26
_symmetry_space_group_name_H-M   'P 1'
_cell_length_a   16.32956643
_cell_length_b   16.08711480
_cell_length_c   16.56164801
_cell_angle_alpha   89.38138443
_cell_angle_beta   90.03079105
_cell_angle_gamma   90.32048338
_symmetry_Int_Tables_number   1
_chemical_formula_structural   Ba51Fe51Bi26
_chemical_formula_sum   'Ba51 Fe51 Bi26'
_cell_volume   4350.35008835
_cell_formula_units_Z   1
loop_
 _symmetry_equiv_pos_site_id
 _symmetry_equiv_pos_as_xyz
  1  'x, y, z'
loop_
 _atom_site_type_symbol
 _atom_site_label
 _atom_site_symmetry_multiplicity
 _atom_site_fract_x
 _atom_site_fract_y
 _atom_site_fract_z
 _atom_site_occupancy
  Ba  Ba0  1  0.19344086  0.62082272  0.70096626  1
  Ba  Ba1  1  0.48146824  0.01141511  0.78020547  1
  Ba  Ba2  1  0.67538449  0.22278636  -0.00782941  1
  Ba  Ba3  1  0.21436270  0.35876577  0.77087207  1
  Ba  Ba4  1  0.79109638  -0.12424917  0.78743705  1
  Ba  Ba5  1  0.42826652  0.42511976  0.60648841  1
  Ba  Ba6  1  0.69146961  -0.02637066  -0.01750573  1
  Ba  Ba7  1  0.70598657  0.41328728  0.30445804  1
  Ba  Ba8  1  0.49719131  0.61466952  0.77859525  1
  Ba  Ba9  1  0.32349477  -0.12220810  0.33561983  1
  Ba  Ba10  1  0.51600401  0.18488769  0.61238867  1
  Ba  Ba11  1  0.49898558  0.13691608  0.38815505  1
  Ba  Ba12  1  0.50954188  0.84011367  0.04839857  1
  Ba  Ba13  1  -0.08633468  0.14487380  -0.04277483  1
  Ba  Ba14  1  0.56857921  0.59740228  0.49062293  1
  Ba  Ba15  1  -0.11246392  0.57400248  0.21657622  1
  Ba  Ba16  1  0.04247843  -0.15423750  0.63834475  1
  Ba  Ba17  1  0.20103915  0.51525185  0.15595006  1
  Ba  Ba18  1  0.74482073  0.25572789  0.74530128  1
  Ba  Ba19  1  0.56051150  -0.13173851  0.34409744  1
  Ba  Ba20  1  -0.09996074  0.06975414  0.44663087  1
  Ba  Ba21  1  0.73432393  0.63828465  0.81129351  1
  Ba  Ba22  1  0.51679727  0.82968708  0.62429326  1
  Ba  Ba23  1  -0.06845079  0.08467813  0.71649043  1
  Ba  Ba24  1  0.89121056  0.10472773  0.19088609  1
  Ba  Ba25  1  0.44275488  0.43600023  0.31615308  1
  Ba  Ba26  1  0.66760118  0.19055513  0.22092996  1
  Ba  Ba27  1  0.39065266  0.06154114  0.15617972  1
  Ba  Ba28  1  0.59945931  0.65846628  0.19970690  1
  Ba  Ba29  1  0.80298370  0.86642498  0.26942354  1
  Ba  Ba30  1  0.21936975  0.08115039  0.68241920  1
  Ba  Ba31  1  -0.01150179  0.70266865  0.42906660  1
  Ba  Ba32  1  0.24850022  0.60631602  0.42401184  1
  Ba  Ba33  1  0.34722263  0.75877364  -0.10170370  1
  Ba  Ba34  1  -0.04510574  0.49201405  0.54152597  1
  Ba  Ba35  1  0.52136902  0.32733202  0.85122596  1
  Ba  Ba36  1  0.01434163  0.34031231  0.20943432  1
  Ba  Ba37  1  -0.01793043  0.66417016  0.83437987  1
  Ba  Ba38  1  0.07172777  0.34863567  -0.03178844  1
  Ba  Ba39  1  0.28020876  0.01726167  -0.07327379  1
  Ba  Ba40  1  0.16838822  0.04072101  0.45604679  1
  Ba  Ba41  1  0.39450706  0.51690502  0.01813859  1
  Ba  Ba42  1  0.70170094  0.02911516  0.59592057  1
  Ba  Ba43  1  0.31499367  0.24427765  -0.01012598  1
  Ba  Ba44  1  0.28098068  0.24667785  0.29182264  1
  Ba  Ba45  1  -0.14683443  0.41126488  -0.11306015  1
  Ba  Ba46  1  0.04014699  -0.06407892  -0.09522931  1
  Ba  Ba47  1  0.10009922  -0.04557376  0.16978497  1
  Ba  Ba48  1  0.06446373  0.30273132  0.43572396  1
  Ba  Ba49  1  0.09588094  0.72512101  0.05806205  1
  Ba  Ba50  1  0.68732805  0.46826095  0.05385121  1
  Fe  Fe51  1  0.32271816  0.25938328  0.61141599  1
  Fe  Fe52  1  0.15533812  0.74112070  0.86737477  1
  Fe  Fe53  1  0.65575105  0.80132463  0.50225059  1
  Fe  Fe54  1  0.39844389  0.27572712  0.47968981  1
  Fe  Fe55  1  0.55497220  0.34956682  0.17113759  1
  Fe  Fe56  1  0.86898113  0.74638424  0.09791687  1
  Fe  Fe57  1  0.74109680  0.82037338  0.60706189  1
  Fe  Fe58  1  0.47103774  0.25039215  0.21821993  1
  Fe  Fe59  1  0.71958496  0.23361513  0.55386746  1
  Fe  Fe60  1  0.49816596  0.22617275  0.08814143  1
  Fe  Fe61  1  0.39778853  0.76114567  0.19044767  1
  Fe  Fe62  1  0.11396207  0.65916706  0.25751442  1
  Fe  Fe63  1  0.14947614  0.77944249  0.29731084  1
  Fe  Fe64  1  0.23441357  0.89580128  0.59736463  1
  Fe  Fe65  1  0.82189348  0.76808315  0.48731494  1
  Fe  Fe66  1  0.78923401  0.38473601  0.60928788  1
  Fe  Fe67  1  0.70655890  0.20447049  0.42159733  1
  Fe  Fe68  1  0.76250869  0.54327899  0.60119206  1
  Fe  Fe69  1  0.12388823  0.10892498  0.01240920  1
  Fe  Fe70  1  0.91678275  0.35744492  0.69317987  1
  Fe  Fe71  1  0.06020791  0.34636767  0.63811701  1
  Fe  Fe72  1  0.27418361  0.32258337  0.47659968  1
  Fe  Fe73  1  0.85189701  0.88443604  0.56535985  1
  Fe  Fe74  1  0.37236676  0.61465858  0.19476218  1
  Fe  Fe75  1  0.74462731  0.81182625  0.08865973  1
  Fe  Fe76  1  0.69788887  0.44786269  0.50703298  1
  Fe  Fe77  1  0.30693782  0.17525657  0.50459543  1
  Fe  Fe78  1  0.68954101  0.76753988  0.96006431  1
  Fe  Fe79  1  0.83749603  0.48430203  0.70454865  1
  Fe  Fe80  1  0.34412189  0.91342757  0.67302112  1
  Fe  Fe81  1  0.32897435  0.81352786  0.54544162  1
  Fe  Fe82  1  1.06196369  0.17582658  0.10681982  1
  Fe  Fe83  1  0.25488312  0.71224910  0.22169980  1
  Fe  Fe84  1  0.77701007  0.33111182  0.47225719  1
  Fe  Fe85  1  0.50482645  0.35717242  1.04857651  1
  Fe  Fe86  1  0.18581306  0.25789125  0.57770659  1
  Fe  Fe87  1  0.71706147  0.73980664  0.40366736  1
  Fe  Fe88  1  0.18987884  0.15220744  0.12903517  1
  Fe  Fe89  1  0.61864246  0.31465186  0.45774707  1
  Fe  Fe90  1  0.75319655  0.89010041  0.46111769  1
  Fe  Fe91  1  0.64340356  0.34601072  0.58516130  1
  Fe  Fe92  1  0.73874144  0.67551447  0.05104955  1
  Fe  Fe93  1  0.72868863  0.68345257  0.55637109  1
  Fe  Fe94  1  0.00871749  0.28023886  0.76399855  1
  Fe  Fe95  1  0.76112939  0.07297518  0.82586597  1
  Fe  Fe96  1  0.06307459  0.21213818  0.64745887  1
  Fe  Fe97  1  0.32733273  0.69359801  0.09470333  1
  Fe  Fe98  1  0.83463878  0.77177891  0.96705972  1
  Fe  Fe99  1  0.64000036  0.10841785  0.83497214  1
  Fe  Fe100  1  0.40387540  0.33951509  1.14030812  1
  Fe  Fe101  1  0.30982192  0.78243236  0.68273999  1
  Bi  Bi102  1  0.16956443  0.81262667  0.46671263  1
  Bi  Bi103  1  0.78665892  0.58381855  0.42429782  1
  Bi  Bi104  1  0.28805239  0.86394249  0.09911308  1
  Bi  Bi105  1  0.20336279  0.87599455  0.77787310  1
  Bi  Bi106  1  0.87328536  0.70306381  0.64328357  1
  Bi  Bi107  1  0.90096992  0.24586125  0.57521802  1
  Bi  Bi108  1  0.19418852  0.43768792  0.56983939  1
  Bi  Bi109  1  0.57993069  0.82045667  0.83726605  1
  Bi  Bi110  1  0.02274808  0.46514544  0.76489418  1
  Bi  Bi111  1  0.49984940  0.09594644  -0.02644468  1
  Bi  Bi112  1  0.88152784  0.59570347  0.00421550  1
  Bi  Bi113  1  0.64583442  0.46319328  0.70314281  1
  Bi  Bi114  1  -0.01347237  0.77028576  0.22883444  1
  Bi  Bi115  1  0.69981853  0.03460562  0.37389908  1
  Bi  Bi116  1  0.43499863  0.68022337  0.33622245  1
  Bi  Bi117  1  0.06641815  0.51244379  0.33457259  1
  Bi  Bi118  1  0.36974975  0.20748637  0.76915444  1
  Bi  Bi119  1  0.84197952  0.31545848  0.08888432  1
  Bi  Bi120  1  0.38450491  0.65183374  0.60037340  1
  Bi  Bi121  1  0.57533971  0.63716131  0.98193608  1
  Bi  Bi122  1  0.88922918  0.92119238  0.05607578  1
  Bi  Bi123  1  0.10466385  0.16130382  0.84902402  1
  Bi  Bi124  1  0.37771712  1.00141016  0.53038359  1
  Bi  Bi125  1  0.19450388  0.58590650  0.92664160  1
  Bi  Bi126  1  0.09027809  0.14194952  0.27866381  1
  Bi  Bi127  1  0.85220725  0.25845067  0.34012135  1
