# generated using pymatgen
data_Ba51Fe51Bi26
_symmetry_space_group_name_H-M   'P 1'
_cell_length_a   16.29530769
_cell_length_b   15.97933683
_cell_length_c   16.88184127
_cell_angle_alpha   91.16237304
_cell_angle_beta   89.81665665
_cell_angle_gamma   90.23534284
_symmetry_Int_Tables_number   1
_chemical_formula_structural   Ba51Fe51Bi26
_chemical_formula_sum   'Ba51 Fe51 Bi26'
_cell_volume   4394.86943592
_cell_formula_units_Z   1
loop_
 _symmetry_equiv_pos_site_id
 _symmetry_equiv_pos_as_xyz
  1  'x, y, z'
loop_
 _atom_site_type_symbol
 _atom_site_label
 _atom_site_symmetry_multiplicity
 _atom_site_fract_x
 _atom_site_fract_y
 _atom_site_fract_z
 _atom_site_occupancy
  Ba  Ba0  1  0.68912916  0.70616965  0.43421513  1
  Ba  Ba1  1  0.40584150  0.25246441  0.43560275  1
  Ba  Ba2  1  0.23440645  0.47669617  0.81854463  1
  Ba  Ba3  1  0.00526968  -0.07508198  0.20763880  1
  Ba  Ba4  1  0.53239961  0.79771285  0.75103343  1
  Ba  Ba5  1  0.56851038  0.69700164  -0.02553233  1
  Ba  Ba6  1  0.71669319  0.02846282  0.74751676  1
  Ba  Ba7  1  0.74991781  0.53083978  0.78492161  1
  Ba  Ba8  1  0.09591873  0.50665979  0.04337929  1
  Ba  Ba9  1  0.65801952  0.24281499  0.44380864  1
  Ba  Ba10  1  -0.06779230  0.28262374  0.00542905  1
  Ba  Ba11  1  0.72814162  0.48378585  0.28409555  1
  Ba  Ba12  1  -0.00325997  0.71451848  -0.08234007  1
  Ba  Ba13  1  0.46897428  0.05227626  0.83230498  1
  Ba  Ba14  1  -0.03128160  0.72990262  0.51303303  1
  Ba  Ba15  1  0.06131076  0.29153229  0.81312557  1
  Ba  Ba16  1  0.16096611  0.34400662  0.45568565  1
  Ba  Ba17  1  0.50863684  -0.07486997  0.48119449  1
  Ba  Ba18  1  0.54558187  0.45688455  0.54751341  1
  Ba  Ba19  1  0.50057450  0.47386660  0.13504030  1
  Ba  Ba20  1  0.20251706  0.29171392  0.20399354  1
  Ba  Ba21  1  0.29258936  0.51575147  0.24415356  1
  Ba  Ba22  1  0.55105243  0.24471265  0.68751580  1
  Ba  Ba23  1  0.79458269  0.78060919  0.15773696  1
  Ba  Ba24  1  0.08740766  0.69849194  0.28542847  1
  Ba  Ba25  1  0.80982566  0.28575209  0.67229286  1
  Ba  Ba26  1  0.45484237  0.69227265  0.53881739  1
  Ba  Ba27  1  0.51655081  0.06852445  0.29287856  1
  Ba  Ba28  1  0.75452731  0.06732683  -0.02891252  1
  Ba  Ba29  1  0.24416201  0.05449112  0.24761727  1
  Ba  Ba30  1  -0.02084081  0.45832312  0.32572003  1
  Ba  Ba31  1  0.50288914  0.26652821  -0.01321942  1
  Ba  Ba32  1  0.73904252  0.02439965  0.51250877  1
  Ba  Ba33  1  0.27999445  0.26273233  0.66781732  1
  Ba  Ba34  1  0.02730799  0.15509310  0.61149932  1
  Ba  Ba35  1  0.81789745  0.50402657  0.51996888  1
  Ba  Ba36  1  -0.01944444  0.20056371  0.21745408  1
  Ba  Ba37  1  -0.03763021  -0.03254288  0.46689879  1
  Ba  Ba38  1  0.24120626  0.78587984  0.75490243  1
  Ba  Ba39  1  -0.00014574  0.04755937  -0.01880528  1
  Ba  Ba40  1  0.77808851  0.06859194  0.25498571  1
  Ba  Ba41  1  0.23654132  0.03761810  0.77303821  1
  Ba  Ba42  1  0.20939519  0.78044153  0.52033215  1
  Ba  Ba43  1  0.82213042  0.76195551  0.71068214  1
  Ba  Ba44  1  0.49579372  0.78489952  0.28744690  1
  Ba  Ba45  1  0.77145472  0.50640580  0.03460592  1
  Ba  Ba46  1  0.31033252  0.65650049  -0.03683380  1
  Ba  Ba47  1  0.23843584  -0.03861263  0.02063345  1
  Ba  Ba48  1  0.27435924  0.52815972  0.58465327  1
  Ba  Ba49  1  0.51445060  -0.07977790  0.06289893  1
  Ba  Ba50  1  0.26593068  0.03677948  0.49878912  1
  Fe  Fe51  1  0.38336173  0.28574010  0.13186216  1
  Fe  Fe52  1  0.64299021  0.20802804  0.85354622  1
  Fe  Fe53  1  0.41836328  0.09807749  0.61899277  1
  Fe  Fe54  1  0.66433960  0.34527978  0.83031525  1
  Fe  Fe55  1  0.93180684  0.58224831  0.65009106  1
  Fe  Fe56  1  0.47252114  0.56619722  0.69195941  1
  Fe  Fe57  1  0.88364174  0.20374275  0.48756944  1
  Fe  Fe58  1  0.84765134  0.83621379  0.34837450  1
  Fe  Fe59  1  0.02802127  0.00884435  0.76479265  1
  Fe  Fe60  1  0.09380632  0.40990168  0.66011683  1
  Fe  Fe61  1  0.86222829  0.87654884  -0.03943221  1
  Fe  Fe62  1  0.27585004  0.72133116  0.21523856  1
  Fe  Fe63  1  0.30783501  0.18837427  0.89267126  1
  Fe  Fe64  1  0.38919861  0.20681629  0.23834707  1
  Fe  Fe65  1  0.52589180  0.27165234  0.20886680  1
  Fe  Fe66  1  -0.01801784  0.26387216  0.41082717  1
  Fe  Fe67  1  0.77339103  0.22604763  0.84358300  1
  Fe  Fe68  1  0.03949261  0.14327021  0.40555882  1
  Fe  Fe69  1  0.28897926  0.83663185  0.30619577  1
  Fe  Fe70  1  0.90429328  0.13060768  0.38165377  1
  Fe  Fe71  1  0.24756371  0.30623229  0.91214502  1
  Fe  Fe72  1  0.42188015  0.43893547  0.70579901  1
  Fe  Fe73  1  0.40208809  0.33978170  0.26218126  1
  Fe  Fe74  1  0.55465811  0.58178165  0.79095243  1
  Fe  Fe75  1  0.17410680  0.16902200  0.93056034  1
  Fe  Fe76  1  0.80551925  0.35773264  0.86119912  1
  Fe  Fe77  1  0.72885899  0.86824100  -0.00200911  1
  Fe  Fe78  1  0.76506372  0.21320628  0.12325104  1
  Fe  Fe79  1  0.55146855  0.43385370  0.76410883  1
  Fe  Fe80  1  0.92107360  -0.02632427  0.68764390  1
  Fe  Fe81  1  0.67498078  0.24831258  0.24460479  1
  Fe  Fe82  1  0.19729915  0.85749579  0.20926860  1
  Fe  Fe83  1  0.28305961  0.22465249  0.03320531  1
  Fe  Fe84  1  0.14379909  0.17309215  0.05657453  1
  Fe  Fe85  1  0.91599675  0.93261616  0.83126744  1
  Fe  Fe86  1  0.52675675  0.11328255  0.53950119  1
  Fe  Fe87  1  0.53610129  1.03174287  0.64186055  1
  Fe  Fe88  1  0.78182223  0.87875011  -0.14156057  1
  Fe  Fe89  1  0.14842695  0.30056222  0.00855902  1
  Fe  Fe90  1  0.94001884  0.58778296  0.77488979  1
  Fe  Fe91  1  0.65111993  0.31916008  0.13451066  1
  Fe  Fe92  1  1.00686243  0.86426007  0.73418351  1
  Fe  Fe93  1  0.55156916  0.58282559  0.32188693  1
  Fe  Fe94  1  0.44186616  0.54818049  0.37841079  1
  Fe  Fe95  1  0.65235076  0.87475790  0.89513318  1
  Fe  Fe96  1  0.32216561  0.83470251  0.15605533  1
  Fe  Fe97  1  0.43560437  0.51072264  0.82847475  1
  Fe  Fe98  1  0.95179351  0.44602034  0.70068711  1
  Fe  Fe99  1  0.06220246  0.53123221  0.74352091  1
  Fe  Fe100  1  0.04883559  0.52293497  0.59637191  1
  Fe  Fe101  1  0.79378541  0.32806979  0.18347365  1
  Bi  Bi102  1  0.57772491  0.48007044  0.92525427  1
  Bi  Bi103  1  -0.02789017  0.35959043  0.55113001  1
  Bi  Bi104  1  0.05031277  0.69835249  0.70100871  1
  Bi  Bi105  1  0.53646017  0.40298580  0.34218791  1
  Bi  Bi106  1  0.38941826  0.10753114  0.10142071  1
  Bi  Bi107  1  0.72045921  0.29463942  -0.01420534  1
  Bi  Bi108  1  0.29476936  0.41342451  0.04040726  1
  Bi  Bi109  1  -0.09305977  0.12433233  0.80433254  1
  Bi  Bi110  1  0.77793724  0.71536288  -0.07212490  1
  Bi  Bi111  1  0.15428206  0.74474487  0.08948960  1
  Bi  Bi112  1  0.32422913  0.67931428  0.37478284  1
  Bi  Bi113  1  0.82951351  0.29526463  0.34287132  1
  Bi  Bi114  1  -0.05510293  0.46616689  0.88627538  1
  Bi  Bi115  1  0.61466347  0.13093969  0.12352638  1
  Bi  Bi116  1  0.68777589  0.89865241  0.34342572  1
  Bi  Bi117  1  0.38847797  0.85716513  0.89977712  1
  Bi  Bi118  1  0.14125173  0.90474867  0.36402831  1
  Bi  Bi119  1  0.39653343  0.32518398  0.82247625  1
  Bi  Bi120  1  0.10377331  0.94702169  0.62300024  1
  Bi  Bi121  1  0.09556534  0.89851920  0.87056897  1
  Bi  Bi122  1  0.63440588  0.63425763  0.64212451  1
  Bi  Bi123  1  0.38267117  0.92309163  0.64718833  1
  Bi  Bi124  1  0.41546156  0.68648396  0.12844737  1
  Bi  Bi125  1  0.63367682  0.64374724  0.18631565  1
  Bi  Bi126  1  0.87145383  0.66347872  0.33402516  1
  Bi  Bi127  1  0.11768762  0.56844699  0.45071462  1
