# generated using pymatgen
data_Ba51Fe51Bi26
_symmetry_space_group_name_H-M   'P 1'
_cell_length_a   16.36137521
_cell_length_b   16.11330373
_cell_length_c   16.57337736
_cell_angle_alpha   90.40251665
_cell_angle_beta   89.69712450
_cell_angle_gamma   90.14409566
_symmetry_Int_Tables_number   1
_chemical_formula_structural   Ba51Fe51Bi26
_chemical_formula_sum   'Ba51 Fe51 Bi26'
_cell_volume   4369.15345494
_cell_formula_units_Z   1
loop_
 _symmetry_equiv_pos_site_id
 _symmetry_equiv_pos_as_xyz
  1  'x, y, z'
loop_
 _atom_site_type_symbol
 _atom_site_label
 _atom_site_symmetry_multiplicity
 _atom_site_fract_x
 _atom_site_fract_y
 _atom_site_fract_z
 _atom_site_occupancy
  Ba  Ba0  1  0.04874945  -0.00775389  0.67224160  1
  Ba  Ba1  1  0.78456539  0.51549413  0.51001925  1
  Ba  Ba2  1  0.19761681  0.04629918  0.25755639  1
  Ba  Ba3  1  -0.04798085  0.86461347  0.15566812  1
  Ba  Ba4  1  0.75963359  0.00592989  0.12790689  1
  Ba  Ba5  1  0.77876759  0.51675439  -0.04899365  1
  Ba  Ba6  1  0.20981953  0.46526420  0.59761435  1
  Ba  Ba7  1  0.03031184  0.20609443  0.37066525  1
  Ba  Ba8  1  0.38863936  0.55173448  0.72943866  1
  Ba  Ba9  1  0.21381686  0.61424676  -0.05251505  1
  Ba  Ba10  1  0.45771893  0.00442394  0.47801686  1
  Ba  Ba11  1  0.74083556  0.78070578  0.41118377  1
  Ba  Ba12  1  0.74597461  0.24796128  -0.02009029  1
  Ba  Ba13  1  -0.01533963  0.43192098  0.10276942  1
  Ba  Ba14  1  -0.09986837  0.67961953  0.70359589  1
  Ba  Ba15  1  0.27112135  0.32127344  0.32952304  1
  Ba  Ba16  1  0.02516328  0.74434486  0.47957713  1
  Ba  Ba17  1  0.30743035  0.12455622  0.03046018  1
  Ba  Ba18  1  0.60817487  0.59997813  0.79735731  1
  Ba  Ba19  1  0.51640170  0.26094324  -0.03532908  1
  Ba  Ba20  1  0.48179058  0.49981844  -0.00791437  1
  Ba  Ba21  1  0.03252102  0.65616836  0.25114874  1
  Ba  Ba22  1  0.22583783  0.22300537  0.71135389  1
  Ba  Ba23  1  0.59155815  0.35789715  0.45216988  1
  Ba  Ba24  1  -0.02461251  -0.01208956  0.43902543  1
  Ba  Ba25  1  0.21979932  0.46982649  0.15158495  1
  Ba  Ba26  1  0.39691364  0.49791665  0.45788020  1
  Ba  Ba27  1  0.78083250  0.27876045  0.24368434  1
  Ba  Ba28  1  0.66164763  0.74663757  0.63097995  1
  Ba  Ba29  1  -0.01769664  0.15133285  0.06190323  1
  Ba  Ba30  1  0.80879883  0.26137933  0.75219708  1
  Ba  Ba31  1  0.24836628  -0.09793140  0.49775874  1
  Ba  Ba32  1  0.57650457  -0.04166853  0.25614048  1
  Ba  Ba33  1  0.79701017  -0.06790507  0.77790818  1
  Ba  Ba34  1  0.46625666  0.73234952  0.48748658  1
  Ba  Ba35  1  0.78719535  0.20186471  0.49087668  1
  Ba  Ba36  1  0.51469485  0.73634225  0.21994666  1
  Ba  Ba37  1  0.65854161  0.02415086  0.61078603  1
  Ba  Ba38  1  0.15517098  0.70457135  0.70379378  1
  Ba  Ba39  1  0.20957899  -0.09862142  0.85769367  1
  Ba  Ba40  1  0.26639470  0.68185488  0.31085804  1
  Ba  Ba41  1  0.48769777  0.29011541  0.67461441  1
  Ba  Ba42  1  0.60153752  0.01199488  -0.04950100  1
  Ba  Ba43  1  0.76139313  0.55799227  0.23752989  1
  Ba  Ba44  1  -0.03349834  0.35172961  0.59400418  1
  Ba  Ba45  1  0.22968761  0.82675902  0.12052795  1
  Ba  Ba46  1  0.16438244  0.29335619  -0.05295603  1
  Ba  Ba47  1  0.42869940  0.05014038  0.74554537  1
  Ba  Ba48  1  0.49812038  0.46615139  0.22314679  1
  Ba  Ba49  1  0.43799964  0.15873867  0.27049255  1
  Ba  Ba50  1  0.45659026  0.78295243  -0.03676794  1
  Fe  Fe51  1  1.05590441  0.47297487  0.89648316  1
  Fe  Fe52  1  0.40006852  0.96108047  0.14709465  1
  Fe  Fe53  1  0.33054718  0.74080909  0.78596507  1
  Fe  Fe54  1  0.77190255  0.09107232  0.34192772  1
  Fe  Fe55  1  0.77986590  0.98107309  0.45302770  1
  Fe  Fe56  1  0.45211706  0.86028638  0.64384731  1
  Fe  Fe57  1  0.35279170  0.73838267  0.64862598  1
  Fe  Fe58  1  0.12841216  0.56391891  0.44326192  1
  Fe  Fe59  1  0.93840737  0.48951508  0.82491958  1
  Fe  Fe60  1  0.97697737  0.59778173  0.94551645  1
  Fe  Fe61  1  0.98608417  0.52936022  0.41666425  1
  Fe  Fe62  1  -0.08426924  0.74826746  -0.04217568  1
  Fe  Fe63  1  0.05791903  0.72250303  0.90112995  1
  Fe  Fe64  1  0.06753125  0.15809497  0.57299018  1
  Fe  Fe65  1  0.65461946  0.39752775  0.80599616  1
  Fe  Fe66  1  0.31594760  0.86353950  0.68709355  1
  Fe  Fe67  1  0.03906626  0.70580695  0.03259449  1
  Fe  Fe68  1  0.33915523  0.27302059  0.52350154  1
  Fe  Fe69  1  0.36031310  0.23574736  0.84956026  1
  Fe  Fe70  1  0.91206995  -0.10202914  -0.03582070  1
  Fe  Fe71  1  0.20193954  0.11083916  0.52397084  1
  Fe  Fe72  1  1.00898915  -0.00957843  0.90601783  1
  Fe  Fe73  1  0.96853112  0.47417515  0.29202442  1
  Fe  Fe74  1  0.77707065  0.87029428  -0.02803387  1
  Fe  Fe75  1  0.11693122  0.49960322  0.32487678  1
  Fe  Fe76  1  0.65057269  0.82315773  0.06089968  1
  Fe  Fe77  1  0.66233618  0.03145739  0.40954730  1
  Fe  Fe78  1  0.03927274  0.60362303  0.82546616  1
  Fe  Fe79  1  0.58438664  0.15475209  0.43277224  1
  Fe  Fe80  1  0.93811845  0.38269525  0.38058603  1
  Fe  Fe81  1  0.65822291  0.68226574  0.10108121  1
  Fe  Fe82  1  0.06341888  0.37536765  0.28446313  1
  Fe  Fe83  1  0.35691837  0.36401616  0.84446026  1
  Fe  Fe84  1  0.05787860  0.49847993  0.73372510  1
  Fe  Fe85  1  0.64561672  0.14521683  0.31533669  1
  Fe  Fe86  1  0.77376156  0.74029471  0.02933874  1
  Fe  Fe87  1  0.09339293  0.09162285  0.87853427  1
  Fe  Fe88  1  0.34252277  0.14275989  0.56639494  1
  Fe  Fe89  1  0.07200286  0.41519468  0.42769154  1
  Fe  Fe90  1  0.63950686  0.68676986  0.97436226  1
  Fe  Fe91  1  0.78033685  0.95658929  0.32169652  1
  Fe  Fe92  1  0.46981918  0.74579885  0.72196777  1
  Fe  Fe93  1  0.30128503  0.14995034  0.43926165  1
  Fe  Fe94  1  0.03985633  0.37325710  0.78828096  1
  Fe  Fe95  1  0.48106045  0.04954790  0.10077690  1
  Fe  Fe96  1  0.40541118  0.85399004  0.78740722  1
  Fe  Fe97  1  0.65424633  0.81499085  0.92371284  1
  Fe  Fe98  1  0.64774107  0.41622146  0.68122417  1
  Fe  Fe99  1  0.04598492  0.84769727  0.97640518  1
  Fe  Fe100  1  0.44485470  0.20567593  0.47065730  1
  Fe  Fe101  1  0.94248071  0.14842000  0.60463919  1
  Bi  Bi102  1  0.79504804  0.48239601  0.72841009  1
  Bi  Bi103  1  0.73677342  0.79864972  0.20496615  1
  Bi  Bi104  1  0.02085913  0.19437605  0.74837806  1
  Bi  Bi105  1  0.12676345  -0.00285769  0.03215131  1
  Bi  Bi106  1  0.01843170  0.55757556  0.57699136  1
  Bi  Bi107  1  -0.08610578  0.07119954  0.25414650  1
  Bi  Bi108  1  0.25720857  0.66675798  0.51895358  1
  Bi  Bi109  1  -0.10393165  0.63734368  0.09223106  1
  Bi  Bi110  1  0.16954996  0.28012759  0.51009314  1
  Bi  Bi111  1  0.77350550  0.72158367  -0.14000770  1
  Bi  Bi112  1  0.84087406  0.05194281  -0.06216934  1
  Bi  Bi113  1  0.20631793  0.44952217  0.80698716  1
  Bi  Bi114  1  0.57418861  0.87433884  0.78078454  1
  Bi  Bi115  1  0.93688135  0.33785078  0.92023101  1
  Bi  Bi116  1  0.13407081  0.26060768  0.17228323  1
  Bi  Bi117  1  0.36787082  0.89690201  0.30347849  1
  Bi  Bi118  1  0.35965388  0.63785259  0.11038868  1
  Bi  Bi119  1  0.99871651  0.84489889  0.81016275  1
  Bi  Bi120  1  0.66135389  0.40937634  0.09902394  1
  Bi  Bi121  1  0.60027862  0.59090554  0.37764815  1
  Bi  Bi122  1  0.56087656  0.53429042  0.59386880  1
  Bi  Bi123  1  0.36956155  0.32038812  0.11638823  1
  Bi  Bi124  1  0.62293118  0.15542113  0.78990135  1
  Bi  Bi125  1  0.11259195  0.85107522  0.31539951  1
  Bi  Bi126  1  0.84387773  0.87579030  0.57359880  1
  Bi  Bi127  1  0.61068701  0.15781070  0.14339798  1
