# generated using pymatgen
data_Ba51Fe51Bi26
_symmetry_space_group_name_H-M   'P 1'
_cell_length_a   16.13495741
_cell_length_b   16.52013070
_cell_length_c   16.29357042
_cell_angle_alpha   87.42544866
_cell_angle_beta   86.73689791
_cell_angle_gamma   89.90103429
_symmetry_Int_Tables_number   1
_chemical_formula_structural   Ba51Fe51Bi26
_chemical_formula_sum   'Ba51 Fe51 Bi26'
_cell_volume   4331.65762351
_cell_formula_units_Z   1
loop_
 _symmetry_equiv_pos_site_id
 _symmetry_equiv_pos_as_xyz
  1  'x, y, z'
loop_
 _atom_site_type_symbol
 _atom_site_label
 _atom_site_symmetry_multiplicity
 _atom_site_fract_x
 _atom_site_fract_y
 _atom_site_fract_z
 _atom_site_occupancy
  Ba  Ba0  1  0.68410008  0.19461339  0.70311993  1
  Ba  Ba1  1  0.69545041  0.66630784  0.27857741  1
  Ba  Ba2  1  0.78738673  0.66861849  0.71412813  1
  Ba  Ba3  1  0.54401761  0.77493955  0.72840233  1
  Ba  Ba4  1  0.55171945  0.76135788  0.48032447  1
  Ba  Ba5  1  -0.03387800  0.67184884  0.14029469  1
  Ba  Ba6  1  0.72365801  -0.01787620  0.58550526  1
  Ba  Ba7  1  0.51974323  0.33243983  0.30994587  1
  Ba  Ba8  1  0.19201268  0.56173512  0.63167460  1
  Ba  Ba9  1  0.48058242  0.52374073  0.45561364  1
  Ba  Ba10  1  -0.02180713  0.23903419  0.78418559  1
  Ba  Ba11  1  0.29358791  0.31347472  0.49314690  1
  Ba  Ba12  1  -0.03128684  0.46898808  0.71990352  1
  Ba  Ba13  1  0.07183623  0.80064653  0.57425656  1
  Ba  Ba14  1  0.54460890  0.64596103  0.09444988  1
  Ba  Ba15  1  0.02701713  0.03678458  0.21482954  1
  Ba  Ba16  1  0.69432664  0.47078134  -0.03181820  1
  Ba  Ba17  1  0.71576954  -0.09087983  0.81666599  1
  Ba  Ba18  1  0.33757941  0.78565871  0.61594390  1
  Ba  Ba19  1  -0.07637637  0.03486822  0.44574579  1
  Ba  Ba20  1  0.15279010  0.81901191  0.15612939  1
  Ba  Ba21  1  -0.01084723  0.23994923  0.07774926  1
  Ba  Ba22  1  0.08150908  0.51340534  -0.07322089  1
  Ba  Ba23  1  0.01437804  0.44611361  0.20061564  1
  Ba  Ba24  1  0.32695846  0.70214528  0.85601443  1
  Ba  Ba25  1  0.40644770  0.13747566  0.38394854  1
  Ba  Ba26  1  0.01062849  0.74355395  -0.13940244  1
  Ba  Ba27  1  0.77161290  0.27057436  0.40867011  1
  Ba  Ba28  1  0.81037183  -0.08044517  0.21481017  1
  Ba  Ba29  1  0.10187889  0.65401354  0.35578112  1
  Ba  Ba30  1  0.71067529  0.42367251  0.73025218  1
  Ba  Ba31  1  -0.01438991  -0.01882943  0.86052218  1
  Ba  Ba32  1  0.45854127  0.41524640  0.69213036  1
  Ba  Ba33  1  0.46051041  0.50365162  -0.08169419  1
  Ba  Ba34  1  0.36598739  0.08790106  -0.02005210  1
  Ba  Ba35  1  0.24704622  0.26208538  -0.10962861  1
  Ba  Ba36  1  0.10693478  0.01475260  0.64561253  1
  Ba  Ba37  1  0.76275200  0.30694880  0.14427610  1
  Ba  Ba38  1  0.42522886  0.15143761  0.63219496  1
  Ba  Ba39  1  0.03415285  0.43052061  0.44754609  1
  Ba  Ba40  1  0.75586754  0.49286395  0.48882588  1
  Ba  Ba41  1  0.59129720  0.02263187  0.05595526  1
  Ba  Ba42  1  0.26075899  0.43845862  0.05962686  1
  Ba  Ba43  1  0.26372026  0.02698106  0.18526623  1
  Ba  Ba44  1  0.85489382  0.75806408  0.46734695  1
  Ba  Ba45  1  0.51859415  0.26471589  0.04494857  1
  Ba  Ba46  1  0.05975611  0.20567202  0.52124068  1
  Ba  Ba47  1  0.39174608  0.82819317  0.08217453  1
  Ba  Ba48  1  0.51608008  -0.06513585  0.31589221  1
  Ba  Ba49  1  0.31945213  0.57295657  0.22788931  1
  Ba  Ba50  1  0.78136998  0.74516889  0.01107671  1
  Fe  Fe51  1  0.88769020  0.42718184  0.90871908  1
  Fe  Fe52  1  0.15748823  0.70114392  0.98945513  1
  Fe  Fe53  1  0.85916300  0.13478365  0.95090784  1
  Fe  Fe54  1  0.31412586  -0.01778596  0.61404592  1
  Fe  Fe55  1  0.82503466  0.10224818  0.09716130  1
  Fe  Fe56  1  0.35206933  0.83452974  0.41499385  1
  Fe  Fe57  1  0.18969900  -0.01828646  0.88098667  1
  Fe  Fe58  1  0.54239340  0.99521677  0.73691131  1
  Fe  Fe59  1  0.19866120  0.20021952  0.11256000  1
  Fe  Fe60  1  0.58192172  0.56928172  0.77435285  1
  Fe  Fe61  1  0.33333265  0.67836908  0.42529586  1
  Fe  Fe62  1  0.33141791  0.86468176  0.27861312  1
  Fe  Fe63  1  0.66243611  0.47165293  0.29727523  1
  Fe  Fe64  1  0.72662295  0.16471003  0.01295774  1
  Fe  Fe65  1  0.15740653  0.60905471  0.09477046  1
  Fe  Fe66  1  0.62846642  0.18269739  0.90734196  1
  Fe  Fe67  1  1.13711718  0.18599582  0.24797875  1
  Fe  Fe68  1  0.90303218  0.43084947  0.03994493  1
  Fe  Fe69  1  0.23458801  0.94545631  0.00389697  1
  Fe  Fe70  1  0.54327528  0.52681347  0.26348686  1
  Fe  Fe71  1  0.22990964  0.76069708  0.45704751  1
  Fe  Fe72  1  0.27249532  0.66706712  1.04493313  1
  Fe  Fe73  1  0.25342281  0.05755677  0.49574958  1
  Fe  Fe74  1  0.28062373  0.01805709  0.75873096  1
  Fe  Fe75  1  0.89605955  0.55754280  -0.00776746  1
  Fe  Fe76  1  0.19849648  0.86285970  0.35917715  1
  Fe  Fe77  1  0.30911754  0.33715074  0.26072080  1
  Fe  Fe78  1  0.42417558  0.04481933  0.80533434  1
  Fe  Fe79  1  0.27567818  0.20151032  0.25346685  1
  Fe  Fe80  1  0.37664850  0.96175411  0.48249776  1
  Fe  Fe81  1  0.14329463  0.37453035  0.76219652  1
  Fe  Fe82  1  0.26143343  0.36332459  0.69207027  1
  Fe  Fe83  1  0.17504752  0.31699757  0.19788645  1
  Fe  Fe84  1  0.63386497  0.47175445  0.16934687  1
  Fe  Fe85  1  0.20972504  0.83422450  0.94110576  1
  Fe  Fe86  1  0.31300596  0.26077970  0.12868397  1
  Fe  Fe87  1  0.20245512  1.11771856  0.36781135  1
  Fe  Fe88  1  1.14069179  0.99044219  0.41528155  1
  Fe  Fe89  1  0.23649678  0.90745966  0.50114578  1
  Fe  Fe90  1  0.17589940  0.27305299  0.34690649  1
  Fe  Fe91  1  0.20814327  0.41259528  0.30799407  1
  Fe  Fe92  1  0.40131761  0.93384300  0.72823527  1
  Fe  Fe93  1  0.84248030  0.17579790  0.56184480  1
  Fe  Fe94  1  0.73173347  0.09763621  0.88452042  1
  Fe  Fe95  1  0.57385816  0.07130559  0.84499853  1
  Fe  Fe96  1  0.86411943  0.55604487  0.86756432  1
  Fe  Fe97  1  0.29193192  0.98068436  0.36818627  1
  Fe  Fe98  1  0.32317271  0.92133953  0.86939417  1
  Fe  Fe99  1  0.93760413  1.04472516  1.03900375  1
  Fe  Fe100  1  0.13197005  0.35092170  0.63449297  1
  Fe  Fe101  1  0.28011426  0.74545234  0.31186738  1
  Bi  Bi102  1  0.50866496  -0.05027201  0.57741896  1
  Bi  Bi103  1  0.79787520  0.52846602  0.14119747  1
  Bi  Bi104  1  0.49614284  -0.08958579  0.89311479  1
  Bi  Bi105  1  0.02470032  0.86511201  0.35669479  1
  Bi  Bi106  1  0.18897200  -0.14130153  0.76933637  1
  Bi  Bi107  1  0.79187222  -0.02411633  -0.00659682  1
  Bi  Bi108  1  0.20111543  0.20493376  0.69306108  1
  Bi  Bi109  1  0.77937008  0.28215232  -0.10711445  1
  Bi  Bi110  1  0.25878881  0.51924122  0.43042116  1
  Bi  Bi111  1  0.47879849  0.22236700  0.83148248  1
  Bi  Bi112  1  0.13201978  0.08625423  0.00609663  1
  Bi  Bi113  1  -0.17163585  0.12838414  0.26093827  1
  Bi  Bi114  1  0.45410518  0.72339416  0.29663816  1
  Bi  Bi115  1  0.89825535  0.58297629  0.34031085  1
  Bi  Bi116  1  0.87089863  0.33209113  0.59429429  1
  Bi  Bi117  1  0.99727831  0.25431201  0.31573039  1
  Bi  Bi118  1  0.62157706  0.83207226  0.15161181  1
  Bi  Bi119  1  0.63198847  0.66673640  0.88913262  1
  Bi  Bi120  1  0.97598359  0.60919004  0.55722606  1
  Bi  Bi121  1  0.89031372  0.85892040  0.67942208  1
  Bi  Bi122  1  -0.11185863  0.07711134  0.68399722  1
  Bi  Bi123  1  0.60794577  0.59669140  0.61114767  1
  Bi  Bi124  1  0.27432603  0.47797004  0.81937447  1
  Bi  Bi125  1  0.96672957  0.87355178  0.05597798  1
  Bi  Bi126  1  0.47006358  0.44673148  0.13208579  1
  Bi  Bi127  1  0.56802784  0.32135858  0.52752271  1
