# generated using pymatgen
data_Ba51Fe51Bi26
_symmetry_space_group_name_H-M   'P 1'
_cell_length_a   16.57653411
_cell_length_b   16.51951766
_cell_length_c   15.80853731
_cell_angle_alpha   91.24368414
_cell_angle_beta   88.18963188
_cell_angle_gamma   88.87128243
_symmetry_Int_Tables_number   1
_chemical_formula_structural   Ba51Fe51Bi26
_chemical_formula_sum   'Ba51 Fe51 Bi26'
_cell_volume   4324.87195570
_cell_formula_units_Z   1
loop_
 _symmetry_equiv_pos_site_id
 _symmetry_equiv_pos_as_xyz
  1  'x, y, z'
loop_
 _atom_site_type_symbol
 _atom_site_label
 _atom_site_symmetry_multiplicity
 _atom_site_fract_x
 _atom_site_fract_y
 _atom_site_fract_z
 _atom_site_occupancy
  Ba  Ba0  1  0.74574134  0.80430506  0.10557056  1
  Ba  Ba1  1  0.49036614  0.48795287  0.15141102  1
  Ba  Ba2  1  0.70968525  0.52816434  0.00897667  1
  Ba  Ba3  1  0.24514416  0.57491931  0.16596768  1
  Ba  Ba4  1  0.73447137  0.35033710  0.21615945  1
  Ba  Ba5  1  0.51500280  0.04578326  0.43501626  1
  Ba  Ba6  1  0.31208994  0.44431682  -0.04832341  1
  Ba  Ba7  1  0.29219947  0.11732777  0.19641831  1
  Ba  Ba8  1  0.16575878  -0.09074264  0.53469414  1
  Ba  Ba9  1  0.50398773  0.73804362  0.09139798  1
  Ba  Ba10  1  0.11564161  0.05318203  0.77459344  1
  Ba  Ba11  1  0.69581001  -0.06926149  0.75342144  1
  Ba  Ba12  1  0.39112768  0.73073059  0.82603710  1
  Ba  Ba13  1  -0.05150847  0.22845344  0.67896147  1
  Ba  Ba14  1  0.71671215  0.01975609  0.23665201  1
  Ba  Ba15  1  0.72211482  -0.01806394  0.51541367  1
  Ba  Ba16  1  0.00146580  0.76595096  0.38897807  1
  Ba  Ba17  1  0.50020750  0.78334175  0.46684528  1
  Ba  Ba18  1  0.04287340  -0.14224125  -0.04517490  1
  Ba  Ba19  1  0.25231399  0.73307838  0.39016144  1
  Ba  Ba20  1  0.43792157  0.51332227  0.44886417  1
  Ba  Ba21  1  0.11287586  0.12808457  0.46818432  1
  Ba  Ba22  1  0.79311262  0.28006609  -0.04782334  1
  Ba  Ba23  1  0.51370136  0.24231807  0.23984460  1
  Ba  Ba24  1  0.64006616  0.33245131  0.76623279  1
  Ba  Ba25  1  0.84348744  0.01117468  -0.01201394  1
  Ba  Ba26  1  0.39074939  -0.07591485  0.65439473  1
  Ba  Ba27  1  -0.04517557  0.47776504  -0.04748697  1
  Ba  Ba28  1  0.17626047  0.50660002  0.51564282  1
  Ba  Ba29  1  0.34610786  0.04692861  -0.10415108  1
  Ba  Ba30  1  0.67782809  0.73982975  0.88079896  1
  Ba  Ba31  1  0.01920125  0.67453900  0.80050953  1
  Ba  Ba32  1  0.10986021  0.36703012  0.29784071  1
  Ba  Ba33  1  -0.08241148  0.58512712  0.53533158  1
  Ba  Ba34  1  0.58238447  0.08771146  -0.10839578  1
  Ba  Ba35  1  0.35055497  0.24303212  0.46102955  1
  Ba  Ba36  1  0.49405563  0.52844446  0.70882388  1
  Ba  Ba37  1  0.64610510  0.63993886  0.31794957  1
  Ba  Ba38  1  0.68342897  0.67048007  0.60841276  1
  Ba  Ba39  1  0.11187257  -0.09756505  0.21063769  1
  Ba  Ba40  1  0.17638656  0.29641783  0.70549048  1
  Ba  Ba41  1  0.87639102  0.62098315  0.23340796  1
  Ba  Ba42  1  0.23417368  0.57727166  0.73590896  1
  Ba  Ba43  1  0.42060006  0.23404364  0.72604830  1
  Ba  Ba44  1  0.05076901  0.14692645  0.18352611  1
  Ba  Ba45  1  0.49131498  -0.01986109  0.13409270  1
  Ba  Ba46  1  0.74018451  0.20133243  0.58690945  1
  Ba  Ba47  1  0.69767268  0.41771406  0.48898640  1
  Ba  Ba48  1  0.18012906  0.23949618  -0.00409793  1
  Ba  Ba49  1  -0.10688169  0.08230513  0.35595677  1
  Ba  Ba50  1  0.28726605  0.83741081  0.03860641  1
  Fe  Fe51  1  0.45387089  0.17911165  1.04979018  1
  Fe  Fe52  1  0.61350125  0.34031782  0.02685522  1
  Fe  Fe53  1  0.80947302  0.71790491  0.42180332  1
  Fe  Fe54  1  0.48078951  0.32443340  0.05172952  1
  Fe  Fe55  1  0.76912216  0.80182475  0.30545990  1
  Fe  Fe56  1  0.74961202  0.51100766  0.69491124  1
  Fe  Fe57  1  0.81377498  0.39176318  0.66085302  1
  Fe  Fe58  1  0.98137029  0.73632410  0.12069473  1
  Fe  Fe59  1  0.21698696  0.77217201  0.67500454  1
  Fe  Fe60  1  0.88940452  0.51859282  0.72388934  1
  Fe  Fe61  1  0.95167625  0.87541723  0.76445659  1
  Fe  Fe62  1  0.84117956  0.87061940  0.40042221  1
  Fe  Fe63  1  -0.10068363  0.39035864  0.77676521  1
  Fe  Fe64  1  1.07889286  0.69993543  0.21502213  1
  Fe  Fe65  1  0.04673083  0.57971209  0.14599922  1
  Fe  Fe66  1  1.00904130  0.94171178  0.65251360  1
  Fe  Fe67  1  -0.04199298  0.27411121  0.39711535  1
  Fe  Fe68  1  0.42645714  0.84465020  0.28994264  1
  Fe  Fe69  1  0.88383500  0.34581793  0.51381278  1
  Fe  Fe70  1  0.34898091  -0.09997371  0.41018983  1
  Fe  Fe71  1  0.59301051  0.21372715  0.05126276  1
  Fe  Fe72  1  0.23628108  -0.01370984  0.34671591  1
  Fe  Fe73  1  0.55372817  0.59965709  0.89193746  1
  Fe  Fe74  1  -0.04545600  0.42393263  0.17628681  1
  Fe  Fe75  1  0.52220940  0.26640162  0.92895994  1
  Fe  Fe76  1  0.31200815  0.03144667  0.45011891  1
  Fe  Fe77  1  0.82835776  0.27951004  0.38880286  1
  Fe  Fe78  1  0.86403439  0.91580837  0.64716853  1
  Fe  Fe79  1  0.38016070  0.99194581  0.31586902  1
  Fe  Fe80  1  0.80383868  0.59844086  0.81338486  1
  Fe  Fe81  1  0.83203341  0.80325944  0.54185892  1
  Fe  Fe82  1  0.03912965  0.65021754  1.02049915  1
  Fe  Fe83  1  0.09238642  0.83248009  0.70996139  1
  Fe  Fe84  1  0.51411855  0.35280764  0.57468877  1
  Fe  Fe85  1  0.78002880  0.45728929  0.81731897  1
  Fe  Fe86  1  0.70897300  0.80340585  0.43957811  1
  Fe  Fe87  1  0.38412695  0.24991967  0.96570303  1
  Fe  Fe88  1  0.65907908  0.55078505  0.81485466  1
  Fe  Fe89  1  0.03069755  0.09023721  0.95607570  1
  Fe  Fe90  1  0.93859751  0.12107225  0.86213885  1
  Fe  Fe91  1  0.96066776  0.30542597  0.10394562  1
  Fe  Fe92  1  0.54938183  0.29560858  0.44936728  1
  Fe  Fe93  1  0.93532412  0.90376188  0.51419081  1
  Fe  Fe94  1  0.54654061  0.22095751  0.55955556  1
  Fe  Fe95  1  0.30765812  0.89913719  0.25519600  1
  Fe  Fe96  1  0.12867391  0.72109109  0.09107846  1
  Fe  Fe97  1  0.95346098  0.18780782  0.01006238  1
  Fe  Fe98  1  0.91057177  1.01770754  0.75765109  1
  Fe  Fe99  1  -0.07888976  0.29634985  0.25506846  1
  Fe  Fe100  1  -0.03212252  0.80251105  0.62044198  1
  Fe  Fe101  1  -0.05460538  0.41535766  0.62437895  1
  Bi  Bi102  1  0.22957481  0.87638929  0.81034436  1
  Bi  Bi103  1  0.06155676  0.33301719  0.51768118  1
  Bi  Bi104  1  0.05208641  0.46949170  0.73920404  1
  Bi  Bi105  1  0.92501267  0.05944519  0.56940388  1
  Bi  Bi106  1  0.68077825  0.19352879  0.37724211  1
  Bi  Bi107  1  0.52455131  0.44245668  -0.07782105  1
  Bi  Bi108  1  0.01030423  0.27165643  -0.12278327  1
  Bi  Bi109  1  0.10387152  0.42281829  0.08925287  1
  Bi  Bi110  1  0.89820939  0.88419933  0.22120204  1
  Bi  Bi111  1  -0.16617224  0.75669439  0.72177786  1
  Bi  Bi112  1  -0.12414201  0.68006756  -0.01788401  1
  Bi  Bi113  1  0.60371730  0.85106636  0.28476881  1
  Bi  Bi114  1  -0.15498004  0.17551911  0.14780816  1
  Bi  Bi115  1  0.88293545  0.43714369  0.35373331  1
  Bi  Bi116  1  0.43090486  0.66264973  0.28502370  1
  Bi  Bi117  1  0.77934849  0.12569119  0.79910169  1
  Bi  Bi118  1  0.35720678  0.68965595  0.59922003  1
  Bi  Bi119  1  0.16886199  0.02575453  0.03085048  1
  Bi  Bi120  1  0.50343527  0.88742170  0.92120359  1
  Bi  Bi121  1  0.34691642  0.40371210  0.61268415  1
  Bi  Bi122  1  0.20006271  0.64979596  0.94829773  1
  Bi  Bi123  1  0.10076476  0.69935711  0.58154884  1
  Bi  Bi124  1  0.08604747  0.57838966  0.32783404  1
  Bi  Bi125  1  0.56185813  0.07879362  0.65583724  1
  Bi  Bi126  1  0.27517714  0.10442929  0.61421437  1
  Bi  Bi127  1  0.33488583  0.31995424  0.13626209  1
