# generated using pymatgen
data_Ba51Fe51Bi26
_symmetry_space_group_name_H-M   'P 1'
_cell_length_a   16.07423732
_cell_length_b   16.46141538
_cell_length_c   16.45778365
_cell_angle_alpha   85.59425401
_cell_angle_beta   88.99439096
_cell_angle_gamma   90.15168173
_symmetry_Int_Tables_number   1
_chemical_formula_structural   Ba51Fe51Bi26
_chemical_formula_sum   'Ba51 Fe51 Bi26'
_cell_volume   4341.23503355
_cell_formula_units_Z   1
loop_
 _symmetry_equiv_pos_site_id
 _symmetry_equiv_pos_as_xyz
  1  'x, y, z'
loop_
 _atom_site_type_symbol
 _atom_site_label
 _atom_site_symmetry_multiplicity
 _atom_site_fract_x
 _atom_site_fract_y
 _atom_site_fract_z
 _atom_site_occupancy
  Ba  Ba0  1  0.02954399  0.42776568  -0.09348650  1
  Ba  Ba1  1  0.77619022  0.72615498  0.82701808  1
  Ba  Ba2  1  0.05440675  -0.11778274  0.06424259  1
  Ba  Ba3  1  0.06781361  0.31887483  0.18626847  1
  Ba  Ba4  1  0.30227454  0.53837120  0.01773461  1
  Ba  Ba5  1  0.01231653  0.63424981  0.04409652  1
  Ba  Ba6  1  0.80090465  0.04272949  0.80647745  1
  Ba  Ba7  1  0.75912220  0.23881181  0.62735538  1
  Ba  Ba8  1  0.77770126  0.47416943  0.74618959  1
  Ba  Ba9  1  0.77116812  0.86873295  -0.00324431  1
  Ba  Ba10  1  0.15813544  0.11167858  0.53372653  1
  Ba  Ba11  1  0.79669145  0.76540798  0.19653130  1
  Ba  Ba12  1  0.23663339  0.08859245  0.03151593  1
  Ba  Ba13  1  0.52132358  -0.04522874  0.54689698  1
  Ba  Ba14  1  0.55171558  0.23581948  0.45521994  1
  Ba  Ba15  1  0.66861208  0.49494368  0.47351401  1
  Ba  Ba16  1  0.77901243  0.11878860  0.34486893  1
  Ba  Ba17  1  0.24902010  0.73411554  0.66952765  1
  Ba  Ba18  1  0.42185192  0.45074878  0.53887355  1
  Ba  Ba19  1  0.74010641  0.70232648  0.57644525  1
  Ba  Ba20  1  -0.05611764  0.26703741  0.39742086  1
  Ba  Ba21  1  0.82114567  0.23274547  0.02683119  1
  Ba  Ba22  1  0.53460614  0.01128632  0.28327626  1
  Ba  Ba23  1  0.22383269  0.76209826  0.36638887  1
  Ba  Ba24  1  0.24074840  0.79723299  -0.07154045  1
  Ba  Ba25  1  0.25771208  0.50368260  0.27930682  1
  Ba  Ba26  1  0.30823431  -0.01297638  0.69009672  1
  Ba  Ba27  1  0.52070408  0.77467723  0.71595026  1
  Ba  Ba28  1  0.70275278  -0.14929109  0.37171942  1
  Ba  Ba29  1  0.00476959  0.80149972  0.28868669  1
  Ba  Ba30  1  0.62389073  0.24231277  0.84696818  1
  Ba  Ba31  1  0.42011933  0.29022286  -0.01265717  1
  Ba  Ba32  1  0.54848894  0.51105819  0.85043080  1
  Ba  Ba33  1  0.03994811  -0.03369550  0.74476988  1
  Ba  Ba34  1  0.51835104  0.76149771  -0.04786780  1
  Ba  Ba35  1  0.59191090  0.22827786  0.15614157  1
  Ba  Ba36  1  0.39845518  0.70772345  0.20185241  1
  Ba  Ba37  1  0.28223611  0.25746620  0.34501694  1
  Ba  Ba38  1  -0.03239680  0.07576983  0.18232561  1
  Ba  Ba39  1  0.43508185  0.21407304  0.67763502  1
  Ba  Ba40  1  0.46480688  -0.02123379  0.03746985  1
  Ba  Ba41  1  0.01943777  0.72951829  0.52257998  1
  Ba  Ba42  1  0.60413985  0.44545345  0.23034737  1
  Ba  Ba43  1  -0.07587626  0.47063958  0.49627144  1
  Ba  Ba44  1  0.06643248  0.16958809  -0.11499245  1
  Ba  Ba45  1  -0.10617196  0.52704425  0.23435738  1
  Ba  Ba46  1  0.26015768  0.46874779  0.76538085  1
  Ba  Ba47  1  0.47256916  0.68398085  0.49865375  1
  Ba  Ba48  1  0.76031525  -0.01379979  0.56832314  1
  Ba  Ba49  1  0.16114122  0.51865277  0.52139073  1
  Ba  Ba50  1  0.26140451  -0.00105657  0.30342013  1
  Fe  Fe51  1  0.89572114  0.95320611  0.34502035  1
  Fe  Fe52  1  0.11220870  0.38118508  0.39358258  1
  Fe  Fe53  1  1.01931250  0.31561556  0.76086215  1
  Fe  Fe54  1  0.55405900  0.55715374  0.64745616  1
  Fe  Fe55  1  0.92653610  0.65916643  0.69251534  1
  Fe  Fe56  1  0.59569541  0.66003289  0.19797598  1
  Fe  Fe57  1  0.72054129  0.08231397  0.16772060  1
  Fe  Fe58  1  0.68278349  0.56323335  1.00239511  1
  Fe  Fe59  1  0.17241685  0.70811484  0.16019871  1
  Fe  Fe60  1  0.27766494  0.25876215  0.13798996  1
  Fe  Fe61  1  0.97156565  0.63640725  0.82459967  1
  Fe  Fe62  1  0.10792155  0.31727005  0.51626059  1
  Fe  Fe63  1  0.55567034  0.60589365  0.33887606  1
  Fe  Fe64  1  0.69743237  0.29653041  0.32315435  1
  Fe  Fe65  1  0.61711176  0.93120233  0.88073050  1
  Fe  Fe66  1  -0.01244636  0.27134388  0.58591704  1
  Fe  Fe67  1  0.07919090  0.63644583  0.71069005  1
  Fe  Fe68  1  -0.00540733  0.95198922  0.54112721  1
  Fe  Fe69  1  0.80819150  0.02282032  0.09044517  1
  Fe  Fe70  1  0.79742118  0.64004573  0.04779900  1
  Fe  Fe71  1  0.27349157  0.22499266  0.84327917  1
  Fe  Fe72  1  0.66372608  0.68908821  0.06452271  1
  Fe  Fe73  1  0.94852181  0.04388760  0.43011855  1
  Fe  Fe74  1  0.08897156  0.36941228  0.64546350  1
  Fe  Fe75  1  0.02610031  0.75470606  0.74412883  1
  Fe  Fe76  1  0.23090694  0.17173954  0.73600844  1
  Fe  Fe77  1  0.71484787  0.58845991  0.15982817  1
  Fe  Fe78  1  0.74365878  0.30468596  0.44496043  1
  Fe  Fe79  1  0.90332902  0.88970296  0.46775636  1
  Fe  Fe80  1  0.10348094  0.22504593  0.66779200  1
  Fe  Fe81  1  0.68444525  0.95697872  0.15772984  1
  Fe  Fe82  1  0.68767355  0.63470153  0.30886422  1
  Fe  Fe83  1  0.24474307  0.38089029  0.12423217  1
  Fe  Fe84  1  0.92346991  0.34891602  0.66989958  1
  Fe  Fe85  1  0.49703973  1.02848913  0.72858821  1
  Fe  Fe86  1  0.43191719  0.58827748  0.68090413  1
  Fe  Fe87  1  0.04367008  0.95054376  0.40194433  1
  Fe  Fe88  1  0.17189310  0.30039056  0.76814166  1
  Fe  Fe89  1  0.80653184  0.96179568  0.22652500  1
  Fe  Fe90  1  0.77285212  0.48481990  0.07622226  1
  Fe  Fe91  1  0.61922986  0.94046455  0.74559876  1
  Fe  Fe92  1  0.06505258  0.49554369  0.33045701  1
  Fe  Fe93  1  0.78651794  0.39471306  0.35232110  1
  Fe  Fe94  1  0.09910907  0.62658691  0.25370296  1
  Fe  Fe95  1  0.48326241  0.93347977  0.83006172  1
  Fe  Fe96  1  0.01997939  0.61268109  0.36887894  1
  Fe  Fe97  1  0.57166910  0.05545015  0.84737246  1
  Fe  Fe98  1  0.32991701  -0.07408633  0.48345060  1
  Fe  Fe99  1  0.62472746  0.07410115  0.71243824  1
  Fe  Fe100  1  0.96194270  0.20011522  0.71191628  1
  Fe  Fe101  1  0.56644814  0.73538419  0.31328108  1
  Bi  Bi102  1  0.20448726  0.31099653  -0.02088094  1
  Bi  Bi103  1  -0.10697467  0.83702483  0.65065432  1
  Bi  Bi104  1  0.52411779  0.57972215  0.07078842  1
  Bi  Bi105  1  0.82970291  0.32000386  0.21102717  1
  Bi  Bi106  1  0.58379940  0.82583481  0.15139701  1
  Bi  Bi107  1  -0.06566269  0.10599292  0.58445378  1
  Bi  Bi108  1  0.25464124  0.31571780  0.60355200  1
  Bi  Bi109  1  0.85088877  0.54372306  -0.07232286  1
  Bi  Bi110  1  0.39205394  0.09685989  0.86005635  1
  Bi  Bi111  1  -0.14672031  0.27263202  0.81828519  1
  Bi  Bi112  1  0.16578245  -0.10438340  0.53438889  1
  Bi  Bi113  1  -0.00391312  0.49749272  0.69510451  1
  Bi  Bi114  1  0.66364105  0.06874384  -0.00112685  1
  Bi  Bi115  1  0.84409713  0.66109459  0.39327588  1
  Bi  Bi116  1  0.97358393  0.79863928  0.89431735  1
  Bi  Bi117  1  0.65059291  0.38620425  1.00458276  1
  Bi  Bi118  1  0.40072329  0.37544272  0.18395439  1
  Bi  Bi119  1  0.39020610  0.13324529  0.16920561  1
  Bi  Bi120  1  0.25194677  0.85844451  0.14025838  1
  Bi  Bi121  1  0.08604672  0.11979976  0.33786592  1
  Bi  Bi122  1  0.37798115  0.64880446  0.82946089  1
  Bi  Bi123  1  0.42896088  0.84790296  0.37263169  1
  Bi  Bi124  1  0.37595239  0.09335682  0.47829822  1
  Bi  Bi125  1  0.14341171  0.62020723  0.86655716  1
  Bi  Bi126  1  0.93196399  0.03146105  0.97328789  1
  Bi  Bi127  1  0.58859727  0.38484129  0.66349520  1
