# generated using pymatgen
data_Ba51Fe51Bi26
_symmetry_space_group_name_H-M   'P 1'
_cell_length_a   16.25094425
_cell_length_b   16.67967376
_cell_length_c   16.34567138
_cell_angle_alpha   88.79139487
_cell_angle_beta   88.72927703
_cell_angle_gamma   89.15434654
_symmetry_Int_Tables_number   1
_chemical_formula_structural   Ba51Fe51Bi26
_chemical_formula_sum   'Ba51 Fe51 Bi26'
_cell_volume   4428.13724063
_cell_formula_units_Z   1
loop_
 _symmetry_equiv_pos_site_id
 _symmetry_equiv_pos_as_xyz
  1  'x, y, z'
loop_
 _atom_site_type_symbol
 _atom_site_label
 _atom_site_symmetry_multiplicity
 _atom_site_fract_x
 _atom_site_fract_y
 _atom_site_fract_z
 _atom_site_occupancy
  Ba  Ba0  1  0.27176470  0.78307209  -0.02815238  1
  Ba  Ba1  1  0.49367047  0.56478959  -0.08362117  1
  Ba  Ba2  1  -0.02127720  0.22118466  -0.06479052  1
  Ba  Ba3  1  0.34336728  0.06410081  0.53717832  1
  Ba  Ba4  1  0.27658380  0.76298681  0.22603353  1
  Ba  Ba5  1  0.49333240  0.31648711  0.42124910  1
  Ba  Ba6  1  0.67583552  0.52839650  0.75595324  1
  Ba  Ba7  1  0.21323137  0.83404727  0.45947596  1
  Ba  Ba8  1  -0.03630014  -0.04210269  0.79401650  1
  Ba  Ba9  1  0.06655862  0.46995498  0.47074001  1
  Ba  Ba10  1  0.22719954  0.27592225  0.04926962  1
  Ba  Ba11  1  0.03724180  0.21474418  0.41993641  1
  Ba  Ba12  1  0.77837753  0.74852621  0.69845254  1
  Ba  Ba13  1  0.90613420  0.03198503  0.08970021  1
  Ba  Ba14  1  0.84502600  0.54627290  0.56661949  1
  Ba  Ba15  1  0.20134402  -0.04153486  0.70144241  1
  Ba  Ba16  1  0.69330696  0.21545947  0.52576106  1
  Ba  Ba17  1  -0.02505761  0.78312625  0.49267923  1
  Ba  Ba18  1  0.14108241  0.01733866  -0.05183511  1
  Ba  Ba19  1  0.01278807  -0.00438829  0.31600153  1
  Ba  Ba20  1  0.46386556  0.22016391  -0.04799488  1
  Ba  Ba21  1  0.72452557  0.22013918  0.83142359  1
  Ba  Ba22  1  0.25257285  0.27646871  0.48664956  1
  Ba  Ba23  1  0.62679952  0.82148582  0.46795569  1
  Ba  Ba24  1  0.69651902  0.03670703  0.28723965  1
  Ba  Ba25  1  -0.09483016  0.16070955  0.65003170  1
  Ba  Ba26  1  0.52859914  0.10756605  0.67881977  1
  Ba  Ba27  1  0.41753370  -0.03826127  0.34950902  1
  Ba  Ba28  1  0.28198072  0.51432166  -0.03453058  1
  Ba  Ba29  1  0.85402504  0.76151992  0.25301490  1
  Ba  Ba30  1  0.54502418  -0.18617489  0.18567989  1
  Ba  Ba31  1  0.37830168  0.01884000  0.84510013  1
  Ba  Ba32  1  0.77886853  0.83186173  0.01919447  1
  Ba  Ba33  1  0.47374544  0.79976080  0.76625347  1
  Ba  Ba34  1  0.78829297  0.26131173  0.31582176  1
  Ba  Ba35  1  0.34840123  0.65112208  0.56756456  1
  Ba  Ba36  1  0.19742778  0.46669336  0.70570746  1
  Ba  Ba37  1  -0.01025805  0.32237622  0.18194358  1
  Ba  Ba38  1  0.80343565  0.60662881  -0.04169506  1
  Ba  Ba39  1  0.61944424  0.04159563  0.02012390  1
  Ba  Ba40  1  0.68123295  -0.06009332  0.80313581  1
  Ba  Ba41  1  0.04351414  0.57611423  -0.04177398  1
  Ba  Ba42  1  0.12416261  0.74007198  0.76748631  1
  Ba  Ba43  1  0.64323904  0.45023961  0.04921273  1
  Ba  Ba44  1  0.77938646  0.49110614  0.26034135  1
  Ba  Ba45  1  0.55956117  0.55805674  0.44898483  1
  Ba  Ba46  1  0.28418485  0.04067660  0.15385680  1
  Ba  Ba47  1  0.03909650  0.59307356  0.23785458  1
  Ba  Ba48  1  0.32807808  0.50697081  0.25480909  1
  Ba  Ba49  1  0.52650863  0.34290998  0.71712616  1
  Ba  Ba50  1  -0.06427933  0.40403458  0.78860056  1
  Fe  Fe51  1  0.43625567  0.19484721  0.28332820  1
  Fe  Fe52  1  0.58767622  0.69481478  0.03531914  1
  Fe  Fe53  1  0.55591701  0.60194490  0.14204328  1
  Fe  Fe54  1  0.54048415  0.22958197  0.13115321  1
  Fe  Fe55  1  0.10418741  0.87576661  0.08948286  1
  Fe  Fe56  1  0.41930672  0.84544141  0.51349724  1
  Fe  Fe57  1  0.50817829  0.51857700  0.63911528  1
  Fe  Fe58  1  0.64499060  0.95112381  0.61177759  1
  Fe  Fe59  1  0.48846594  0.63057199  0.25198232  1
  Fe  Fe60  1  0.69462118  0.18851107  0.15828446  1
  Fe  Fe61  1  0.96272844  0.73948715  0.04853913  1
  Fe  Fe62  1  0.89095371  0.39810162  0.40729007  1
  Fe  Fe63  1  0.27435287  0.13743798  0.70612601  1
  Fe  Fe64  1  0.15086201  0.29013794  0.84072589  1
  Fe  Fe65  1  0.14030022  0.14964713  0.78117610  1
  Fe  Fe66  1  0.23653669  0.26935110  0.71503249  1
  Fe  Fe67  1  0.04875890  0.93282159  0.59129485  1
  Fe  Fe68  1  0.88455866  0.34168418  0.52807296  1
  Fe  Fe69  1  0.39518540  0.21947954  0.15213162  1
  Fe  Fe70  1  0.83586864  0.20797133  0.12045932  1
  Fe  Fe71  1  0.58108705  0.20446134  0.26554601  1
  Fe  Fe72  1  0.36965236  0.88638465  0.62445587  1
  Fe  Fe73  1  0.25520248  0.18912880  0.85181190  1
  Fe  Fe74  1  0.91225477  0.60572570  0.77967353  1
  Fe  Fe75  1  0.47112728  0.60613759  0.72801421  1
  Fe  Fe76  1  0.97643283  0.84923220  0.12925215  1
  Fe  Fe77  1  0.96333516  0.68064468  0.67835578  1
  Fe  Fe78  1  0.07463150  0.79059831  0.96755855  1
  Fe  Fe79  1  0.36681991  0.24708546  0.64335462  1
  Fe  Fe80  1  0.37537132  0.20561309  0.76880276  1
  Fe  Fe81  1  0.76601976  0.16452938  1.02223676  1
  Fe  Fe82  1  0.77230272  0.32638863  0.12763567  1
  Fe  Fe83  1  0.57675478  0.83872950  0.97892773  1
  Fe  Fe84  1  0.09007642  0.26292716  0.72770968  1
  Fe  Fe85  1  0.98409956  0.88160821  0.99220359  1
  Fe  Fe86  1  0.47678562  0.75679326  0.97987395  1
  Fe  Fe87  1  0.79843610  0.29120852  0.99521483  1
  Fe  Fe88  1  -0.02353245  0.01904770  0.52762322  1
  Fe  Fe89  1  0.01308940  0.56059399  0.69553088  1
  Fe  Fe90  1  0.34295822  0.31750641  0.23932402  1
  Fe  Fe91  1  0.08808190  0.74165927  0.10540191  1
  Fe  Fe92  1  0.63858894  0.32192067  0.19763182  1
  Fe  Fe93  1  0.73843735  0.00537079  0.51057703  1
  Fe  Fe94  1  0.48904829  0.32487851  0.22464344  1
  Fe  Fe95  1  0.39661186  0.49647241  0.73917325  1
  Fe  Fe96  1  0.49866641  0.93064858  0.59620856  1
  Fe  Fe97  1  0.66213681  0.26127107  1.04657823  1
  Fe  Fe98  1  0.76829493  0.39588817  0.46782019  1
  Fe  Fe99  1  0.72208338  0.05331748  0.64066799  1
  Fe  Fe100  1  0.28930494  0.20286789  0.27592933  1
  Fe  Fe101  1  0.11994690  1.01096516  0.50288274  1
  Bi  Bi102  1  0.14527682  0.45855838  0.11926086  1
  Bi  Bi103  1  0.57114227  0.04189686  0.47850745  1
  Bi  Bi104  1  0.21449836  0.07302781  0.36460338  1
  Bi  Bi105  1  0.06797579  0.80251144  0.26775399  1
  Bi  Bi106  1  0.44068583  0.74035508  0.37678223  1
  Bi  Bi107  1  0.64540710  0.72545959  -0.12567551  1
  Bi  Bi108  1  0.56001161  0.47165813  0.25905789  1
  Bi  Bi109  1  0.38286572  0.42593269  0.57790286  1
  Bi  Bi110  1  0.32842799  0.35154533  0.83807378  1
  Bi  Bi111  1  0.49841430  0.07412484  0.18595580  1
  Bi  Bi112  1  0.12205197  0.13811620  0.61226273  1
  Bi  Bi113  1  -0.06752797  0.75766772  0.86965758  1
  Bi  Bi114  1  -0.11374203  0.42440857  0.02595385  1
  Bi  Bi115  1  0.41978501  0.37962138  0.08364134  1
  Bi  Bi116  1  0.18909689  0.63112492  0.38906146  1
  Bi  Bi117  1  0.42767109  0.91537111  0.02478730  1
  Bi  Bi118  1  0.84501450  0.93577308  0.62546908  1
  Bi  Bi119  1  0.85724993  0.10062107  0.43567084  1
  Bi  Bi120  1  0.58845093  0.66979277  0.62099539  1
  Bi  Bi121  1  0.17626533  0.34799019  0.29364394  1
  Bi  Bi122  1  0.40139559  0.65039213  0.09619108  1
  Bi  Bi123  1  0.11479192  0.64345865  0.58160638  1
  Bi  Bi124  1  0.76774600  0.35797597  0.65936250  1
  Bi  Bi125  1  0.82094278  0.90456788  0.39986704  1
  Bi  Bi126  1  0.31652379  0.64313480  0.79358172  1
  Bi  Bi127  1  0.71211387  0.65964260  0.14501610  1
