# generated using pymatgen
data_Ba51Fe51Bi26
_symmetry_space_group_name_H-M   'P 1'
_cell_length_a   15.70420366
_cell_length_b   16.99719766
_cell_length_c   16.17344546
_cell_angle_alpha   90.82821052
_cell_angle_beta   88.44994752
_cell_angle_gamma   90.38919702
_symmetry_Int_Tables_number   1
_chemical_formula_structural   Ba51Fe51Bi26
_chemical_formula_sum   'Ba51 Fe51 Bi26'
_cell_volume   4315.01751217
_cell_formula_units_Z   1
loop_
 _symmetry_equiv_pos_site_id
 _symmetry_equiv_pos_as_xyz
  1  'x, y, z'
loop_
 _atom_site_type_symbol
 _atom_site_label
 _atom_site_symmetry_multiplicity
 _atom_site_fract_x
 _atom_site_fract_y
 _atom_site_fract_z
 _atom_site_occupancy
  Ba  Ba0  1  0.74903987  -0.05473237  0.39813883  1
  Ba  Ba1  1  0.53114843  0.44782957  0.50137428  1
  Ba  Ba2  1  0.22579810  0.43553493  0.01351197  1
  Ba  Ba3  1  0.02731262  0.41414680  0.47141740  1
  Ba  Ba4  1  0.18785099  0.74117360  0.28593025  1
  Ba  Ba5  1  0.65300938  0.66388542  0.46389912  1
  Ba  Ba6  1  0.01064259  -0.07257668  0.29901454  1
  Ba  Ba7  1  0.71948066  -0.02511294  -0.02426460  1
  Ba  Ba8  1  0.24471192  0.06370616  0.23265663  1
  Ba  Ba9  1  -0.08708619  0.74789577  0.13219532  1
  Ba  Ba10  1  0.58057788  0.00226018  0.64653935  1
  Ba  Ba11  1  0.20424300  0.72081675  0.77959619  1
  Ba  Ba12  1  0.29380338  -0.08669751  -0.06535706  1
  Ba  Ba13  1  0.38133831  0.54105763  0.85256982  1
  Ba  Ba14  1  0.32461224  0.81033671  0.53832799  1
  Ba  Ba15  1  0.60362235  0.73901500  0.22935797  1
  Ba  Ba16  1  0.03252731  -0.09208252  -0.04865399  1
  Ba  Ba17  1  0.61732974  0.64251096  0.83701407  1
  Ba  Ba18  1  0.90991349  0.13556878  -0.02251558  1
  Ba  Ba19  1  0.36864802  0.02477732  0.54882617  1
  Ba  Ba20  1  0.76811157  0.49075299  0.61381736  1
  Ba  Ba21  1  0.53978302  0.22056411  0.75453072  1
  Ba  Ba22  1  -0.04573615  0.17580384  0.48588642  1
  Ba  Ba23  1  0.49072772  0.26803333  0.29443722  1
  Ba  Ba24  1  0.21319301  0.18067822  0.44576179  1
  Ba  Ba25  1  0.57356990  0.44139431  -0.03343986  1
  Ba  Ba26  1  0.56561401  0.07156742  0.37811948  1
  Ba  Ba27  1  0.81104632  0.26737643  0.67498271  1
  Ba  Ba28  1  0.03528430  -0.11720911  0.68071944  1
  Ba  Ba29  1  0.80163966  0.37546889  -0.11009868  1
  Ba  Ba30  1  -0.14302680  0.77885017  0.55411831  1
  Ba  Ba31  1  0.27772900  0.39525882  0.50055638  1
  Ba  Ba32  1  0.00333827  0.61563876  0.66645239  1
  Ba  Ba33  1  0.06002360  0.29423542  -0.15873519  1
  Ba  Ba34  1  0.04943103  0.43039139  0.21281227  1
  Ba  Ba35  1  0.38846850  0.62442736  0.38370676  1
  Ba  Ba36  1  -0.03106478  0.54117857  0.98077482  1
  Ba  Ba37  1  0.50530079  0.83617393  0.01895933  1
  Ba  Ba38  1  0.72292180  0.29168976  0.42098942  1
  Ba  Ba39  1  0.33932598  0.14576752  -0.00935911  1
  Ba  Ba40  1  0.85362653  0.76471849  0.84674588  1
  Ba  Ba41  1  0.75684316  0.33761987  0.16915047  1
  Ba  Ba42  1  0.56816462  0.76964712  0.65195946  1
  Ba  Ba43  1  0.21493098  0.12499837  0.74324297  1
  Ba  Ba44  1  0.39996655  0.89792612  0.27549651  1
  Ba  Ba45  1  -0.02775106  0.61935908  0.36585524  1
  Ba  Ba46  1  0.30086936  0.36945499  0.72263029  1
  Ba  Ba47  1  0.57208173  0.21814274  0.02716604  1
  Ba  Ba48  1  0.14727826  0.23782220  0.11965401  1
  Ba  Ba49  1  0.44276313  0.51452381  0.17595758  1
  Ba  Ba50  1  -0.07307365  0.16639671  0.22577952  1
  Fe  Fe51  1  0.11072839  0.45530850  0.66269839  1
  Fe  Fe52  1  1.00899739  0.06033385  0.76750951  1
  Fe  Fe53  1  0.74652430  0.12263998  0.12118997  1
  Fe  Fe54  1  0.06724326  0.02844523  0.10151584  1
  Fe  Fe55  1  0.11674305  0.88332846  0.47841444  1
  Fe  Fe56  1  0.19413953  0.63499890  0.96469589  1
  Fe  Fe57  1  0.80424559  0.96832979  0.63539732  1
  Fe  Fe58  1  0.44245591  0.63566893  0.56787570  1
  Fe  Fe59  1  0.72645355  0.48915224  0.33768059  1
  Fe  Fe60  1  0.73614687  0.61026611  0.27879823  1
  Fe  Fe61  1  0.97755487  0.38410454  0.66205157  1
  Fe  Fe62  1  0.33759265  0.70082672  0.98233769  1
  Fe  Fe63  1  0.40976247  -0.00283516  0.77269801  1
  Fe  Fe64  1  0.72155746  0.16418122  0.26930605  1
  Fe  Fe65  1  0.75480868  0.62562632  0.12599331  1
  Fe  Fe66  1  -0.01637107  0.45896855  0.76561579  1
  Fe  Fe67  1  0.66212318  0.51982426  0.18713258  1
  Fe  Fe68  1  0.88643382  1.13027957  0.78490765  1
  Fe  Fe69  1  0.18487418  0.34700532  0.33082122  1
  Fe  Fe70  1  0.50316446  0.56635663  0.66342219  1
  Fe  Fe71  1  0.23339308  0.54889920  0.67948766  1
  Fe  Fe72  1  0.75885221  0.59586325  0.97171998  1
  Fe  Fe73  1  0.22078058  0.74900883  1.05591726  1
  Fe  Fe74  1  0.16905979  0.54930921  0.55211133  1
  Fe  Fe75  1  0.17611394  0.98379029  0.56880765  1
  Fe  Fe76  1  0.77049651  0.66299086  0.68779887  1
  Fe  Fe77  1  0.41649000  1.00227144  0.09196512  1
  Fe  Fe78  1  0.24956262  0.40435546  0.21527221  1
  Fe  Fe79  1  0.54846287  1.03925764  0.07748572  1
  Fe  Fe80  1  0.51814360  -0.10225549  0.81461201  1
  Fe  Fe81  1  0.10181877  0.02783370  0.46338337  1
  Fe  Fe82  1  0.36989905  0.64527264  0.68759730  1
  Fe  Fe83  1  0.46391169  0.07275178  0.19298165  1
  Fe  Fe84  1  0.60826681  0.43054193  0.29711430  1
  Fe  Fe85  1  0.06213661  0.06479184  0.61123943  1
  Fe  Fe86  1  0.63387482  0.60120363  1.05745870  1
  Fe  Fe87  1  0.28370834  0.27263446  0.27217282  1
  Fe  Fe88  1  0.36095517  0.52616130  0.60858008  1
  Fe  Fe89  1  0.75999380  0.06622309  0.72926462  1
  Fe  Fe90  1  0.27739664  0.63329448  0.56559015  1
  Fe  Fe91  1  0.59152529  0.55346465  0.31775787  1
  Fe  Fe92  1  0.41658358  0.87700841  0.72454483  1
  Fe  Fe93  1  0.75324737  0.04419967  0.22481730  1
  Fe  Fe94  1  0.21590143  0.95906136  0.41852882  1
  Fe  Fe95  1  0.87220681  0.98495847  0.77535184  1
  Fe  Fe96  1  0.33688772  0.40129961  0.31583379  1
  Fe  Fe97  1  0.74994047  0.49954003  0.06036740  1
  Fe  Fe98  1  0.28005883  0.61344858  0.07000500  1
  Fe  Fe99  1  0.61523237  0.11205178  0.18553084  1
  Fe  Fe100  1  0.90490652  1.06869957  0.64691648  1
  Fe  Fe101  1  1.00414723  0.16903248  0.69155287  1
  Bi  Bi102  1  0.37929315  0.71653724  0.16010327  1
  Bi  Bi103  1  -0.05432717  -0.03605541  0.50826784  1
  Bi  Bi104  1  0.50709181  0.03519464  -0.09026579  1
  Bi  Bi105  1  0.19922219  0.51774090  0.34591361  1
  Bi  Bi106  1  0.11287650  0.28241273  0.61973843  1
  Bi  Bi107  1  0.14505652  0.51607720  -0.17054613  1
  Bi  Bi108  1  0.71054691  0.75087534  0.01791686  1
  Bi  Bi109  1  0.61093577  -0.05353891  0.19848017  1
  Bi  Bi110  1  0.85842277  0.52234336  0.20142545  1
  Bi  Bi111  1  0.12136297  0.71804738  0.51468495  1
  Bi  Bi112  1  0.25186175  -0.07503598  0.71489176  1
  Bi  Bi113  1  0.74184826  0.10998627  0.55106805  1
  Bi  Bi114  1  0.71345096  -0.10327563  0.76634634  1
  Bi  Bi115  1  0.16363673  0.89361922  0.13119152  1
  Bi  Bi116  1  0.10855260  0.62368880  0.12251305  1
  Bi  Bi117  1  0.83060755  0.56502757  0.80788043  1
  Bi  Bi118  1  0.53337922  0.86957464  0.45634904  1
  Bi  Bi119  1  0.58240684  0.43721813  0.73584830  1
  Bi  Bi120  1  0.72712869  0.17500634  0.85927258  1
  Bi  Bi121  1  0.89311394  0.98114002  0.12571830  1
  Bi  Bi122  1  0.40593123  0.32147914  0.89832050  1
  Bi  Bi123  1  0.42134915  0.74973178  0.83168647  1
  Bi  Bi124  1  0.12750700  0.09276075  0.95083590  1
  Bi  Bi125  1  0.96249684  0.32970006  0.04296969  1
  Bi  Bi126  1  0.81323762  0.75548745  0.33277780  1
  Bi  Bi127  1  0.37397245  0.31651770  0.12657387  1
