# generated using pymatgen
data_Ba51Fe51Bi26
_symmetry_space_group_name_H-M   'P 1'
_cell_length_a   16.24170724
_cell_length_b   16.74934632
_cell_length_c   16.14839402
_cell_angle_alpha   89.75746320
_cell_angle_beta   90.27574019
_cell_angle_gamma   91.48376368
_symmetry_Int_Tables_number   1
_chemical_formula_structural   Ba51Fe51Bi26
_chemical_formula_sum   'Ba51 Fe51 Bi26'
_cell_volume   4391.41558294
_cell_formula_units_Z   1
loop_
 _symmetry_equiv_pos_site_id
 _symmetry_equiv_pos_as_xyz
  1  'x, y, z'
loop_
 _atom_site_type_symbol
 _atom_site_label
 _atom_site_symmetry_multiplicity
 _atom_site_fract_x
 _atom_site_fract_y
 _atom_site_fract_z
 _atom_site_occupancy
  Ba  Ba0  1  0.73823185  0.76893173  0.51952178  1
  Ba  Ba1  1  0.33002235  0.60113700  0.04989327  1
  Ba  Ba2  1  0.49189824  0.49081196  0.50485420  1
  Ba  Ba3  1  0.45559948  0.33002378  0.72866269  1
  Ba  Ba4  1  0.05081342  -0.02036571  0.24900857  1
  Ba  Ba5  1  -0.01949254  0.81472783  0.45677862  1
  Ba  Ba6  1  0.25537836  0.02200976  -0.00101756  1
  Ba  Ba7  1  0.54511919  -0.00847403  -0.03480970  1
  Ba  Ba8  1  -0.09702919  0.43482154  0.63010772  1
  Ba  Ba9  1  0.75513819  0.22170697  0.23529683  1
  Ba  Ba10  1  0.17583079  0.34087939  0.84361551  1
  Ba  Ba11  1  0.03188605  0.75400134  0.68923701  1
  Ba  Ba12  1  0.23342505  0.04237466  0.54366688  1
  Ba  Ba13  1  0.22399428  0.23426862  0.37616661  1
  Ba  Ba14  1  -0.06502466  0.05553190  0.47021956  1
  Ba  Ba15  1  0.72871137  0.03963200  0.72422635  1
  Ba  Ba16  1  -0.02184476  0.22860967  0.71945181  1
  Ba  Ba17  1  0.03828079  0.69992399  0.07486043  1
  Ba  Ba18  1  0.45039733  0.72725487  0.83035274  1
  Ba  Ba19  1  0.75663190  0.53645911  0.47497264  1
  Ba  Ba20  1  0.44052323  -0.08784605  0.46560139  1
  Ba  Ba21  1  0.45977066  0.00521876  0.72760150  1
  Ba  Ba22  1  0.70167687  0.41820453  0.00948169  1
  Ba  Ba23  1  0.73473117  0.29909649  0.76075541  1
  Ba  Ba24  1  0.49620983  0.24903655  0.26940618  1
  Ba  Ba25  1  -0.05963006  0.45938338  -0.10915776  1
  Ba  Ba26  1  0.03781647  0.01023574  0.72740122  1
  Ba  Ba27  1  0.86741546  0.51302451  0.22011026  1
  Ba  Ba28  1  0.00121887  0.26203220  0.26421756  1
  Ba  Ba29  1  0.26536886  0.57250829  0.48486640  1
  Ba  Ba30  1  0.46952555  0.22923898  -0.00863105  1
  Ba  Ba31  1  0.54923341  0.74989238  0.04353707  1
  Ba  Ba32  1  0.74116639  0.72589595  0.22705673  1
  Ba  Ba33  1  0.75976338  0.18240722  -0.01220922  1
  Ba  Ba34  1  0.69454346  -0.00007253  0.48552050  1
  Ba  Ba35  1  0.30411553  0.72678026  0.24438392  1
  Ba  Ba36  1  0.49171299  0.71339611  0.60010954  1
  Ba  Ba37  1  0.20077590  0.72428262  -0.09621869  1
  Ba  Ba38  1  0.81562011  0.78770260  0.81365383  1
  Ba  Ba39  1  0.04175644  0.20518495  -0.00381015  1
  Ba  Ba40  1  0.50823999  0.19658171  0.53669945  1
  Ba  Ba41  1  0.26020014  0.34939138  0.07664942  1
  Ba  Ba42  1  0.09715104  0.51186080  0.28024471  1
  Ba  Ba43  1  -0.00688199  -0.04379110  -0.01422439  1
  Ba  Ba44  1  0.61998067  0.48936416  0.26372022  1
  Ba  Ba45  1  0.34437892  0.45029219  0.29062992  1
  Ba  Ba46  1  0.74339970  -0.03225542  0.15621000  1
  Ba  Ba47  1  0.22386124  0.79348666  0.49461743  1
  Ba  Ba48  1  0.45482210  0.46657015  -0.07754915  1
  Ba  Ba49  1  0.13181465  0.53286641  0.69929267  1
  Ba  Ba50  1  0.44163582  -0.04693393  0.21238887  1
  Fe  Fe51  1  0.28653648  0.18982245  0.88177439  1
  Fe  Fe52  1  0.30084981  0.17681209  0.75066842  1
  Fe  Fe53  1  0.46176221  0.60122164  0.33571367  1
  Fe  Fe54  1  0.43546432  0.70767302  0.41207080  1
  Fe  Fe55  1  0.07201648  0.39873492  0.07423977  1
  Fe  Fe56  1  0.77455239  0.50992402  0.78194950  1
  Fe  Fe57  1  0.10468826  0.68467826  0.36946750  1
  Fe  Fe58  1  0.82880328  0.18227981  0.57786813  1
  Fe  Fe59  1  0.31816162  0.58616225  0.80373568  1
  Fe  Fe60  1  0.70538093  0.84345359  0.96753105  1
  Fe  Fe61  1  0.80805676  0.20848063  0.43409542  1
  Fe  Fe62  1  0.46995105  0.46013879  0.12816609  1
  Fe  Fe63  1  0.31982641  0.38330065  0.50566253  1
  Fe  Fe64  1  0.24281440  0.51519793  0.89462547  1
  Fe  Fe65  1  0.79545071  0.31237274  0.53010362  1
  Fe  Fe66  1  0.97420870  0.61024232  0.41633516  1
  Fe  Fe67  1  0.27454108  0.06447318  0.26079309  1
  Fe  Fe68  1  0.31396183  0.45828868  0.77396912  1
  Fe  Fe69  1  0.12653241  0.23946357  0.56150036  1
  Fe  Fe70  1  0.55856118  0.77175902  0.40691443  1
  Fe  Fe71  1  0.16797738  0.88399041  0.80668719  1
  Fe  Fe72  1  0.11879340  0.78517099  0.27625706  1
  Fe  Fe73  1  0.12089200  0.49561154  0.96532348  1
  Fe  Fe74  1  0.35421052  0.53877936  0.66937954  1
  Fe  Fe75  1  0.68349127  0.30644513  0.43344215  1
  Fe  Fe76  1  0.74644813  0.58142186  0.90279848  1
  Fe  Fe77  1  0.57729486  0.64642434  0.40653864  1
  Fe  Fe78  1  0.67416110  0.17739970  0.41959056  1
  Fe  Fe79  1  0.19917552  0.87619781  0.67501179  1
  Fe  Fe80  1  0.55613452  0.55529905  0.07162022  1
  Fe  Fe81  1  0.64109554  0.49040750  0.82866945  1
  Fe  Fe82  1  0.60037504  0.87162905  0.64846425  1
  Fe  Fe83  1  0.46593406  0.57661734  0.18684053  1
  Fe  Fe84  1  0.33499098  0.85949526  0.65579032  1
  Fe  Fe85  1  0.60736259  0.59981600  0.92981840  1
  Fe  Fe86  1  0.17063914  0.19038682  0.69296034  1
  Fe  Fe87  1  0.16778856  0.14790901  0.82965417  1
  Fe  Fe88  1  0.18381508  0.37647761  0.51392901  1
  Fe  Fe89  1  0.72399680  0.70592224  -0.02972647  1
  Fe  Fe90  1  0.95563484  0.61456913  0.55023354  1
  Fe  Fe91  1  0.16350465  0.33640011  0.64710733  1
  Fe  Fe92  1  0.66942584  0.62667876  0.78664822  1
  Fe  Fe93  1  0.68150312  0.51733693  0.68133460  1
  Fe  Fe94  1  1.00657284  0.50829759  0.07202612  1
  Fe  Fe95  1  0.88432167  0.10242039  0.85618247  1
  Fe  Fe96  1  0.69879956  0.20681380  0.55575426  1
  Fe  Fe97  1  0.14800618  0.52875449  0.09073923  1
  Fe  Fe98  1  0.08170805  0.64915522  0.51189078  1
  Fe  Fe99  1  0.30137245  0.85922236  0.78715553  1
  Fe  Fe100  1  0.28347074  0.41933145  0.63072758  1
  Fe  Fe101  1  0.68952521  0.59988297  0.05852469  1
  Bi  Bi102  1  0.64542061  0.37449166  0.58727061  1
  Bi  Bi103  1  0.25326119  0.02175759  0.77154386  1
  Bi  Bi104  1  0.82631540  0.62940818  0.66734094  1
  Bi  Bi105  1  0.30333192  0.24219710  0.59108801  1
  Bi  Bi106  1  0.05756793  0.48692882  0.49226468  1
  Bi  Bi107  1  0.78624746  -0.01263968  -0.07458156  1
  Bi  Bi108  1  0.85635455  0.59735667  0.02646174  1
  Bi  Bi109  1  0.51424103  0.54453685  0.72687438  1
  Bi  Bi110  1  -0.03189767  0.25837159  0.50180961  1
  Bi  Bi111  1  0.52216292  0.72995414  0.25013253  1
  Bi  Bi112  1  -0.03555995  0.70090264  0.27321880  1
  Bi  Bi113  1  0.27304982  0.70345430  0.68663683  1
  Bi  Bi114  1  0.24603306  -0.08170356  0.33197159  1
  Bi  Bi115  1  0.58775333  0.11886403  0.13308112  1
  Bi  Bi116  1  0.83205486  0.37131996  0.37103596  1
  Bi  Bi117  1  0.82132180  0.90236237  0.34764037  1
  Bi  Bi118  1  0.57628994  0.16514992  0.81795775  1
  Bi  Bi119  1  0.35670672  0.83192452  0.02950254  1
  Bi  Bi120  1  0.84623949  0.80893540  0.05151163  1
  Bi  Bi121  1  0.87216615  0.90779010  0.62626854  1
  Bi  Bi122  1  0.16874974  0.85713457  0.11737138  1
  Bi  Bi123  1  0.90405315  0.35155612  0.08330762  1
  Bi  Bi124  1  0.39350655  0.09895073  0.37819094  1
  Bi  Bi125  1  0.61112283  0.86205585  0.81452902  1
  Bi  Bi126  1  0.91214786  0.10330553  0.13747756  1
  Bi  Bi127  1  0.18093306  0.15958854  0.16411452  1
