# generated using pymatgen
data_Ba51Fe51Bi26
_symmetry_space_group_name_H-M   'P 1'
_cell_length_a   16.45415142
_cell_length_b   16.26133878
_cell_length_c   16.34429823
_cell_angle_alpha   88.20126275
_cell_angle_beta   94.25397358
_cell_angle_gamma   92.26896890
_symmetry_Int_Tables_number   1
_chemical_formula_structural   Ba51Fe51Bi26
_chemical_formula_sum   'Ba51 Fe51 Bi26'
_cell_volume   4355.94330032
_cell_formula_units_Z   1
loop_
 _symmetry_equiv_pos_site_id
 _symmetry_equiv_pos_as_xyz
  1  'x, y, z'
loop_
 _atom_site_type_symbol
 _atom_site_label
 _atom_site_symmetry_multiplicity
 _atom_site_fract_x
 _atom_site_fract_y
 _atom_site_fract_z
 _atom_site_occupancy
  Ba  Ba0  1  0.29116573  0.16859592  -0.00319464  1
  Ba  Ba1  1  -0.07005044  0.40436383  0.80236526  1
  Ba  Ba2  1  0.53246059  0.01720428  0.06687042  1
  Ba  Ba3  1  -0.03918412  0.53897535  0.53708611  1
  Ba  Ba4  1  0.50797440  0.81008662  0.28823873  1
  Ba  Ba5  1  0.29156618  0.55284895  -0.04603652  1
  Ba  Ba6  1  0.29408350  0.50936691  0.71231065  1
  Ba  Ba7  1  0.47553893  -0.11441345  0.72521289  1
  Ba  Ba8  1  0.39263038  -0.01908441  0.44057774  1
  Ba  Ba9  1  0.06088571  0.44373043  0.04020435  1
  Ba  Ba10  1  0.41224165  0.40220840  0.37985380  1
  Ba  Ba11  1  0.21736176  0.77227504  0.26697774  1
  Ba  Ba12  1  0.56141875  0.25572418  0.74118860  1
  Ba  Ba13  1  0.76260442  0.85343278  0.75129199  1
  Ba  Ba14  1  -0.06249149  0.63991321  -0.08534101  1
  Ba  Ba15  1  0.76144461  -0.04625282  -0.00539439  1
  Ba  Ba16  1  0.43391689  0.54104192  0.17193873  1
  Ba  Ba17  1  0.81500009  0.19558859  0.87265083  1
  Ba  Ba18  1  -0.05464764  0.42078954  0.26910835  1
  Ba  Ba19  1  0.02200101  0.81628801  0.73964535  1
  Ba  Ba20  1  0.19262183  0.28425697  0.23293204  1
  Ba  Ba21  1  -0.03318327  0.00097062  0.21795933  1
  Ba  Ba22  1  -0.03207995  0.27041358  0.52639129  1
  Ba  Ba23  1  0.67017363  0.61607570  0.20396808  1
  Ba  Ba24  1  0.62998035  0.02432003  0.61433088  1
  Ba  Ba25  1  -0.05781221  0.21513897  0.10470558  1
  Ba  Ba26  1  0.01579301  0.03855626  0.50745395  1
  Ba  Ba27  1  0.32971055  0.21834538  0.76747823  1
  Ba  Ba28  1  0.69301301  0.25213631  0.05555230  1
  Ba  Ba29  1  0.05617866  0.17881455  0.87505357  1
  Ba  Ba30  1  0.64684212  0.46194180  0.52130531  1
  Ba  Ba31  1  0.67902056  0.38375686  0.28746072  1
  Ba  Ba32  1  0.49492127  0.80286250  -0.04130954  1
  Ba  Ba33  1  0.55827501  0.22051381  0.49617714  1
  Ba  Ba34  1  0.50712867  0.68018150  0.57827155  1
  Ba  Ba35  1  0.28099299  0.22357463  0.52424605  1
  Ba  Ba36  1  0.19148818  0.46445845  0.48744626  1
  Ba  Ba37  1  0.79608517  0.09342027  0.39127823  1
  Ba  Ba38  1  0.14718783  0.72268526  0.00704792  1
  Ba  Ba39  1  0.76132411  -0.11291628  0.50508167  1
  Ba  Ba40  1  0.19734517  0.05128362  0.30108181  1
  Ba  Ba41  1  0.23405465  -0.01259904  0.64203461  1
  Ba  Ba42  1  0.09000585  0.78486276  0.47913142  1
  Ba  Ba43  1  0.71014021  0.67621590  -0.02336174  1
  Ba  Ba44  1  0.52832739  0.48664638  0.78599315  1
  Ba  Ba45  1  0.27200531  0.76768705  0.77276950  1
  Ba  Ba46  1  0.03319372  -0.07310617  -0.01805697  1
  Ba  Ba47  1  -0.08213611  0.71469215  0.23209369  1
  Ba  Ba48  1  0.76345888  0.56626128  0.72481687  1
  Ba  Ba49  1  0.48410377  0.25554258  0.15553595  1
  Ba  Ba50  1  0.28138849  -0.06476900  0.04768044  1
  Fe  Fe51  1  0.23764362  0.61482056  0.15014707  1
  Fe  Fe52  1  0.36861921  0.58353309  0.45959537  1
  Fe  Fe53  1  0.76213645  0.25727637  0.55971444  1
  Fe  Fe54  1  0.95441210  0.12648580  0.70016523  1
  Fe  Fe55  1  0.08638181  0.53254763  0.86588995  1
  Fe  Fe56  1  0.73970389  0.33220275  0.69231295  1
  Fe  Fe57  1  0.61046256  0.97389387  0.85379195  1
  Fe  Fe58  1  0.69113607  0.19733655  0.24846339  1
  Fe  Fe59  1  0.22839074  0.65206369  0.43622467  1
  Fe  Fe60  1  0.82297817  0.71582750  0.43007669  1
  Fe  Fe61  1  0.35413709  0.71615132  0.42774488  1
  Fe  Fe62  1  0.84101407  0.39746073  1.00977458  1
  Fe  Fe63  1  0.46605604  0.41493693  1.00562003  1
  Fe  Fe64  1  0.35474661  0.09253413  0.19031438  1
  Fe  Fe65  1  0.64456957  0.48108820  -0.03625341  1
  Fe  Fe66  1  0.73831189  0.79409436  0.32506698  1
  Fe  Fe67  1  0.67593042  1.07828062  0.78943719  1
  Fe  Fe68  1  0.80606577  1.07815028  0.71623163  1
  Fe  Fe69  1  0.21893276  0.48193487  0.15697372  1
  Fe  Fe70  1  0.83267021  0.36776445  0.61669965  1
  Fe  Fe71  1  0.58732375  0.43832213  0.08316717  1
  Fe  Fe72  1  0.47707662  0.05602219  0.26875163  1
  Fe  Fe73  1  0.62073903  0.06135899  0.24011845  1
  Fe  Fe74  1  0.00313435  0.60015962  0.74021612  1
  Fe  Fe75  1  0.51956341  0.06753646  0.81298561  1
  Fe  Fe76  1  0.67917209  0.93224174  0.27377063  1
  Fe  Fe77  1  0.29627913  0.64734974  0.55792622  1
  Fe  Fe78  1  0.14084321  0.48691168  0.26068183  1
  Fe  Fe79  1  0.82372972  0.22779878  0.24942302  1
  Fe  Fe80  1  0.85930055  0.23699959  0.68709495  1
  Fe  Fe81  1  0.57543544  0.16142890  0.31570468  1
  Fe  Fe82  1  0.56679311  0.36083462  0.94985801  1
  Fe  Fe83  1  0.05164241  1.01985983  0.74352620  1
  Fe  Fe84  1  0.79430283  0.88806953  0.23638229  1
  Fe  Fe85  1  0.09649952  0.50673638  0.73437251  1
  Fe  Fe86  1  0.15402340  0.94479171  0.83353233  1
  Fe  Fe87  1  0.73183642  0.45031297  0.07835296  1
  Fe  Fe88  1  0.36768342  0.96949427  0.23121177  1
  Fe  Fe89  1  0.12877724  0.92610256  0.15549537  1
  Fe  Fe90  1  0.68179101  0.67631266  0.40537032  1
  Fe  Fe91  1  0.44919177  0.65747393  0.82793537  1
  Fe  Fe92  1  0.79025259  0.50199941  0.94682443  1
  Fe  Fe93  1  0.78014827  0.60785744  0.51407028  1
  Fe  Fe94  1  0.10772130  0.58851670  0.17557569  1
  Fe  Fe95  1  0.83487751  0.12393781  0.59047082  1
  Fe  Fe96  1  0.90819196  1.00167758  0.66127789  1
  Fe  Fe97  1  0.62776177  0.10878799  0.90848766  1
  Fe  Fe98  1  0.18533464  0.06930112  0.80977404  1
  Fe  Fe99  1  0.72298705  0.18807013  0.67229393  1
  Fe  Fe100  1  0.70848959  0.70632112  0.54114486  1
  Fe  Fe101  1  0.12465638  0.64357691  0.80528713  1
  Bi  Bi102  1  0.71317123  0.37934990  -0.14431318  1
  Bi  Bi103  1  0.49378303  0.20203708  -0.06204396  1
  Bi  Bi104  1  0.87510654  0.71967767  0.60954376  1
  Bi  Bi105  1  0.33210537  -0.01214399  0.84948715  1
  Bi  Bi106  1  0.59603187  0.00167950  0.40001474  1
  Bi  Bi107  1  0.51078378  0.58263253  -0.02213670  1
  Bi  Bi108  1  0.38464738  0.18352705  0.33838499  1
  Bi  Bi109  1  0.65602056  0.82496850  0.13644420  1
  Bi  Bi110  1  0.28425652  0.56308398  0.30822349  1
  Bi  Bi111  1  0.76970995  0.07346881  0.16953415  1
  Bi  Bi112  1  0.14199557  0.64071585  0.63140587  1
  Bi  Bi113  1  0.52431889  0.59871603  0.37939953  1
  Bi  Bi114  1  -0.09228112  0.00353611  0.83401656  1
  Bi  Bi115  1  0.43367454  0.09387258  0.63743029  1
  Bi  Bi116  1  0.12212268  0.16954955  0.66757912  1
  Bi  Bi117  1  0.80516279  0.54803090  0.36544425  1
  Bi  Bi118  1  0.42460062  0.38480606  0.59800151  1
  Bi  Bi119  1  0.07121122  0.60652728  0.35176262  1
  Bi  Bi120  1  0.32545346  0.81474742  0.56242425  1
  Bi  Bi121  1  0.90985717  0.87001393  0.37515390  1
  Bi  Bi122  1  0.31197999  0.37189817  0.07687727  1
  Bi  Bi123  1  0.35004649  0.73594035  0.10502152  1
  Bi  Bi124  1  0.59907849  0.70741815  0.78012609  1
  Bi  Bi125  1  0.12149809  0.09007590  0.09523212  1
  Bi  Bi126  1  -0.01327602  0.19676153  0.32087598  1
  Bi  Bi127  1  0.87361249  0.54965297  0.09893073  1
