# generated using pymatgen
data_Ba51Fe51Bi26
_symmetry_space_group_name_H-M   'P 1'
_cell_length_a   16.55694332
_cell_length_b   16.44413735
_cell_length_c   16.09367746
_cell_angle_alpha   91.67332255
_cell_angle_beta   90.67153022
_cell_angle_gamma   89.50886199
_symmetry_Int_Tables_number   1
_chemical_formula_structural   Ba51Fe51Bi26
_chemical_formula_sum   'Ba51 Fe51 Bi26'
_cell_volume   4379.42165333
_cell_formula_units_Z   1
loop_
 _symmetry_equiv_pos_site_id
 _symmetry_equiv_pos_as_xyz
  1  'x, y, z'
loop_
 _atom_site_type_symbol
 _atom_site_label
 _atom_site_symmetry_multiplicity
 _atom_site_fract_x
 _atom_site_fract_y
 _atom_site_fract_z
 _atom_site_occupancy
  Ba  Ba0  1  0.73130578  0.68273753  0.02046479  1
  Ba  Ba1  1  0.75114081  0.71781290  0.30324385  1
  Ba  Ba2  1  -0.07349774  0.60679836  0.48615868  1
  Ba  Ba3  1  0.06635706  0.06544087  0.55073174  1
  Ba  Ba4  1  0.78579799  -0.03763058  0.78720974  1
  Ba  Ba5  1  0.28118908  0.23362538  0.51805121  1
  Ba  Ba6  1  0.76167335  0.33065443  0.24167985  1
  Ba  Ba7  1  0.47447214  0.01284321  0.50615606  1
  Ba  Ba8  1  0.00916351  0.00600124  0.28488887  1
  Ba  Ba9  1  0.51078355  0.28540409  0.53757643  1
  Ba  Ba10  1  -0.01302159  0.25940184  0.21575179  1
  Ba  Ba11  1  0.53070892  0.75492875  0.44135719  1
  Ba  Ba12  1  0.52093175  0.52370791  0.56915343  1
  Ba  Ba13  1  0.25024604  0.27395754  0.00496659  1
  Ba  Ba14  1  0.70384256  0.04294514  0.01825558  1
  Ba  Ba15  1  0.57943645  0.33518426  0.77076916  1
  Ba  Ba16  1  0.55557053  0.49323212  0.05088203  1
  Ba  Ba17  1  -0.06986936  0.26551367  0.50880380  1
  Ba  Ba18  1  0.00278858  0.32198287  -0.02101853  1
  Ba  Ba19  1  0.48661862  -0.00288838  -0.07410136  1
  Ba  Ba20  1  0.76781743  0.45630229  0.67244502  1
  Ba  Ba21  1  0.24451875  -0.00698658  -0.01772204  1
  Ba  Ba22  1  0.67038135  0.16590636  0.39444132  1
  Ba  Ba23  1  0.15929645  0.77785232  0.27067047  1
  Ba  Ba24  1  0.01121942  -0.10378067  0.73286610  1
  Ba  Ba25  1  0.36995772  -0.03057773  0.71511383  1
  Ba  Ba26  1  0.24982148  0.52251028  0.27729823  1
  Ba  Ba27  1  0.51041372  0.78024628  0.72692589  1
  Ba  Ba28  1  0.21774455  0.69011948  0.47906919  1
  Ba  Ba29  1  0.39108979  0.76224139  0.18397976  1
  Ba  Ba30  1  0.28791238  0.18820657  0.76854776  1
  Ba  Ba31  1  0.24074324  0.42860377  0.76115084  1
  Ba  Ba32  1  0.53416221  0.24051116  -0.00656475  1
  Ba  Ba33  1  -0.03863954  0.05681145  0.01864902  1
  Ba  Ba34  1  -0.02663976  0.67248167  0.79741867  1
  Ba  Ba35  1  0.16522759  0.72986750  -0.01651018  1
  Ba  Ba36  1  0.12646081  0.41188890  0.46353770  1
  Ba  Ba37  1  0.42751829  0.58112519  0.81638851  1
  Ba  Ba38  1  0.01110669  0.44225182  0.75801229  1
  Ba  Ba39  1  -0.04553955  0.85449678  0.48791387  1
  Ba  Ba40  1  0.52151045  -0.00977986  0.21838286  1
  Ba  Ba41  1  0.22101068  0.70903179  0.71783143  1
  Ba  Ba42  1  0.25564952  0.02777145  0.29168156  1
  Ba  Ba43  1  0.25347324  0.27307095  0.25799108  1
  Ba  Ba44  1  -0.07771903  0.80865874  0.07945679  1
  Ba  Ba45  1  0.50520527  0.37202881  0.31192862  1
  Ba  Ba46  1  0.30126355  0.52757184  0.02818868  1
  Ba  Ba47  1  0.70429120  -0.03595985  0.54498659  1
  Ba  Ba48  1  0.76664598  0.17807589  0.65003940  1
  Ba  Ba49  1  0.00191670  0.14833484  0.77717341  1
  Ba  Ba50  1  0.80201895  0.44814689  -0.04272426  1
  Fe  Fe51  1  0.95527927  0.47909120  0.15232153  1
  Fe  Fe52  1  0.83886566  0.99522562  0.18009821  1
  Fe  Fe53  1  0.77288989  0.51891211  0.34584116  1
  Fe  Fe54  1  0.57387878  0.80785699  0.06446989  1
  Fe  Fe55  1  0.18670040  0.88098940  0.47466563  1
  Fe  Fe56  1  0.34257567  0.42580872  0.58606329  1
  Fe  Fe57  1  0.47818502  0.81242401  -0.03019976  1
  Fe  Fe58  1  0.50994702  0.14434034  0.79445187  1
  Fe  Fe59  1  0.60617134  0.57080256  0.36860159  1
  Fe  Fe60  1  0.79193215  0.42428067  0.46069179  1
  Fe  Fe61  1  0.92083548  0.62058470  0.14758123  1
  Fe  Fe62  1  0.12958898  0.56813914  0.87156063  1
  Fe  Fe63  1  0.84770166  0.77170532  0.68700660  1
  Fe  Fe64  1  0.04782010  0.60042605  0.31995856  1
  Fe  Fe65  1  0.31018526  0.87029878  0.42436514  1
  Fe  Fe66  1  0.66704840  0.63987512  0.68508934  1
  Fe  Fe67  1  0.71230996  0.77548279  0.69812525  1
  Fe  Fe68  1  0.69995130  0.34459131  0.50042527  1
  Fe  Fe69  1  0.41064633  0.69904833  0.97669749  1
  Fe  Fe70  1  0.51589557  0.68295526  0.05835125  1
  Fe  Fe71  1  0.05174761  0.59816423  0.17815092  1
  Fe  Fe72  1  0.31852103  0.53594164  0.48440530  1
  Fe  Fe73  1  0.58532072  0.14966049  0.66985549  1
  Fe  Fe74  1  0.65981581  0.43791133  0.40252319  1
  Fe  Fe75  1  0.45591365  0.14969954  0.67082084  1
  Fe  Fe76  1  0.23096183  0.51870889  0.58901095  1
  Fe  Fe77  1  0.88789224  0.01975961  0.62343583  1
  Fe  Fe78  1  0.71341468  0.24965474  0.89296230  1
  Fe  Fe79  1  0.65029335  0.13720536  0.81463389  1
  Fe  Fe80  1  0.20034134  0.90318240  0.78023532  1
  Fe  Fe81  1  0.04644986  0.47692494  0.26538074  1
  Fe  Fe82  1  0.19173287  0.88804727  0.62388668  1
  Fe  Fe83  1  0.31607274  0.84678226  0.55391167  1
  Fe  Fe84  1  0.78503604  0.64215309  0.78200545  1
  Fe  Fe85  1  0.70748219  0.04713764  0.23111714  1
  Fe  Fe86  1  0.36004588  0.41732524  0.45063425  1
  Fe  Fe87  1  0.14619054  0.01859718  0.81630963  1
  Fe  Fe88  1  0.34112990  0.57046210  0.62956674  1
  Fe  Fe89  1  0.79824621  0.77217961  0.82488883  1
  Fe  Fe90  1  0.65429678  0.50600748  0.26083000  1
  Fe  Fe91  1  0.91294407  0.56380735  0.27765962  1
  Fe  Fe92  1  0.80004879  0.65288222  0.64126962  1
  Fe  Fe93  1  0.44345773  0.20358780  0.18966933  1
  Fe  Fe94  1  0.66553549  0.70899183  0.82024481  1
  Fe  Fe95  1  0.55714239  0.70157477  0.92472150  1
  Fe  Fe96  1  0.12506476  0.47225185  0.95214287  1
  Fe  Fe97  1  0.83821059  0.10599277  0.29626577  1
  Fe  Fe98  1  0.79931126  0.13133968  0.17199225  1
  Fe  Fe99  1  0.78919939  0.97107635  0.31076802  1
  Fe  Fe100  1  0.18625531  0.01836060  0.69203046  1
  Fe  Fe101  1  0.79381838  0.15296684  0.86794391  1
  Bi  Bi102  1  0.71255507  -0.12111002  0.16279414  1
  Bi  Bi103  1  -0.00655802  0.57971120  -0.00843906  1
  Bi  Bi104  1  0.64564470  0.85126777  -0.09043143  1
  Bi  Bi105  1  0.63890504  0.54645699  0.83878799  1
  Bi  Bi106  1  0.26837615  0.01834856  0.52817156  1
  Bi  Bi107  1  0.78211495  0.52748541  0.15982976  1
  Bi  Bi108  1  0.81774846  0.23051961  0.03509800  1
  Bi  Bi109  1  -0.07323952  0.41869800  0.36186929  1
  Bi  Bi110  1  0.76335127  0.77094954  0.52889521  1
  Bi  Bi111  1  0.43052214  0.57941424  0.37250035  1
  Bi  Bi112  1  0.71099135  0.57647293  0.50316206  1
  Bi  Bi113  1  0.58227502  -0.00592070  0.72263180  1
  Bi  Bi114  1  -0.04279761  0.73879132  0.28737835  1
  Bi  Bi115  1  0.13572142  0.13376912  0.11623988  1
  Bi  Bi116  1  0.43069863  0.16111878  0.35555046  1
  Bi  Bi117  1  0.86653100  1.06141523  0.46093190  1
  Bi  Bi118  1  0.33727367  0.81855515  0.87342643  1
  Bi  Bi119  1  0.10634740  0.19172902  0.38495377  1
  Bi  Bi120  1  0.40368042  0.37689899  0.88992786  1
  Bi  Bi121  1  0.40078288  0.35864307  0.13136335  1
  Bi  Bi122  1  0.11053829  0.90850046  0.11339530  1
  Bi  Bi123  1  0.12861460  0.42364212  0.12355619  1
  Bi  Bi124  1  0.85225756  0.30406506  0.80043775  1
  Bi  Bi125  1  0.11235671  0.27907744  0.65089085  1
  Bi  Bi126  1  0.61123719  0.18136377  0.18393278  1
  Bi  Bi127  1  0.56829207  0.65027860  0.21815753  1
