# generated using pymatgen
data_Ba51Fe51Bi26
_symmetry_space_group_name_H-M   'P 1'
_cell_length_a   16.73399424
_cell_length_b   16.15844060
_cell_length_c   16.29169475
_cell_angle_alpha   89.12694921
_cell_angle_beta   88.66384004
_cell_angle_gamma   89.04921689
_symmetry_Int_Tables_number   1
_chemical_formula_structural   Ba51Fe51Bi26
_chemical_formula_sum   'Ba51 Fe51 Bi26'
_cell_volume   4402.90679222
_cell_formula_units_Z   1
loop_
 _symmetry_equiv_pos_site_id
 _symmetry_equiv_pos_as_xyz
  1  'x, y, z'
loop_
 _atom_site_type_symbol
 _atom_site_label
 _atom_site_symmetry_multiplicity
 _atom_site_fract_x
 _atom_site_fract_y
 _atom_site_fract_z
 _atom_site_occupancy
  Ba  Ba0  1  0.83356088  0.57500087  0.55985068  1
  Ba  Ba1  1  0.68735911  0.05518164  0.41549597  1
  Ba  Ba2  1  0.04039746  0.52414168  0.81745828  1
  Ba  Ba3  1  0.32801820  -0.03244234  0.50861591  1
  Ba  Ba4  1  0.69124281  -0.03623669  0.69472899  1
  Ba  Ba5  1  0.75018329  0.81133783  0.47447458  1
  Ba  Ba6  1  0.52442112  0.11960341  -0.03099225  1
  Ba  Ba7  1  0.26301414  0.46855168  0.71322578  1
  Ba  Ba8  1  0.16854525  0.14902523  0.55743572  1
  Ba  Ba9  1  0.26759037  0.22681835  0.04997621  1
  Ba  Ba10  1  0.46033078  -0.05587732  0.31717983  1
  Ba  Ba11  1  0.51450559  0.31358827  0.73704543  1
  Ba  Ba12  1  0.32376381  0.45096353  0.23165298  1
  Ba  Ba13  1  0.03533024  0.85678624  0.31223167  1
  Ba  Ba14  1  0.27885953  0.79901738  0.10286664  1
  Ba  Ba15  1  -0.03014235  0.47225630  0.27475038  1
  Ba  Ba16  1  0.11928095  0.52639510  0.06732746  1
  Ba  Ba17  1  0.28936564  0.70027376  0.82473371  1
  Ba  Ba18  1  0.45667979  0.05032661  0.69717263  1
  Ba  Ba19  1  0.16985085  0.65400570  0.28505319  1
  Ba  Ba20  1  0.55238136  0.69007998  0.64728242  1
  Ba  Ba21  1  0.76368272  0.02590518  -0.05825138  1
  Ba  Ba22  1  0.58684721  0.50544302  -0.07697414  1
  Ba  Ba23  1  0.46392466  0.20225643  0.18372798  1
  Ba  Ba24  1  0.67381348  0.74586268  -0.08703047  1
  Ba  Ba25  1  0.76987676  0.28904496  0.71563189  1
  Ba  Ba26  1  -0.06135119  0.03785610  0.71078243  1
  Ba  Ba27  1  0.08951597  0.83747305  0.76150405  1
  Ba  Ba28  1  0.25136115  0.74033713  0.53322261  1
  Ba  Ba29  1  0.81467447  -0.03602844  0.20980466  1
  Ba  Ba30  1  0.01082880  0.28878440  0.03362438  1
  Ba  Ba31  1  0.35148425  0.51245280  -0.02460643  1
  Ba  Ba32  1  0.22955011  0.04543034  0.26473201  1
  Ba  Ba33  1  0.01853789  0.07303563  0.14204562  1
  Ba  Ba34  1  0.79591863  0.55643556  0.79578067  1
  Ba  Ba35  1  0.67122487  0.24699819  0.23704230  1
  Ba  Ba36  1  -0.03994258  0.30876355  0.49269917  1
  Ba  Ba37  1  0.73158643  0.48360496  0.29384086  1
  Ba  Ba38  1  0.56136093  -0.13435388  0.09012496  1
  Ba  Ba39  1  0.33634187  -0.06059452  -0.10606113  1
  Ba  Ba40  1  -0.10260431  0.65048566  0.01887519  1
  Ba  Ba41  1  0.51991145  0.65060837  0.26157043  1
  Ba  Ba42  1  0.70021524  0.34774543  0.49129732  1
  Ba  Ba43  1  0.14070003  0.20614103  0.80594811  1
  Ba  Ba44  1  -0.04140934  -0.12175164  -0.03597586  1
  Ba  Ba45  1  0.28173303  0.35469542  0.48101749  1
  Ba  Ba46  1  0.49775248  0.46555381  0.50143749  1
  Ba  Ba47  1  -0.01860517  0.06995695  0.42372129  1
  Ba  Ba48  1  0.79928754  0.41695315  0.07313380  1
  Ba  Ba49  1  -0.01045433  0.78513408  0.52749991  1
  Ba  Ba50  1  0.10163886  0.52600095  0.48452546  1
  Fe  Fe51  1  0.13404599  0.36417012  0.19953642  1
  Fe  Fe52  1  0.70036714  0.22387066  0.00646787  1
  Fe  Fe53  1  0.83162411  0.85892888  0.81226956  1
  Fe  Fe54  1  0.72722715  0.33877765  0.91702928  1
  Fe  Fe55  1  0.10666987  0.94503042  0.55757233  1
  Fe  Fe56  1  0.82264934  0.19473322  0.39815344  1
  Fe  Fe57  1  -0.05691364  0.65873312  0.36920148  1
  Fe  Fe58  1  0.39797823  0.75484038  0.39569376  1
  Fe  Fe59  1  0.94078674  0.69674763  0.70396889  1
  Fe  Fe60  1  0.85922778  0.76635259  0.30205665  1
  Fe  Fe61  1  0.45543309  0.28029551  0.38244285  1
  Fe  Fe62  1  0.14126233  0.34881011  0.33489736  1
  Fe  Fe63  1  0.49554625  0.09893849  0.49743420  1
  Fe  Fe64  1  0.46194457  0.79745285  0.93006533  1
  Fe  Fe65  1  0.38621199  0.16152743  0.41051098  1
  Fe  Fe66  1  0.69346614  0.19534954  0.87054244  1
  Fe  Fe67  1  0.50712626  0.51664613  0.11838204  1
  Fe  Fe68  1  0.86559574  0.29029887  0.20453605  1
  Fe  Fe69  1  0.89382838  0.73800975  0.82289486  1
  Fe  Fe70  1  0.81618743  0.64012630  0.37075570  1
  Fe  Fe71  1  0.46628149  0.24810151  0.53010224  1
  Fe  Fe72  1  0.48080021  0.68133232  0.86949546  1
  Fe  Fe73  1  0.77418163  0.76625466  0.17497048  1
  Fe  Fe74  1  0.15442833  0.92992377  0.43977413  1
  Fe  Fe75  1  0.32748269  0.31596488  0.84372343  1
  Fe  Fe76  1  0.48604013  0.80800966  0.79791373  1
  Fe  Fe77  1  0.61467768  0.33886673  0.03940475  1
  Fe  Fe78  1  0.47630260  0.66448925  0.46050104  1
  Fe  Fe79  1  0.14639224  0.23346568  0.22238651  1
  Fe  Fe80  1  0.85033491  0.64102816  0.22189297  1
  Fe  Fe81  1  -0.06731161  0.22779446  0.81358672  1
  Fe  Fe82  1  0.51024140  0.13442240  0.36088789  1
  Fe  Fe83  1  0.37106884  0.15769593  0.54456214  1
  Fe  Fe84  1  0.60584266  0.29160766  0.90352737  1
  Fe  Fe85  1  0.72031410  0.69291714  0.28511977  1
  Fe  Fe86  1  0.92165468  0.78075976  0.16052762  1
  Fe  Fe87  1  0.44286128  0.80200129  0.51976780  1
  Fe  Fe88  1  0.98910308  0.22967946  0.67925210  1
  Fe  Fe89  1  0.96299787  0.34787145  0.72919081  1
  Fe  Fe90  1  0.54736638  0.78224696  0.42656556  1
  Fe  Fe91  1  0.05245411  0.70033491  0.12187593  1
  Fe  Fe92  1  0.85541759  0.16686264  0.27090568  1
  Fe  Fe93  1  0.83638758  0.31177213  0.33310506  1
  Fe  Fe94  1  0.61956900  0.45274352  0.13728836  1
  Fe  Fe95  1  0.82839110  0.22195796  0.91838310  1
  Fe  Fe96  1  0.13747108  0.21613049  0.36324406  1
  Fe  Fe97  1  -0.01795265  0.67896961  0.23787695  1
  Fe  Fe98  1  0.49603202  0.38428300  0.11212916  1
  Fe  Fe99  1  0.56749941  0.22184087  0.43744295  1
  Fe  Fe100  1  0.90005673  0.83264059  0.70067525  1
  Fe  Fe101  1  0.05200199  0.82843716  1.12571093  1
  Bi  Bi102  1  0.82779678  0.16705169  0.09883144  1
  Bi  Bi103  1  0.29025837  0.24880129  0.29660824  1
  Bi  Bi104  1  0.32642657  0.25750758  0.67315782  1
  Bi  Bi105  1  -0.10973946  0.38384885  0.88106013  1
  Bi  Bi106  1  -0.00156656  0.24886420  0.28488699  1
  Bi  Bi107  1  0.75682213  0.74821124  0.69367401  1
  Bi  Bi108  1  0.52642718  0.40991917  0.28249491  1
  Bi  Bi109  1  0.45129478  0.32523425  -0.03899065  1
  Bi  Bi110  1  0.61679156  0.17226449  0.59671998  1
  Bi  Bi111  1  0.46788382  0.67167794  0.04442772  1
  Bi  Bi112  1  0.65199789  0.84908996  0.28635292  1
  Bi  Bi113  1  0.37082324  0.83958246  0.68155560  1
  Bi  Bi114  1  0.69975867  0.62013161  0.11906424  1
  Bi  Bi115  1  0.10354189  0.35826686  0.63477513  1
  Bi  Bi116  1  0.65065500  0.47615949  0.66842089  1
  Bi  Bi117  1  -0.03215576  0.09723088  0.91934383  1
  Bi  Bi118  1  0.55478307  0.92511168  0.52928569  1
  Bi  Bi119  1  0.11873349  0.72782518  0.96673109  1
  Bi  Bi120  1  0.26061159  0.84164685  0.33010351  1
  Bi  Bi121  1  0.18818052  0.38992124  0.91270623  1
  Bi  Bi122  1  0.34433624  0.14959283  0.85853565  1
  Bi  Bi123  1  0.10420561  0.64925953  0.66082950  1
  Bi  Bi124  1  0.33605885  0.57996215  0.40872371  1
  Bi  Bi125  1  0.38181450  0.00627618  0.10759274  1
  Bi  Bi126  1  0.56627771  0.93282428  0.87367634  1
  Bi  Bi127  1  0.64738806  0.62466487  0.44097407  1
