# generated using pymatgen
data_Ba51Fe51Bi26
_symmetry_space_group_name_H-M   'P 1'
_cell_length_a   16.13794870
_cell_length_b   16.63526292
_cell_length_c   16.39092324
_cell_angle_alpha   89.14741000
_cell_angle_beta   90.96972084
_cell_angle_gamma   90.22424139
_symmetry_Int_Tables_number   1
_chemical_formula_structural   Ba51Fe51Bi26
_chemical_formula_sum   'Ba51 Fe51 Bi26'
_cell_volume   4399.14436012
_cell_formula_units_Z   1
loop_
 _symmetry_equiv_pos_site_id
 _symmetry_equiv_pos_as_xyz
  1  'x, y, z'
loop_
 _atom_site_type_symbol
 _atom_site_label
 _atom_site_symmetry_multiplicity
 _atom_site_fract_x
 _atom_site_fract_y
 _atom_site_fract_z
 _atom_site_occupancy
  Ba  Ba0  1  0.04280095  -0.09374351  0.71334142  1
  Ba  Ba1  1  0.26885888  0.78175493  0.48838082  1
  Ba  Ba2  1  0.67204738  0.34076025  0.13276148  1
  Ba  Ba3  1  0.26062708  0.19849033  0.78717756  1
  Ba  Ba4  1  0.76123448  0.24642039  0.33597391  1
  Ba  Ba5  1  0.23468780  -0.00715626  -0.05188867  1
  Ba  Ba6  1  0.89442223  0.37274528  0.55108794  1
  Ba  Ba7  1  0.23676168  0.49980603  0.78073448  1
  Ba  Ba8  1  0.07512586  0.53333475  0.59822900  1
  Ba  Ba9  1  0.46441653  0.18944367  -0.02226431  1
  Ba  Ba10  1  0.74171009  0.13724147  0.01164620  1
  Ba  Ba11  1  0.77775425  0.03824427  0.23191116  1
  Ba  Ba12  1  -0.01417632  0.84074630  -0.04392207  1
  Ba  Ba13  1  0.68632383  0.78223480  0.20897302  1
  Ba  Ba14  1  0.27647432  0.05126482  0.26359811  1
  Ba  Ba15  1  0.55208254  0.21841699  0.49120249  1
  Ba  Ba16  1  0.30918207  0.08241987  0.49675963  1
  Ba  Ba17  1  0.02245681  0.51472404  0.19572927  1
  Ba  Ba18  1  0.59881443  -0.02579708  0.45390827  1
  Ba  Ba19  1  0.17523488  0.50122102  0.02024182  1
  Ba  Ba20  1  0.11067989  0.24718512  0.48769352  1
  Ba  Ba21  1  0.33023343  0.37212350  0.57737576  1
  Ba  Ba22  1  0.48723934  0.43400215  0.33290020  1
  Ba  Ba23  1  0.54657347  0.70071878  -0.00113953  1
  Ba  Ba24  1  0.43239641  0.68956221  0.23128655  1
  Ba  Ba25  1  0.77719683  0.53492964  0.06788949  1
  Ba  Ba26  1  0.45648928  0.61594660  0.49651916  1
  Ba  Ba27  1  0.05398487  0.31313279  -0.09035608  1
  Ba  Ba28  1  0.83763790  0.00498234  0.52378409  1
  Ba  Ba29  1  -0.06319202  0.76005397  0.20419363  1
  Ba  Ba30  1  0.42588732  0.71698551  0.73809185  1
  Ba  Ba31  1  0.01152199  -0.03235535  0.28836163  1
  Ba  Ba32  1  0.23921812  0.21791131  0.09261356  1
  Ba  Ba33  1  0.19443269  0.71906837  0.86872598  1
  Ba  Ba34  1  -0.00113492  0.06941616  0.04001930  1
  Ba  Ba35  1  -0.00207910  0.79122039  0.49404662  1
  Ba  Ba36  1  -0.03540646  0.18423837  0.70329931  1
  Ba  Ba37  1  0.71309770  0.75205191  0.80719802  1
  Ba  Ba38  1  0.73896779  0.31591090  0.83518882  1
  Ba  Ba39  1  0.80625499  0.54052969  0.30375467  1
  Ba  Ba40  1  0.70082049  0.74809265  0.52801567  1
  Ba  Ba41  1  0.31279224  -0.07192236  0.70392002  1
  Ba  Ba42  1  0.50313532  -0.04825768  0.20490599  1
  Ba  Ba43  1  -0.08165457  0.64082043  0.72525580  1
  Ba  Ba44  1  0.75222472  -0.00228482  0.76353694  1
  Ba  Ba45  1  0.15848117  0.34299168  0.27923610  1
  Ba  Ba46  1  0.38612696  0.44658719  0.11942575  1
  Ba  Ba47  1  0.69896468  0.49483859  0.50110898  1
  Ba  Ba48  1  0.55065542  -0.05311122  -0.09475816  1
  Ba  Ba49  1  0.51352000  0.44736941  -0.10047320  1
  Ba  Ba50  1  0.19758602  0.74198288  0.25666360  1
  Fe  Fe51  1  0.15466526  0.55015249  0.36548934  1
  Fe  Fe52  1  0.94397942  0.63873970  0.03875945  1
  Fe  Fe53  1  0.32432198  0.85093568  0.10884570  1
  Fe  Fe54  1  -0.03409097  0.50441703  -0.00167035  1
  Fe  Fe55  1  0.46883296  0.05936592  0.75606780  1
  Fe  Fe56  1  0.44587708  0.14780106  0.32345597  1
  Fe  Fe57  1  0.52858582  0.78991003  0.39624461  1
  Fe  Fe58  1  1.02399587  0.62744929  0.37111626  1
  Fe  Fe59  1  0.42421844  0.91863239  0.53579103  1
  Fe  Fe60  1  0.57611495  0.11419755  0.29153390  1
  Fe  Fe61  1  0.83778291  0.90922904  0.07447305  1
  Fe  Fe62  1  0.58916276  0.59501750  0.76473005  1
  Fe  Fe63  1  0.38647702  0.25138741  0.23194581  1
  Fe  Fe64  1  0.53088773  0.34235670  0.69290349  1
  Fe  Fe65  1  0.83806060  0.98320238  0.95176338  1
  Fe  Fe66  1  0.21921732  0.80897215  1.03792341  1
  Fe  Fe67  1  0.77408294  0.47102026  0.71504105  1
  Fe  Fe68  1  0.71465227  0.58792544  0.68835802  1
  Fe  Fe69  1  0.42603338  0.87109743  0.40174477  1
  Fe  Fe70  1  0.53905827  0.24960842  0.27759051  1
  Fe  Fe71  1  0.07079178  0.06794834  0.82580061  1
  Fe  Fe72  1  0.45912588  0.13649084  0.18246693  1
  Fe  Fe73  1  0.88333504  0.61532027  0.91496676  1
  Fe  Fe74  1  0.46440652  0.03295654  0.60798241  1
  Fe  Fe75  1  0.74742740  0.88345305  0.94996571  1
  Fe  Fe76  1  0.30302068  0.58986188  0.34571682  1
  Fe  Fe77  1  0.89936561  0.21140708  0.14205414  1
  Fe  Fe78  1  0.49026742  0.27065905  0.15104571  1
  Fe  Fe79  1  0.89310318  0.33646261  0.18957023  1
  Fe  Fe80  1  0.48961137  0.80630422  0.52617527  1
  Fe  Fe81  1  0.57446341  0.07500124  0.67403813  1
  Fe  Fe82  1  0.71090687  0.94671546  0.05747188  1
  Fe  Fe83  1  0.09558888  0.15103101  0.29552249  1
  Fe  Fe84  1  0.24522217  0.52508514  0.24752445  1
  Fe  Fe85  1  0.94704812  0.03518363  0.85494920  1
  Fe  Fe86  1  0.31023876  0.71291842  0.05766516  1
  Fe  Fe87  1  0.97358345  0.23447052  0.26426920  1
  Fe  Fe88  1  0.54212235  0.42704867  0.59277150  1
  Fe  Fe89  1  1.01866105  0.50569362  0.41005606  1
  Fe  Fe90  1  0.28528525  0.46018945  0.37612880  1
  Fe  Fe91  1  0.01495594  0.31097403  0.12454634  1
  Fe  Fe92  1  0.02908507  0.63052526  0.93283830  1
  Fe  Fe93  1  0.13845704  0.96847665  0.50838835  1
  Fe  Fe94  1  0.12048557  1.07073085  0.40937662  1
  Fe  Fe95  1  0.05641425  0.18975054  0.16917224  1
  Fe  Fe96  1  1.03554332  0.04572115  0.52379287  1
  Fe  Fe97  1  0.58532518  0.56935053  0.63507096  1
  Fe  Fe98  1  0.00961917  0.52056113  0.86397031  1
  Fe  Fe99  1  0.62777675  0.45650563  0.71894978  1
  Fe  Fe100  1  0.59514941  0.16378380  0.17024108  1
  Fe  Fe101  1  0.87383236  0.47619988  0.88879696  1
  Bi  Bi102  1  0.25549571  0.56353938  0.50544842  1
  Bi  Bi103  1  0.10370323  0.69025771  0.07440384  1
  Bi  Bi104  1  -0.13115670  0.34385057  0.01980395  1
  Bi  Bi105  1  0.71757695  0.54139710  0.86261776  1
  Bi  Bi106  1  -0.06662055  0.41313945  0.75128097  1
  Bi  Bi107  1  0.54978617  -0.10364698  0.67360035  1
  Bi  Bi108  1  0.44287304  0.50649453  0.70435462  1
  Bi  Bi109  1  -0.05343886  0.13268355  0.39733477  1
  Bi  Bi110  1  -0.05687204  0.37397048  0.34749065  1
  Bi  Bi111  1  0.79914068  0.74177880  0.02415839  1
  Bi  Bi112  1  0.34048099  0.26990566  0.38941994  1
  Bi  Bi113  1  0.89621285  0.59932435  0.49144394  1
  Bi  Bi114  1  0.42987194  0.19117554  0.65813437  1
  Bi  Bi115  1  0.30593720  0.34616668  0.93411711  1
  Bi  Bi116  1  0.84756590  0.83713706  0.65898364  1
  Bi  Bi117  1  0.61353848  0.64253122  0.35625216  1
  Bi  Bi118  1  0.60726909  0.13808934  0.82954069  1
  Bi  Bi119  1  0.58103522  0.54426718  0.15364001  1
  Bi  Bi120  1  0.15694310  0.73026241  0.66220536  1
  Bi  Bi121  1  0.37007852  0.83296917  0.93726985  1
  Bi  Bi122  1  0.68930389  0.32508597  0.62659414  1
  Bi  Bi123  1  0.81891481  0.86772950  0.36248748  1
  Bi  Bi124  1  0.12431180  0.33656738  0.68370699  1
  Bi  Bi125  1  0.15463974  0.92753459  0.13251403  1
  Bi  Bi126  1  0.36221416  0.59648798  0.94769686  1
  Bi  Bi127  1  0.14956758  0.07580953  0.65024166  1
