# generated using pymatgen
data_Ba51Fe51Bi26
_symmetry_space_group_name_H-M   'P 1'
_cell_length_a   16.05283601
_cell_length_b   16.67602704
_cell_length_c   16.49713346
_cell_angle_alpha   92.81582253
_cell_angle_beta   90.38907386
_cell_angle_gamma   90.88803507
_symmetry_Int_Tables_number   1
_chemical_formula_structural   Ba51Fe51Bi26
_chemical_formula_sum   'Ba51 Fe51 Bi26'
_cell_volume   4410.25381374
_cell_formula_units_Z   1
loop_
 _symmetry_equiv_pos_site_id
 _symmetry_equiv_pos_as_xyz
  1  'x, y, z'
loop_
 _atom_site_type_symbol
 _atom_site_label
 _atom_site_symmetry_multiplicity
 _atom_site_fract_x
 _atom_site_fract_y
 _atom_site_fract_z
 _atom_site_occupancy
  Ba  Ba0  1  0.35735536  0.32855593  0.87160155  1
  Ba  Ba1  1  0.84121237  0.27264762  0.74029501  1
  Ba  Ba2  1  -0.04235294  0.86853138  0.86460380  1
  Ba  Ba3  1  0.14156818  0.73128426  0.80339837  1
  Ba  Ba4  1  0.85102494  0.75487608  0.22488499  1
  Ba  Ba5  1  0.82262657  0.56203266  0.64761482  1
  Ba  Ba6  1  0.34011676  0.55227214  0.79320524  1
  Ba  Ba7  1  0.71406957  0.78734761  0.72187983  1
  Ba  Ba8  1  0.75081054  0.74263739  -0.04292568  1
  Ba  Ba9  1  -0.03509869  0.51530624  0.24091118  1
  Ba  Ba10  1  0.32349056  0.60142145  0.41505534  1
  Ba  Ba11  1  0.75000578  0.45770345  -0.11584100  1
  Ba  Ba12  1  0.54077143  -0.01793928  0.77528057  1
  Ba  Ba13  1  0.47457511  0.22113168  0.25301120  1
  Ba  Ba14  1  0.24844083  -0.04159279  -0.07648131  1
  Ba  Ba15  1  0.01539457  0.08697739  0.04708622  1
  Ba  Ba16  1  0.75271998  0.61375190  0.38748607  1
  Ba  Ba17  1  0.28363987  0.07104646  0.68270006  1
  Ba  Ba18  1  0.54667042  0.75205666  0.08261337  1
  Ba  Ba19  1  0.77435856  0.35819327  0.47828913  1
  Ba  Ba20  1  0.21981813  0.28205236  0.25576691  1
  Ba  Ba21  1  0.54560977  0.20846019  0.65600564  1
  Ba  Ba22  1  0.14518687  0.86241350  0.17014034  1
  Ba  Ba23  1  0.17037226  0.01217506  0.44261470  1
  Ba  Ba24  1  0.68526558  -0.02969469  0.46295736  1
  Ba  Ba25  1  0.56162355  0.25607035  -0.01021116  1
  Ba  Ba26  1  0.51435009  0.76713590  0.31217364  1
  Ba  Ba27  1  0.34383065  0.82380992  0.72867241  1
  Ba  Ba28  1  0.22528723  0.47030049  0.10331866  1
  Ba  Ba29  1  -0.01740239  0.48300212  -0.02466614  1
  Ba  Ba30  1  0.49295400  0.01916438  0.01085439  1
  Ba  Ba31  1  0.50496195  0.79644812  0.55603104  1
  Ba  Ba32  1  0.06667717  0.53114629  0.50588592  1
  Ba  Ba33  1  0.82948837  0.28445992  0.05206875  1
  Ba  Ba34  1  0.70203698  0.16707502  0.32333208  1
  Ba  Ba35  1  0.26914992  0.69933447  0.02071820  1
  Ba  Ba36  1  -0.03295682  0.77790106  0.61367262  1
  Ba  Ba37  1  0.48539816  0.47748143  0.55935254  1
  Ba  Ba38  1  0.58104121  0.59397299  0.77627258  1
  Ba  Ba39  1  -0.02925949  0.26030591  0.30746757  1
  Ba  Ba40  1  0.03454687  0.10698728  0.77032999  1
  Ba  Ba41  1  0.18991977  0.78033694  0.54092314  1
  Ba  Ba42  1  0.79822652  0.02083883  0.69690125  1
  Ba  Ba43  1  0.73705557  -0.01501853  0.06448367  1
  Ba  Ba44  1  0.49180162  0.52622744  0.03261547  1
  Ba  Ba45  1  0.24625230  0.18907150  0.03214567  1
  Ba  Ba46  1  0.35372799  0.24234875  0.49721526  1
  Ba  Ba47  1  0.07010259  0.51349477  0.75536632  1
  Ba  Ba48  1  0.14378423  0.30269517  0.65776014  1
  Ba  Ba49  1  -0.07105320  -0.02528153  0.30281483  1
  Ba  Ba50  1  0.55213384  0.46928602  0.26135548  1
  Fe  Fe51  1  0.57328330  0.83578507  0.90960282  1
  Fe  Fe52  1  0.61685336  0.31550883  0.81300025  1
  Fe  Fe53  1  0.12251357  0.79058345  0.35801084  1
  Fe  Fe54  1  0.67458594  0.62164512  0.15458312  1
  Fe  Fe55  1  0.43373141  0.83833787  0.91815786  1
  Fe  Fe56  1  0.81348379  0.48086865  0.08265579  1
  Fe  Fe57  1  1.03136631  0.33337221  0.83859499  1
  Fe  Fe58  1  0.42318499  1.03673511  0.20014391  1
  Fe  Fe59  1  0.22487893  0.39132359  0.44809373  1
  Fe  Fe60  1  0.06112265  0.78096833  1.00440673  1
  Fe  Fe61  1  0.35379797  0.92289199  0.53694320  1
  Fe  Fe62  1  0.00172260  0.12163087  0.45014105  1
  Fe  Fe63  1  0.73567251  0.76836058  0.51927105  1
  Fe  Fe64  1  0.67450334  0.20259511  0.83528454  1
  Fe  Fe65  1  0.13356360  0.64431058  0.36547759  1
  Fe  Fe66  1  0.23422030  0.72836281  0.28362319  1
  Fe  Fe67  1  0.68106624  0.46809961  0.11209531  1
  Fe  Fe68  1  0.52091328  0.78315306  0.79780163  1
  Fe  Fe69  1  0.91473986  0.13141748  0.58955009  1
  Fe  Fe70  1  0.52248695  0.92136552  0.17960312  1
  Fe  Fe71  1  0.58163196  0.03964817  0.19323688  1
  Fe  Fe72  1  0.28085237  0.98358860  0.27166381  1
  Fe  Fe73  1  0.70088261  0.57269664  0.03277719  1
  Fe  Fe74  1  0.40788709  -0.07875699  0.27195595  1
  Fe  Fe75  1  0.93376403  0.70280096  1.02158999  1
  Fe  Fe76  1  0.06947333  0.70717471  0.26345806  1
  Fe  Fe77  1  0.80835876  0.87011773  0.56461185  1
  Fe  Fe78  1  0.82653915  0.61662730  0.08378456  1
  Fe  Fe79  1  0.28557521  0.02466307  0.13908165  1
  Fe  Fe80  1  0.16551706  0.37591882  0.84544088  1
  Fe  Fe81  1  0.30299119  0.11248009  0.24931367  1
  Fe  Fe82  1  0.21058348  0.62882481  0.64979226  1
  Fe  Fe83  1  0.05409132  0.13606261  0.57438561  1
  Fe  Fe84  1  0.84822981  0.82368851  0.44650862  1
  Fe  Fe85  1  0.15365298  0.24278205  0.85583869  1
  Fe  Fe86  1  1.03510219  0.25254523  0.93815725  1
  Fe  Fe87  1  0.47442233  0.71299263  0.89893001  1
  Fe  Fe88  1  0.53144745  1.00001984  0.31313677  1
  Fe  Fe89  1  0.86660732  0.12967810  0.45945023  1
  Fe  Fe90  1  0.45099676  -0.05721517  0.42429902  1
  Fe  Fe91  1  0.38582824  0.05395069  0.35367947  1
  Fe  Fe92  1  0.54205361  0.42636813  0.86794464  1
  Fe  Fe93  1  0.33575589  0.64084360  0.61990537  1
  Fe  Fe94  1  0.96102196  0.24437545  0.52456676  1
  Fe  Fe95  1  0.04120503  0.66510636  0.94385985  1
  Fe  Fe96  1  0.77517664  0.55119423  0.19802254  1
  Fe  Fe97  1  0.50693386  0.39631855  0.74815431  1
  Fe  Fe98  1  0.36746490  0.04905445  0.50088106  1
  Fe  Fe99  1  0.18393292  0.61473953  0.23287028  1
  Fe  Fe100  1  0.47144756  0.99417717  0.57095675  1
  Fe  Fe101  1  0.13286347  0.34849162  -0.03422969  1
  Bi  Bi102  1  0.74375878  0.16702239  0.56499940  1
  Bi  Bi103  1  0.15923677  0.47677072  0.32125389  1
  Bi  Bi104  1  0.13495762  0.07342231  0.22692171  1
  Bi  Bi105  1  -0.03103327  0.69991166  0.40485595  1
  Bi  Bi106  1  0.13440718  0.23801039  0.45316794  1
  Bi  Bi107  1  0.30831181  -0.15426305  0.38313796  1
  Bi  Bi108  1  0.36584411  -0.12035120  0.10494047  1
  Bi  Bi109  1  0.67976288  -0.09145912  0.25154624  1
  Bi  Bi110  1  0.07222204  0.64144832  0.10606918  1
  Bi  Bi111  1  0.52249721  0.10954707  0.45018377  1
  Bi  Bi112  1  0.77039724  0.39419714  0.24305951  1
  Bi  Bi113  1  -0.05869777  -0.02559069  0.52270450  1
  Bi  Bi114  1  0.04874436  0.31248458  0.10543500  1
  Bi  Bi115  1  0.93120800  0.87533042  0.07349610  1
  Bi  Bi116  1  0.95070742  0.39281621  0.60857289  1
  Bi  Bi117  1  0.36478032  0.63223890  0.20012112  1
  Bi  Bi118  1  0.37571998  0.39737989  0.36742690  1
  Bi  Bi119  1  0.56262126  0.32273892  0.42940403  1
  Bi  Bi120  1  0.91127206  0.65452375  0.83092894  1
  Bi  Bi121  1  0.64009852  0.63933596  0.56873859  1
  Bi  Bi122  1  0.85324875  0.12547542  0.17922013  1
  Bi  Bi123  1  0.13137695  0.91800273  0.71659686  1
  Bi  Bi124  1  0.26167836  0.47592587  0.59868166  1
  Bi  Bi125  1  0.66745729  0.40706795  0.68271409  1
  Bi  Bi126  1  0.39815771  0.34371217  0.09682174  1
  Bi  Bi127  1  0.39995191  0.12378500  0.85892832  1
