# generated using pymatgen
data_Ba51Fe51Bi26
_symmetry_space_group_name_H-M   'P 1'
_cell_length_a   16.36913377
_cell_length_b   16.48813709
_cell_length_c   16.42626159
_cell_angle_alpha   88.61804069
_cell_angle_beta   88.31503411
_cell_angle_gamma   87.50578661
_symmetry_Int_Tables_number   1
_chemical_formula_structural   Ba51Fe51Bi26
_chemical_formula_sum   'Ba51 Fe51 Bi26'
_cell_volume   4426.11773278
_cell_formula_units_Z   1
loop_
 _symmetry_equiv_pos_site_id
 _symmetry_equiv_pos_as_xyz
  1  'x, y, z'
loop_
 _atom_site_type_symbol
 _atom_site_label
 _atom_site_symmetry_multiplicity
 _atom_site_fract_x
 _atom_site_fract_y
 _atom_site_fract_z
 _atom_site_occupancy
  Ba  Ba0  1  0.34627821  0.68612369  0.74298320  1
  Ba  Ba1  1  0.39299298  0.17526525  0.35131805  1
  Ba  Ba2  1  0.20920448  0.06716899  0.80438289  1
  Ba  Ba3  1  -0.01531786  0.00149465  0.57683837  1
  Ba  Ba4  1  0.07706910  0.20439101  0.24794031  1
  Ba  Ba5  1  0.47172973  0.49372405  0.29072243  1
  Ba  Ba6  1  0.63887302  0.04787321  -0.05177846  1
  Ba  Ba7  1  0.18344834  0.43596937  0.72888895  1
  Ba  Ba8  1  0.84225835  -0.00076112  0.79292336  1
  Ba  Ba9  1  0.54798684  0.43452165  0.75171383  1
  Ba  Ba10  1  -0.10094569  0.44399371  0.19143062  1
  Ba  Ba11  1  0.56163572  0.16860588  0.72665122  1
  Ba  Ba12  1  -0.01679563  0.21431671  0.01162978  1
  Ba  Ba13  1  0.73023821  0.27188123  0.07256981  1
  Ba  Ba14  1  0.78799569  0.58338348  0.59813909  1
  Ba  Ba15  1  0.18094456  0.36998958  0.49833989  1
  Ba  Ba16  1  0.69566714  0.57104029  0.34749727  1
  Ba  Ba17  1  0.02523399  0.23239684  0.71701535  1
  Ba  Ba18  1  0.52052105  0.67295216  -0.06764245  1
  Ba  Ba19  1  -0.00694905  0.53847114  0.44474787  1
  Ba  Ba20  1  0.75664910  0.54450405  0.00810850  1
  Ba  Ba21  1  0.73091667  0.78068151  -0.13644152  1
  Ba  Ba22  1  0.39630549  0.52597679  0.54491948  1
  Ba  Ba23  1  0.00634957  0.76133636  0.50744615  1
  Ba  Ba24  1  0.13140464  0.56516561  0.17747181  1
  Ba  Ba25  1  0.08946347  0.80847818  0.75210054  1
  Ba  Ba26  1  -0.04561523  0.27906189  0.45680416  1
  Ba  Ba27  1  0.30410404  -0.05531856  0.06297534  1
  Ba  Ba28  1  -0.03560523  0.59270013  0.76039907  1
  Ba  Ba29  1  0.51416073  0.43275100  0.03454300  1
  Ba  Ba30  1  0.68595793  0.79377253  0.14218257  1
  Ba  Ba31  1  0.18187800  -0.02895392  0.27750966  1
  Ba  Ba32  1  0.76027137  0.03488036  0.18797846  1
  Ba  Ba33  1  0.80787904  0.37748141  0.81546795  1
  Ba  Ba34  1  0.24866509  0.00518806  0.57748998  1
  Ba  Ba35  1  0.26035232  0.70845330  0.28787859  1
  Ba  Ba36  1  0.28417275  0.35823412  0.20188613  1
  Ba  Ba37  1  -0.03040120  0.69603255  0.00945078  1
  Ba  Ba38  1  0.23668776  0.70755208  -0.02613974  1
  Ba  Ba39  1  0.47583644  0.72588148  0.18584360  1
  Ba  Ba40  1  0.42715729  -0.06966095  0.83133015  1
  Ba  Ba41  1  0.37902811  0.21321059  0.93603652  1
  Ba  Ba42  1  -0.06879517  0.80761446  0.24826509  1
  Ba  Ba43  1  0.69886220  0.01970466  0.56929625  1
  Ba  Ba44  1  0.26449327  0.44370421  -0.03739340  1
  Ba  Ba45  1  -0.15702195  0.09506784  0.39007542  1
  Ba  Ba46  1  0.69522901  0.33231608  0.34677198  1
  Ba  Ba47  1  0.39206042  -0.07795765  0.38274228  1
  Ba  Ba48  1  0.28312748  0.75033057  0.52157302  1
  Ba  Ba49  1  0.51398582  0.28174831  0.52584009  1
  Ba  Ba50  1  0.03828959  -0.04168076  0.01472133  1
  Fe  Fe51  1  0.38917626  0.28433904  0.72265309  1
  Fe  Fe52  1  0.32355825  0.30745647  0.61168542  1
  Fe  Fe53  1  0.71157299  0.83984543  0.68090474  1
  Fe  Fe54  1  0.56368458  0.96224510  0.44402364  1
  Fe  Fe55  1  0.65870115  0.71176347  0.65911790  1
  Fe  Fe56  1  0.73266188  0.84167412  0.31907146  1
  Fe  Fe57  1  0.08816021  0.37921174  0.02227785  1
  Fe  Fe58  1  0.93779213  0.51123953  -0.06894688  1
  Fe  Fe59  1  0.01756950  0.50139231  0.04092852  1
  Fe  Fe60  1  0.55179264  0.17777797  1.06391258  1
  Fe  Fe61  1  0.85276955  0.15398169  0.63004853  1
  Fe  Fe62  1  0.93198438  0.39926558  -0.00215911  1
  Fe  Fe63  1  0.17244614  0.25137895  1.05606570  1
  Fe  Fe64  1  0.08739244  0.51860957  0.92790899  1
  Fe  Fe65  1  0.62463489  0.74444911  0.36253166  1
  Fe  Fe66  1  0.51544996  0.72187087  0.59488120  1
  Fe  Fe67  1  0.54975863  0.66210306  0.72607072  1
  Fe  Fe68  1  0.04454192  0.05790426  0.39440853  1
  Fe  Fe69  1  0.78546121  0.39228974  0.55646399  1
  Fe  Fe70  1  0.55453460  0.01038083  0.28707368  1
  Fe  Fe71  1  1.03202980  0.40318310  0.89056245  1
  Fe  Fe72  1  0.20549575  0.13642971  0.98829285  1
  Fe  Fe73  1  0.49593232  0.92304749  0.19050253  1
  Fe  Fe74  1  0.84861586  0.29445838  0.63698333  1
  Fe  Fe75  1  0.68275061  0.97144259  0.36157207  1
  Fe  Fe76  1  0.32493644  0.18885044  0.54156717  1
  Fe  Fe77  1  0.57652137  1.01517341  0.13226015  1
  Fe  Fe78  1  0.76720162  0.73575801  0.42174544  1
  Fe  Fe79  1  0.42950678  0.04955219  0.20829288  1
  Fe  Fe80  1  0.27521782  0.87137599  0.72880300  1
  Fe  Fe81  1  0.43580668  0.19009702  0.13718660  1
  Fe  Fe82  1  0.69814504  0.33723726  0.64514314  1
  Fe  Fe83  1  0.63947040  0.71095707  0.50814285  1
  Fe  Fe84  1  0.24204068  0.86784688  0.85201933  1
  Fe  Fe85  1  0.17370027  0.60407724  0.46853757  1
  Fe  Fe86  1  0.65025855  0.44316618  0.17906499  1
  Fe  Fe87  1  0.13514950  0.10682386  0.09190315  1
  Fe  Fe88  1  0.26114529  0.24850250  0.73782747  1
  Fe  Fe89  1  -0.00013424  0.94125104  0.38623315  1
  Fe  Fe90  1  0.55326090  0.13397017  1.20260067  1
  Fe  Fe91  1  0.46403049  0.06064720  1.07233104  1
  Fe  Fe92  1  0.75783492  0.21173927  0.70565015  1
  Fe  Fe93  1  0.67270577  0.85476509  0.45363638  1
  Fe  Fe94  1  0.52958220  0.81517378  0.46668545  1
  Fe  Fe95  1  0.35820109  0.15701439  0.67007259  1
  Fe  Fe96  1  0.62381801  0.56614268  0.15826816  1
  Fe  Fe97  1  0.75804530  0.78621647  0.56120882  1
  Fe  Fe98  1  0.55851905  0.80327848  0.72339772  1
  Fe  Fe99  1  0.57824065  0.87237342  0.31876949  1
  Fe  Fe100  1  0.21389518  0.20478390  0.62036866  1
  Fe  Fe101  1  0.60282115  0.84650976  0.58673998  1
  Bi  Bi102  1  0.16224210  0.27455628  -0.11863953  1
  Bi  Bi103  1  0.42080923  0.86365163  0.62290479  1
  Bi  Bi104  1  0.73698008  0.22608012  0.52933218  1
  Bi  Bi105  1  0.53395556  0.30480703  0.20283289  1
  Bi  Bi106  1  -0.01828484  0.01542628  0.23440534  1
  Bi  Bi107  1  0.28033300  0.14046740  0.15931341  1
  Bi  Bi108  1  0.45776807  0.07382476  0.54733566  1
  Bi  Bi109  1  0.46930409  0.67870396  0.40318798  1
  Bi  Bi110  1  0.51861298  -0.12010430  0.02689180  1
  Bi  Bi111  1  0.84388004  0.88804520  0.43781410  1
  Bi  Bi112  1  0.62648169  0.95657524  0.76249090  1
  Bi  Bi113  1  0.16687124  0.15690893  0.45317463  1
  Bi  Bi114  1  0.68887812  0.58298861  0.79860939  1
  Bi  Bi115  1  0.34943822  0.57381357  0.10864242  1
  Bi  Bi116  1  0.95520364  0.42201455  0.62797274  1
  Bi  Bi117  1  0.26651457  0.51247216  0.36559498  1
  Bi  Bi118  1  0.12765018  0.79552169  0.13655671  1
  Bi  Bi119  1  0.83830760  0.88036378  0.02010310  1
  Bi  Bi120  1  0.88267263  0.80468270  0.68729578  1
  Bi  Bi121  1  0.84107802  0.07375469  -0.01064793  1
  Bi  Bi122  1  0.14428515  0.62876843  0.63085870  1
  Bi  Bi123  1  0.07910855  0.40287173  0.30863449  1
  Bi  Bi124  1  0.59121551  0.26992946  0.91431590  1
  Bi  Bi125  1  0.86182915  0.24164945  0.23218070  1
  Bi  Bi126  1  0.61482345  0.12867898  0.37416859  1
  Bi  Bi127  1  0.62373538  0.46146593  0.53593430  1
