# generated using pymatgen
data_Ba51Fe51Bi26
_symmetry_space_group_name_H-M   'P 1'
_cell_length_a   16.27885327
_cell_length_b   16.88775460
_cell_length_c   16.04798551
_cell_angle_alpha   92.00015278
_cell_angle_beta   90.68784894
_cell_angle_gamma   87.03375251
_symmetry_Int_Tables_number   1
_chemical_formula_structural   Ba51Fe51Bi26
_chemical_formula_sum   'Ba51 Fe51 Bi26'
_cell_volume   4402.97908734
_cell_formula_units_Z   1
loop_
 _symmetry_equiv_pos_site_id
 _symmetry_equiv_pos_as_xyz
  1  'x, y, z'
loop_
 _atom_site_type_symbol
 _atom_site_label
 _atom_site_symmetry_multiplicity
 _atom_site_fract_x
 _atom_site_fract_y
 _atom_site_fract_z
 _atom_site_occupancy
  Ba  Ba0  1  0.51716216  0.51629514  0.89077097  1
  Ba  Ba1  1  0.64701262  0.75819431  0.56114798  1
  Ba  Ba2  1  0.50152944  0.19525201  -0.03571500  1
  Ba  Ba3  1  0.36017251  0.71280903  0.81973344  1
  Ba  Ba4  1  0.06628936  0.30674539  -0.04343538  1
  Ba  Ba5  1  -0.06325518  0.13884164  0.54288779  1
  Ba  Ba6  1  0.51728935  0.13727966  0.71331987  1
  Ba  Ba7  1  0.46234604  0.55407058  0.17858975  1
  Ba  Ba8  1  0.41136826  -0.07882102  0.66904853  1
  Ba  Ba9  1  0.23498051  0.49306334  0.74909413  1
  Ba  Ba10  1  0.58677619  0.79497467  0.80683266  1
  Ba  Ba11  1  -0.08583941  -0.01899269  0.74174954  1
  Ba  Ba12  1  0.51554731  0.09600675  0.25335738  1
  Ba  Ba13  1  0.83252166  0.24296917  0.05960973  1
  Ba  Ba14  1  -0.02010219  0.79086165  0.33791926  1
  Ba  Ba15  1  0.22135047  0.10673838  0.23546377  1
  Ba  Ba16  1  0.02218620  0.62609688  0.55303996  1
  Ba  Ba17  1  0.79945526  0.77042913  0.00050212  1
  Ba  Ba18  1  0.78440228  -0.05884636  0.47968717  1
  Ba  Ba19  1  0.53969799  0.72686747  0.04346148  1
  Ba  Ba20  1  0.12100745  0.70374079  0.79155182  1
  Ba  Ba21  1  0.00389645  0.01367677  0.27716048  1
  Ba  Ba22  1  0.36904706  0.90735222  0.17669608  1
  Ba  Ba23  1  0.52920782  0.34090797  0.28774891  1
  Ba  Ba24  1  0.69296999  0.55799024  0.24600360  1
  Ba  Ba25  1  0.14310302  -0.00200532  0.61570649  1
  Ba  Ba26  1  -0.09638071  0.25305404  0.75353121  1
  Ba  Ba27  1  0.43782359  0.27500232  0.54051459  1
  Ba  Ba28  1  0.08596896  0.50043465  0.17213394  1
  Ba  Ba29  1  0.02075199  0.02400330  0.01058390  1
  Ba  Ba30  1  0.29419324  0.48080091  0.34567969  1
  Ba  Ba31  1  0.22682139  0.78395772  0.52848906  1
  Ba  Ba32  1  0.29482346  0.32134448  0.14850060  1
  Ba  Ba33  1  0.84390250  0.49086690  0.05388029  1
  Ba  Ba34  1  0.26319772  0.70103211  0.19446303  1
  Ba  Ba35  1  0.34786144  0.04763045  0.44743842  1
  Ba  Ba36  1  0.66140312  0.30073975  0.76760366  1
  Ba  Ba37  1  0.50204648  0.52168420  0.62136409  1
  Ba  Ba38  1  0.03769166  0.73381874  0.08201349  1
  Ba  Ba39  1  0.45890074  0.75381920  0.38293761  1
  Ba  Ba40  1  0.12153368  0.36445114  0.51821009  1
  Ba  Ba41  1  -0.03207647  0.25113121  0.33632896  1
  Ba  Ba42  1  0.75904012  0.49372778  0.67440305  1
  Ba  Ba43  1  -0.06498409  0.50423715  0.82618148  1
  Ba  Ba44  1  0.22192460  0.85153050  -0.01480213  1
  Ba  Ba45  1  0.69943794  0.42954078  0.44517653  1
  Ba  Ba46  1  -0.06047812  0.48674333  0.36937008  1
  Ba  Ba47  1  0.28435471  0.02928736  -0.14750706  1
  Ba  Ba48  1  0.69935081  0.01361781  0.05121022  1
  Ba  Ba49  1  0.74066146  0.78061752  0.28164341  1
  Ba  Ba50  1  0.84790268  0.74679355  0.73008648  1
  Fe  Fe51  1  0.36180369  0.62123991  0.01686136  1
  Fe  Fe52  1  0.70980321  0.46341992  0.90145229  1
  Fe  Fe53  1  0.23345719  0.33563897  0.84895002  1
  Fe  Fe54  1  0.79161006  0.36385937  0.90495462  1
  Fe  Fe55  1  0.17540371  0.80749466  0.33750571  1
  Fe  Fe56  1  0.64401642  0.23480891  0.43961622  1
  Fe  Fe57  1  0.52971282  0.91335647  0.01978671  1
  Fe  Fe58  1  0.72758850  0.92436910  0.67363307  1
  Fe  Fe59  1  0.17279414  0.89787802  0.24410602  1
  Fe  Fe60  1  0.73887739  0.13612463  0.49796882  1
  Fe  Fe61  1  0.24602287  0.54375523  0.06955995  1
  Fe  Fe62  1  0.63934328  0.19529030  0.58153372  1
  Fe  Fe63  1  0.21331540  0.86674127  0.75703627  1
  Fe  Fe64  1  0.74461414  0.27407138  0.56867507  1
  Fe  Fe65  1  0.41853110  0.88468250  0.95798344  1
  Fe  Fe66  1  0.82826635  0.60565207  0.52945020  1
  Fe  Fe67  1  0.74465354  0.97130389  0.25118809  1
  Fe  Fe68  1  0.36194751  0.47216024  0.03250039  1
  Fe  Fe69  1  0.14204397  0.19820596  0.65497103  1
  Fe  Fe70  1  0.16929179  -0.04805061  0.38358976  1
  Fe  Fe71  1  0.28334934  0.87929766  0.35474125  1
  Fe  Fe72  1  0.84979644  0.65006304  0.38158647  1
  Fe  Fe73  1  0.30955942  0.52843580  0.91925295  1
  Fe  Fe74  1  0.64544676  0.96992284  0.33410116  1
  Fe  Fe75  1  0.68114748  0.05284559  0.61172512  1
  Fe  Fe76  1  0.95896444  0.35076990  0.16685724  1
  Fe  Fe77  1  0.22756673  0.20857416  0.54812046  1
  Fe  Fe78  1  0.66759275  0.35015949  0.97800532  1
  Fe  Fe79  1  0.61421715  0.97197158  0.73607811  1
  Fe  Fe80  1  0.30238555  0.62177155  0.61702063  1
  Fe  Fe81  1  0.79178371  0.25102322  0.42979440  1
  Fe  Fe82  1  0.22049053  0.59002917  0.51300384  1
  Fe  Fe83  1  0.83547220  0.73026544  0.49167883  1
  Fe  Fe84  1  0.59529990  0.94746754  0.60251972  1
  Fe  Fe85  1  0.19641523  0.20799646  0.79386216  1
  Fe  Fe86  1  0.36538483  0.60807844  0.49361401  1
  Fe  Fe87  1  0.23547201  0.64336974  0.97552396  1
  Fe  Fe88  1  0.35644837  0.37036210  0.91634327  1
  Fe  Fe89  1  0.64705522  0.47044284  0.04260149  1
  Fe  Fe90  1  0.76351680  0.15592258  0.65358453  1
  Fe  Fe91  1  0.42396468  1.01500173  0.02753893  1
  Fe  Fe92  1  0.36665495  0.13001860  0.09504581  1
  Fe  Fe93  1  0.72260464  0.06074094  0.74608460  1
  Fe  Fe94  1  0.28108911  0.05214748  0.04714690  1
  Fe  Fe95  1  0.66550426  0.37194010  0.13008780  1
  Fe  Fe96  1  0.71411153  0.24238341  0.30981298  1
  Fe  Fe97  1  0.11321173  0.92901001  0.81339529  1
  Fe  Fe98  1  0.73126306  0.62878765  0.43774025  1
  Fe  Fe99  1  0.25957440  0.28351733  0.69093918  1
  Fe  Fe100  1  0.34043161  0.24337831  0.81584426  1
  Fe  Fe101  1  0.23009922  0.42844984  -0.02659806  1
  Bi  Bi102  1  0.57281542  0.07190755  0.47546117  1
  Bi  Bi103  1  -0.10951404  0.35245225  0.54134184  1
  Bi  Bi104  1  0.44178769  0.35305926  0.76237704  1
  Bi  Bi105  1  0.12864019  0.11610913  0.43817245  1
  Bi  Bi106  1  0.50303630  0.37990322  0.05936844  1
  Bi  Bi107  1  0.80273413  0.36981131  0.24263060  1
  Bi  Bi108  1  0.10130510  0.54763985  -0.04484694  1
  Bi  Bi109  1  0.74565468  -0.07822898  0.84826196  1
  Bi  Bi110  1  0.58662710  -0.10379752  0.18729518  1
  Bi  Bi111  1  0.31247489  0.45860026  0.55501650  1
  Bi  Bi112  1  0.07072986  0.10228710  0.80710283  1
  Bi  Bi113  1  0.27301303  0.21001967  -0.03129220  1
  Bi  Bi114  1  0.50427428  -0.00568530  -0.13015911  1
  Bi  Bi115  1  0.43687591  0.72321024  0.60656774  1
  Bi  Bi116  1  0.89611232  0.63276104  0.20936679  1
  Bi  Bi117  1  0.64626540  0.21121757  0.14835564  1
  Bi  Bi118  1  0.50574388  0.54501899  0.39640787  1
  Bi  Bi119  1  1.04623612  0.20762986  0.14063221  1
  Bi  Bi120  1  0.80707719  0.10101757  0.34049888  1
  Bi  Bi121  1  0.31264084  0.11916066  0.66056805  1
  Bi  Bi122  1  0.29206893  0.25728426  0.38090079  1
  Bi  Bi123  1  0.09020141  0.34797117  0.73991913  1
  Bi  Bi124  1  0.72984461  0.62062118  0.85999634  1
  Bi  Bi125  1  0.99646612  0.84165486  0.89643460  1
  Bi  Bi126  1  0.13724361  0.63957927  0.36496182  1
  Bi  Bi127  1  0.87487858  0.90028411  0.15491740  1
