# generated using pymatgen
data_Ba51Fe51Bi26
_symmetry_space_group_name_H-M   'P 1'
_cell_length_a   16.17698898
_cell_length_b   16.45686664
_cell_length_c   16.45616171
_cell_angle_alpha   90.67475809
_cell_angle_beta   87.88061134
_cell_angle_gamma   87.54519884
_symmetry_Int_Tables_number   1
_chemical_formula_structural   Ba51Fe51Bi26
_chemical_formula_sum   'Ba51 Fe51 Bi26'
_cell_volume   4373.59519725
_cell_formula_units_Z   1
loop_
 _symmetry_equiv_pos_site_id
 _symmetry_equiv_pos_as_xyz
  1  'x, y, z'
loop_
 _atom_site_type_symbol
 _atom_site_label
 _atom_site_symmetry_multiplicity
 _atom_site_fract_x
 _atom_site_fract_y
 _atom_site_fract_z
 _atom_site_occupancy
  Ba  Ba0  1  0.48022554  0.45682829  0.50098537  1
  Ba  Ba1  1  0.02859278  0.20739041  0.12113089  1
  Ba  Ba2  1  0.22253605  0.75945313  0.26815340  1
  Ba  Ba3  1  0.79105269  0.08461233  0.07585151  1
  Ba  Ba4  1  0.44238305  0.23704121  0.50799670  1
  Ba  Ba5  1  0.76320762  -0.10344788  0.49544111  1
  Ba  Ba6  1  0.40132213  0.61566984  0.16149613  1
  Ba  Ba7  1  0.06225636  0.43391712  -0.02298488  1
  Ba  Ba8  1  0.47414077  0.78545389  0.76705270  1
  Ba  Ba9  1  0.32082314  0.46283102  -0.01313722  1
  Ba  Ba10  1  0.80357375  0.74681659  0.83796584  1
  Ba  Ba11  1  0.82068367  0.56716530  0.26670842  1
  Ba  Ba12  1  0.73591648  0.68248137  0.59486696  1
  Ba  Ba13  1  0.82243656  0.55091692  -0.00754040  1
  Ba  Ba14  1  -0.03451374  0.38199579  0.46044556  1
  Ba  Ba15  1  0.05410265  -0.04075872  0.08362500  1
  Ba  Ba16  1  0.80072444  0.27992265  -0.08474155  1
  Ba  Ba17  1  0.72248435  0.42075388  0.45699215  1
  Ba  Ba18  1  -0.13954947  0.21118030  0.31043380  1
  Ba  Ba19  1  0.60107098  0.45005946  -0.03174950  1
  Ba  Ba20  1  0.33280232  0.00267198  -0.05524493  1
  Ba  Ba21  1  0.13130298  0.18686097  0.80055311  1
  Ba  Ba22  1  0.61701910  0.03274078  -0.11632046  1
  Ba  Ba23  1  0.29590612  0.72959672  0.52658586  1
  Ba  Ba24  1  -0.01309359  0.72898620  0.23418628  1
  Ba  Ba25  1  0.69191612  0.29561666  0.68929761  1
  Ba  Ba26  1  -0.00415218  0.81519016  0.47866149  1
  Ba  Ba27  1  0.18464122  0.19423023  0.52988215  1
  Ba  Ba28  1  0.47712900  0.81160452  0.08182532  1
  Ba  Ba29  1  0.24661462  0.39100001  0.21398355  1
  Ba  Ba30  1  0.22653211  -0.02109439  0.45053292  1
  Ba  Ba31  1  0.67675323  0.77726183  0.26584561  1
  Ba  Ba32  1  0.03635543  0.82227444  0.74207166  1
  Ba  Ba33  1  0.24594857  0.42666028  0.48885342  1
  Ba  Ba34  1  0.50164499  -0.13509103  0.51209770  1
  Ba  Ba35  1  0.08211144  0.52404920  0.30770231  1
  Ba  Ba36  1  -0.03232051  0.05506677  0.46361341  1
  Ba  Ba37  1  0.40159875  0.20972012  0.09556615  1
  Ba  Ba38  1  0.31433108  0.01364520  0.22656117  1
  Ba  Ba39  1  0.39332093  0.21334703  0.75686305  1
  Ba  Ba40  1  0.86315963  0.01497952  0.74110051  1
  Ba  Ba41  1  0.71048124  0.36977502  0.16964134  1
  Ba  Ba42  1  0.27295998  0.70378726  -0.07506716  1
  Ba  Ba43  1  0.03782005  0.73676973  0.00084419  1
  Ba  Ba44  1  0.01840783  0.58667590  0.62671781  1
  Ba  Ba45  1  0.61444427  0.07565595  0.61840064  1
  Ba  Ba46  1  0.66023464  0.07128717  0.37223874  1
  Ba  Ba47  1  0.63801469  0.52528349  0.73589923  1
  Ba  Ba48  1  0.52761035  0.62249499  0.36160607  1
  Ba  Ba49  1  0.73760822  0.86488305  0.05709420  1
  Ba  Ba50  1  -0.07473960  0.25923138  0.68015657  1
  Fe  Fe51  1  0.55130072  0.64439944  0.00008713  1
  Fe  Fe52  1  0.43375162  0.32093018  0.31084379  1
  Fe  Fe53  1  0.81094104  0.43246149  0.80122266  1
  Fe  Fe54  1  0.54540517  0.35878880  0.79960480  1
  Fe  Fe55  1  0.95072466  0.43552813  0.77779968  1
  Fe  Fe56  1  0.85460953  0.83204422  0.65212639  1
  Fe  Fe57  1  0.05707349  0.20715083  0.36552303  1
  Fe  Fe58  1  0.24536101  0.83997692  0.74083811  1
  Fe  Fe59  1  0.47527119  0.18043931  0.29801369  1
  Fe  Fe60  1  0.05104753  0.32425624  0.27525895  1
  Fe  Fe61  1  0.44829497  0.52601276  0.71064217  1
  Fe  Fe62  1  0.20832607  0.49340152  0.69093268  1
  Fe  Fe63  1  0.17033067  0.55036907  0.82756191  1
  Fe  Fe64  1  -0.02118668  0.91956896  0.30082468  1
  Fe  Fe65  1  0.33617204  0.55854299  0.63844050  1
  Fe  Fe66  1  0.15385759  0.20594909  0.26524775  1
  Fe  Fe67  1  0.85022781  -0.01879967  0.34175026  1
  Fe  Fe68  1  0.58478812  0.23729812  0.86571415  1
  Fe  Fe69  1  0.84929403  0.84558227  0.32237563  1
  Fe  Fe70  1  0.84322307  0.71459417  0.40145394  1
  Fe  Fe71  1  0.64147576  0.24640742  0.51157428  1
  Fe  Fe72  1  0.14297448  0.31219952  0.36896700  1
  Fe  Fe73  1  0.90604456  0.02725834  0.22742915  1
  Fe  Fe74  1  0.62483573  0.65238856  0.88155885  1
  Fe  Fe75  1  0.54178350  0.27854336  0.21022140  1
  Fe  Fe76  1  -0.04207746  0.63706391  0.41690964  1
  Fe  Fe77  1  0.34474426  0.41696340  0.68241212  1
  Fe  Fe78  1  1.15947262  -0.01863106  0.75925320  1
  Fe  Fe79  1  -0.11346223  0.89612800  0.19363032  1
  Fe  Fe80  1  0.29393079  -0.03653997  0.76513734  1
  Fe  Fe81  1  0.19472115  0.92388148  0.63601022  1
  Fe  Fe82  1  0.60938920  0.77386173  0.93262125  1
  Fe  Fe83  1  0.76569744  0.95345769  0.23958279  1
  Fe  Fe84  1  0.67384718  0.69183527  0.01856713  1
  Fe  Fe85  1  0.48314903  0.38873170  0.68422413  1
  Fe  Fe86  1  0.09083423  0.45308198  0.78096572  1
  Fe  Fe87  1  0.41816015  0.42211403  0.81772107  1
  Fe  Fe88  1  0.36955514  0.03886244  0.58714366  1
  Fe  Fe89  1  0.64052071  1.00408955  0.18432891  1
  Fe  Fe90  1  0.47751229  0.31020754  0.90946056  1
  Fe  Fe91  1  0.33620072  0.91483927  0.63699186  1
  Fe  Fe92  1  0.58589839  0.14355497  0.18173864  1
  Fe  Fe93  1  0.85225528  0.58440111  0.46464116  1
  Fe  Fe94  1  0.31357679  0.53328714  0.78793289  1
  Fe  Fe95  1  0.54449769  0.41502676  0.28870924  1
  Fe  Fe96  1  0.41550702  0.45763291  0.30688556  1
  Fe  Fe97  1  0.25300027  0.05544906  0.66313492  1
  Fe  Fe98  1  0.50242786  0.05069102  0.25120434  1
  Fe  Fe99  1  1.00260868  0.55756997  0.12518845  1
  Fe  Fe100  1  0.54826234  0.92242958  0.23223077  1
  Fe  Fe101  1  0.84893771  0.55056421  0.77270584  1
  Bi  Bi102  1  0.61898377  0.27762137  0.35377400  1
  Bi  Bi103  1  0.08328320  0.05336203  0.27715881  1
  Bi  Bi104  1  0.61783380  0.22992037  0.03017345  1
  Bi  Bi105  1  0.49383732  0.64999362  0.59438015  1
  Bi  Bi106  1  -0.00641020  0.59866701  0.84488048  1
  Bi  Bi107  1  0.45989002  0.59150769  0.87106177  1
  Bi  Bi108  1  0.30116782  0.21998769  0.34130730  1
  Bi  Bi109  1  0.51236068  0.01673535  0.07704809  1
  Bi  Bi110  1  0.45272198  0.00328650  0.73556062  1
  Bi  Bi111  1  0.21750473  0.67263960  0.71574301  1
  Bi  Bi112  1  0.23860678  0.37156973  0.82012176  1
  Bi  Bi113  1  0.06301270  0.05302847  0.64650955  1
  Bi  Bi114  1  0.63606176  0.59468413  0.14883969  1
  Bi  Bi115  1  0.43851397  0.04818393  0.41942746  1
  Bi  Bi116  1  0.90286701  0.91814224  0.92595487  1
  Bi  Bi117  1  0.83441596  0.46656090  0.62738502  1
  Bi  Bi118  1  0.69553341  0.88059043  0.70260691  1
  Bi  Bi119  1  0.46011816  0.41034071  0.14341916  1
  Bi  Bi120  1  0.09547098  0.36848053  0.63852589  1
  Bi  Bi121  1  0.25473907  0.85252205  0.08513975  1
  Bi  Bi122  1  0.94309445  0.40740486  0.17032388  1
  Bi  Bi123  1  0.79806355  0.18330590  0.52571956  1
  Bi  Bi124  1  0.16825615  0.58797751  0.11316617  1
  Bi  Bi125  1  0.43780014  0.81163161  0.30264954  1
  Bi  Bi126  1  0.30559077  0.57962668  0.36031655  1
  Bi  Bi127  1  0.16575426  0.89093933  0.89272081  1
