# generated using pymatgen
data_Ba51Fe51Bi26
_symmetry_space_group_name_H-M   'P 1'
_cell_length_a   16.20435895
_cell_length_b   16.72325438
_cell_length_c   16.23696371
_cell_angle_alpha   89.02419764
_cell_angle_beta   90.40700339
_cell_angle_gamma   91.37616334
_symmetry_Int_Tables_number   1
_chemical_formula_structural   Ba51Fe51Bi26
_chemical_formula_sum   'Ba51 Fe51 Bi26'
_cell_volume   4398.04289052
_cell_formula_units_Z   1
loop_
 _symmetry_equiv_pos_site_id
 _symmetry_equiv_pos_as_xyz
  1  'x, y, z'
loop_
 _atom_site_type_symbol
 _atom_site_label
 _atom_site_symmetry_multiplicity
 _atom_site_fract_x
 _atom_site_fract_y
 _atom_site_fract_z
 _atom_site_occupancy
  Ba  Ba0  1  0.39403398  0.76258228  0.26623767  1
  Ba  Ba1  1  0.05575302  0.15925917  0.42525008  1
  Ba  Ba2  1  0.30042640  0.26710627  0.51871862  1
  Ba  Ba3  1  0.09936585  0.16666089  0.69184528  1
  Ba  Ba4  1  0.40215154  -0.08179939  0.65239687  1
  Ba  Ba5  1  0.68152512  0.44671721  0.26590120  1
  Ba  Ba6  1  0.59260500  0.44930613  0.73611149  1
  Ba  Ba7  1  0.75482633  0.80026717  0.70595824  1
  Ba  Ba8  1  0.31054272  0.36726522  0.04721622  1
  Ba  Ba9  1  0.02836352  0.22308077  -0.01685269  1
  Ba  Ba10  1  0.20735361  0.22595078  0.24224803  1
  Ba  Ba11  1  0.56515277  0.06869908  0.76249160  1
  Ba  Ba12  1  0.77093640  0.44940142  0.52890289  1
  Ba  Ba13  1  0.50058466  0.26186210  0.23234959  1
  Ba  Ba14  1  -0.08325132  0.81063584  0.48103485  1
  Ba  Ba15  1  0.64280781  0.72284243  0.14499762  1
  Ba  Ba16  1  0.48398372  0.03549162  0.32430572  1
  Ba  Ba17  1  0.83107619  0.49954549  0.77290941  1
  Ba  Ba18  1  0.03754527  0.62033577  -0.08718778  1
  Ba  Ba19  1  0.26144289  0.01662138  0.45996687  1
  Ba  Ba20  1  0.58384817  0.71580188  0.51977574  1
  Ba  Ba21  1  0.59044383  0.25659880  0.54801543  1
  Ba  Ba22  1  0.22981892  0.68072591  0.72079337  1
  Ba  Ba23  1  0.78308510  0.28114084  0.03269000  1
  Ba  Ba24  1  -0.14134323  0.04098934  0.51677859  1
  Ba  Ba25  1  0.24110670  0.11237558  0.02700329  1
  Ba  Ba26  1  0.69816782  -0.00919195  0.00216452  1
  Ba  Ba27  1  0.62295177  -0.02079545  0.52617020  1
  Ba  Ba28  1  0.17326303  0.53784110  0.26056362  1
  Ba  Ba29  1  -0.06108639  0.45767209  0.34119763  1
  Ba  Ba30  1  0.78167219  0.77558467  -0.05021199  1
  Ba  Ba31  1  0.54873207  0.22970354  -0.04795320  1
  Ba  Ba32  1  0.05272956  -0.06359933  0.67912890  1
  Ba  Ba33  1  0.46416466  0.70730913  0.77876937  1
  Ba  Ba34  1  0.91478169  0.27375117  0.75641119  1
  Ba  Ba35  1  0.78544436  0.65992892  0.38204030  1
  Ba  Ba36  1  -0.04294071  0.66168954  0.17622374  1
  Ba  Ba37  1  0.46705387  0.48382143  0.45668554  1
  Ba  Ba38  1  0.15346315  0.52018199  0.51446899  1
  Ba  Ba39  1  0.19224330  0.78261515  0.43924134  1
  Ba  Ba40  1  0.08806729  0.83450439  -0.00373141  1
  Ba  Ba41  1  0.33904194  0.89233312  0.08897716  1
  Ba  Ba42  1  0.27395860  -0.08312525  0.85274592  1
  Ba  Ba43  1  0.72500917  0.03402214  0.25156148  1
  Ba  Ba44  1  -0.04839345  0.25757899  0.22049134  1
  Ba  Ba45  1  0.09177052  0.43937218  0.77872364  1
  Ba  Ba46  1  0.47861321  0.53429152  -0.05413913  1
  Ba  Ba47  1  0.76990299  0.51601166  0.01829818  1
  Ba  Ba48  1  -0.04514904  -0.08639871  0.22443537  1
  Ba  Ba49  1  0.32874998  0.42357661  0.72376862  1
  Ba  Ba50  1  0.42077370  0.53854850  0.19310037  1
  Fe  Fe51  1  0.10014977  0.33109683  0.58112502  1
  Fe  Fe52  1  0.13412642  0.65930517  0.08932589  1
  Fe  Fe53  1  0.26677703  0.06518873  0.69871493  1
  Fe  Fe54  1  0.38284704  0.71003674  0.54695600  1
  Fe  Fe55  1  0.57057867  0.74330158  -0.05982326  1
  Fe  Fe56  1  0.04769775  0.72394115  0.73923253  1
  Fe  Fe57  1  -0.00042205  0.59992327  0.68210033  1
  Fe  Fe58  1  0.46198297  0.84957823  0.92066265  1
  Fe  Fe59  1  0.32567450  0.59294580  0.58048857  1
  Fe  Fe60  1  1.09794469  0.40129534  0.10602094  1
  Fe  Fe61  1  0.55639825  0.84968961  0.01547583  1
  Fe  Fe62  1  0.05041856  0.34724580  0.45812700  1
  Fe  Fe63  1  0.90752758  0.67570291  0.76531369  1
  Fe  Fe64  1  0.63408062  0.24689178  0.75247679  1
  Fe  Fe65  1  0.71556025  0.17604849  0.40861941  1
  Fe  Fe66  1  0.97570111  0.27797047  0.56114039  1
  Fe  Fe67  1  0.05560731  0.52694094  0.08490708  1
  Fe  Fe68  1  0.73240318  0.31734609  0.68368931  1
  Fe  Fe69  1  0.73450865  0.29597979  0.82235388  1
  Fe  Fe70  1  0.77202145  0.30123062  0.39408812  1
  Fe  Fe71  1  0.76001841  1.02193911  0.72861411  1
  Fe  Fe72  1  1.04018042  1.01518080  0.05047241  1
  Fe  Fe73  1  -0.05531617  0.76159166  0.66347539  1
  Fe  Fe74  1  0.84125811  0.17543007  0.36517122  1
  Fe  Fe75  1  0.23512595  0.11696468  0.82635903  1
  Fe  Fe76  1  0.93301138  0.08089126  0.84155959  1
  Fe  Fe77  1  0.53174319  0.06431292  0.10976333  1
  Fe  Fe78  1  0.20375795  0.54323085  0.05975180  1
  Fe  Fe79  1  0.35904193  0.20283272  0.86491849  1
  Fe  Fe80  1  0.41117467  0.10148151  0.12602483  1
  Fe  Fe81  1  0.87570484  0.08269121  0.71514550  1
  Fe  Fe82  1  0.44945880  0.60115501  0.61820956  1
  Fe  Fe83  1  0.24835215  0.67613432  0.98890423  1
  Fe  Fe84  1  0.90981907  0.28619109  0.43022590  1
  Fe  Fe85  1  0.74435928  0.16933327  0.70227282  1
  Fe  Fe86  1  0.05800448  0.09379106  0.16190926  1
  Fe  Fe87  1  0.13967195  0.96915572  0.15239013  1
  Fe  Fe88  1  0.95109528  0.59237726  0.53291209  1
  Fe  Fe89  1  0.38286697  0.13320861  0.67783830  1
  Fe  Fe90  1  0.57350399  0.82686110  0.33561796  1
  Fe  Fe91  1  0.95338197  0.43286669  0.11779838  1
  Fe  Fe92  1  0.12929107  0.44267588  0.98001151  1
  Fe  Fe93  1  0.85328157  0.97002409  0.82459803  1
  Fe  Fe94  1  0.98502760  0.42667104  0.99098466  1
  Fe  Fe95  1  0.37230175  0.08170978  0.80954553  1
  Fe  Fe96  1  0.29427430  0.21202722  0.73720640  1
  Fe  Fe97  1  0.11565879  0.03199223  0.26999945  1
  Fe  Fe98  1  0.93314888  0.98633914  0.95449343  1
  Fe  Fe99  1  0.03902314  0.69332608  0.58613731  1
  Fe  Fe100  1  0.26560340  0.67640397  0.12238689  1
  Fe  Fe101  1  0.87202064  0.65046476  0.61979855  1
  Bi  Bi102  1  -0.03042025  0.44005378  0.59913165  1
  Bi  Bi103  1  0.44672268  0.03630546  -0.03849228  1
  Bi  Bi104  1  0.09195901  0.03330880  -0.11773556  1
  Bi  Bi105  1  -0.05417185  0.82679107  0.82880301  1
  Bi  Bi106  1  0.15695269  0.78714922  0.19936018  1
  Bi  Bi107  1  0.28523700  0.03410482  0.23601884  1
  Bi  Bi108  1  0.46563594  0.26751579  0.73968090  1
  Bi  Bi109  1  0.20723217  0.28226604  0.86814286  1
  Bi  Bi110  1  0.42941679  0.71228259  0.03648538  1
  Bi  Bi111  1  0.72590325  0.24289453  0.24208193  1
  Bi  Bi112  1  0.80786482  0.23640231  0.55647704  1
  Bi  Bi113  1  0.25695974  0.53818349  -0.10841942  1
  Bi  Bi114  1  0.77156380  0.13578702  0.86612839  1
  Bi  Bi115  1  0.01975335  0.65065108  0.38940858  1
  Bi  Bi116  1  0.44658779  0.10242739  0.52889100  1
  Bi  Bi117  1  0.60675302  0.87419515  0.83741937  1
  Bi  Bi118  1  0.44085973  0.85695008  0.45086272  1
  Bi  Bi119  1  0.57415461  0.63613926  0.32401395  1
  Bi  Bi120  1  0.32008111  0.62167030  0.41082292  1
  Bi  Bi121  1  0.55675810  0.90798964  0.17694108  1
  Bi  Bi122  1  0.57718699  0.40187548  0.08039072  1
  Bi  Bi123  1  0.73212348  0.86688538  0.38721178  1
  Bi  Bi124  1  0.05786559  0.95458804  0.41825952  1
  Bi  Bi125  1  0.89027979  0.08371434  0.09742976  1
  Bi  Bi126  1  0.66017595  0.62314329  0.85453979  1
  Bi  Bi127  1  0.33196500  0.37912008  0.31166471  1
