# generated using pymatgen
data_Ba51Fe51Bi26
_symmetry_space_group_name_H-M   'P 1'
_cell_length_a   16.45505131
_cell_length_b   16.50315666
_cell_length_c   16.22191728
_cell_angle_alpha   90.03190605
_cell_angle_beta   89.09040335
_cell_angle_gamma   90.92569137
_symmetry_Int_Tables_number   1
_chemical_formula_structural   Ba51Fe51Bi26
_chemical_formula_sum   'Ba51 Fe51 Bi26'
_cell_volume   4404.09838115
_cell_formula_units_Z   1
loop_
 _symmetry_equiv_pos_site_id
 _symmetry_equiv_pos_as_xyz
  1  'x, y, z'
loop_
 _atom_site_type_symbol
 _atom_site_label
 _atom_site_symmetry_multiplicity
 _atom_site_fract_x
 _atom_site_fract_y
 _atom_site_fract_z
 _atom_site_occupancy
  Ba  Ba0  1  0.54710151  0.19531196  0.24728777  1
  Ba  Ba1  1  0.76692820  0.28134508  0.31203191  1
  Ba  Ba2  1  0.81315628  -0.06896700  0.49588371  1
  Ba  Ba3  1  0.81899627  0.68235116  0.47013710  1
  Ba  Ba4  1  -0.00736881  0.36079825  0.47657686  1
  Ba  Ba5  1  0.22660827  0.01895504  0.23712512  1
  Ba  Ba6  1  -0.05052014  0.53835535  0.68636796  1
  Ba  Ba7  1  0.75874521  0.02642827  0.20666152  1
  Ba  Ba8  1  0.63576523  0.49988922  0.28543598  1
  Ba  Ba9  1  0.47539350  0.34489564  0.74693747  1
  Ba  Ba10  1  0.44209446  0.17203952  -0.02754450  1
  Ba  Ba11  1  -0.03794609  0.84219535  0.07926544  1
  Ba  Ba12  1  0.19483904  0.76022798  0.20067997  1
  Ba  Ba13  1  0.73863384  0.70369619  0.14541871  1
  Ba  Ba14  1  0.18923087  0.30856965  -0.02546529  1
  Ba  Ba15  1  0.75901544  0.43409914  0.53670331  1
  Ba  Ba16  1  0.45064334  -0.05281569  0.28674966  1
  Ba  Ba17  1  0.71425345  0.49398536  0.77525418  1
  Ba  Ba18  1  0.66286436  0.68485775  -0.07958171  1
  Ba  Ba19  1  0.34146998  0.56611882  0.25552464  1
  Ba  Ba20  1  0.52357565  0.45490725  0.53740667  1
  Ba  Ba21  1  0.21883851  0.27291042  0.74040102  1
  Ba  Ba22  1  0.84776068  0.10389675  0.78548584  1
  Ba  Ba23  1  0.37851047  0.46265946  0.04001687  1
  Ba  Ba24  1  0.53558808  0.84803903  0.75480205  1
  Ba  Ba25  1  0.44065837  0.71592941  0.50106876  1
  Ba  Ba26  1  0.18203534  0.61539074  -0.10202478  1
  Ba  Ba27  1  0.50466854  0.80189198  0.07759642  1
  Ba  Ba28  1  -0.00294041  0.16814490  0.01451687  1
  Ba  Ba29  1  0.73050352  0.16376905  0.53180279  1
  Ba  Ba30  1  0.28639958  0.41893706  0.48756120  1
  Ba  Ba31  1  0.29298904  0.00513575  0.77844708  1
  Ba  Ba32  1  -0.00128973  -0.03168883  0.29436779  1
  Ba  Ba33  1  0.64410919  0.01467137  -0.00432484  1
  Ba  Ba34  1  0.45017604  0.62244322  0.85423201  1
  Ba  Ba35  1  0.07567163  -0.04995890  -0.10762654  1
  Ba  Ba36  1  0.20051518  0.74498799  0.52640346  1
  Ba  Ba37  1  0.08472942  0.20391000  0.32115725  1
  Ba  Ba38  1  0.77784896  0.77421965  0.71481281  1
  Ba  Ba39  1  0.31258299  0.27191766  0.22451316  1
  Ba  Ba40  1  -0.11612204  0.55007131  -0.01727654  1
  Ba  Ba41  1  -0.00871665  0.73043507  0.82710754  1
  Ba  Ba42  1  0.29457710  0.59860940  0.67742590  1
  Ba  Ba43  1  0.03571483  0.01881251  0.56624160  1
  Ba  Ba44  1  0.47089666  -0.00681680  0.54310755  1
  Ba  Ba45  1  -0.02098770  0.39248196  0.17021893  1
  Ba  Ba46  1  0.23270649  0.17430772  0.52390261  1
  Ba  Ba47  1  0.63052551  0.80602562  0.37657352  1
  Ba  Ba48  1  -0.04894801  0.66999960  0.26728775  1
  Ba  Ba49  1  0.62657961  0.39691826  -0.02392022  1
  Ba  Ba50  1  0.57587885  0.11923760  0.74640044  1
  Fe  Fe51  1  0.19972480  0.80727122  0.96394625  1
  Fe  Fe52  1  0.61653935  0.67274710  0.71897955  1
  Fe  Fe53  1  0.00692362  0.68223752  0.56227592  1
  Fe  Fe54  1  0.15684107  0.57843829  0.36025282  1
  Fe  Fe55  1  0.61880107  0.62746705  0.51161806  1
  Fe  Fe56  1  0.56546382  0.26692073  0.56730869  1
  Fe  Fe57  1  0.19267233  0.91790533  0.06246651  1
  Fe  Fe58  1  0.31891881  0.83817627  0.03965626  1
  Fe  Fe59  1  0.83212237  0.76661826  -0.06190333  1
  Fe  Fe60  1  0.14773299  0.45672693  0.74331596  1
  Fe  Fe61  1  0.20793563  0.57424264  0.10437925  1
  Fe  Fe62  1  0.62069263  0.73826009  0.58832290  1
  Fe  Fe63  1  0.28466718  0.85465201  0.35350007  1
  Fe  Fe64  1  0.38417046  0.09780220  0.14506794  1
  Fe  Fe65  1  0.32637881  0.81056526  0.88711520  1
  Fe  Fe66  1  0.05285754  0.80217684  0.64829579  1
  Fe  Fe67  1  0.75414296  0.36676182  0.12465743  1
  Fe  Fe68  1  0.54262033  0.16461292  0.45426451  1
  Fe  Fe69  1  0.27570588  0.94148171  0.95515001  1
  Fe  Fe70  1  0.89522752  0.40417462  0.82627277  1
  Fe  Fe71  1  0.93507813  0.79370435  0.59982704  1
  Fe  Fe72  1  0.79650733  0.22628230  0.09648340  1
  Fe  Fe73  1  1.02064318  0.36943902  0.73686632  1
  Fe  Fe74  1  0.34319878  0.84224979  0.63068430  1
  Fe  Fe75  1  0.33242142  0.87509463  0.47806167  1
  Fe  Fe76  1  1.03583252  0.51820589  0.34799576  1
  Fe  Fe77  1  0.95733269  0.27557506  0.83074548  1
  Fe  Fe78  1  0.44209930  0.27798266  0.46136868  1
  Fe  Fe79  1  0.34297809  -0.03009595  1.08620974  1
  Fe  Fe80  1  0.35434361  0.77937145  0.74616546  1
  Fe  Fe81  1  0.87720540  0.32097895  0.70299962  1
  Fe  Fe82  1  0.71901866  0.51060084  0.09821415  1
  Fe  Fe83  1  0.05833186  0.65345734  0.42431485  1
  Fe  Fe84  1  0.11937556  0.54546528  0.21633190  1
  Fe  Fe85  1  0.45289042  0.19203306  0.56362403  1
  Fe  Fe86  1  0.11929507  0.39312515  0.62933131  1
  Fe  Fe87  1  0.53602062  0.61650784  0.63743438  1
  Fe  Fe88  1  0.20066312  0.43703760  0.14658621  1
  Fe  Fe89  1  0.11346541  0.48796449  0.05791544  1
  Fe  Fe90  1  0.67062388  0.24258488  0.09113129  1
  Fe  Fe91  1  0.29597662  -0.00632591  0.41949346  1
  Fe  Fe92  1  0.97107193  0.55892019  0.47059335  1
  Fe  Fe93  1  0.69031828  0.60697262  0.62119987  1
  Fe  Fe94  1  0.80924690  0.48653918  1.18352498  1
  Fe  Fe95  1  0.86764429  0.88325712  0.87946684  1
  Fe  Fe96  1  0.18353970  -0.08536519  0.42022510  1
  Fe  Fe97  1  0.57787669  0.29840045  0.43013234  1
  Fe  Fe98  1  0.77365240  0.86022473  0.01281754  1
  Fe  Fe99  1  0.73378877  0.87385873  0.88602292  1
  Fe  Fe100  1  0.47545168  0.02201394  0.10038010  1
  Fe  Fe101  1  0.80217621  0.30023549  0.82484760  1
  Bi  Bi102  1  0.23482058  0.09287915  0.02625932  1
  Bi  Bi103  1  0.85593034  0.33801148  -0.01784176  1
  Bi  Bi104  1  0.85817810  0.00605691  -0.01014677  1
  Bi  Bi105  1  0.68490813  0.30009999  0.69235002  1
  Bi  Bi106  1  0.32970966  0.67508433  0.03769827  1
  Bi  Bi107  1  0.16297391  0.40569252  0.31570717  1
  Bi  Bi108  1  0.24025789  -0.03137250  0.57972343  1
  Bi  Bi109  1  -0.06222099  -0.08711886  0.72140795  1
  Bi  Bi110  1  0.19135254  0.79604056  0.76266925  1
  Bi  Bi111  1  0.12065158  0.54296859  0.54796636  1
  Bi  Bi112  1  0.04974092  0.44043574  0.89128395  1
  Bi  Bi113  1  0.01729987  0.82065470  0.45104404  1
  Bi  Bi114  1  0.38493264  0.13324969  0.38304886  1
  Bi  Bi115  1  0.02044799  0.23120133  0.64209362  1
  Bi  Bi116  1  0.56107661  0.58024400  0.08940594  1
  Bi  Bi117  1  0.30476221  0.44761863  0.83193587  1
  Bi  Bi118  1  0.05335368  0.64350479  0.07876159  1
  Bi  Bi119  1  0.85996699  0.48734916  0.35049878  1
  Bi  Bi120  1  0.63023704  0.02995094  0.38951094  1
  Bi  Bi121  1  0.82386136  0.83989430  0.28843074  1
  Bi  Bi122  1  0.45524087  0.39219498  0.33509677  1
  Bi  Bi123  1  0.07156266  0.14437786  0.81370428  1
  Bi  Bi124  1  0.44464591  0.95158887  0.93243571  1
  Bi  Bi125  1  0.68489110  0.20507604  0.92070826  1
  Bi  Bi126  1  0.90398399  0.12164757  0.41370508  1
  Bi  Bi127  1  0.91428692  0.17260128  0.20746991  1
