# generated using pymatgen
data_Ba51Fe51Bi26
_symmetry_space_group_name_H-M   'P 1'
_cell_length_a   16.64289843
_cell_length_b   16.35020852
_cell_length_c   15.98317774
_cell_angle_alpha   89.55439462
_cell_angle_beta   91.17488296
_cell_angle_gamma   90.63706674
_symmetry_Int_Tables_number   1
_chemical_formula_structural   Ba51Fe51Bi26
_chemical_formula_sum   'Ba51 Fe51 Bi26'
_cell_volume   4347.95305689
_cell_formula_units_Z   1
loop_
 _symmetry_equiv_pos_site_id
 _symmetry_equiv_pos_as_xyz
  1  'x, y, z'
loop_
 _atom_site_type_symbol
 _atom_site_label
 _atom_site_symmetry_multiplicity
 _atom_site_fract_x
 _atom_site_fract_y
 _atom_site_fract_z
 _atom_site_occupancy
  Ba  Ba0  1  0.14698102  0.70164222  0.77002380  1
  Ba  Ba1  1  0.80782187  0.63574932  0.27176466  1
  Ba  Ba2  1  0.16574895  0.48791407  0.69058374  1
  Ba  Ba3  1  0.52239151  0.24502188  0.47014896  1
  Ba  Ba4  1  0.22502929  0.27459922  0.75772035  1
  Ba  Ba5  1  0.43976262  0.52444724  0.47704108  1
  Ba  Ba6  1  0.49839583  0.70544051  0.23642324  1
  Ba  Ba7  1  0.46789402  0.53522257  0.00418767  1
  Ba  Ba8  1  0.31371551  0.49947305  0.23436456  1
  Ba  Ba9  1  0.56284853  -0.01198400  0.39069357  1
  Ba  Ba10  1  0.72473179  0.10393259  0.56487409  1
  Ba  Ba11  1  0.29999281  -0.02555097  0.71139143  1
  Ba  Ba12  1  0.43755673  0.21339970  0.74230363  1
  Ba  Ba13  1  0.03269478  0.09130789  0.11420409  1
  Ba  Ba14  1  0.81685447  0.25759956  0.73101121  1
  Ba  Ba15  1  0.86118815  0.21822873  0.22956102  1
  Ba  Ba16  1  0.02372978  0.66722025  0.05757088  1
  Ba  Ba17  1  0.02832854  0.36070780  0.01007978  1
  Ba  Ba18  1  0.16465055  0.34426838  0.49921454  1
  Ba  Ba19  1  0.75591960  0.40585951  0.14105898  1
  Ba  Ba20  1  0.05726311  0.11926436  0.71148480  1
  Ba  Ba21  1  -0.08943084  0.51120857  -0.16961640  1
  Ba  Ba22  1  0.55800798  -0.01352561  0.82091641  1
  Ba  Ba23  1  0.84653201  0.00954544  0.37483291  1
  Ba  Ba24  1  -0.09111125  0.50984711  0.46893503  1
  Ba  Ba25  1  0.72856262  0.37108215  0.41886163  1
  Ba  Ba26  1  0.33482280  0.11930681  0.35781159  1
  Ba  Ba27  1  0.17082646  -0.08708961  0.19961188  1
  Ba  Ba28  1  0.69508224  0.47440330  0.66254034  1
  Ba  Ba29  1  -0.08926655  0.77795734  0.80372717  1
  Ba  Ba30  1  0.16184988  -0.09464211  -0.06806032  1
  Ba  Ba31  1  0.16507787  0.29074533  0.25525157  1
  Ba  Ba32  1  0.44076243  0.47231640  0.75571014  1
  Ba  Ba33  1  0.51499021  0.27070424  0.03014382  1
  Ba  Ba34  1  0.54731089  0.76590125  -0.02035841  1
  Ba  Ba35  1  0.68687002  0.50618850  -0.08223033  1
  Ba  Ba36  1  0.70542519  0.16313662  -0.06160964  1
  Ba  Ba37  1  0.73214841  0.87136148  0.64192236  1
  Ba  Ba38  1  0.67209234  0.68279832  0.48358836  1
  Ba  Ba39  1  -0.04632479  0.80191119  0.53949189  1
  Ba  Ba40  1  0.90606343  0.01261321  0.85866451  1
  Ba  Ba41  1  0.31621891  0.11658334  -0.05138752  1
  Ba  Ba42  1  0.20055139  0.78932573  0.54642744  1
  Ba  Ba43  1  0.08854578  0.06196804  0.48043292  1
  Ba  Ba44  1  0.52452533  0.39560976  0.24019966  1
  Ba  Ba45  1  0.40872959  0.76534685  0.75765034  1
  Ba  Ba46  1  0.48471952  0.00568629  0.11459434  1
  Ba  Ba47  1  0.42350298  0.79408796  0.47664099  1
  Ba  Ba48  1  0.09195055  0.71269287  0.30906497  1
  Ba  Ba49  1  0.78682575  0.74511678  0.05033263  1
  Ba  Ba50  1  0.77643925  -0.01272187  0.11505141  1
  Fe  Fe51  1  0.98680125  0.38596541  0.20770772  1
  Fe  Fe52  1  0.56909462  0.77003661  0.64204397  1
  Fe  Fe53  1  0.21000773  0.38997334  0.06490513  1
  Fe  Fe54  1  0.93340626  0.50237276  0.16587456  1
  Fe  Fe55  1  -0.00282783  0.28633987  0.59728763  1
  Fe  Fe56  1  0.91153729  0.80856859  0.33060113  1
  Fe  Fe57  1  0.71289945  0.69484311  0.82054224  1
  Fe  Fe58  1  0.66127549  0.25383568  0.27148289  1
  Fe  Fe59  1  0.34218094  0.40506751  0.05113169  1
  Fe  Fe60  1  -0.05087306  0.21766319  0.88560201  1
  Fe  Fe61  1  -0.02341191  0.55477182  0.65348298  1
  Fe  Fe62  1  0.33553642  0.66155723  0.07628390  1
  Fe  Fe63  1  0.69576531  0.82433417  0.31238689  1
  Fe  Fe64  1  0.92564212  0.17255807  0.54759805  1
  Fe  Fe65  1  0.24981477  0.53560265  1.03710784  1
  Fe  Fe66  1  0.63339290  0.15893674  0.74599924  1
  Fe  Fe67  1  0.67358602  0.10208529  0.26024473  1
  Fe  Fe68  1  0.20793569  0.64661062  0.13685137  1
  Fe  Fe69  1  0.43593195  0.07948142  0.56199211  1
  Fe  Fe70  1  0.89366107  0.42394495  0.29334645  1
  Fe  Fe71  1  0.87453285  0.31711215  0.54860526  1
  Fe  Fe72  1  0.93435580  0.78688533  0.18582467  1
  Fe  Fe73  1  0.89413379  0.18370790  0.99836741  1
  Fe  Fe74  1  0.66859939  0.18772373  0.15450408  1
  Fe  Fe75  1  0.67668915  0.67649361  0.68749742  1
  Fe  Fe76  1  0.17946092  0.23655219  0.06300990  1
  Fe  Fe77  1  0.04172175  0.42159330  0.33801191  1
  Fe  Fe78  1  0.26349857  0.44320059  0.92086489  1
  Fe  Fe79  1  0.58204826  0.63465917  0.80360979  1
  Fe  Fe80  1  0.20643853  0.66670987  0.97984290  1
  Fe  Fe81  1  0.12956161  0.52857285  0.38225111  1
  Fe  Fe82  1  0.55541420  0.10983951  0.63816533  1
  Fe  Fe83  1  0.72025656  0.17548199  0.36973398  1
  Fe  Fe84  1  0.22195654  0.30247140  0.95087361  1
  Fe  Fe85  1  0.35071616  -0.01123767  0.51968374  1
  Fe  Fe86  1  0.35133467  0.33028849  0.93728515  1
  Fe  Fe87  1  -0.04662176  0.41916992  0.63809523  1
  Fe  Fe88  1  0.99296759  0.53763913  0.28752612  1
  Fe  Fe89  1  0.94402474  -0.08848236  0.21920099  1
  Fe  Fe90  1  0.83559352  0.21451638  0.45316904  1
  Fe  Fe91  1  0.29767000  0.74061989  0.20317102  1
  Fe  Fe92  1  0.79375807  0.81625011  0.39858622  1
  Fe  Fe93  1  0.35522348  0.81548187  0.09370215  1
  Fe  Fe94  1  0.80985552  0.84156261  0.24550865  1
  Fe  Fe95  1  0.61655103  0.24951264  0.65252315  1
  Fe  Fe96  1  0.54355754  0.64298562  0.67029633  1
  Fe  Fe97  1  0.31971052  0.75057265  0.96407826  1
  Fe  Fe98  1  0.22216184  0.56735513  0.47675467  1
  Fe  Fe99  1  0.31046713  0.27289575  0.08227365  1
  Fe  Fe100  1  0.60475022  0.77318597  0.77918645  1
  Fe  Fe101  1  0.21674755  0.77079623  0.07570276  1
  Bi  Bi102  1  0.25729410  0.11407932  0.15123277  1
  Bi  Bi103  1  0.51671924  0.17299406  0.24614018  1
  Bi  Bi104  1  0.29439251  0.66583864  0.36072969  1
  Bi  Bi105  1  0.11297638  0.50326579  0.18084478  1
  Bi  Bi106  1  -0.16601107  0.64624451  0.64445201  1
  Bi  Bi107  1  0.11874868  0.53301711  -0.08829049  1
  Bi  Bi108  1  0.27418474  0.14014249  0.57921696  1
  Bi  Bi109  1  0.38401297  0.90787742  -0.06457793  1
  Bi  Bi110  1  0.10617522  0.15710053  -0.07586204  1
  Bi  Bi111  1  0.02002682  0.32950590  0.76930120  1
  Bi  Bi112  1  -0.02262242  0.28217477  0.40694719  1
  Bi  Bi113  1  0.07556814  0.62011802  0.53143559  1
  Bi  Bi114  1  0.72712810  0.86803106  0.87461928  1
  Bi  Bi115  1  0.82970884  0.33358538  0.94907227  1
  Bi  Bi116  1  0.31884059  0.62375066  0.61544823  1
  Bi  Bi117  1  0.08646971  0.90113373  0.71279287  1
  Bi  Bi118  1  0.38765422  0.88352960  0.25818476  1
  Bi  Bi119  1  0.60718785  0.32605663  0.81207044  1
  Bi  Bi120  1  0.96693061  0.88819692  1.04115450  1
  Bi  Bi121  1  0.64153727  0.59211547  0.12331362  1
  Bi  Bi122  1  0.31635969  0.60370488  0.87287755  1
  Bi  Bi123  1  0.51404017  0.93617689  0.61430999  1
  Bi  Bi124  1  0.36056790  0.35478379  0.59021044  1
  Bi  Bi125  1  0.90617819  1.00827213  0.60268318  1
  Bi  Bi126  1  0.24062463  -0.06755775  0.40485206  1
  Bi  Bi127  1  0.35101499  0.34396758  0.38161480  1
