# generated using pymatgen
data_Ba51Fe51Bi26
_symmetry_space_group_name_H-M   'P 1'
_cell_length_a   16.41625000
_cell_length_b   16.00209160
_cell_length_c   17.00217229
_cell_angle_alpha   90.46351556
_cell_angle_beta   88.21683007
_cell_angle_gamma   90.26690622
_symmetry_Int_Tables_number   1
_chemical_formula_structural   Ba51Fe51Bi26
_chemical_formula_sum   'Ba51 Fe51 Bi26'
_cell_volume   4464.02202342
_cell_formula_units_Z   1
loop_
 _symmetry_equiv_pos_site_id
 _symmetry_equiv_pos_as_xyz
  1  'x, y, z'
loop_
 _atom_site_type_symbol
 _atom_site_label
 _atom_site_symmetry_multiplicity
 _atom_site_fract_x
 _atom_site_fract_y
 _atom_site_fract_z
 _atom_site_occupancy
  Ba  Ba0  1  0.67507741  0.77733189  0.20258639  1
  Ba  Ba1  1  0.54253060  0.77825889  0.72769919  1
  Ba  Ba2  1  0.74110830  0.63394719  0.75648395  1
  Ba  Ba3  1  0.32059999  -0.07428015  0.45705971  1
  Ba  Ba4  1  0.22624494  0.54405587  -0.07916818  1
  Ba  Ba5  1  0.20998082  0.48181157  0.40609940  1
  Ba  Ba6  1  0.28257778  0.11623029  0.00330027  1
  Ba  Ba7  1  -0.05482537  0.02527732  0.03115567  1
  Ba  Ba8  1  0.29692802  0.70581792  0.58582466  1
  Ba  Ba9  1  0.25255854  0.18065236  0.61809860  1
  Ba  Ba10  1  0.06594911  0.26258708  -0.00908094  1
  Ba  Ba11  1  0.49045134  0.37491153  0.30631091  1
  Ba  Ba12  1  0.00762996  0.25852132  0.49056470  1
  Ba  Ba13  1  -0.04480769  0.49951716  -0.03334393  1
  Ba  Ba14  1  0.05018367  -0.10403626  0.82568042  1
  Ba  Ba15  1  0.79109245  0.10668733  0.54338089  1
  Ba  Ba16  1  0.26381903  0.45538989  0.67202429  1
  Ba  Ba17  1  0.59550726  0.24634759  0.49826680  1
  Ba  Ba18  1  -0.06765848  0.51243036  0.47569253  1
  Ba  Ba19  1  0.69376356  0.49830326  -0.03843722  1
  Ba  Ba20  1  0.84440167  0.86440589  0.66070935  1
  Ba  Ba21  1  0.50824500  0.22638929  0.70694621  1
  Ba  Ba22  1  -0.02052729  0.15950178  0.77701050  1
  Ba  Ba23  1  0.78032597  0.04731968  0.25955242  1
  Ba  Ba24  1  0.75041152  0.53342645  0.26447827  1
  Ba  Ba25  1  0.55332243  0.01667901  0.17054861  1
  Ba  Ba26  1  0.57922470  0.87820319  0.51525525  1
  Ba  Ba27  1  0.03411444  -0.05699496  0.26735402  1
  Ba  Ba28  1  0.46832544  0.75462092  0.06765503  1
  Ba  Ba29  1  0.78225479  0.30448842  0.31923795  1
  Ba  Ba30  1  0.61962222  -0.03329093  -0.11106835  1
  Ba  Ba31  1  -0.03280045  0.41132184  0.68392069  1
  Ba  Ba32  1  0.24064442  0.85359884  0.01126337  1
  Ba  Ba33  1  0.06245284  -0.00464532  0.57144755  1
  Ba  Ba34  1  0.44047050  0.49884129  0.03145626  1
  Ba  Ba35  1  0.49741803  0.24317419  0.04876021  1
  Ba  Ba36  1  0.23980989  0.17286134  0.36657423  1
  Ba  Ba37  1  0.30817753  -0.02636498  0.21163391  1
  Ba  Ba38  1  0.78269350  0.26873929  0.04253838  1
  Ba  Ba39  1  0.13044817  0.48474982  0.15628976  1
  Ba  Ba40  1  0.43615202  0.67063240  0.31034619  1
  Ba  Ba41  1  0.01817592  0.24518934  0.25607487  1
  Ba  Ba42  1  0.28813856  0.76525780  0.79444572  1
  Ba  Ba43  1  0.70160322  0.51966407  0.56033670  1
  Ba  Ba44  1  0.03825799  0.74585120  0.45641360  1
  Ba  Ba45  1  0.81952171  0.84986263  0.39473372  1
  Ba  Ba46  1  0.01079374  0.74364183  0.02530307  1
  Ba  Ba47  1  0.33027675  0.29675966  0.83431690  1
  Ba  Ba48  1  -0.04457507  0.65505656  0.23698383  1
  Ba  Ba49  1  -0.00807643  0.64631474  0.75367157  1
  Ba  Ba50  1  0.46612336  0.49665596  0.54373541  1
  Fe  Fe51  1  0.79258847  1.08376617  0.74474959  1
  Fe  Fe52  1  0.91052136  0.12650549  0.37712229  1
  Fe  Fe53  1  0.28082860  0.76646100  0.19043394  1
  Fe  Fe54  1  0.82813013  0.68828705  0.92466129  1
  Fe  Fe55  1  0.19810231  0.82507404  0.28664667  1
  Fe  Fe56  1  0.41102196  0.91528195  0.65816941  1
  Fe  Fe57  1  0.73954722  0.81223621  0.88522606  1
  Fe  Fe58  1  0.44385593  0.63543132  0.85062266  1
  Fe  Fe59  1  0.16017867  0.06001582  0.75209282  1
  Fe  Fe60  1  0.68732733  0.17220364  0.73047978  1
  Fe  Fe61  1  0.73882526  0.72863087  0.54450307  1
  Fe  Fe62  1  0.37142899  0.05845883  0.70670918  1
  Fe  Fe63  1  0.68639757  0.31157553  0.66121742  1
  Fe  Fe64  1  0.13906629  0.06880259  0.88808190  1
  Fe  Fe65  1  0.55612523  0.15204953  0.33094192  1
  Fe  Fe66  1  0.27090244  0.19726834  0.18110218  1
  Fe  Fe67  1  0.49784791  0.99534365  0.72322925  1
  Fe  Fe68  1  0.23363603  0.96752920  0.84147351  1
  Fe  Fe69  1  0.85766935  0.67717963  0.56929851  1
  Fe  Fe70  1  0.40543049  0.49604782  0.83025528  1
  Fe  Fe71  1  0.41984541  0.59063697  0.72864681  1
  Fe  Fe72  1  0.80973972  0.24986235  0.70732455  1
  Fe  Fe73  1  0.37188285  0.95176935  0.80116520  1
  Fe  Fe74  1  0.43576908  0.04863050  0.33949272  1
  Fe  Fe75  1  0.85260965  0.83422100  0.97985237  1
  Fe  Fe76  1  0.33529340  0.32470934  0.16554924  1
  Fe  Fe77  1  -0.12838827  0.79006232  0.84869724  1
  Fe  Fe78  1  0.28441543  0.09396298  0.81071606  1
  Fe  Fe79  1  0.03538311  0.08568424  0.40175350  1
  Fe  Fe80  1  0.55172982  0.56526629  0.69919242  1
  Fe  Fe81  1  0.74120009  0.89096137  0.03332244  1
  Fe  Fe82  1  0.47857707  0.44462575  0.72761433  1
  Fe  Fe83  1  0.16728132  0.18308827  0.82196667  1
  Fe  Fe84  1  0.43799086  0.16153583  0.41798094  1
  Fe  Fe85  1  0.17893777  0.28207509  0.14706523  1
  Fe  Fe86  1  0.77077847  0.40180492  0.72389329  1
  Fe  Fe87  1  0.54953644  0.54246006  0.82706469  1
  Fe  Fe88  1  0.17107712  0.68361078  0.12229854  1
  Fe  Fe89  1  0.13557268  0.70671846  0.26275803  1
  Fe  Fe90  1  0.54524856  1.04218430  0.41009257  1
  Fe  Fe91  1  0.80664112  0.66179068  0.44781658  1
  Fe  Fe92  1  0.23660615  0.33689031  0.25442614  1
  Fe  Fe93  1  0.69620014  0.31060263  0.80658106  1
  Fe  Fe94  1  0.97408947  0.43720777  0.30878338  1
  Fe  Fe95  1  0.72039481  0.74688564  0.00471740  1
  Fe  Fe96  1  0.24706959  0.63587499  0.24296061  1
  Fe  Fe97  1  0.14173344  0.81107899  0.16792435  1
  Fe  Fe98  1  0.93040889  1.00596499  0.43560249  1
  Fe  Fe99  1  0.78774336  0.18654828  -0.16314441  1
  Fe  Fe100  1  0.29796512  0.63776901  0.11862939  1
  Fe  Fe101  1  0.62681014  0.43384126  0.74012018  1
  Bi  Bi102  1  0.59554990  0.69322178  -0.09084774  1
  Bi  Bi103  1  0.33144263  0.49022755  0.22581075  1
  Bi  Bi104  1  0.81076399  0.33078707  0.54537083  1
  Bi  Bi105  1  0.45762037  0.06401311  0.56143304  1
  Bi  Bi106  1  0.24335755  0.70993628  0.39219377  1
  Bi  Bi107  1  0.86660491  -0.13727990  0.15530501  1
  Bi  Bi108  1  0.86174284  0.34305129  -0.14397952  1
  Bi  Bi109  1  0.53061278  0.37483241  0.87364778  1
  Bi  Bi110  1  0.24584545  -0.05688643  0.66722353  1
  Bi  Bi111  1  0.42198007  0.17935613  0.23584795  1
  Bi  Bi112  1  0.44267270  0.09579529  0.86324844  1
  Bi  Bi113  1  0.26712634  0.35097784  0.02391892  1
  Bi  Bi114  1  0.84411643  -0.03670262  0.85349601  1
  Bi  Bi115  1  0.82000557  0.63498113  0.07989408  1
  Bi  Bi116  1  0.63628137  0.18388282  0.89535278  1
  Bi  Bi117  1  0.49330332  0.88556620  0.32271215  1
  Bi  Bi118  1  0.10791482  0.56808594  0.58302797  1
  Bi  Bi119  1  0.66183852  -0.00354609  0.67936239  1
  Bi  Bi120  1  0.13290725  0.10205098  0.14981561  1
  Bi  Bi121  1  0.63372720  0.38927985  0.14841826  1
  Bi  Bi122  1  0.57292192  0.58207567  0.16704949  1
  Bi  Bi123  1  0.12493893  0.35478615  0.80849990  1
  Bi  Bi124  1  0.91595811  0.41120155  0.16310462  1
  Bi  Bi125  1  0.10094191  0.79072428  0.64758132  1
  Bi  Bi126  1  0.37105537  0.31219340  0.48708649  1
  Bi  Bi127  1  0.72505709  0.05924117  0.05942225  1
