# generated using pymatgen
data_Ba51Fe51Bi26
_symmetry_space_group_name_H-M   'P 1'
_cell_length_a   16.59795646
_cell_length_b   16.66280914
_cell_length_c   15.74486743
_cell_angle_alpha   88.18267427
_cell_angle_beta   90.50071541
_cell_angle_gamma   87.87243268
_symmetry_Int_Tables_number   1
_chemical_formula_structural   Ba51Fe51Bi26
_chemical_formula_sum   'Ba51 Fe51 Bi26'
_cell_volume   4349.13071371
_cell_formula_units_Z   1
loop_
 _symmetry_equiv_pos_site_id
 _symmetry_equiv_pos_as_xyz
  1  'x, y, z'
loop_
 _atom_site_type_symbol
 _atom_site_label
 _atom_site_symmetry_multiplicity
 _atom_site_fract_x
 _atom_site_fract_y
 _atom_site_fract_z
 _atom_site_occupancy
  Ba  Ba0  1  0.51575433  -0.00290292  0.17327436  1
  Ba  Ba1  1  0.27476867  0.56080044  0.83825908  1
  Ba  Ba2  1  0.29448849  0.27427855  0.54999698  1
  Ba  Ba3  1  0.26574172  0.02877122  0.48941647  1
  Ba  Ba4  1  0.63727802  0.74140602  0.12545112  1
  Ba  Ba5  1  0.73902236  -0.04595575  0.53059530  1
  Ba  Ba6  1  0.49112073  0.43909828  0.51830889  1
  Ba  Ba7  1  0.00835202  0.36241592  0.51299478  1
  Ba  Ba8  1  0.07592225  -0.11648972  0.28957251  1
  Ba  Ba9  1  -0.05133394  0.03611579  0.07358985  1
  Ba  Ba10  1  0.39882902  0.32930500  -0.04394857  1
  Ba  Ba11  1  0.35876811  0.02488920  -0.08149973  1
  Ba  Ba12  1  0.86416585  0.24767868  0.18199695  1
  Ba  Ba13  1  0.46696137  0.56605563  0.02804716  1
  Ba  Ba14  1  0.56141040  0.49573710  0.26914989  1
  Ba  Ba15  1  -0.00988632  0.82036211  -0.00078828  1
  Ba  Ba16  1  0.80420643  0.00514456  0.27654972  1
  Ba  Ba17  1  0.07066110  0.47322376  0.75624843  1
  Ba  Ba18  1  0.75863788  0.48469195  0.50641722  1
  Ba  Ba19  1  0.47933504  0.74429459  0.31292497  1
  Ba  Ba20  1  -0.03521415  0.23829346  0.73203685  1
  Ba  Ba21  1  0.01329745  0.67837277  0.51491296  1
  Ba  Ba22  1  -0.02368271  0.02886933  0.83580048  1
  Ba  Ba23  1  0.60627997  0.67310182  0.53383960  1
  Ba  Ba24  1  0.01745246  0.27845146  -0.00392229  1
  Ba  Ba25  1  -0.03701989  -0.11642843  0.63041561  1
  Ba  Ba26  1  0.18943887  -0.02839506  0.73805084  1
  Ba  Ba27  1  -0.09054976  0.70846184  0.79697054  1
  Ba  Ba28  1  0.67806842  0.75552829  0.87136101  1
  Ba  Ba29  1  0.53403169  0.01312119  0.72735885  1
  Ba  Ba30  1  0.73753155  0.50868518  -0.03149034  1
  Ba  Ba31  1  0.44346900  0.77576175  -0.13882636  1
  Ba  Ba32  1  0.24085964  0.50533440  0.58459669  1
  Ba  Ba33  1  0.50349556  0.24458192  0.74611307  1
  Ba  Ba34  1  0.15857281  0.49622547  0.33386669  1
  Ba  Ba35  1  0.21074479  0.52131704  0.10113309  1
  Ba  Ba36  1  0.00959110  0.06424467  0.47513045  1
  Ba  Ba37  1  -0.00902651  0.54723815  -0.00393100  1
  Ba  Ba38  1  0.26861624  0.75346598  0.55008564  1
  Ba  Ba39  1  0.51964435  0.24568064  0.23067795  1
  Ba  Ba40  1  0.22817641  0.77262681  0.00283875  1
  Ba  Ba41  1  0.72266717  0.37706708  0.78346643  1
  Ba  Ba42  1  0.69912333  0.02653432  -0.02984806  1
  Ba  Ba43  1  0.50849220  -0.06291712  0.47754402  1
  Ba  Ba44  1  -0.13492133  0.74089292  0.23934268  1
  Ba  Ba45  1  0.72809467  0.14311229  0.74124886  1
  Ba  Ba46  1  0.21849311  0.26563733  0.21901702  1
  Ba  Ba47  1  0.26202159  0.72787645  0.25601351  1
  Ba  Ba48  1  0.80157398  0.20146531  0.45823426  1
  Ba  Ba49  1  0.25828498  -0.01254200  0.17653219  1
  Ba  Ba50  1  0.65357085  0.27736570  0.01533778  1
  Fe  Fe51  1  0.38058896  0.92953662  0.32594336  1
  Fe  Fe52  1  0.13790359  0.64824097  0.71038665  1
  Fe  Fe53  1  1.08555158  0.13659604  0.16849030  1
  Fe  Fe54  1  0.54954398  0.13791888  0.90804495  1
  Fe  Fe55  1  0.18645104  0.17994889  0.72823173  1
  Fe  Fe56  1  0.76309747  0.77691465  0.41865769  1
  Fe  Fe57  1  0.11987123  0.08668254  0.29633579  1
  Fe  Fe58  1  0.01994963  0.62563034  0.28955738  1
  Fe  Fe59  1  0.47934249  0.76400822  0.66205432  1
  Fe  Fe60  1  0.90932976  0.40831722  0.82925712  1
  Fe  Fe61  1  0.51315263  0.24712669  0.54575446  1
  Fe  Fe62  1  0.08982610  0.82234386  0.82857600  1
  Fe  Fe63  1  0.46115322  0.55738053  0.80774718  1
  Fe  Fe64  1  0.16890626  1.12909981  0.03961444  1
  Fe  Fe65  1  0.28463978  0.19626635  0.82480299  1
  Fe  Fe66  1  0.78972099  0.52035921  0.27949378  1
  Fe  Fe67  1  0.78591471  0.84361505  0.71296195  1
  Fe  Fe68  1  0.28872901  0.86874428  0.38005892  1
  Fe  Fe69  1  0.50317925  0.15207955  0.02763135  1
  Fe  Fe70  1  0.15079013  0.30482964  0.68734326  1
  Fe  Fe71  1  0.54963709  0.66201391  0.73442652  1
  Fe  Fe72  1  0.13757258  0.26300811  0.83660493  1
  Fe  Fe73  1  0.10168582  0.68778660  0.84071973  1
  Fe  Fe74  1  0.71144157  0.93139482  0.77959066  1
  Fe  Fe75  1  0.99335360  0.08382988  0.26584310  1
  Fe  Fe76  1  0.80216701  0.86175255  0.00560566  1
  Fe  Fe77  1  0.56097093  0.51370375  0.70607858  1
  Fe  Fe78  1  0.52958933  0.44172132  0.83635117  1
  Fe  Fe79  1  0.45110685  0.23495201  0.42432717  1
  Fe  Fe80  1  0.16131541  0.12622730  0.88215402  1
  Fe  Fe81  1  0.60527099  0.14440060  0.54729804  1
  Fe  Fe82  1  0.55147465  0.13230248  0.41872489  1
  Fe  Fe83  1  0.25097094  0.32665219  0.77554160  1
  Fe  Fe84  1  -0.06093072  0.54350060  0.21921665  1
  Fe  Fe85  1  0.60017103  0.26239854  0.43089768  1
  Fe  Fe86  1  0.82799394  0.98301701  0.72059678  1
  Fe  Fe87  1  0.86146495  0.52571032  0.79954981  1
  Fe  Fe88  1  0.88379201  0.07287524  0.63554941  1
  Fe  Fe89  1  0.58848041  0.57297912  0.85065469  1
  Fe  Fe90  1  0.23018361  0.22450514  -0.04040525  1
  Fe  Fe91  1  0.88038203  0.55842272  0.66221385  1
  Fe  Fe92  1  0.75100178  0.43232677  0.17415595  1
  Fe  Fe93  1  0.87852686  0.41665469  0.27588138  1
  Fe  Fe94  1  0.87501071  0.44640588  0.12691184  1
  Fe  Fe95  1  0.36653651  0.56229688  0.23014137  1
  Fe  Fe96  1  0.75681041  0.88944603  0.12616278  1
  Fe  Fe97  1  0.09625831  0.76998686  0.70268231  1
  Fe  Fe98  1  0.80823555  0.56875807  0.14625175  1
  Fe  Fe99  1  0.82316533  0.89882906  0.85391499  1
  Fe  Fe100  1  0.45361637  0.12638465  0.53588927  1
  Fe  Fe101  1  0.89090846  0.42870004  0.68778835  1
  Bi  Bi102  1  0.24480712  0.76418419  0.78208464  1
  Bi  Bi103  1  0.81645631  0.72628869  0.58397883  1
  Bi  Bi104  1  0.62318116  0.83345062  0.67043882  1
  Bi  Bi105  1  0.65848348  0.86876186  0.30588004  1
  Bi  Bi106  1  0.66306752  0.30141850  0.59131641  1
  Bi  Bi107  1  0.71070539  0.34827525  0.32205062  1
  Bi  Bi108  1  0.34415692  0.11369753  0.68535019  1
  Bi  Bi109  1  0.38957507  0.41563282  0.72904586  1
  Bi  Bi110  1  0.02883128  0.22967259  0.33643410  1
  Bi  Bi111  1  0.18660241  0.38971223  -0.06409906  1
  Bi  Bi112  1  0.71494312  0.58553819  0.73075216  1
  Bi  Bi113  1  0.14572677  -0.02631573  -0.03024949  1
  Bi  Bi114  1  -0.06555081  0.52962531  0.39666041  1
  Bi  Bi115  1  0.35385267  0.58199492  0.40076182  1
  Bi  Bi116  1  0.83602242  0.18825250  0.93212039  1
  Bi  Bi117  1  0.03334712  0.40516673  0.17653376  1
  Bi  Bi118  1  0.39948649  0.10004438  0.34144683  1
  Bi  Bi119  1  0.34472258  0.15813750  0.08449345  1
  Bi  Bi120  1  0.08293713  0.68987297  0.14919526  1
  Bi  Bi121  1  0.41332499  0.61761277  0.64490209  1
  Bi  Bi122  1  0.41775415  0.81764499  0.09581215  1
  Bi  Bi123  1  0.82529768  0.69346564  0.02246503  1
  Bi  Bi124  1  0.90629773  0.86565197  0.41662688  1
  Bi  Bi125  1  0.38358997  0.41117985  0.17317615  1
  Bi  Bi126  1  0.69387759  0.64745391  0.33454879  1
  Bi  Bi127  1  0.37731628  0.89704589  0.65554582  1
