# generated using pymatgen
data_Ba51Fe51Bi26
_symmetry_space_group_name_H-M   'P 1'
_cell_length_a   16.34592315
_cell_length_b   16.58463619
_cell_length_c   16.55081841
_cell_angle_alpha   88.06828864
_cell_angle_beta   89.36562540
_cell_angle_gamma   89.99893437
_symmetry_Int_Tables_number   1
_chemical_formula_structural   Ba51Fe51Bi26
_chemical_formula_sum   'Ba51 Fe51 Bi26'
_cell_volume   4483.95611979
_cell_formula_units_Z   1
loop_
 _symmetry_equiv_pos_site_id
 _symmetry_equiv_pos_as_xyz
  1  'x, y, z'
loop_
 _atom_site_type_symbol
 _atom_site_label
 _atom_site_symmetry_multiplicity
 _atom_site_fract_x
 _atom_site_fract_y
 _atom_site_fract_z
 _atom_site_occupancy
  Ba  Ba0  1  0.87340129  0.69796325  0.25939580  1
  Ba  Ba1  1  0.71484158  -0.01801275  0.72471206  1
  Ba  Ba2  1  0.26995182  -0.01777973  0.68661141  1
  Ba  Ba3  1  0.29571789  0.16034891  0.06261273  1
  Ba  Ba4  1  0.01081547  0.21988056  0.48984555  1
  Ba  Ba5  1  0.26030369  -0.01893984  0.27490485  1
  Ba  Ba6  1  0.48343009  0.00795734  0.07814341  1
  Ba  Ba7  1  0.71411370  0.77894637  0.50544059  1
  Ba  Ba8  1  0.52782743  -0.02498342  0.52916676  1
  Ba  Ba9  1  0.23482091  0.75361325  0.21151040  1
  Ba  Ba10  1  0.02948539  -0.08283567  0.78911539  1
  Ba  Ba11  1  0.55271377  0.27649018  0.56113115  1
  Ba  Ba12  1  0.34408643  0.45534905  0.80693005  1
  Ba  Ba13  1  0.52035254  0.26195300  0.85168719  1
  Ba  Ba14  1  0.45173914  0.18671394  0.34224164  1
  Ba  Ba15  1  -0.01464944  0.72899209  0.51399004  1
  Ba  Ba16  1  0.09556960  0.27147546  -0.01363086  1
  Ba  Ba17  1  0.76910081  0.56316617  0.01828883  1
  Ba  Ba18  1  0.44970952  0.70953750  0.82162154  1
  Ba  Ba19  1  0.69600961  0.81582143  0.03804927  1
  Ba  Ba20  1  0.21854479  0.65735435  0.73284478  1
  Ba  Ba21  1  0.49757641  0.51718609  0.63763713  1
  Ba  Ba22  1  -0.04333007  0.76610613  0.00757635  1
  Ba  Ba23  1  0.73793919  0.47844601  0.23695981  1
  Ba  Ba24  1  0.73605917  0.21767852  0.25907367  1
  Ba  Ba25  1  0.48022196  -0.02773031  0.82185809  1
  Ba  Ba26  1  0.23319918  0.50827491  0.26217033  1
  Ba  Ba27  1  0.76604635  0.33258607  0.47400376  1
  Ba  Ba28  1  0.47043393  0.77106597  0.03815465  1
  Ba  Ba29  1  -0.03213405  0.02364606  0.26317255  1
  Ba  Ba30  1  0.26611205  0.24695556  0.55540226  1
  Ba  Ba31  1  0.20756879  0.76235622  -0.04293077  1
  Ba  Ba32  1  0.51950567  0.28922329  0.12177910  1
  Ba  Ba33  1  -0.05283819  0.40065233  0.66552193  1
  Ba  Ba34  1  0.27297890  0.42327251  0.03569158  1
  Ba  Ba35  1  0.70623610  -0.03383178  0.29034996  1
  Ba  Ba36  1  0.80435912  0.03484085  -0.02063567  1
  Ba  Ba37  1  0.46648897  0.50520076  0.19687007  1
  Ba  Ba38  1  0.74451514  0.48923617  0.78809822  1
  Ba  Ba39  1  0.27615424  0.79875048  0.48177522  1
  Ba  Ba40  1  0.54346627  0.56596528  0.41067801  1
  Ba  Ba41  1  0.78277472  0.21374608  0.77463074  1
  Ba  Ba42  1  0.00062684  0.49891368  -0.05466739  1
  Ba  Ba43  1  -0.02795320  0.29068559  0.26749396  1
  Ba  Ba44  1  -0.03744994  0.50550005  0.43321171  1
  Ba  Ba45  1  0.76419411  0.30662205  0.01332146  1
  Ba  Ba46  1  0.20950514  0.51692906  0.54781537  1
  Ba  Ba47  1  0.00292226  -0.01906827  0.52437180  1
  Ba  Ba48  1  -0.05559013  0.68411340  0.76158679  1
  Ba  Ba49  1  0.26157967  0.22382511  0.81073803  1
  Ba  Ba50  1  0.03500683  0.18799910  0.73029677  1
  Fe  Fe51  1  0.62521044  0.11423871  0.92712838  1
  Fe  Fe52  1  0.94083660  0.48129814  0.24351976  1
  Fe  Fe53  1  0.60927469  0.40814774  0.94614911  1
  Fe  Fe54  1  0.94790445  0.56143685  0.12940747  1
  Fe  Fe55  1  0.85817648  0.13738372  0.59114647  1
  Fe  Fe56  1  0.43082730  0.80102391  0.32892238  1
  Fe  Fe57  1  0.09845201  0.49825558  0.74479966  1
  Fe  Fe58  1  0.70787253  0.48627004  0.57124968  1
  Fe  Fe59  1  0.26587061  0.15836279  0.38568572  1
  Fe  Fe60  1  0.06653649  0.36031159  0.81284373  1
  Fe  Fe61  1  0.91693287  0.21224214  0.94931832  1
  Fe  Fe62  1  0.55341808  0.70685123  0.62389942  1
  Fe  Fe63  1  0.75210898  0.70527365  0.87407379  1
  Fe  Fe64  1  0.55445062  0.83780162  0.21634047  1
  Fe  Fe65  1  0.16058208  0.38616734  0.71264674  1
  Fe  Fe66  1  0.16178505  0.44517856  0.84992088  1
  Fe  Fe67  1  0.22997525  0.94111642  0.88046717  1
  Fe  Fe68  1  0.41231419  0.70005889  0.62763165  1
  Fe  Fe69  1  0.45253147  0.82209421  0.64629480  1
  Fe  Fe70  1  0.10559049  0.05358082  0.05325511  1
  Fe  Fe71  1  0.46015372  0.54553055  0.99074068  1
  Fe  Fe72  1  0.31984739  0.30735980  0.21455439  1
  Fe  Fe73  1  0.72859300  0.14268243  0.57551457  1
  Fe  Fe74  1  0.55669880  0.85158058  0.36106426  1
  Fe  Fe75  1  0.18282837  0.31313782  0.22173789  1
  Fe  Fe76  1  0.08348836  0.91079684  0.10985599  1
  Fe  Fe77  1  0.82106463  0.13675968  0.45965880  1
  Fe  Fe78  1  0.40952242  0.31201467  0.69016220  1
  Fe  Fe79  1  0.97067617  0.12808381  0.06339884  1
  Fe  Fe80  1  0.17571360  0.06716739  0.91953952  1
  Fe  Fe81  1  0.64775731  0.80369202  0.83635945  1
  Fe  Fe82  1  0.90629308  0.43316746  0.12438746  1
  Fe  Fe83  1  0.46644473  0.71135256  0.23025345  1
  Fe  Fe84  1  0.57653061  0.81993669  0.70589703  1
  Fe  Fe85  1  0.98080260  0.97950241  0.05341635  1
  Fe  Fe86  1  1.03892578  0.57314104  0.24274456  1
  Fe  Fe87  1  0.16413378  0.09936574  0.45609322  1
  Fe  Fe88  1  0.66700881  0.60599792  0.58306716  1
  Fe  Fe89  1  0.62637576  0.66813787  0.89480177  1
  Fe  Fe90  1  0.14927577  0.23368046  0.34597555  1
  Fe  Fe91  1  0.93502939  0.31063680  0.86227144  1
  Fe  Fe92  1  0.13031091  1.10438669  0.33158745  1
  Fe  Fe93  1  0.30796002  0.03484799  0.91438728  1
  Fe  Fe94  1  0.25566240  0.18358127  0.25109729  1
  Fe  Fe95  1  0.58063959  0.60484402  0.00930213  1
  Fe  Fe96  1  0.10875063  0.93839119  0.96995747  1
  Fe  Fe97  1  0.58490807  0.47255938  0.05238465  1
  Fe  Fe98  1  0.47811684  0.41412915  0.97445384  1
  Fe  Fe99  1  0.41835583  0.85178015  0.20627405  1
  Fe  Fe100  1  0.27749725  0.30531028  0.34131272  1
  Fe  Fe101  1  0.57742612  0.73262219  0.31430713  1
  Bi  Bi102  1  0.48656743  0.75663236  0.48168039  1
  Bi  Bi103  1  0.07606205  0.42400466  0.13866820  1
  Bi  Bi104  1  0.31586633  0.02750448  0.48090488  1
  Bi  Bi105  1  0.75412096  0.57118066  0.42747783  1
  Bi  Bi106  1  0.47906497  -0.01967259  0.29244994  1
  Bi  Bi107  1  0.10832326  0.16120742  0.17336073  1
  Bi  Bi108  1  0.26002548  -0.05849097  0.06011215  1
  Bi  Bi109  1  0.67990106  0.68607463  0.72697159  1
  Bi  Bi110  1  0.54359388  0.52109807  -0.15463407  1
  Bi  Bi111  1  0.00599234  0.08139113  -0.09273494  1
  Bi  Bi112  1  0.62412180  0.65779854  0.17102399  1
  Bi  Bi113  1  0.77787988  -0.01270708  0.51956395  1
  Bi  Bi114  1  -0.13388974  0.89180430  0.14357832  1
  Bi  Bi115  1  0.65334327  0.13291404  0.08593855  1
  Bi  Bi116  1  0.42994295  0.14793926  0.69016983  1
  Bi  Bi117  1  0.64472022  0.13932933  0.43034110  1
  Bi  Bi118  1  0.82310640  0.85383707  0.85935243  1
  Bi  Bi119  1  0.88099404  0.86683266  0.38224579  1
  Bi  Bi120  1  0.58332990  0.36144055  0.33603583  1
  Bi  Bi121  1  0.12074012  0.64862157  0.37280837  1
  Bi  Bi122  1  0.13135468  0.82096724  0.63607171  1
  Bi  Bi123  1  0.13832609  0.37910657  0.41185193  1
  Bi  Bi124  1  0.09872192  0.63539239  0.09629818  1
  Bi  Bi125  1  0.84415711  0.57653103  0.61164927  1
  Bi  Bi126  1  0.33056754  0.61907257  0.06857873  1
  Bi  Bi127  1  0.87156231  0.85476096  0.65235796  1
