# generated using pymatgen
data_Ba51Fe51Bi26
_symmetry_space_group_name_H-M   'P 1'
_cell_length_a   16.40208689
_cell_length_b   16.50099630
_cell_length_c   16.11189798
_cell_angle_alpha   92.84981773
_cell_angle_beta   92.15640192
_cell_angle_gamma   90.73039145
_symmetry_Int_Tables_number   1
_chemical_formula_structural   Ba51Fe51Bi26
_chemical_formula_sum   'Ba51 Fe51 Bi26'
_cell_volume   4351.75362252
_cell_formula_units_Z   1
loop_
 _symmetry_equiv_pos_site_id
 _symmetry_equiv_pos_as_xyz
  1  'x, y, z'
loop_
 _atom_site_type_symbol
 _atom_site_label
 _atom_site_symmetry_multiplicity
 _atom_site_fract_x
 _atom_site_fract_y
 _atom_site_fract_z
 _atom_site_occupancy
  Ba  Ba0  1  0.35849159  -0.04458205  0.58499659  1
  Ba  Ba1  1  -0.09221654  0.30619993  -0.00533123  1
  Ba  Ba2  1  0.22299552  -0.10084743  0.09011718  1
  Ba  Ba3  1  0.90884352  0.44501347  0.31338759  1
  Ba  Ba4  1  0.68741518  0.30393052  0.85660502  1
  Ba  Ba5  1  0.02790931  0.77630187  0.12026032  1
  Ba  Ba6  1  0.01403806  0.54298910  0.12203224  1
  Ba  Ba7  1  0.09598126  0.58521752  0.46658445  1
  Ba  Ba8  1  -0.00183967  -0.01852283  0.26012900  1
  Ba  Ba9  1  0.33242649  0.06722474  0.23532449  1
  Ba  Ba10  1  0.09860249  0.86937389  0.69071039  1
  Ba  Ba11  1  -0.17040419  -0.02582645  0.59447571  1
  Ba  Ba12  1  0.79927143  0.68676228  0.01846300  1
  Ba  Ba13  1  -0.00935927  0.04704170  -0.03540521  1
  Ba  Ba14  1  0.47091322  0.16530276  0.78003418  1
  Ba  Ba15  1  0.64142969  -0.07460443  0.41485349  1
  Ba  Ba16  1  0.39387821  0.53502347  0.82204424  1
  Ba  Ba17  1  0.65636386  0.77729641  0.62369013  1
  Ba  Ba18  1  0.14950407  0.11800864  0.72956675  1
  Ba  Ba19  1  0.35612943  0.75759334  0.24985420  1
  Ba  Ba20  1  0.23441886  0.32894733  0.41857017  1
  Ba  Ba21  1  0.46748342  0.27105097  0.20480998  1
  Ba  Ba22  1  0.10337058  0.29687307  0.16053794  1
  Ba  Ba23  1  0.67167517  0.20463774  0.62368443  1
  Ba  Ba24  1  -0.11031005  0.79123564  0.80861332  1
  Ba  Ba25  1  0.58607049  0.53797392  0.55862772  1
  Ba  Ba26  1  0.58707472  0.45599679  0.05894731  1
  Ba  Ba27  1  0.63538694  0.48368717  0.31609003  1
  Ba  Ba28  1  0.33209758  0.49812127  0.16974852  1
  Ba  Ba29  1  -0.11392207  0.20437087  0.48085423  1
  Ba  Ba30  1  0.19400083  0.08247931  0.43280024  1
  Ba  Ba31  1  0.31154337  0.53817643  0.56367119  1
  Ba  Ba32  1  0.43050760  0.72116681  0.47050370  1
  Ba  Ba33  1  0.69878803  0.21847171  0.32774616  1
  Ba  Ba34  1  0.87702921  0.53056467  0.78642807  1
  Ba  Ba35  1  0.29157622  0.20055020  -0.00110394  1
  Ba  Ba36  1  0.48650322  0.30232151  0.49067535  1
  Ba  Ba37  1  0.50921027  -0.11154422  0.77758915  1
  Ba  Ba38  1  0.29151725  0.33109958  0.75755427  1
  Ba  Ba39  1  0.67210168  0.14347978  0.05215686  1
  Ba  Ba40  1  0.62541198  0.56286928  0.81787619  1
  Ba  Ba41  1  0.55770780  0.70065324  0.10676404  1
  Ba  Ba42  1  -0.02776244  0.32552407  0.71405918  1
  Ba  Ba43  1  0.65034884  -0.09000196  0.05612899  1
  Ba  Ba44  1  0.18404891  0.49831185  -0.05564908  1
  Ba  Ba45  1  0.17815516  0.73486794  -0.12166015  1
  Ba  Ba46  1  0.80058918  0.81305696  0.26046805  1
  Ba  Ba47  1  0.86857574  0.48840327  0.55133348  1
  Ba  Ba48  1  0.04041683  0.82170500  0.45825383  1
  Ba  Ba49  1  0.30628906  -0.05707799  -0.12845033  1
  Ba  Ba50  1  0.73617287  -0.00684987  0.83151880  1
  Fe  Fe51  1  1.06638529  0.51797099  0.64750251  1
  Fe  Fe52  1  -0.02952650  0.14693687  0.15644315  1
  Fe  Fe53  1  0.19585084  0.62483457  0.25037760  1
  Fe  Fe54  1  0.49990279  0.05293701  0.11131648  1
  Fe  Fe55  1  0.77926882  0.50856583  0.14650843  1
  Fe  Fe56  1  0.31822719  0.79336000  0.71592179  1
  Fe  Fe57  1  0.74119149  0.62224431  0.47305329  1
  Fe  Fe58  1  0.89179607  0.66157484  0.46384683  1
  Fe  Fe59  1  0.14986267  0.64817857  0.67342018  1
  Fe  Fe60  1  0.69371123  0.40378831  0.66110092  1
  Fe  Fe61  1  0.57658752  1.10802852  0.22113401  1
  Fe  Fe62  1  0.55393978  0.09052453  0.47402829  1
  Fe  Fe63  1  0.42319409  0.66582685  -0.03448234  1
  Fe  Fe64  1  0.80863849  0.66796513  0.59318108  1
  Fe  Fe65  1  0.34139689  0.75864308  0.00447013  1
  Fe  Fe66  1  0.48276218  0.37626207  0.87420706  1
  Fe  Fe67  1  0.48768738  -0.03003201  0.96731913  1
  Fe  Fe68  1  0.86875736  0.12499566  0.26427925  1
  Fe  Fe69  1  0.79731232  0.63190167  0.34110181  1
  Fe  Fe70  1  0.89920658  0.25579702  0.23888386  1
  Fe  Fe71  1  0.84646907  0.15034400  0.85381549  1
  Fe  Fe72  1  0.77729841  0.75230278  0.45698252  1
  Fe  Fe73  1  -0.03704721  1.13442503  0.66101342  1
  Fe  Fe74  1  0.20887435  0.53461991  0.73386936  1
  Fe  Fe75  1  0.50708122  0.09987036  0.34159055  1
  Fe  Fe76  1  0.84075073  0.15884936  0.71887412  1
  Fe  Fe77  1  0.47321126  0.11732299  0.57379366  1
  Fe  Fe78  1  0.38920648  0.38570996  -0.04139722  1
  Fe  Fe79  1  0.27327799  0.58364290  0.35569841  1
  Fe  Fe80  1  0.07240397  0.59420192  0.78000497  1
  Fe  Fe81  1  0.37214325  0.74096741  0.84501605  1
  Fe  Fe82  1  0.16144250  0.41808728  0.63403593  1
  Fe  Fe83  1  0.84260856  0.19205463  0.12706919  1
  Fe  Fe84  1  0.84487917  0.61641729  0.20169659  1
  Fe  Fe85  1  0.12764433  0.73087817  0.29196064  1
  Fe  Fe86  1  1.10116585  0.46099584  0.76669730  1
  Fe  Fe87  1  0.22826280  0.71117979  0.38555758  1
  Fe  Fe88  1  0.71351631  0.61999625  0.21287211  1
  Fe  Fe89  1  0.84823062  0.05529109  0.13296442  1
  Fe  Fe90  1  0.06039282  0.19888062  0.57090869  1
  Fe  Fe91  1  0.37570833  0.03063354  0.03956166  1
  Fe  Fe92  1  0.51506338  0.72100923  0.88549931  1
  Fe  Fe93  1  -0.03076477  0.16566459  0.81162431  1
  Fe  Fe94  1  0.92328035  1.04383719  0.76740622  1
  Fe  Fe95  1  0.87283891  0.77627840  0.56189115  1
  Fe  Fe96  1  0.16499572  0.27920714  0.59602971  1
  Fe  Fe97  1  0.53814416  0.98470399  0.24420765  1
  Fe  Fe98  1  0.40650923  0.11047070  0.44897138  1
  Fe  Fe99  1  0.28533622  0.66589329  0.72436179  1
  Fe  Fe100  1  0.45297118  0.82402637  0.95738292  1
  Fe  Fe101  1  0.46214979  0.10001111  0.97165686  1
  Bi  Bi102  1  0.50599596  0.26318161  -0.01061355  1
  Bi  Bi103  1  -0.03222738  0.67212260  0.30716657  1
  Bi  Bi104  1  0.43996977  -0.10866152  0.11745617  1
  Bi  Bi105  1  0.75727528  0.33783996  0.16326212  1
  Bi  Bi106  1  0.46101775  0.68660744  0.69349627  1
  Bi  Bi107  1  0.63020744  0.70185043  0.36107147  1
  Bi  Bi108  1  0.22180697  0.67032932  0.08824706  1
  Bi  Bi109  1  -0.01804704  0.67624099  0.64344244  1
  Bi  Bi110  1  0.43362389  -0.05089917  0.38428894  1
  Bi  Bi111  1  0.23409661  0.75187034  0.56503448  1
  Bi  Bi112  1  0.03049911  0.19210919  0.32486840  1
  Bi  Bi113  1  0.31974095  0.18734363  0.58954034  1
  Bi  Bi114  1  0.72389334  0.02135119  0.24237278  1
  Bi  Bi115  1  0.13384518  0.09291631  0.12637981  1
  Bi  Bi116  1  0.77999708  0.47621988  0.97130517  1
  Bi  Bi117  1  0.18965528  0.88453473  0.31234319  1
  Bi  Bi118  1  0.59736291  1.00486588  0.62481516  1
  Bi  Bi119  1  0.86611680  0.90236505  0.04590327  1
  Bi  Bi120  1  0.04151148  0.36765894  0.51132894  1
  Bi  Bi121  1  0.67572467  0.77681467  0.86096606  1
  Bi  Bi122  1  0.99799702  0.64085561  0.93063005  1
  Bi  Bi123  1  0.14612486  0.46999749  0.28439812  1
  Bi  Bi124  1  0.53283332  0.37286120  0.70844336  1
  Bi  Bi125  1  0.70230700  0.36595153  0.49194171  1
  Bi  Bi126  1  0.02968801  1.02715400  0.54686808  1
  Bi  Bi127  1  0.41833534  0.48842307  0.37827320  1
