# generated using pymatgen
data_Ba51Fe51Bi26
_symmetry_space_group_name_H-M   'P 1'
_cell_length_a   16.24753147
_cell_length_b   16.41921389
_cell_length_c   16.37263851
_cell_angle_alpha   92.09629851
_cell_angle_beta   88.37378467
_cell_angle_gamma   88.50082907
_symmetry_Int_Tables_number   1
_chemical_formula_structural   Ba51Fe51Bi26
_chemical_formula_sum   'Ba51 Fe51 Bi26'
_cell_volume   4361.45761240
_cell_formula_units_Z   1
loop_
 _symmetry_equiv_pos_site_id
 _symmetry_equiv_pos_as_xyz
  1  'x, y, z'
loop_
 _atom_site_type_symbol
 _atom_site_label
 _atom_site_symmetry_multiplicity
 _atom_site_fract_x
 _atom_site_fract_y
 _atom_site_fract_z
 _atom_site_occupancy
  Ba  Ba0  1  0.31843404  -0.05497662  0.44016152  1
  Ba  Ba1  1  0.20090483  0.33310598  0.17694318  1
  Ba  Ba2  1  -0.09786692  0.07593612  0.67396115  1
  Ba  Ba3  1  0.20309063  0.56164946  -0.08059275  1
  Ba  Ba4  1  0.54660772  0.36964186  0.82952189  1
  Ba  Ba5  1  0.21448493  0.57235177  0.16445433  1
  Ba  Ba6  1  0.11457709  0.18939867  0.74950268  1
  Ba  Ba7  1  -0.06748899  0.34762342  0.15717349  1
  Ba  Ba8  1  0.45074004  0.52448997  0.10629941  1
  Ba  Ba9  1  0.69496303  0.74731013  -0.11666053  1
  Ba  Ba10  1  0.27890997  -0.01290806  0.07735725  1
  Ba  Ba11  1  0.66045246  0.38619885  0.04773271  1
  Ba  Ba12  1  0.41690487  0.15806871  0.48027676  1
  Ba  Ba13  1  0.45576354  0.23126193  0.17200032  1
  Ba  Ba14  1  0.33930453  0.54977635  0.71894574  1
  Ba  Ba15  1  0.81748686  0.55518069  0.22152211  1
  Ba  Ba16  1  -0.06985327  0.45700009  0.55518705  1
  Ba  Ba17  1  0.03010048  0.40376716  -0.09790740  1
  Ba  Ba18  1  0.31241949  0.78046559  0.25358218  1
  Ba  Ba19  1  0.48880323  0.06972268  -0.06102537  1
  Ba  Ba20  1  0.66208658  0.46216257  0.42546732  1
  Ba  Ba21  1  0.41332266  0.66120745  0.47881467  1
  Ba  Ba22  1  0.40777854  0.01004963  0.70993993  1
  Ba  Ba23  1  0.48496253  0.72777135  0.76185701  1
  Ba  Ba24  1  0.63508914  0.14895851  0.70393207  1
  Ba  Ba25  1  0.07048451  0.07655301  0.46295788  1
  Ba  Ba26  1  0.56145742  0.61726111  0.28620137  1
  Ba  Ba27  1  0.18402164  -0.07052130  0.77347834  1
  Ba  Ba28  1  0.68415649  0.26077368  0.26553266  1
  Ba  Ba29  1  0.90274231  -0.06835971  0.24634764  1
  Ba  Ba30  1  0.66105305  0.81637100  0.19502978  1
  Ba  Ba31  1  0.85705558  0.11101543  0.05588258  1
  Ba  Ba32  1  -0.06469639  0.83067459  0.79270171  1
  Ba  Ba33  1  0.14429818  0.79317956  0.54385853  1
  Ba  Ba34  1  -0.00356220  0.72341163  0.34829830  1
  Ba  Ba35  1  0.81904580  0.18294576  0.46872384  1
  Ba  Ba36  1  0.71187562  0.37239776  0.63679980  1
  Ba  Ba37  1  0.43134816  0.39031890  0.54898258  1
  Ba  Ba38  1  0.60365623  0.02143848  0.32568978  1
  Ba  Ba39  1  0.31558407  0.33235683  -0.08842650  1
  Ba  Ba40  1  0.75526444  0.02399951  0.87274609  1
  Ba  Ba41  1  0.09515205  0.16634522  -0.01341697  1
  Ba  Ba42  1  0.80168030  0.51226270  -0.08999711  1
  Ba  Ba43  1  0.16425334  0.54015262  0.56473926  1
  Ba  Ba44  1  0.09950618  0.79034765  0.13102239  1
  Ba  Ba45  1  0.48857585  0.76215195  0.02380812  1
  Ba  Ba46  1  0.19683343  0.29094609  0.51409364  1
  Ba  Ba47  1  0.05686259  0.46616380  0.33025438  1
  Ba  Ba48  1  0.58460514  -0.13208045  0.56418103  1
  Ba  Ba49  1  0.83029733  -0.22230165  0.55880638  1
  Ba  Ba50  1  -0.12172496  0.71918196  0.03551825  1
  Fe  Fe51  1  0.36000190  0.32565285  0.71945963  1
  Fe  Fe52  1  0.21187333  0.06277792  0.29250986  1
  Fe  Fe53  1  0.43458448  0.46249838  0.37588370  1
  Fe  Fe54  1  0.02512711  0.60003693  -0.00721198  1
  Fe  Fe55  1  0.93295777  0.52637020  0.05598727  1
  Fe  Fe56  1  0.62192733  0.91650165  -0.02123446  1
  Fe  Fe57  1  0.35800365  0.42626832  0.24547168  1
  Fe  Fe58  1  0.75039979  0.71095970  0.35656328  1
  Fe  Fe59  1  1.14538823  0.20236444  0.30088308  1
  Fe  Fe60  1  0.59103797  0.56507910  0.92763225  1
  Fe  Fe61  1  0.00646404  0.61869449  0.83999778  1
  Fe  Fe62  1  0.05941766  0.48834491  0.08632462  1
  Fe  Fe63  1  0.86328306  0.40469305  0.75161947  1
  Fe  Fe64  1  0.35292952  0.54958972  0.30715136  1
  Fe  Fe65  1  0.08476570  0.52368374  0.74372143  1
  Fe  Fe66  1  0.13204327  0.66293470  0.75813903  1
  Fe  Fe67  1  0.50109717  0.32448292  0.36825794  1
  Fe  Fe68  1  0.75677668  0.67697669  0.70577468  1
  Fe  Fe69  1  0.31508546  0.19797346  0.70017333  1
  Fe  Fe70  1  0.77209906  0.30691850  0.81187977  1
  Fe  Fe71  1  0.05901112  1.07757283  0.27407449  1
  Fe  Fe72  1  1.01386293  0.60192422  0.14841003  1
  Fe  Fe73  1  0.41743621  0.20351701  0.79185812  1
  Fe  Fe74  1  0.85456674  0.19286336  0.83417147  1
  Fe  Fe75  1  0.23842335  0.74532030  0.83045824  1
  Fe  Fe76  1  0.24297657  0.71581756  0.69649159  1
  Fe  Fe77  1  0.64798715  0.66598689  0.62241661  1
  Fe  Fe78  1  1.02628774  0.18358381  0.19147770  1
  Fe  Fe79  1  0.91792951  0.27895886  0.74669231  1
  Fe  Fe80  1  0.27906904  0.45954118  0.37398378  1
  Fe  Fe81  1  0.86932184  0.64725645  0.78428607  1
  Fe  Fe82  1  0.09822905  0.91621857  0.96030961  1
  Fe  Fe83  1  0.27743011  0.15685208  0.20665545  1
  Fe  Fe84  1  0.67879611  0.65746686  0.47964507  1
  Fe  Fe85  1  0.63583444  0.76120125  0.40738944  1
  Fe  Fe86  1  0.49546782  0.40384688  0.26496096  1
  Fe  Fe87  1  0.64043243  0.00192530  0.07599250  1
  Fe  Fe88  1  0.22065714  0.82014253  -0.04150146  1
  Fe  Fe89  1  0.28160447  0.72809698  0.03331002  1
  Fe  Fe90  1  0.15282423  0.12693694  0.16804836  1
  Fe  Fe91  1  0.74955408  0.58106179  0.58173222  1
  Fe  Fe92  1  0.96611167  0.91962671  0.98862772  1
  Fe  Fe93  1  0.28790898  0.19309248  0.33419834  1
  Fe  Fe94  1  0.35986433  0.32716264  0.34499886  1
  Fe  Fe95  1  0.71829732  0.22154310  0.90103066  1
  Fe  Fe96  1  0.33766766  0.71125725  0.91272192  1
  Fe  Fe97  1  0.46208473  0.24259271  0.67267885  1
  Fe  Fe98  1  0.00394066  0.22973810  0.32135609  1
  Fe  Fe99  1  0.01493478  0.38585184  0.71001872  1
  Fe  Fe100  1  0.80245769  0.53968865  0.70481940  1
  Fe  Fe101  1  0.94458962  0.51871067  0.75113243  1
  Bi  Bi102  1  0.85453632  0.30350150  0.96308283  1
  Bi  Bi103  1  0.63673589  0.55753431  0.75918403  1
  Bi  Bi104  1  0.64267349  0.17069964  0.04988614  1
  Bi  Bi105  1  -0.12547132  0.14070147  0.26726212  1
  Bi  Bi106  1  0.05414335  0.00301948  0.10995688  1
  Bi  Bi107  1  -0.01302886  0.25228484  0.58987295  1
  Bi  Bi108  1  -0.00586229  0.65746931  0.65952780  1
  Bi  Bi109  1  0.84468622  0.59839070  0.43154648  1
  Bi  Bi110  1  0.39159464  0.05418874  0.27108749  1
  Bi  Bi111  1  0.20700865  0.63116686  0.37703093  1
  Bi  Bi112  1  0.19574388  0.39024300  0.72961285  1
  Bi  Bi113  1  0.42473741  0.55863008  -0.09338263  1
  Bi  Bi114  1  0.07641785  0.74803739  0.92118979  1
  Bi  Bi115  1  0.65918009  0.61965303  0.07274714  1
  Bi  Bi116  1  0.86486636  0.36072722  0.36106800  1
  Bi  Bi117  1  0.98487161  0.03115751  0.86205885  1
  Bi  Bi118  1  0.78606048  0.90706920  0.04339088  1
  Bi  Bi119  1  0.49340876  0.82661245  0.35565521  1
  Bi  Bi120  1  0.12871618  0.90763043  0.32795764  1
  Bi  Bi121  1  0.75334007  0.87934192  0.39262975  1
  Bi  Bi122  1  0.23894180  0.08680369  0.59345707  1
  Bi  Bi123  1  0.58913704  0.91913162  0.80132109  1
  Bi  Bi124  1  0.36252219  0.87410128  0.89159149  1
  Bi  Bi125  1  0.28556683  0.12278583  0.86992648  1
  Bi  Bi126  1  0.60805946  0.25248307  0.47978668  1
  Bi  Bi127  1  0.34878693  0.81627744  0.61886244  1
