# generated using pymatgen
data_Ba51Fe51Bi26
_symmetry_space_group_name_H-M   'P 1'
_cell_length_a   16.19554067
_cell_length_b   16.28105261
_cell_length_c   16.50586324
_cell_angle_alpha   88.92977310
_cell_angle_beta   90.57735600
_cell_angle_gamma   90.43787387
_symmetry_Int_Tables_number   1
_chemical_formula_structural   Ba51Fe51Bi26
_chemical_formula_sum   'Ba51 Fe51 Bi26'
_cell_volume   4351.17233120
_cell_formula_units_Z   1
loop_
 _symmetry_equiv_pos_site_id
 _symmetry_equiv_pos_as_xyz
  1  'x, y, z'
loop_
 _atom_site_type_symbol
 _atom_site_label
 _atom_site_symmetry_multiplicity
 _atom_site_fract_x
 _atom_site_fract_y
 _atom_site_fract_z
 _atom_site_occupancy
  Ba  Ba0  1  0.81409265  -0.03028003  0.76889418  1
  Ba  Ba1  1  0.48952744  -0.03025138  0.22636842  1
  Ba  Ba2  1  0.05174271  0.18168764  0.71625393  1
  Ba  Ba3  1  0.44136300  0.86102169  0.71929053  1
  Ba  Ba4  1  0.28803283  0.28693944  0.21735352  1
  Ba  Ba5  1  0.03883152  0.26848791  -0.03728948  1
  Ba  Ba6  1  0.48474594  0.64620111  0.83552885  1
  Ba  Ba7  1  0.50194538  0.00087319  -0.06384795  1
  Ba  Ba8  1  0.18935448  0.83505807  0.86824786  1
  Ba  Ba9  1  0.45464766  0.77970150  0.09631995  1
  Ba  Ba10  1  -0.03131058  0.52878282  0.19015191  1
  Ba  Ba11  1  0.46186687  0.28106540  0.50496935  1
  Ba  Ba12  1  0.70307015  0.01265324  0.28817970  1
  Ba  Ba13  1  0.02569356  0.64351708  0.72833018  1
  Ba  Ba14  1  0.63258979  0.65167009  0.44868262  1
  Ba  Ba15  1  0.00946850  0.20327012  0.23529629  1
  Ba  Ba16  1  0.30288966  0.27585437  0.69532099  1
  Ba  Ba17  1  0.09391928  0.83730556  0.57286434  1
  Ba  Ba18  1  0.76510565  0.52438304  0.80403064  1
  Ba  Ba19  1  0.25635910  0.00946565  0.24210716  1
  Ba  Ba20  1  0.26889910  0.52217440  0.69060697  1
  Ba  Ba21  1  0.23940937  0.14428909  0.45112728  1
  Ba  Ba22  1  0.53292419  0.32752747  0.09197651  1
  Ba  Ba23  1  0.56754118  0.06967055  0.67578870  1
  Ba  Ba24  1  -0.04626408  0.47336620  0.43697578  1
  Ba  Ba25  1  0.76520589  0.03209824  0.52364918  1
  Ba  Ba26  1  0.24928604  0.00845584  0.66699224  1
  Ba  Ba27  1  -0.01210018  0.01005056  -0.01444038  1
  Ba  Ba28  1  0.40917724  0.53029626  0.39735342  1
  Ba  Ba29  1  0.74939252  0.23089902  0.19323126  1
  Ba  Ba30  1  0.28294453  0.00025239  0.00073473  1
  Ba  Ba31  1  0.68148147  0.79473413  -0.07043811  1
  Ba  Ba32  1  0.88247286  0.68211038  0.50870174  1
  Ba  Ba33  1  0.32729914  0.72090851  0.53948446  1
  Ba  Ba34  1  0.02474868  0.25970660  0.49334431  1
  Ba  Ba35  1  0.40023538  0.52698725  0.10650185  1
  Ba  Ba36  1  0.18413328  0.49936187  0.32124646  1
  Ba  Ba37  1  0.19827121  0.68092935  0.10466850  1
  Ba  Ba38  1  0.18899836  0.77876190  0.32726047  1
  Ba  Ba39  1  0.72079492  0.51243701  0.11510230  1
  Ba  Ba40  1  0.51606407  0.24821801  0.83064490  1
  Ba  Ba41  1  -0.04266398  0.82907097  0.22704117  1
  Ba  Ba42  1  0.00281125  0.50815379  -0.03353765  1
  Ba  Ba43  1  0.73525664  0.24722192  -0.04727198  1
  Ba  Ba44  1  0.56194767  0.47368916  0.65489539  1
  Ba  Ba45  1  0.24110359  0.55010131  -0.08551075  1
  Ba  Ba46  1  0.71651735  0.77117401  0.19570379  1
  Ba  Ba47  1  0.51610566  0.18093412  0.30366000  1
  Ba  Ba48  1  0.29461790  0.28072294  -0.03376017  1
  Ba  Ba49  1  0.71105552  0.29309231  0.47832313  1
  Ba  Ba50  1  0.59681449  -0.13409897  0.49965836  1
  Fe  Fe51  1  0.41530538  0.08816693  0.54508272  1
  Fe  Fe52  1  0.33775869  0.72378690  0.94839012  1
  Fe  Fe53  1  0.83712889  0.30251275  0.76556683  1
  Fe  Fe54  1  0.72857499  0.78530610  0.63533393  1
  Fe  Fe55  1  0.51230024  0.79120255  0.30073690  1
  Fe  Fe56  1  0.73862950  0.07044163  0.09522467  1
  Fe  Fe57  1  0.65844270  0.70522577  0.75492169  1
  Fe  Fe58  1  0.73734592  0.19892974  0.74784811  1
  Fe  Fe59  1  0.40329422  0.02667680  0.40731235  1
  Fe  Fe60  1  0.05801609  0.39052706  0.65984379  1
  Fe  Fe61  1  0.21598958  0.49773386  0.50782037  1
  Fe  Fe62  1  0.97451776  0.81706082  0.86103620  1
  Fe  Fe63  1  0.52238390  0.05609679  0.46997020  1
  Fe  Fe64  1  0.58032658  0.43918268  0.40172133  1
  Fe  Fe65  1  0.90805354  0.35889164  0.63652462  1
  Fe  Fe66  1  0.90296953  0.00230924  0.34846700  1
  Fe  Fe67  1  0.96873689  0.01183380  0.59910878  1
  Fe  Fe68  1  0.38614475  0.69073352  0.27077244  1
  Fe  Fe69  1  0.64341108  0.37462544  0.30085307  1
  Fe  Fe70  1  -0.04937083  0.93429923  0.46673041  1
  Fe  Fe71  1  0.68482167  0.33732313  0.77339486  1
  Fe  Fe72  1  0.32159222  0.41511436  0.54083295  1
  Fe  Fe73  1  0.40285115  0.82467754  0.90894153  1
  Fe  Fe74  1  0.58103938  0.71909769  0.64357116  1
  Fe  Fe75  1  0.60468907  0.09275972  0.09389226  1
  Fe  Fe76  1  0.63950398  0.26356320  0.67148169  1
  Fe  Fe77  1  0.72618849  0.47867561  0.40838151  1
  Fe  Fe78  1  0.63641198  0.83646913  0.71931101  1
  Fe  Fe79  1  0.54441065  0.46385521  0.24409270  1
  Fe  Fe80  1  0.71013911  0.64736852  0.64438974  1
  Fe  Fe81  1  0.75976762  0.34855312  0.65801227  1
  Fe  Fe82  1  0.85342059  0.65366918  0.03697612  1
  Fe  Fe83  1  0.42417235  0.95383840  0.53568716  1
  Fe  Fe84  1  0.38178363  0.09085701  0.80609683  1
  Fe  Fe85  1  0.24755446  0.35683134  0.45139503  1
  Fe  Fe86  1  0.08524311  0.49860295  0.57998446  1
  Fe  Fe87  1  0.66174587  0.52463572  0.29900502  1
  Fe  Fe88  1  0.91174018  0.69728389  0.91695649  1
  Fe  Fe89  1  0.42429704  0.87976163  0.40176804  1
  Fe  Fe90  1  -0.01796439  0.68592223  0.05609935  1
  Fe  Fe91  1  0.94573402  0.49109757  0.62791998  1
  Fe  Fe92  1  0.43909839  0.73078706  0.39072880  1
  Fe  Fe93  1  0.17232403  0.37412617  0.56741790  1
  Fe  Fe94  1  -0.03461729  0.07728796  0.45774765  1
  Fe  Fe95  1  0.63481940  0.95470685  0.08917490  1
  Fe  Fe96  1  0.37206338  0.82212220  0.28093853  1
  Fe  Fe97  1  0.05499700  0.69456238  0.92289155  1
  Fe  Fe98  1  0.03020107  0.80402929  0.99479853  1
  Fe  Fe99  1  0.49031569  0.36887952  0.31594632  1
  Fe  Fe100  1  0.77151109  0.94074431  0.08967087  1
  Fe  Fe101  1  0.07708309  0.02951965  0.52260894  1
  Bi  Bi102  1  0.82707644  0.73427859  0.77072659  1
  Bi  Bi103  1  0.11895796  0.63880211  0.48622835  1
  Bi  Bi104  1  0.81292796  0.40204584  0.29195392  1
  Bi  Bi105  1  0.27090166  -0.07498329  0.46736462  1
  Bi  Bi106  1  -0.15022068  0.16594527  0.37389773  1
  Bi  Bi107  1  0.54612522  0.63443297  0.23495241  1
  Bi  Bi108  1  -0.13213201  0.82321490  0.02636021  1
  Bi  Bi109  1  -0.11543160  0.03450634  0.17650977  1
  Bi  Bi110  1  0.70835344  0.01957707  -0.05503958  1
  Bi  Bi111  1  0.03619247  -0.05659377  0.75326548  1
  Bi  Bi112  1  -0.04843014  0.42604197  0.78445103  1
  Bi  Bi113  1  0.77334454  0.50079518  0.57554090  1
  Bi  Bi114  1  0.85002507  0.19907664  0.62699220  1
  Bi  Bi115  1  0.14998253  0.38221018  0.80795223  1
  Bi  Bi116  1  0.16196162  0.15094640  0.10035161  1
  Bi  Bi117  1  0.80634839  0.85744775  0.38950062  1
  Bi  Bi118  1  0.43196117  0.13863735  0.09940850  1
  Bi  Bi119  1  0.22360184  0.12287833  0.83945552  1
  Bi  Bi120  1  0.18137205  0.45643910  0.10496025  1
  Bi  Bi121  1  0.81036214  0.61158791  0.31334471  1
  Bi  Bi122  1  0.87957615  0.86474962  0.60317878  1
  Bi  Bi123  1  0.88221802  0.36000853  0.07959694  1
  Bi  Bi124  1  0.88549421  0.15993670  0.84504790  1
  Bi  Bi125  1  0.07682418  0.98774309  0.35644514  1
  Bi  Bi126  1  0.42164721  0.43879783  0.86166035  1
  Bi  Bi127  1  0.13564591  0.87850850  0.10574724  1
