# generated using pymatgen
data_Ba51Fe51Bi26
_symmetry_space_group_name_H-M   'P 1'
_cell_length_a   16.37307279
_cell_length_b   16.05626226
_cell_length_c   16.86400999
_cell_angle_alpha   92.81952014
_cell_angle_beta   87.92573018
_cell_angle_gamma   89.63509753
_symmetry_Int_Tables_number   1
_chemical_formula_structural   Ba51Fe51Bi26
_chemical_formula_sum   'Ba51 Fe51 Bi26'
_cell_volume   4424.96965844
_cell_formula_units_Z   1
loop_
 _symmetry_equiv_pos_site_id
 _symmetry_equiv_pos_as_xyz
  1  'x, y, z'
loop_
 _atom_site_type_symbol
 _atom_site_label
 _atom_site_symmetry_multiplicity
 _atom_site_fract_x
 _atom_site_fract_y
 _atom_site_fract_z
 _atom_site_occupancy
  Ba  Ba0  1  0.70325653  0.78359402  0.32003253  1
  Ba  Ba1  1  0.72337252  0.71105269  0.79550578  1
  Ba  Ba2  1  0.68096218  0.24008611  0.10561585  1
  Ba  Ba3  1  0.43821537  0.53231410  0.00633865  1
  Ba  Ba4  1  0.00606987  0.18881455  0.01181780  1
  Ba  Ba5  1  0.03005122  -0.03519393  0.28252541  1
  Ba  Ba6  1  0.15873604  0.72291700  0.32716127  1
  Ba  Ba7  1  0.78262061  0.40376355  0.65270364  1
  Ba  Ba8  1  0.49862999  0.71184515  0.78384299  1
  Ba  Ba9  1  -0.04897568  0.73651512  0.19860467  1
  Ba  Ba10  1  0.81954209  0.69000322  0.55566254  1
  Ba  Ba11  1  0.48029690  0.48768207  0.27665190  1
  Ba  Ba12  1  0.44649537  0.49253957  0.56454757  1
  Ba  Ba13  1  0.51954865  0.12786358  -0.10525972  1
  Ba  Ba14  1  0.23921965  0.05371563  -0.02802604  1
  Ba  Ba15  1  0.45856697  0.73126238  0.24612456  1
  Ba  Ba16  1  0.31386373  0.30216358  0.04436009  1
  Ba  Ba17  1  0.28348801  0.78331626  -0.01341036  1
  Ba  Ba18  1  -0.02867413  0.44531416  -0.05679594  1
  Ba  Ba19  1  0.75793991  0.77315872  0.06665109  1
  Ba  Ba20  1  -0.03507483  0.43322525  0.45385405  1
  Ba  Ba21  1  0.69088159  0.49203933  0.04946091  1
  Ba  Ba22  1  0.78569302  0.02371274  -0.00288303  1
  Ba  Ba23  1  0.76495189  -0.03129755  0.50662266  1
  Ba  Ba24  1  0.21174477  0.48249144  0.26964800  1
  Ba  Ba25  1  0.76142244  0.29000193  -0.13472833  1
  Ba  Ba26  1  0.51305151  -0.04710656  0.46654005  1
  Ba  Ba27  1  0.46594414  0.24213262  0.27567293  1
  Ba  Ba28  1  0.72283284  0.22277016  0.48092631  1
  Ba  Ba29  1  0.00917441  -0.07194368  0.53831967  1
  Ba  Ba30  1  0.24616667  -0.08544330  0.72587268  1
  Ba  Ba31  1  0.48030704  -0.04109911  0.69574554  1
  Ba  Ba32  1  -0.04685477  0.71338111  -0.12395048  1
  Ba  Ba33  1  0.52603169  0.69768746  0.50238713  1
  Ba  Ba34  1  0.46118812  0.21661832  0.50956850  1
  Ba  Ba35  1  0.72853319  0.49912723  0.37818076  1
  Ba  Ba36  1  0.16385613  0.69591501  0.77308276  1
  Ba  Ba37  1  0.52850639  0.88999986  0.03626848  1
  Ba  Ba38  1  0.73559947  -0.00930755  0.75165104  1
  Ba  Ba39  1  0.27530078  0.82456313  0.49798614  1
  Ba  Ba40  1  -0.08083323  0.48764615  0.21638839  1
  Ba  Ba41  1  0.53546513  0.00990073  0.25077426  1
  Ba  Ba42  1  0.00708568  -0.05796017  0.05586614  1
  Ba  Ba43  1  0.28523955  0.18627889  0.74383384  1
  Ba  Ba44  1  0.17289827  0.54043327  0.01104730  1
  Ba  Ba45  1  0.22953875  0.45170802  0.76752942  1
  Ba  Ba46  1  0.00769813  0.18404295  0.53703477  1
  Ba  Ba47  1  0.00548394  0.24673829  0.77933614  1
  Ba  Ba48  1  0.27662541  0.06211026  0.21342156  1
  Ba  Ba49  1  0.00916593  0.23941826  0.27165817  1
  Ba  Ba50  1  0.18826475  0.53158501  0.53552364  1
  Fe  Fe51  1  0.03881117  0.03698155  0.84263728  1
  Fe  Fe52  1  0.68431138  0.30509070  0.30626667  1
  Fe  Fe53  1  0.89964372  0.08360843  0.84435459  1
  Fe  Fe54  1  0.86443729  0.06237193  0.21371043  1
  Fe  Fe55  1  0.16318048  0.20546334  0.40346392  1
  Fe  Fe56  1  0.17768762  0.90012058  0.17067104  1
  Fe  Fe57  1  0.66196627  0.22046788  0.71690914  1
  Fe  Fe58  1  0.66076873  0.16952508  0.28451084  1
  Fe  Fe59  1  0.06026322  0.79746573  0.65674007  1
  Fe  Fe60  1  0.28320295  0.30205783  0.43250723  1
  Fe  Fe61  1  0.62992582  0.60720806  0.25681556  1
  Fe  Fe62  1  0.83832125  0.93625584  0.15550535  1
  Fe  Fe63  1  0.15871588  0.21626945  0.13700197  1
  Fe  Fe64  1  0.33157364  1.00362995  0.39038937  1
  Fe  Fe65  1  -0.00757924  0.68012343  0.67281362  1
  Fe  Fe66  1  1.03900480  0.91627380  0.74140572  1
  Fe  Fe67  1  0.49239915  0.26010971  0.08727406  1
  Fe  Fe68  1  0.71478371  0.93473499  1.20205883  1
  Fe  Fe69  1  0.91819893  0.64633086  0.38020757  1
  Fe  Fe70  1  0.73494032  1.04653206  0.31338799  1
  Fe  Fe71  1  0.74274812  0.62323262  0.19516465  1
  Fe  Fe72  1  0.33445922  0.61681879  0.81403290  1
  Fe  Fe73  1  0.58524269  0.33608207  0.78844836  1
  Fe  Fe74  1  0.16151825  0.77218330  0.14362926  1
  Fe  Fe75  1  0.93878331  0.02922923  0.72538075  1
  Fe  Fe76  1  0.30494652  0.14801870  0.40273175  1
  Fe  Fe77  1  0.15640745  0.31502542  0.52217726  1
  Fe  Fe78  1  0.79461658  0.18972436  0.26726270  1
  Fe  Fe79  1  0.57072882  0.42834353  0.69021367  1
  Fe  Fe80  1  0.44662742  0.31302588  0.82436659  1
  Fe  Fe81  1  0.51453104  0.38278331  0.11547676  1
  Fe  Fe82  1  0.93599037  0.46706904  0.75485682  1
  Fe  Fe83  1  0.02902882  0.58493378  0.36022708  1
  Fe  Fe84  1  0.28819759  0.82806866  0.20081334  1
  Fe  Fe85  1  0.23155746  0.90773545  0.31188216  1
  Fe  Fe86  1  0.73086419  0.06882921  0.18008032  1
  Fe  Fe87  1  0.45000930  0.33845195  0.69546218  1
  Fe  Fe88  1  0.03915751  0.55004790  0.73564169  1
  Fe  Fe89  1  0.15303124  0.34333416  0.39673886  1
  Fe  Fe90  1  0.51211190  0.21083335  0.72398372  1
  Fe  Fe91  1  0.93531871  0.93940598  0.85000402  1
  Fe  Fe92  1  0.23600671  0.19125670  0.52562366  1
  Fe  Fe93  1  0.88647692  0.59421192  0.73072248  1
  Fe  Fe94  1  0.36363087  0.89409826  0.31023283  1
  Fe  Fe95  1  0.61406369  0.65750170  0.14177281  1
  Fe  Fe96  1  0.58851291  0.29594349  0.63817549  1
  Fe  Fe97  1  0.82579404  0.31552985  0.34731482  1
  Fe  Fe98  1  0.83123673  0.93972429  0.29015829  1
  Fe  Fe99  1  0.63061981  0.49032274  0.79274802  1
  Fe  Fe100  1  0.79093637  0.33702030  0.23195715  1
  Fe  Fe101  1  0.96024683  0.54269086  0.62377522  1
  Bi  Bi102  1  -0.10536626  0.83323404  0.70942679  1
  Bi  Bi103  1  0.16515785  0.03493973  0.42303393  1
  Bi  Bi104  1  0.60444503  0.10328905  0.61059226  1
  Bi  Bi105  1  0.03768143  0.68165539  0.51033626  1
  Bi  Bi106  1  0.88304987  0.09890484  0.38100723  1
  Bi  Bi107  1  0.30417457  0.33833141  0.60060191  1
  Bi  Bi108  1  0.25018831  0.26923519  0.26536947  1
  Bi  Bi109  1  0.44521343  0.48737922  0.79734419  1
  Bi  Bi110  1  0.63981257  0.57380907  0.64039965  1
  Bi  Bi111  1  0.04719003  0.39309689  0.63875145  1
  Bi  Bi112  1  0.10252869  0.06950388  0.68821160  1
  Bi  Bi113  1  0.83043073  0.17000686  0.68466735  1
  Bi  Bi114  1  0.55411341  0.34058178  -0.04360483  1
  Bi  Bi115  1  0.34766172  0.61756172  0.40069275  1
  Bi  Bi116  1  0.79444845  0.51389866  0.85137633  1
  Bi  Bi117  1  0.64246662  0.83123812  0.61926131  1
  Bi  Bi118  1  0.08625295  0.37141241  0.11808065  1
  Bi  Bi119  1  0.33343695  0.04636614  0.55828177  1
  Bi  Bi120  1  0.44479892  0.09897374  0.08823316  1
  Bi  Bi121  1  0.89879594  0.82110855  0.38901283  1
  Bi  Bi122  1  0.28873318  0.64960081  0.14943060  1
  Bi  Bi123  1  0.39805504  0.92452631  0.88012783  1
  Bi  Bi124  1  0.15890321  0.31111327  0.90786862  1
  Bi  Bi125  1  0.10773221  0.88100533  0.88680468  1
  Bi  Bi126  1  0.33713507  0.67156408  0.65613602  1
  Bi  Bi127  1  0.58588708  0.68346853  0.98157571  1
