# generated using pymatgen
data_Ba51Fe51Bi26
_symmetry_space_group_name_H-M   'P 1'
_cell_length_a   16.17672922
_cell_length_b   16.51023877
_cell_length_c   16.54087554
_cell_angle_alpha   93.00703027
_cell_angle_beta   89.43957679
_cell_angle_gamma   85.82145379
_symmetry_Int_Tables_number   1
_chemical_formula_structural   Ba51Fe51Bi26
_chemical_formula_sum   'Ba51 Fe51 Bi26'
_cell_volume   4399.54429974
_cell_formula_units_Z   1
loop_
 _symmetry_equiv_pos_site_id
 _symmetry_equiv_pos_as_xyz
  1  'x, y, z'
loop_
 _atom_site_type_symbol
 _atom_site_label
 _atom_site_symmetry_multiplicity
 _atom_site_fract_x
 _atom_site_fract_y
 _atom_site_fract_z
 _atom_site_occupancy
  Ba  Ba0  1  0.26489322  0.83783164  -0.05195435  1
  Ba  Ba1  1  0.59211217  0.78016050  0.78191550  1
  Ba  Ba2  1  0.40601525  0.24564044  -0.02974520  1
  Ba  Ba3  1  0.68363212  0.59817554  -0.07820772  1
  Ba  Ba4  1  0.52139256  0.29434387  0.48026338  1
  Ba  Ba5  1  0.77643173  0.38760934  0.78888442  1
  Ba  Ba6  1  0.49906280  0.46988258  0.28710832  1
  Ba  Ba7  1  0.35898361  0.14378134  0.75293704  1
  Ba  Ba8  1  0.81898621  0.95477521  0.77288786  1
  Ba  Ba9  1  0.84093776  0.51678948  0.53879810  1
  Ba  Ba10  1  0.56601034  0.25578415  0.72155676  1
  Ba  Ba11  1  0.10121953  0.12962964  0.57994730  1
  Ba  Ba12  1  0.82496419  0.42475572  0.20348497  1
  Ba  Ba13  1  -0.05419690  0.62385267  -0.04353397  1
  Ba  Ba14  1  0.30868872  0.73150218  0.72835670  1
  Ba  Ba15  1  0.65854849  0.00268278  0.53002015  1
  Ba  Ba16  1  0.14600071  0.28477233  0.02656351  1
  Ba  Ba17  1  0.18722343  0.79058263  0.38657505  1
  Ba  Ba18  1  0.07831194  0.40225797  0.39561861  1
  Ba  Ba19  1  0.41815136  0.70824846  0.52009144  1
  Ba  Ba20  1  0.26528520  0.49829393  0.51870320  1
  Ba  Ba21  1  -0.14083947  -0.04317987  0.23549663  1
  Ba  Ba22  1  0.02810174  0.40726303  0.65424789  1
  Ba  Ba23  1  0.25942058  0.62730499  0.02950960  1
  Ba  Ba24  1  0.36628312  -0.02326154  0.26648318  1
  Ba  Ba25  1  -0.02280950  -0.03439975  0.45378425  1
  Ba  Ba26  1  0.25423966  0.45327771  0.16658646  1
  Ba  Ba27  1  0.72557769  0.65549770  0.31469980  1
  Ba  Ba28  1  0.77888005  0.77423224  0.07097981  1
  Ba  Ba29  1  0.83480203  0.17451061  0.63819059  1
  Ba  Ba30  1  0.18228210  0.19900403  0.25772325  1
  Ba  Ba31  1  0.19277284  -0.02730918  0.72715469  1
  Ba  Ba32  1  0.44240588  -0.03495458  0.02181937  1
  Ba  Ba33  1  0.16197507  0.28318026  0.79105645  1
  Ba  Ba34  1  0.68755280  0.15287825  0.26554203  1
  Ba  Ba35  1  0.57512844  0.03866142  0.84333682  1
  Ba  Ba36  1  0.65705648  0.30972538  0.03774069  1
  Ba  Ba37  1  0.76810956  0.03463553  0.00014670  1
  Ba  Ba38  1  0.44287382  0.21964428  0.22341092  1
  Ba  Ba39  1  -0.07719472  0.26217557  -0.05573312  1
  Ba  Ba40  1  0.82567291  0.29721882  0.42628472  1
  Ba  Ba41  1  0.02620486  0.78811153  0.70003884  1
  Ba  Ba42  1  0.00123085  -0.14539335  -0.02877356  1
  Ba  Ba43  1  0.13511134  -0.02812758  0.15059787  1
  Ba  Ba44  1  -0.03008614  0.67170535  0.37985872  1
  Ba  Ba45  1  0.61436099  -0.09781760  0.28868213  1
  Ba  Ba46  1  0.51037923  0.73161191  0.10176551  1
  Ba  Ba47  1  0.50389314  0.51648892  0.72209952  1
  Ba  Ba48  1  0.29916090  0.20352454  0.48859374  1
  Ba  Ba49  1  -0.05612275  0.14962349  0.13743639  1
  Ba  Ba50  1  0.78104498  0.75049916  0.59366560  1
  Fe  Fe51  1  0.90020781  0.12824036  0.34010047  1
  Fe  Fe52  1  0.09514986  0.66616301  0.22038372  1
  Fe  Fe53  1  1.07089568  0.11804247  -0.15280210  1
  Fe  Fe54  1  0.46447157  -0.00320222  0.65464226  1
  Fe  Fe55  1  -0.01516081  0.05264395  -0.05398656  1
  Fe  Fe56  1  0.14016869  0.99954944  0.91928811  1
  Fe  Fe57  1  0.35718363  0.01112592  0.45837810  1
  Fe  Fe58  1  0.91283175  0.10417622  0.83182873  1
  Fe  Fe59  1  0.32127751  0.04253902  0.59494524  1
  Fe  Fe60  1  0.37039917  0.65054371  0.21280641  1
  Fe  Fe61  1  0.24104970  0.44342473  0.75714796  1
  Fe  Fe62  1  0.61089263  0.61480067  0.46547349  1
  Fe  Fe63  1  0.43236136  0.55461305  0.10911077  1
  Fe  Fe64  1  0.97268074  0.23421916  0.30633324  1
  Fe  Fe65  1  0.33953684  0.63371993  0.33744262  1
  Fe  Fe66  1  0.09885549  0.10643531  0.99851588  1
  Fe  Fe67  1  0.47398894  0.43310903  0.05473293  1
  Fe  Fe68  1  0.12754665  0.75516469  0.12355106  1
  Fe  Fe69  1  0.99429484  1.05511488  0.72243480  1
  Fe  Fe70  1  0.34444499  0.87510990  0.44251046  1
  Fe  Fe71  1  0.64145843  0.54247831  0.56986666  1
  Fe  Fe72  1  0.40168648  0.50974573  0.94249182  1
  Fe  Fe73  1  0.23895953  0.96168860  0.52042506  1
  Fe  Fe74  1  0.51369888  0.87186925  0.62258828  1
  Fe  Fe75  1  0.99076442  0.18587091  0.75139649  1
  Fe  Fe76  1  0.14223865  0.51769673  0.85087444  1
  Fe  Fe77  1  1.02868926  0.57810879  0.76542937  1
  Fe  Fe78  1  0.17063745  0.57684763  0.72025766  1
  Fe  Fe79  1  0.45118832  0.07118191  0.54974217  1
  Fe  Fe80  1  0.30942135  0.53106463  0.70084729  1
  Fe  Fe81  1  0.36632470  0.90921520  0.59045979  1
  Fe  Fe82  1  0.36760162  0.77362247  0.31425864  1
  Fe  Fe83  1  0.02775936  0.08560195  0.30417089  1
  Fe  Fe84  1  0.46716111  0.83982520  0.38257906  1
  Fe  Fe85  1  1.05614416  0.52679650  0.21197864  1
  Fe  Fe86  1  0.63201923  0.86262069  0.96185200  1
  Fe  Fe87  1  0.65572612  0.46993800  0.45391412  1
  Fe  Fe88  1  0.29498862  1.02155645  0.89514076  1
  Fe  Fe89  1  0.24443360  0.06105141  0.01624917  1
  Fe  Fe90  1  0.88069976  0.54842898  0.78221218  1
  Fe  Fe91  1  0.91025628  0.63338368  0.69684977  1
  Fe  Fe92  1  1.07820802  0.60213563  0.09242568  1
  Fe  Fe93  1  0.29023404  0.56185926  0.83783988  1
  Fe  Fe94  1  0.02799940  0.17449319  0.41048807  1
  Fe  Fe95  1  0.10657343  0.48718848  -0.01019667  1
  Fe  Fe96  1  1.01695256  0.98252451  0.83139119  1
  Fe  Fe97  1  0.21142943  0.13181718  0.90066709  1
  Fe  Fe98  1  0.47953262  -0.06657370  0.49578046  1
  Fe  Fe99  1  0.99665229  0.73355617  0.12435119  1
  Fe  Fe100  1  0.51824900  0.54898761  0.99231997  1
  Fe  Fe101  1  1.01411125  0.46924673  0.08590670  1
  Bi  Bi102  1  0.26541584  0.41865943  0.93255364  1
  Bi  Bi103  1  0.17578347  0.03049520  0.38272891  1
  Bi  Bi104  1  0.43831374  0.66829141  -0.10297978  1
  Bi  Bi105  1  0.04563353  0.59928697  0.58500145  1
  Bi  Bi106  1  0.48932565  0.50607869  0.50150755  1
  Bi  Bi107  1  0.29302705  0.80313323  0.16280812  1
  Bi  Bi108  1  0.50666781  0.08898442  0.39069208  1
  Bi  Bi109  1  0.02784008  0.34847926  0.19759189  1
  Bi  Bi110  1  -0.00424444  0.43457388  -0.13596019  1
  Bi  Bi111  1  0.40539518  -0.07936821  0.79035875  1
  Bi  Bi112  1  -0.09643951  0.60951015  0.17190124  1
  Bi  Bi113  1  0.51200835  0.68074651  0.31422247  1
  Bi  Bi114  1  0.72103046  0.58796972  0.71179885  1
  Bi  Bi115  1  0.02961965  0.83055746  0.25653443  1
  Bi  Bi116  1  0.80236473  0.84854821  0.40215464  1
  Bi  Bi117  1  0.13486042  0.68953800  0.85489750  1
  Bi  Bi118  1  0.35910418  0.34610048  0.66318918  1
  Bi  Bi119  1  0.31633322  0.35117584  0.34774466  1
  Bi  Bi120  1  0.17771902  0.57771067  0.33480972  1
  Bi  Bi121  1  0.69567272  0.36523420  0.58857517  1
  Bi  Bi122  1  0.54551973  0.40340651  0.89084292  1
  Bi  Bi123  1  0.83853939  0.74684043  0.81946726  1
  Bi  Bi124  1  0.62462267  0.52430351  0.12178460  1
  Bi  Bi125  1  0.60338775  0.79751964  0.48493625  1
  Bi  Bi126  1  0.74487309  0.17399406  0.83938039  1
  Bi  Bi127  1  0.57262690  0.12118512  0.07336634  1
