# generated using pymatgen
data_Ba51Fe51Bi26
_symmetry_space_group_name_H-M   'P 1'
_cell_length_a   16.76324072
_cell_length_b   16.22177620
_cell_length_c   16.11868485
_cell_angle_alpha   88.58320127
_cell_angle_beta   87.92298230
_cell_angle_gamma   90.89462576
_symmetry_Int_Tables_number   1
_chemical_formula_structural   Ba51Fe51Bi26
_chemical_formula_sum   'Ba51 Fe51 Bi26'
_cell_volume   4378.32977966
_cell_formula_units_Z   1
loop_
 _symmetry_equiv_pos_site_id
 _symmetry_equiv_pos_as_xyz
  1  'x, y, z'
loop_
 _atom_site_type_symbol
 _atom_site_label
 _atom_site_symmetry_multiplicity
 _atom_site_fract_x
 _atom_site_fract_y
 _atom_site_fract_z
 _atom_site_occupancy
  Ba  Ba0  1  0.40621179  0.16543469  0.58903378  1
  Ba  Ba1  1  0.22033028  -0.01572813  0.40966508  1
  Ba  Ba2  1  0.73874536  -0.05286421  0.01446599  1
  Ba  Ba3  1  0.65523908  0.75190563  0.45445636  1
  Ba  Ba4  1  -0.04618840  0.74685813  0.74178877  1
  Ba  Ba5  1  0.08983400  0.79501159  0.31326754  1
  Ba  Ba6  1  0.26058088  0.00837479  0.73391263  1
  Ba  Ba7  1  0.05258903  0.69311617  -0.01282828  1
  Ba  Ba8  1  -0.11125792  0.80465422  0.48386835  1
  Ba  Ba9  1  0.07075378  0.46525648  -0.14403542  1
  Ba  Ba10  1  0.54203989  0.00256872  0.79134837  1
  Ba  Ba11  1  0.04960517  0.21524876  -0.00955700  1
  Ba  Ba12  1  0.11906513  0.35388716  0.26475647  1
  Ba  Ba13  1  0.48988295  0.50388832  0.25458945  1
  Ba  Ba14  1  0.25577634  0.25954505  0.05614448  1
  Ba  Ba15  1  -0.02521137  0.53252386  0.64449912  1
  Ba  Ba16  1  0.85412203  0.29790956  0.81513151  1
  Ba  Ba17  1  0.23545146  0.77832166  0.59314878  1
  Ba  Ba18  1  0.71220743  0.60781424  0.24807941  1
  Ba  Ba19  1  -0.12393505  0.52121761  0.41114581  1
  Ba  Ba20  1  0.50329714  0.83890726  -0.00044815  1
  Ba  Ba21  1  0.73294581  0.50836124  0.76361628  1
  Ba  Ba22  1  0.22819018  0.51806408  0.58471571  1
  Ba  Ba23  1  0.48575434  -0.04343588  0.39719413  1
  Ba  Ba24  1  0.69890081  0.29972161  0.25552826  1
  Ba  Ba25  1  -0.01814177  0.04829630  0.22350150  1
  Ba  Ba26  1  0.36261098  0.20255649  0.83343806  1
  Ba  Ba27  1  0.04457407  -0.02976579  0.65026304  1
  Ba  Ba28  1  0.42449867  0.40807488  0.51827052  1
  Ba  Ba29  1  0.28271804  0.23265291  0.40120961  1
  Ba  Ba30  1  0.75920228  0.69147253  -0.00785364  1
  Ba  Ba31  1  0.04865924  0.58039599  0.21903319  1
  Ba  Ba32  1  0.37384041  0.76470743  0.77026215  1
  Ba  Ba33  1  0.28729636  0.66054615  0.38421278  1
  Ba  Ba34  1  0.29529970  0.46227894  0.88244801  1
  Ba  Ba35  1  0.74266990  0.00102633  0.30044878  1
  Ba  Ba36  1  0.59174616  0.27048598  0.79513377  1
  Ba  Ba37  1  0.47940701  0.54578916  0.74892906  1
  Ba  Ba38  1  0.26995469  0.86027036  0.02447187  1
  Ba  Ba39  1  0.82465433  0.18712339  0.07276400  1
  Ba  Ba40  1  0.02060755  -0.03176102  -0.08007766  1
  Ba  Ba41  1  0.66126573  0.48460461  0.52699000  1
  Ba  Ba42  1  0.68491563  0.21896696  0.49274019  1
  Ba  Ba43  1  0.89622369  0.44752190  0.08050445  1
  Ba  Ba44  1  0.59696701  0.41836276  0.01603210  1
  Ba  Ba45  1  -0.07638195  0.14848968  0.54331578  1
  Ba  Ba46  1  0.71493813  -0.02260338  0.58389339  1
  Ba  Ba47  1  0.42696895  0.28599197  0.22519684  1
  Ba  Ba48  1  0.67640986  0.76982986  0.74283347  1
  Ba  Ba49  1  0.05607648  0.34425416  0.50468253  1
  Ba  Ba50  1  0.38313170  0.05571706  0.14982102  1
  Fe  Fe51  1  0.57556589  0.08609404  1.02894761  1
  Fe  Fe52  1  0.07652172  0.84062403  0.50667249  1
  Fe  Fe53  1  0.42010342  0.67216065  0.93838692  1
  Fe  Fe54  1  0.91356410  0.35437776  0.29301429  1
  Fe  Fe55  1  0.46279801  0.55128032  0.97339196  1
  Fe  Fe56  1  0.10015188  0.22885172  0.67566305  1
  Fe  Fe57  1  0.16095205  0.03959012  0.10237088  1
  Fe  Fe58  1  0.22716342  0.29810591  0.59080683  1
  Fe  Fe59  1  0.54812595  0.64344323  0.90659332  1
  Fe  Fe60  1  0.89740749  0.84012208  0.28077886  1
  Fe  Fe61  1  0.86025343  0.95079722  0.71218677  1
  Fe  Fe62  1  0.59280563  0.82279727  0.28279872  1
  Fe  Fe63  1  0.08056763  0.14083922  0.39439631  1
  Fe  Fe64  1  0.57457750  0.21026827  0.13332583  1
  Fe  Fe65  1  0.76104797  0.21840653  0.66812521  1
  Fe  Fe66  1  0.94513422  0.78653137  0.16428676  1
  Fe  Fe67  1  0.98587252  0.22885300  0.35555558  1
  Fe  Fe68  1  0.85167495  0.03872139  0.84607069  1
  Fe  Fe69  1  0.88734914  0.70671339  0.28891672  1
  Fe  Fe70  1  0.53541376  0.69014234  0.25027429  1
  Fe  Fe71  1  0.51593988  0.68562087  0.60209327  1
  Fe  Fe72  1  0.19578393  0.29610014  0.80944268  1
  Fe  Fe73  1  0.43912642  0.75713935  0.49866651  1
  Fe  Fe74  1  0.36669154  0.98846862  0.90194846  1
  Fe  Fe75  1  0.85073592  0.20668493  0.31646234  1
  Fe  Fe76  1  0.64616316  0.20952418  1.01850111  1
  Fe  Fe77  1  0.23324551  0.20757291  0.69821471  1
  Fe  Fe78  1  0.39758490  0.64629103  0.57765625  1
  Fe  Fe79  1  0.23796577  0.54404757  0.08862611  1
  Fe  Fe80  1  0.29440396  0.34695486  0.69403035  1
  Fe  Fe81  1  0.45816923  0.76167550  0.34307254  1
  Fe  Fe82  1  0.15103819  0.36232856  0.69680757  1
  Fe  Fe83  1  1.06347987  0.28012803  0.79545293  1
  Fe  Fe84  1  0.88260622  0.66884317  0.15753838  1
  Fe  Fe85  1  0.47131227  0.82293018  0.20365923  1
  Fe  Fe86  1  0.60925114  0.77999852  0.15508000  1
  Fe  Fe87  1  0.83491274  0.89547094  0.83132967  1
  Fe  Fe88  1  0.45189947  0.06043897  0.95934348  1
  Fe  Fe89  1  0.73490859  0.98732237  0.78567387  1
  Fe  Fe90  1  0.19600291  -0.03939401  0.20163344  1
  Fe  Fe91  1  0.93735038  0.25042473  0.21733686  1
  Fe  Fe92  1  0.14188756  0.15926722  0.81316429  1
  Fe  Fe93  1  0.57427856  0.11908455  0.23973778  1
  Fe  Fe94  1  0.66549158  0.10325026  0.13806579  1
  Fe  Fe95  1  0.06126022  0.71333982  0.52503138  1
  Fe  Fe96  1  0.36884286  0.62451186  0.07568793  1
  Fe  Fe97  1  0.86558500  0.30064812  0.41273793  1
  Fe  Fe98  1  0.69348462  0.11616037  0.71939597  1
  Fe  Fe99  1  0.31168829  0.55616362  0.20347632  1
  Fe  Fe100  1  0.39722011  0.69524148  0.20502477  1
  Fe  Fe101  1  0.82828727  0.09634270  0.71467552  1
  Bi  Bi102  1  0.16481309  0.13573638  0.55301633  1
  Bi  Bi103  1  0.22421961  0.69324769  0.16830342  1
  Bi  Bi104  1  0.25863544  0.65547569  -0.05134480  1
  Bi  Bi105  1  0.57307686  -0.03971834  0.17287746  1
  Bi  Bi106  1  0.50201878  0.60553495  0.44228225  1
  Bi  Bi107  1  0.71435291  0.12726805  0.88928209  1
  Bi  Bi108  1  0.56631236  0.63278126  0.08049560  1
  Bi  Bi109  1  0.76948915  0.80815021  0.18712123  1
  Bi  Bi110  1  0.29819277  0.44428955  0.34661296  1
  Bi  Bi111  1  0.47614150  0.23235290  0.00125624  1
  Bi  Bi112  1  -0.01833787  0.13317632  0.77670028  1
  Bi  Bi113  1  0.18159263  0.13518273  0.24142786  1
  Bi  Bi114  1  0.22114985  0.07214533  -0.05708751  1
  Bi  Bi115  1  0.07806901  0.56827212  0.43948465  1
  Bi  Bi116  1  0.83480284  0.35800965  0.58239413  1
  Bi  Bi117  1  0.14732155  0.83421292  0.80185348  1
  Bi  Bi118  1  0.11104937  0.43216043  0.06119480  1
  Bi  Bi119  1  0.52688906  0.85902461  0.61101886  1
  Bi  Bi120  1  0.00874341  0.97847506  0.42683926  1
  Bi  Bi121  1  0.15778742  0.64019862  0.75343261  1
  Bi  Bi122  1  0.89171894  0.56575608  0.87928726  1
  Bi  Bi123  1  0.37733361  0.44392780  0.08191139  1
  Bi  Bi124  1  0.07364077  0.88816429  0.11152297  1
  Bi  Bi125  1  0.79115715  0.64219800  0.59570424  1
  Bi  Bi126  1  0.32247442  0.86191196  0.26630745  1
  Bi  Bi127  1  0.50866354  0.17891626  0.39002269  1
