# generated using pymatgen
data_Ba51Fe51Bi26
_symmetry_space_group_name_H-M   'P 1'
_cell_length_a   16.58006247
_cell_length_b   16.48244469
_cell_length_c   16.08354771
_cell_angle_alpha   88.29177853
_cell_angle_beta   88.48520750
_cell_angle_gamma   91.06463328
_symmetry_Int_Tables_number   1
_chemical_formula_structural   Ba51Fe51Bi26
_chemical_formula_sum   'Ba51 Fe51 Bi26'
_cell_volume   4390.99753753
_cell_formula_units_Z   1
loop_
 _symmetry_equiv_pos_site_id
 _symmetry_equiv_pos_as_xyz
  1  'x, y, z'
loop_
 _atom_site_type_symbol
 _atom_site_label
 _atom_site_symmetry_multiplicity
 _atom_site_fract_x
 _atom_site_fract_y
 _atom_site_fract_z
 _atom_site_occupancy
  Ba  Ba0  1  -0.04044088  0.01472538  0.25180165  1
  Ba  Ba1  1  0.23314033  0.12900792  0.18960486  1
  Ba  Ba2  1  0.49383556  0.25397740  0.01289594  1
  Ba  Ba3  1  0.46151696  0.47725077  -0.13890912  1
  Ba  Ba4  1  -0.02395512  0.40736351  0.43455295  1
  Ba  Ba5  1  0.73360488  -0.06760766  0.33780552  1
  Ba  Ba6  1  0.08142778  0.52307410  0.08243173  1
  Ba  Ba7  1  0.05435623  0.72984860  0.52151023  1
  Ba  Ba8  1  0.40487330  0.67797805  0.22925116  1
  Ba  Ba9  1  0.74361884  0.71092056  0.39978756  1
  Ba  Ba10  1  0.46828577  0.74200779  0.48298687  1
  Ba  Ba11  1  0.74945733  0.24088404  0.02652861  1
  Ba  Ba12  1  -0.03339221  0.02114322  -0.06186690  1
  Ba  Ba13  1  0.29883397  0.05629939  0.65184007  1
  Ba  Ba14  1  0.48702417  0.81507882  0.75242977  1
  Ba  Ba15  1  -0.02478062  0.23994406  0.62893094  1
  Ba  Ba16  1  0.72364029  0.25826458  0.76413321  1
  Ba  Ba17  1  0.23600310  -0.12678729  -0.06039917  1
  Ba  Ba18  1  0.78583106  0.65213522  -0.03045408  1
  Ba  Ba19  1  0.72812132  -0.09080214  0.06597079  1
  Ba  Ba20  1  0.43841733  0.43067095  0.23052782  1
  Ba  Ba21  1  0.81129649  0.03554301  0.54374533  1
  Ba  Ba22  1  0.21888990  0.27105928  0.58234616  1
  Ba  Ba23  1  0.85760814  0.46369400  0.11971188  1
  Ba  Ba24  1  0.21946026  0.12079845  -0.06132471  1
  Ba  Ba25  1  0.71858831  0.25245482  0.47948209  1
  Ba  Ba26  1  0.04642182  0.71252559  0.80817662  1
  Ba  Ba27  1  -0.10852624  0.46048064  0.71333828  1
  Ba  Ba28  1  -0.00095184  0.30512635  -0.08632404  1
  Ba  Ba29  1  0.20820363  0.50708054  0.81353017  1
  Ba  Ba30  1  0.31947711  0.51692158  0.04699524  1
  Ba  Ba31  1  0.45180919  0.07975191  0.84513403  1
  Ba  Ba32  1  0.65789996  0.55374635  0.23486149  1
  Ba  Ba33  1  0.47613960  0.31099469  0.50445730  1
  Ba  Ba34  1  0.27631862  0.28863502  0.33828777  1
  Ba  Ba35  1  0.25693114  0.56697262  0.57195032  1
  Ba  Ba36  1  0.55221545  0.67607849  0.03208184  1
  Ba  Ba37  1  -0.03592750  -0.09149498  0.67244355  1
  Ba  Ba38  1  0.14791167  -0.02065093  0.40428276  1
  Ba  Ba39  1  0.50414937  0.17779607  0.25721910  1
  Ba  Ba40  1  0.80243073  0.69309560  0.71941664  1
  Ba  Ba41  1  -0.05079383  0.62806743  0.31779354  1
  Ba  Ba42  1  0.19946157  0.52335826  0.30491996  1
  Ba  Ba43  1  0.25092058  0.76626673  0.39506550  1
  Ba  Ba44  1  0.53051610  0.51710077  0.61903269  1
  Ba  Ba45  1  0.01139540  0.77090370  0.06539024  1
  Ba  Ba46  1  0.00877951  0.27746072  0.19231795  1
  Ba  Ba47  1  0.31258998  0.88634446  0.16009492  1
  Ba  Ba48  1  0.48241147  -0.04533978  0.31082191  1
  Ba  Ba49  1  0.52272718  0.02131443  0.55637009  1
  Ba  Ba50  1  0.71560288  -0.06148182  0.80621367  1
  Fe  Fe51  1  0.29498113  0.31213948  0.94498233  1
  Fe  Fe52  1  1.02307038  0.08911670  0.75482404  1
  Fe  Fe53  1  0.70273879  0.22543485  0.27775355  1
  Fe  Fe54  1  0.64018668  0.86178287  0.50251792  1
  Fe  Fe55  1  0.31020668  0.75019571  0.63241157  1
  Fe  Fe56  1  0.21212524  0.71611186  0.13357007  1
  Fe  Fe57  1  0.56703534  0.04770790  0.08469036  1
  Fe  Fe58  1  0.34958623  0.69223266  0.90077554  1
  Fe  Fe59  1  0.77187813  0.52870373  0.44837011  1
  Fe  Fe60  1  1.03641011  0.81108401  0.31090702  1
  Fe  Fe61  1  0.64368121  0.52334394  0.93514971  1
  Fe  Fe62  1  0.13810832  0.14492950  0.74804973  1
  Fe  Fe63  1  0.12600911  0.70869788  0.25176986  1
  Fe  Fe64  1  0.23108332  0.86582906  0.56753398  1
  Fe  Fe65  1  0.30757617  0.31756862  0.08995322  1
  Fe  Fe66  1  0.84802633  0.26135863  0.32044481  1
  Fe  Fe67  1  0.18324016  0.77010752  0.66698826  1
  Fe  Fe68  1  0.13142948  0.83471912  0.21141971  1
  Fe  Fe69  1  0.54069607  0.96276889  0.98572762  1
  Fe  Fe70  1  0.82864115  0.17132235  0.19908003  1
  Fe  Fe71  1  0.68902273  0.45663609  0.04534087  1
  Fe  Fe72  1  0.40407775  0.23287573  0.68966858  1
  Fe  Fe73  1  0.55750569  0.45033568  0.03562051  1
  Fe  Fe74  1  0.80652341  0.42342881  0.53160759  1
  Fe  Fe75  1  0.79408461  0.13164293  0.32883178  1
  Fe  Fe76  1  0.52183389  0.18975831  0.66390529  1
  Fe  Fe77  1  0.51397183  0.90922406  0.11011295  1
  Fe  Fe78  1  0.78967898  0.30465791  0.20722737  1
  Fe  Fe79  1  0.72814907  0.54670041  0.58239009  1
  Fe  Fe80  1  0.32456064  0.71557752  0.03908921  1
  Fe  Fe81  1  0.67326310  0.87814753  0.62798484  1
  Fe  Fe82  1  0.35314886  0.28520443  0.81439676  1
  Fe  Fe83  1  0.19915290  0.37238996  0.14018165  1
  Fe  Fe84  1  0.35834265  0.45668381  0.42515219  1
  Fe  Fe85  1  0.17748902  0.27029734  0.05463557  1
  Fe  Fe86  1  0.69579631  0.41282259  0.61131674  1
  Fe  Fe87  1  0.33855077  0.93083384  0.48896509  1
  Fe  Fe88  1  0.36388784  0.87591824  0.60943275  1
  Fe  Fe89  1  0.09363514  0.27554677  0.37790579  1
  Fe  Fe90  1  0.63968248  0.38761265  0.91676728  1
  Fe  Fe91  1  0.09144456  0.15674025  0.32377953  1
  Fe  Fe92  1  0.26536956  0.73020204  0.78726967  1
  Fe  Fe93  1  0.36396538  0.58137651  0.40200731  1
  Fe  Fe94  1  0.66512255  0.44739082  0.47473564  1
  Fe  Fe95  1  0.10848843  0.17112794  0.45861596  1
  Fe  Fe96  1  0.18662969  0.38345532  0.98678500  1
  Fe  Fe97  1  0.77279983  0.44455572  0.91855254  1
  Fe  Fe98  1  0.73500025  0.73063792  0.16768113  1
  Fe  Fe99  1  0.83469870  0.65628008  0.16654490  1
  Fe  Fe100  1  0.77308693  0.83737367  0.55023618  1
  Fe  Fe101  1  0.25995273  0.86504511  0.72312223  1
  Bi  Bi102  1  0.79116356  0.41535481  0.33524800  1
  Bi  Bi103  1  0.40453018  0.06210216  0.07535548  1
  Bi  Bi104  1  0.62706398  0.34679843  0.16988676  1
  Bi  Bi105  1  0.52409513  0.29005767  0.79634205  1
  Bi  Bi106  1  0.13273579  -0.02856629  0.79050464  1
  Bi  Bi107  1  0.92566193  0.87555796  0.44080316  1
  Bi  Bi108  1  0.38701322  0.63285028  0.73186873  1
  Bi  Bi109  1  0.52017208  0.52523608  0.40364120  1
  Bi  Bi110  1  -0.05775994  0.17333175  0.42017981  1
  Bi  Bi111  1  -0.12828973  0.81220761  0.22052178  1
  Bi  Bi112  1  0.18305638  0.29377238  0.81210897  1
  Bi  Bi113  1  0.18679476  0.66715862  -0.04060054  1
  Bi  Bi114  1  0.68901457  0.49425537  0.76940003  1
  Bi  Bi115  1  0.58901975  0.79119622  0.22577662  1
  Bi  Bi116  1  0.35527721  0.09660001  0.42719743  1
  Bi  Bi117  1  0.43565794  0.83215467  0.97048656  1
  Bi  Bi118  1  0.35565870  0.39682068  0.67692755  1
  Bi  Bi119  1  0.09517409  0.07049217  0.59675158  1
  Bi  Bi120  1  0.85965748  0.09367071  0.75396588  1
  Bi  Bi121  1  0.63700339  0.71302898  0.60028769  1
  Bi  Bi122  1  0.68392044  0.07990650  0.19543129  1
  Bi  Bi123  1  0.64320252  0.09130752  0.92967245  1
  Bi  Bi124  1  0.89416579  0.59070594  0.53679100  1
  Bi  Bi125  1  0.88273153  0.83071260  0.88502576  1
  Bi  Bi126  1  0.93880836  0.51757700  0.91250561  1
  Bi  Bi127  1  0.11546853  0.97009356  0.09794533  1
