# generated using pymatgen
data_Ba51Fe51Bi26
_symmetry_space_group_name_H-M   'P 1'
_cell_length_a   16.22545787
_cell_length_b   16.63734952
_cell_length_c   16.69202262
_cell_angle_alpha   90.63720585
_cell_angle_beta   89.69729096
_cell_angle_gamma   90.73293168
_symmetry_Int_Tables_number   1
_chemical_formula_structural   Ba51Fe51Bi26
_chemical_formula_sum   'Ba51 Fe51 Bi26'
_cell_volume   4505.28150786
_cell_formula_units_Z   1
loop_
 _symmetry_equiv_pos_site_id
 _symmetry_equiv_pos_as_xyz
  1  'x, y, z'
loop_
 _atom_site_type_symbol
 _atom_site_label
 _atom_site_symmetry_multiplicity
 _atom_site_fract_x
 _atom_site_fract_y
 _atom_site_fract_z
 _atom_site_occupancy
  Ba  Ba0  1  0.48681088  0.32558044  0.04851179  1
  Ba  Ba1  1  0.77085305  0.04185410  0.81206052  1
  Ba  Ba2  1  0.77179217  0.31819343  0.24869705  1
  Ba  Ba3  1  0.02626971  0.78298392  0.22824753  1
  Ba  Ba4  1  0.33877345  0.20217715  0.23978744  1
  Ba  Ba5  1  -0.08873476  0.25689439  0.45126194  1
  Ba  Ba6  1  0.72437211  -0.11463417  0.59077416  1
  Ba  Ba7  1  0.70747814  0.53998905  -0.07017721  1
  Ba  Ba8  1  0.02048762  0.20651414  -0.03216104  1
  Ba  Ba9  1  -0.03048161  0.02805984  0.58016693  1
  Ba  Ba10  1  0.22868859  -0.02329762  0.46407947  1
  Ba  Ba11  1  0.72678574  0.13304987  0.55925616  1
  Ba  Ba12  1  0.20925157  0.45243697  0.77114695  1
  Ba  Ba13  1  0.01231393  0.47626351  0.23409128  1
  Ba  Ba14  1  0.25717422  -0.04490314  -0.05391105  1
  Ba  Ba15  1  0.31987231  0.54465207  0.51805125  1
  Ba  Ba16  1  0.54225177  0.20110784  0.43765412  1
  Ba  Ba17  1  0.44540932  0.71474974  0.73913181  1
  Ba  Ba18  1  0.72606207  0.05382295  0.12217514  1
  Ba  Ba19  1  0.79625906  0.29746814  -0.02093440  1
  Ba  Ba20  1  0.32287092  0.73012413  0.16536368  1
  Ba  Ba21  1  0.21550803  0.73394580  0.41433824  1
  Ba  Ba22  1  0.51860405  0.74917152  -0.00055141  1
  Ba  Ba23  1  0.02147490  0.01106517  0.81963147  1
  Ba  Ba24  1  0.46249343  -0.00769173  0.08922306  1
  Ba  Ba25  1  0.51878851  0.23827012  0.82140146  1
  Ba  Ba26  1  0.77433462  0.31683494  0.69597003  1
  Ba  Ba27  1  0.28439882  0.53125688  0.03124277  1
  Ba  Ba28  1  0.05963820  0.33673681  0.61480660  1
  Ba  Ba29  1  0.71943192  0.77176379  0.79028571  1
  Ba  Ba30  1  0.21070624  0.31490625  0.05787924  1
  Ba  Ba31  1  -0.03445585  0.50846195  -0.00899391  1
  Ba  Ba32  1  0.77455113  0.78692361  0.03605509  1
  Ba  Ba33  1  -0.01601546  0.80686669  0.47575886  1
  Ba  Ba34  1  0.53028572  0.39746186  0.27203574  1
  Ba  Ba35  1  0.78778191  0.67497457  0.48227090  1
  Ba  Ba36  1  0.71845089  0.72331008  0.26340547  1
  Ba  Ba37  1  0.48165303  -0.04253609  0.51580769  1
  Ba  Ba38  1  0.07724953  0.24330370  0.25480647  1
  Ba  Ba39  1  0.02191057  0.81747169  -0.01968327  1
  Ba  Ba40  1  -0.03097705  0.53395072  0.73720095  1
  Ba  Ba41  1  0.63713384  0.50156879  0.70341160  1
  Ba  Ba42  1  0.29952043  -0.06286720  0.71553070  1
  Ba  Ba43  1  0.14436194  0.69790709  0.63754535  1
  Ba  Ba44  1  0.49382996  0.72851283  0.42992851  1
  Ba  Ba45  1  0.63570036  0.52059178  0.43453002  1
  Ba  Ba46  1  0.28640269  0.29063164  0.47976218  1
  Ba  Ba47  1  0.06321335  0.02030893  0.10658125  1
  Ba  Ba48  1  0.26253162  0.18603306  0.79181430  1
  Ba  Ba49  1  0.20410327  0.69245743  -0.12411689  1
  Ba  Ba50  1  -0.05771413  0.03413168  0.31784028  1
  Fe  Fe51  1  0.20976100  0.89935747  0.26166317  1
  Fe  Fe52  1  0.11903046  0.52536130  0.50904693  1
  Fe  Fe53  1  0.62882441  0.60085561  0.11295617  1
  Fe  Fe54  1  0.49749800  0.45088792  0.86398296  1
  Fe  Fe55  1  0.22358746  0.37994616  0.29242081  1
  Fe  Fe56  1  0.07165077  0.25853721  0.79297483  1
  Fe  Fe57  1  0.26105996  0.04777274  0.13370277  1
  Fe  Fe58  1  0.02396650  0.84754123  0.68777310  1
  Fe  Fe59  1  0.36047560  0.11101386  0.42402119  1
  Fe  Fe60  1  0.79261950  -0.02385661  0.42902434  1
  Fe  Fe61  1  0.48940791  0.43631789  0.56133080  1
  Fe  Fe62  1  0.94421599  0.32395354  0.78966823  1
  Fe  Fe63  1  0.99511946  0.60488004  0.53294667  1
  Fe  Fe64  1  0.60288968  -0.04596905  0.30963749  1
  Fe  Fe65  1  0.67596754  0.86399671  0.40498908  1
  Fe  Fe66  1  0.51855139  0.14066103  0.64587273  1
  Fe  Fe67  1  0.39257021  0.51005028  0.19324467  1
  Fe  Fe68  1  0.41316405  0.06800982  0.87890641  1
  Fe  Fe69  1  0.09322505  0.83673982  0.80103695  1
  Fe  Fe70  1  0.04252559  0.15939593  0.70894054  1
  Fe  Fe71  1  0.34429582  0.44044902  0.32711537  1
  Fe  Fe72  1  0.93268268  0.18805866  0.80486089  1
  Fe  Fe73  1  0.60410334  1.06447598  0.70285843  1
  Fe  Fe74  1  0.24101960  0.91481193  0.13462951  1
  Fe  Fe75  1  0.74062053  0.93979423  0.29388216  1
  Fe  Fe76  1  0.65592245  -0.00287963  0.42411741  1
  Fe  Fe77  1  0.89414819  0.88581584  0.69671609  1
  Fe  Fe78  1  0.67220422  0.52113873  0.21213452  1
  Fe  Fe79  1  0.85080817  0.44858153  0.42039462  1
  Fe  Fe80  1  0.24149454  0.48847521  0.21516983  1
  Fe  Fe81  1  0.31636196  0.99173882  0.24184861  1
  Fe  Fe82  1  0.20597770  0.50838856  0.36606179  1
  Fe  Fe83  1  0.01653766  0.72997267  0.78421997  1
  Fe  Fe84  1  0.93050610  0.83287358  0.80970606  1
  Fe  Fe85  1  0.81307335  0.85506718  0.38762141  1
  Fe  Fe86  1  0.98055227  0.47352814  0.48456765  1
  Fe  Fe87  1  0.65625326  0.45659809  0.09337694  1
  Fe  Fe88  1  0.45358137  0.05647783  0.74186803  1
  Fe  Fe89  1  0.50525354  0.56242287  0.57569013  1
  Fe  Fe90  1  0.07406554  0.57974517  0.40071379  1
  Fe  Fe91  1  0.76804214  0.58754872  0.11442415  1
  Fe  Fe92  1  0.51719410  0.58198026  0.85869857  1
  Fe  Fe93  1  0.78982040  0.46200540  0.12718533  1
  Fe  Fe94  1  0.46478193  0.94814106  0.86452589  1
  Fe  Fe95  1  0.04397304  0.36870491  0.86497262  1
  Fe  Fe96  1  0.32921660  0.57367980  0.30109968  1
  Fe  Fe97  1  0.92629911  0.20744610  0.67805976  1
  Fe  Fe98  1  0.93001996  0.57366891  0.40955061  1
  Fe  Fe99  1  0.38865313  0.54294326  0.86910936  1
  Fe  Fe100  1  0.33720654  0.39007237  0.19400293  1
  Fe  Fe101  1  0.56135261  0.04335413  0.83770827  1
  Bi  Bi102  1  0.10205175  0.38530619  0.41169523  1
  Bi  Bi103  1  0.35633241  0.11747741  0.59448690  1
  Bi  Bi104  1  0.41693124  0.50351248  0.70788892  1
  Bi  Bi105  1  0.46301828  0.04611003  0.31173757  1
  Bi  Bi106  1  0.73502336  0.11175194  0.33530043  1
  Bi  Bi107  1  0.51844273  0.61243170  0.24730960  1
  Bi  Bi108  1  0.54733039  -0.09139005  0.72003654  1
  Bi  Bi109  1  0.83778855  0.48888591  0.57763862  1
  Bi  Bi110  1  0.15957728  0.62382708  0.25707476  1
  Bi  Bi111  1  0.81810565  0.54040704  0.28863851  1
  Bi  Bi112  1  -0.09347950  0.72336894  0.65133958  1
  Bi  Bi113  1  0.17085011  0.06002068  0.27906064  1
  Bi  Bi114  1  0.50416787  0.53352226  0.02054216  1
  Bi  Bi115  1  0.62264477  0.87415745  0.16693184  1
  Bi  Bi116  1  0.56805846  0.30195647  0.62424445  1
  Bi  Bi117  1  0.61538869  0.68731678  0.60587732  1
  Bi  Bi118  1  0.90264800  0.17832179  0.14061316  1
  Bi  Bi119  1  0.33781784  0.14684178  0.01125513  1
  Bi  Bi120  1  0.71836590  0.33601258  0.45859025  1
  Bi  Bi121  1  0.09914435  0.15674841  0.45862482  1
  Bi  Bi122  1  0.36470372  0.86260055  0.32457375  1
  Bi  Bi123  1  0.63211945  0.93125556  0.94273431  1
  Bi  Bi124  1  0.33708395  0.78642473  0.57416236  1
  Bi  Bi125  1  0.34801108  0.36680264  0.89343244  1
  Bi  Bi126  1  0.88840067  0.67534147  0.88682453  1
  Bi  Bi127  1  0.10788382  0.65164478  0.06936395  1
