# generated using pymatgen
data_Ba51Fe51Bi26
_symmetry_space_group_name_H-M   'P 1'
_cell_length_a   16.26201950
_cell_length_b   16.08176291
_cell_length_c   16.51037491
_cell_angle_alpha   86.87755146
_cell_angle_beta   89.29448053
_cell_angle_gamma   90.89652599
_symmetry_Int_Tables_number   1
_chemical_formula_structural   Ba51Fe51Bi26
_chemical_formula_sum   'Ba51 Fe51 Bi26'
_cell_volume   4310.51247071
_cell_formula_units_Z   1
loop_
 _symmetry_equiv_pos_site_id
 _symmetry_equiv_pos_as_xyz
  1  'x, y, z'
loop_
 _atom_site_type_symbol
 _atom_site_label
 _atom_site_symmetry_multiplicity
 _atom_site_fract_x
 _atom_site_fract_y
 _atom_site_fract_z
 _atom_site_occupancy
  Ba  Ba0  1  0.07004028  0.07453872  0.42978723  1
  Ba  Ba1  1  0.27278686  0.25995878  0.51100144  1
  Ba  Ba2  1  0.54989971  0.62323154  0.36903746  1
  Ba  Ba3  1  -0.13617405  0.59788598  0.54413901  1
  Ba  Ba4  1  0.02708650  0.53845797  0.70762885  1
  Ba  Ba5  1  -0.08658729  -0.02526001  0.76101476  1
  Ba  Ba6  1  0.04881719  -0.11980017  0.25580711  1
  Ba  Ba7  1  0.55048039  0.60261982  0.78782003  1
  Ba  Ba8  1  0.28823758  -0.06179616  0.79913775  1
  Ba  Ba9  1  -0.02389207  0.27703202  0.53849612  1
  Ba  Ba10  1  0.31549331  0.48460417  0.19810970  1
  Ba  Ba11  1  0.40461205  0.03589942  0.43060786  1
  Ba  Ba12  1  -0.10568952  0.85256196  0.49136117  1
  Ba  Ba13  1  0.84287042  0.78441858  -0.08579107  1
  Ba  Ba14  1  0.20017725  -0.04653330  0.05030749  1
  Ba  Ba15  1  0.20573103  0.60539636  -0.03582107  1
  Ba  Ba16  1  0.26710592  0.24495053  0.26392239  1
  Ba  Ba17  1  0.53014134  0.03099757  0.64839902  1
  Ba  Ba18  1  0.74361389  0.26876123  0.17349977  1
  Ba  Ba19  1  0.53619579  0.80227257  0.12049637  1
  Ba  Ba20  1  0.45388802  0.73604490  0.59889765  1
  Ba  Ba21  1  0.24199555  0.55693031  0.51157515  1
  Ba  Ba22  1  0.65694562  0.33849931  0.77144682  1
  Ba  Ba23  1  0.28493175  0.68253776  0.33759143  1
  Ba  Ba24  1  0.74377231  0.52295073  0.00973839  1
  Ba  Ba25  1  0.54693870  0.42927519  0.16771939  1
  Ba  Ba26  1  0.36959575  0.01858788  0.19287635  1
  Ba  Ba27  1  0.79591016  0.57747644  0.77973182  1
  Ba  Ba28  1  0.48031325  -0.01126216  -0.04551483  1
  Ba  Ba29  1  0.53468180  0.24232436  0.51899108  1
  Ba  Ba30  1  -0.11851566  0.05180079  0.23785298  1
  Ba  Ba31  1  0.26993302  0.52939081  0.74624149  1
  Ba  Ba32  1  0.52011098  0.21754032  0.28040664  1
  Ba  Ba33  1  -0.02087504  0.02681317  0.00414506  1
  Ba  Ba34  1  0.63909903  -0.15053312  0.47575908  1
  Ba  Ba35  1  0.23553366  0.23179153  0.75631702  1
  Ba  Ba36  1  0.77491947  0.51657590  0.27635499  1
  Ba  Ba37  1  -0.02216195  0.65132281  0.30092050  1
  Ba  Ba38  1  -0.01234726  0.27040843  0.04257836  1
  Ba  Ba39  1  0.24043744  0.20328332  0.01787090  1
  Ba  Ba40  1  0.04423341  0.32530114  0.26469532  1
  Ba  Ba41  1  0.45996312  0.45453924  0.58184638  1
  Ba  Ba42  1  0.05952262  0.74935474  0.04626729  1
  Ba  Ba43  1  0.63630862  -0.02462897  0.28220695  1
  Ba  Ba44  1  -0.00964097  0.26421752  0.79717815  1
  Ba  Ba45  1  0.73636487  -0.00795989  0.00070769  1
  Ba  Ba46  1  0.10038545  -0.10655497  0.63925502  1
  Ba  Ba47  1  0.71988222  0.40438158  0.50331831  1
  Ba  Ba48  1  0.44587914  0.60118802  0.00509289  1
  Ba  Ba49  1  0.79155569  0.16982343  0.67141827  1
  Ba  Ba50  1  0.46796194  0.22645504  0.86295472  1
  Fe  Fe51  1  0.42392651  0.33720518  1.01839922  1
  Fe  Fe52  1  0.22786877  0.78137821  0.53386958  1
  Fe  Fe53  1  0.65830215  0.76379979  0.81456759  1
  Fe  Fe54  1  0.68286269  0.78044471  0.24893128  1
  Fe  Fe55  1  0.16423866  0.64039858  0.18383023  1
  Fe  Fe56  1  0.86900851  0.82652491  0.13913594  1
  Fe  Fe57  1  0.34215021  0.81265186  0.18208668  1
  Fe  Fe58  1  0.69713139  0.72593901  0.66630087  1
  Fe  Fe59  1  1.08999762  0.52616235  0.15509816  1
  Fe  Fe60  1  0.68326557  0.25182139  0.38188388  1
  Fe  Fe61  1  0.73240164  0.75588372  0.09631677  1
  Fe  Fe62  1  0.10424340  0.05663947  0.82894384  1
  Fe  Fe63  1  0.30836676  0.86076453  0.42486658  1
  Fe  Fe64  1  0.41981731  0.28001865  0.67748403  1
  Fe  Fe65  1  0.65280573  0.72329270  0.97064758  1
  Fe  Fe66  1  0.10751104  0.40341195  0.45209352  1
  Fe  Fe67  1  0.04752308  0.51644484  0.48869790  1
  Fe  Fe68  1  0.55413583  0.26708293  0.05125659  1
  Fe  Fe69  1  0.41234435  0.28208169  0.13707805  1
  Fe  Fe70  1  0.94705241  0.45550083  0.95580624  1
  Fe  Fe71  1  0.25920722  0.86843564  0.28559072  1
  Fe  Fe72  1  0.38389378  0.16299013  0.65126592  1
  Fe  Fe73  1  0.19608427  0.74756878  0.78966469  1
  Fe  Fe74  1  0.67953773  0.09222898  0.52809482  1
  Fe  Fe75  1  0.74955283  0.14308011  0.33968952  1
  Fe  Fe76  1  1.06522045  0.72413582  0.78246304  1
  Fe  Fe77  1  0.21209424  -0.05903589  0.47954313  1
  Fe  Fe78  1  0.77229638  0.82026056  0.72496637  1
  Fe  Fe79  1  0.04406989  0.50032556  1.03242098  1
  Fe  Fe80  1  0.43827854  0.18235250  1.05679853  1
  Fe  Fe81  1  0.21637308  -0.02037415  0.34830334  1
  Fe  Fe82  1  0.62819663  0.85992314  0.91215600  1
  Fe  Fe83  1  0.20764780  0.78685894  0.17313153  1
  Fe  Fe84  1  0.27190403  0.75744199  0.67121068  1
  Fe  Fe85  1  0.68561536  0.29952198  -0.01806330  1
  Fe  Fe86  1  0.97108339  0.44893947  0.40600557  1
  Fe  Fe87  1  0.15903971  0.83863469  0.40889152  1
  Fe  Fe88  1  0.63687500  0.16952938  -0.02958669  1
  Fe  Fe89  1  0.75637087  0.19603006  0.88402847  1
  Fe  Fe90  1  0.53459244  0.76015894  0.91585554  1
  Fe  Fe91  1  0.63104848  0.11201883  0.40940318  1
  Fe  Fe92  1  0.76788730  0.04118754  0.44137078  1
  Fe  Fe93  1  0.76669178  0.19292912  0.47383214  1
  Fe  Fe94  1  0.79187159  0.19624289  0.00702613  1
  Fe  Fe95  1  0.63012867  0.84296042  0.67996628  1
  Fe  Fe96  1  0.68501197  0.92023539  0.78808414  1
  Fe  Fe97  1  0.74915409  0.87987499  0.16564533  1
  Fe  Fe98  1  0.28631053  0.68525324  0.13050956  1
  Fe  Fe99  1  0.14931533  0.69999208  0.65624324  1
  Fe  Fe100  1  0.80019229  0.72557342  0.22280157  1
  Fe  Fe101  1  0.81936323  0.84850423  0.28354334  1
  Bi  Bi102  1  0.07377668  0.70142499  0.49672291  1
  Bi  Bi103  1  0.13901269  0.51320785  0.32063263  1
  Bi  Bi104  1  -0.07843903  0.75091079  0.69385559  1
  Bi  Bi105  1  0.50344591  0.86237276  0.78461905  1
  Bi  Bi106  1  0.75093886  -0.03826234  0.61633489  1
  Bi  Bi107  1  -0.01368693  0.61263813  -0.09911171  1
  Bi  Bi108  1  0.87386449  0.65776725  0.10311466  1
  Bi  Bi109  1  0.57566508  0.09573990  0.11447922  1
  Bi  Bi110  1  0.84869504  0.30587533  0.36094171  1
  Bi  Bi111  1  0.35943440  0.70742129  0.81468098  1
  Bi  Bi112  1  0.34192116  0.80354567  0.01509393  1
  Bi  Bi113  1  0.76474227  0.70338269  0.38427513  1
  Bi  Bi114  1  0.82899883  0.35299347  -0.09690395  1
  Bi  Bi115  1  0.08116403  0.11142927  0.66857419  1
  Bi  Bi116  1  0.91452922  0.44709262  0.13342173  1
  Bi  Bi117  1  0.08469188  0.88652370  0.86895745  1
  Bi  Bi118  1  0.16907586  0.39099268  0.08266626  1
  Bi  Bi119  1  0.41899458  0.39996694  0.37910706  1
  Bi  Bi120  1  0.33053451  0.91199344  0.59414805  1
  Bi  Bi121  1  0.44715657  0.84042308  0.32301825  1
  Bi  Bi122  1  0.11294333  0.09380356  0.19871343  1
  Bi  Bi123  1  0.85365627  0.39467521  0.67006897  1
  Bi  Bi124  1  0.14753516  0.38808373  0.62160339  1
  Bi  Bi125  1  0.56035904  0.42246823  0.94446005  1
  Bi  Bi126  1  0.64009442  0.09177325  0.82001704  1
  Bi  Bi127  1  0.63256381  0.59245728  0.58295581  1
