# generated using pymatgen
data_Ba51Fe51Bi26
_symmetry_space_group_name_H-M   'P 1'
_cell_length_a   15.75855963
_cell_length_b   16.83946662
_cell_length_c   16.69370198
_cell_angle_alpha   88.49183373
_cell_angle_beta   90.88695787
_cell_angle_gamma   89.99482378
_symmetry_Int_Tables_number   1
_chemical_formula_structural   Ba51Fe51Bi26
_chemical_formula_sum   'Ba51 Fe51 Bi26'
_cell_volume   4427.87080875
_cell_formula_units_Z   1
loop_
 _symmetry_equiv_pos_site_id
 _symmetry_equiv_pos_as_xyz
  1  'x, y, z'
loop_
 _atom_site_type_symbol
 _atom_site_label
 _atom_site_symmetry_multiplicity
 _atom_site_fract_x
 _atom_site_fract_y
 _atom_site_fract_z
 _atom_site_occupancy
  Ba  Ba0  1  0.22533992  0.02901520  0.09431837  1
  Ba  Ba1  1  0.40816462  0.29214604  0.21447353  1
  Ba  Ba2  1  0.51761464  0.71242753  0.70000429  1
  Ba  Ba3  1  0.46175016  0.38633661  0.45305016  1
  Ba  Ba4  1  0.76569446  0.71099466  0.24081013  1
  Ba  Ba5  1  0.73894117  -0.03907110  0.71108116  1
  Ba  Ba6  1  0.73394577  0.75174469  -0.04374138  1
  Ba  Ba7  1  -0.02432424  0.06968928  0.53170176  1
  Ba  Ba8  1  -0.03639912  0.04190789  0.29430636  1
  Ba  Ba9  1  -0.00207770  0.26580136  0.83144063  1
  Ba  Ba10  1  0.39455794  0.00836296  0.27576545  1
  Ba  Ba11  1  0.18662882  0.31922437  0.05825106  1
  Ba  Ba12  1  0.78599669  0.50977136  0.71084179  1
  Ba  Ba13  1  -0.06667698  0.55403466  0.52774256  1
  Ba  Ba14  1  0.46377949  0.61485430  -0.04731295  1
  Ba  Ba15  1  0.80043408  0.41420377  0.36652964  1
  Ba  Ba16  1  0.51313792  0.43703742  0.69648518  1
  Ba  Ba17  1  0.57939422  0.42315552  0.08632439  1
  Ba  Ba18  1  0.28157825  0.51132831  0.78899551  1
  Ba  Ba19  1  0.79741978  0.87627663  0.41075652  1
  Ba  Ba20  1  0.49070563  -0.04363506  -0.01766218  1
  Ba  Ba21  1  0.28506683  0.78285660  0.03022023  1
  Ba  Ba22  1  0.76837412  0.12637041  0.15243847  1
  Ba  Ba23  1  0.79374595  0.51590858  -0.02248189  1
  Ba  Ba24  1  -0.02011873  0.06111823  0.02475018  1
  Ba  Ba25  1  0.10284054  0.25148634  0.61404556  1
  Ba  Ba26  1  0.04801219  0.02226280  0.79441281  1
  Ba  Ba27  1  0.03560165  0.77086949  0.20317781  1
  Ba  Ba28  1  0.21698996  -0.07434352  0.46382924  1
  Ba  Ba29  1  0.00057620  0.69330483  -0.01846468  1
  Ba  Ba30  1  0.40671162  0.19093835  -0.03419428  1
  Ba  Ba31  1  0.02933951  0.51754258  0.79362931  1
  Ba  Ba32  1  0.28683581  0.20103506  0.76717339  1
  Ba  Ba33  1  0.16788505  0.45460660  0.52707697  1
  Ba  Ba34  1  0.00794209  0.79182859  0.53820868  1
  Ba  Ba35  1  0.52215474  0.81856134  0.42530428  1
  Ba  Ba36  1  0.65328511  0.23401201  -0.00661792  1
  Ba  Ba37  1  0.49598824  0.77944005  0.16559676  1
  Ba  Ba38  1  -0.02469060  0.28432496  0.22262125  1
  Ba  Ba39  1  0.64424351  0.04726095  0.33847677  1
  Ba  Ba40  1  0.68153526  0.20666040  0.52768477  1
  Ba  Ba41  1  0.72580878  -0.00426362  -0.04179775  1
  Ba  Ba42  1  0.75720522  0.25965047  0.73773987  1
  Ba  Ba43  1  0.30179565  -0.07661111  0.77362570  1
  Ba  Ba44  1  -0.01053894  0.51552849  0.15630851  1
  Ba  Ba45  1  0.44443023  0.04320960  0.58150983  1
  Ba  Ba46  1  0.08643666  0.77317682  0.78277797  1
  Ba  Ba47  1  0.29595607  0.67007069  0.48417273  1
  Ba  Ba48  1  0.63507611  0.60085531  0.43662160  1
  Ba  Ba49  1  0.27586326  0.19284299  0.46349874  1
  Ba  Ba50  1  0.22309281  0.52973708  0.29794222  1
  Fe  Fe51  1  0.28500195  0.53965681  1.00823306  1
  Fe  Fe52  1  0.64895262  0.87127785  0.26225393  1
  Fe  Fe53  1  0.07893931  0.30322288  0.41992723  1
  Fe  Fe54  1  0.17883681  0.07453011  0.32714499  1
  Fe  Fe55  1  0.81280726  0.80967157  0.60291764  1
  Fe  Fe56  1  0.47478909  0.22030875  0.66395105  1
  Fe  Fe57  1  0.28756168  0.71311150  0.67631702  1
  Fe  Fe58  1  0.12659447  0.52536590  0.99389331  1
  Fe  Fe59  1  -0.05272447  0.37141714  0.64164953  1
  Fe  Fe60  1  0.58479186  0.20936087  0.24626538  1
  Fe  Fe61  1  0.58926677  0.10357629  0.83111641  1
  Fe  Fe62  1  0.34338258  0.79110527  0.31552403  1
  Fe  Fe63  1  0.58420163  0.14052004  0.69551718  1
  Fe  Fe64  1  0.18252695  0.62976986  0.09149204  1
  Fe  Fe65  1  0.47072754  0.58340318  0.13915481  1
  Fe  Fe66  1  0.46525067  0.11508598  0.77192404  1
  Fe  Fe67  1  0.68071089  0.38927135  0.86855582  1
  Fe  Fe68  1  0.96150102  0.22986282  0.42693786  1
  Fe  Fe69  1  0.83265905  0.36636656  0.56782839  1
  Fe  Fe70  1  0.90417036  0.70132770  0.38697047  1
  Fe  Fe71  1  0.25811031  0.70823295  0.21303651  1
  Fe  Fe72  1  0.83935635  0.19258202  0.93068658  1
  Fe  Fe73  1  0.72949026  0.66828917  0.60502985  1
  Fe  Fe74  1  0.69461255  0.86679859  0.11760170  1
  Fe  Fe75  1  0.69772996  0.29323855  0.23639457  1
  Fe  Fe76  1  0.97032407  0.35825323  0.49723714  1
  Fe  Fe77  1  0.56388500  0.57918223  0.24063898  1
  Fe  Fe78  1  0.68452569  0.78332986  0.56005504  1
  Fe  Fe79  1  0.20473546  0.77948945  0.32272451  1
  Fe  Fe80  1  0.59871529  0.82831087  0.84142817  1
  Fe  Fe81  1  0.32555423  0.60163004  0.14533675  1
  Fe  Fe82  1  0.81629733  0.33312218  0.91942822  1
  Fe  Fe83  1  0.80933694  0.70996170  0.49931268  1
  Fe  Fe84  1  0.20736810  0.50080939  0.11254255  1
  Fe  Fe85  1  0.54762452  0.40917323  0.89437450  1
  Fe  Fe86  1  0.94438255  0.60125790  0.32508160  1
  Fe  Fe87  1  0.09591828  0.18015181  0.36065034  1
  Fe  Fe88  1  0.43179403  0.49791845  0.23799924  1
  Fe  Fe89  1  0.25338128  0.16162825  0.26172613  1
  Fe  Fe90  1  0.12605245  0.15854520  0.21703403  1
  Fe  Fe91  1  0.47104175  0.80642312  0.86708951  1
  Fe  Fe92  1  0.76549123  0.92857602  0.21190380  1
  Fe  Fe93  1  0.19477238  0.62724712  0.94122338  1
  Fe  Fe94  1  0.28206732  0.84615647  0.21130563  1
  Fe  Fe95  1  0.86257625  0.69403197  0.64507958  1
  Fe  Fe96  1  0.61444678  0.95872874  0.16511465  1
  Fe  Fe97  1  0.89767697  0.26884805  0.01542448  1
  Fe  Fe98  1  0.63291342  0.27140927  0.35194093  1
  Fe  Fe99  1  0.90435831  0.25450582  0.55727610  1
  Fe  Fe100  1  0.20317873  0.78968087  0.61600641  1
  Fe  Fe101  1  0.36183477  0.46922681  0.11646394  1
  Bi  Bi102  1  -0.00746859  0.41210818  -0.02480164  1
  Bi  Bi103  1  0.52630931  -0.04160741  0.76974964  1
  Bi  Bi104  1  0.01773533  0.44994365  0.35937127  1
  Bi  Bi105  1  0.80471895  0.19981502  0.35011355  1
  Bi  Bi106  1  0.14942708  -0.06912059  0.26496127  1
  Bi  Bi107  1  0.42513418  0.64258437  0.31448088  1
  Bi  Bi108  1  0.48892898  0.18110349  0.39574582  1
  Bi  Bi109  1  0.31281961  0.71884451  0.83705300  1
  Bi  Bi110  1  0.38283694  0.40379326  -0.03877879  1
  Bi  Bi111  1  0.54486826  0.26583673  0.81167918  1
  Bi  Bi112  1  0.19416945  0.31222051  0.28985073  1
  Bi  Bi113  1  0.73123182  0.75495036  0.74442383  1
  Bi  Bi114  1  0.58875838  0.42485320  0.29360176  1
  Bi  Bi115  1  0.33739516  0.33202957  0.61824224  1
  Bi  Bi116  1  0.90629544  0.88484581  0.88931085  1
  Bi  Bi117  1  0.16285799  0.15257550  0.93159009  1
  Bi  Bi118  1  0.37336972  0.83567929  0.58885636  1
  Bi  Bi119  1  0.13810378  0.62847954  0.64205935  1
  Bi  Bi120  1  0.67136537  0.41822492  0.55136404  1
  Bi  Bi121  1  0.09695004  0.88612915  0.97283957  1
  Bi  Bi122  1  0.63784917  0.62547836  0.09765752  1
  Bi  Bi123  1  0.79671048  0.35699701  0.11683866  1
  Bi  Bi124  1  0.53271814  0.10345636  0.12843273  1
  Bi  Bi125  1  0.19312726  0.05856168  0.62757673  1
  Bi  Bi126  1  0.62527392  0.54827239  0.84085741  1
  Bi  Bi127  1  0.08596285  0.67314564  0.38875313  1
