# generated using pymatgen
data_Ba51Fe51Bi26
_symmetry_space_group_name_H-M   'P 1'
_cell_length_a   16.22290207
_cell_length_b   16.65414811
_cell_length_c   16.04656964
_cell_angle_alpha   89.93298350
_cell_angle_beta   88.20244504
_cell_angle_gamma   91.11906719
_symmetry_Int_Tables_number   1
_chemical_formula_structural   Ba51Fe51Bi26
_chemical_formula_sum   'Ba51 Fe51 Bi26'
_cell_volume   4332.47308198
_cell_formula_units_Z   1
loop_
 _symmetry_equiv_pos_site_id
 _symmetry_equiv_pos_as_xyz
  1  'x, y, z'
loop_
 _atom_site_type_symbol
 _atom_site_label
 _atom_site_symmetry_multiplicity
 _atom_site_fract_x
 _atom_site_fract_y
 _atom_site_fract_z
 _atom_site_occupancy
  Ba  Ba0  1  0.42779155  0.15596113  -0.06649588  1
  Ba  Ba1  1  0.56710719  0.48638217  0.34671500  1
  Ba  Ba2  1  0.43641341  -0.04310833  0.30597037  1
  Ba  Ba3  1  0.66594268  0.21157177  -0.02669438  1
  Ba  Ba4  1  0.73434948  -0.01069876  0.09752061  1
  Ba  Ba5  1  0.21272100  0.03865455  0.85848090  1
  Ba  Ba6  1  0.61015569  0.10267494  0.27014583  1
  Ba  Ba7  1  0.33130167  0.55195781  0.28850557  1
  Ba  Ba8  1  0.20740607  -0.04515034  0.09621580  1
  Ba  Ba9  1  0.23273619  0.04723758  0.58671584  1
  Ba  Ba10  1  -0.04891233  0.05551523  0.16673209  1
  Ba  Ba11  1  0.72706673  -0.06236681  0.44598618  1
  Ba  Ba12  1  0.03200708  0.24999845  0.60330691  1
  Ba  Ba13  1  0.21684938  0.26192749  -0.04549048  1
  Ba  Ba14  1  -0.08773769  0.75071164  0.41856428  1
  Ba  Ba15  1  0.34687088  0.42114040  0.72313772  1
  Ba  Ba16  1  0.30998571  0.25723652  0.49920297  1
  Ba  Ba17  1  0.45887286  0.74709325  0.73757569  1
  Ba  Ba18  1  0.55449743  0.72956811  -0.01252971  1
  Ba  Ba19  1  0.17974951  0.68176415  0.71913106  1
  Ba  Ba20  1  0.48001783  0.72016395  0.40001539  1
  Ba  Ba21  1  0.73665584  0.23013931  0.48097843  1
  Ba  Ba22  1  0.38067813  0.52599006  0.01824835  1
  Ba  Ba23  1  0.12056393  0.84333403  0.53681652  1
  Ba  Ba24  1  0.44612667  -0.02158284  0.78280029  1
  Ba  Ba25  1  0.79782889  0.55376313  0.21291244  1
  Ba  Ba26  1  0.03245039  0.49076175  0.62762595  1
  Ba  Ba27  1  0.73517144  -0.03860385  0.72150077  1
  Ba  Ba28  1  -0.00873820  -0.05298969  -0.03863856  1
  Ba  Ba29  1  -0.00211913  0.02753520  0.73078611  1
  Ba  Ba30  1  0.22349070  0.04781169  0.31220790  1
  Ba  Ba31  1  0.49761580  0.10191767  0.55214664  1
  Ba  Ba32  1  0.30805288  0.76558164  -0.02387146  1
  Ba  Ba33  1  0.48777105  -0.04505874  0.05645092  1
  Ba  Ba34  1  0.61632631  0.49342120  0.01227342  1
  Ba  Ba35  1  -0.02899376  0.04294609  0.40642901  1
  Ba  Ba36  1  0.06474411  0.72493849  0.02033289  1
  Ba  Ba37  1  0.05532451  0.52685790  0.27407729  1
  Ba  Ba38  1  -0.05201028  0.28774145  0.26518029  1
  Ba  Ba39  1  0.12632691  0.47997913  -0.02126808  1
  Ba  Ba40  1  0.80536744  0.51063451  0.79772007  1
  Ba  Ba41  1  0.70663186  0.49824077  0.54513092  1
  Ba  Ba42  1  0.68232731  0.72527742  0.60710675  1
  Ba  Ba43  1  -0.07087411  0.78085842  0.75595484  1
  Ba  Ba44  1  0.66582579  0.31895617  0.19408382  1
  Ba  Ba45  1  -0.05610928  0.23248619  0.00008205  1
  Ba  Ba46  1  0.24087848  0.31304262  0.25280131  1
  Ba  Ba47  1  0.19033784  0.76587466  0.29665109  1
  Ba  Ba48  1  0.81837006  0.22652862  0.77483435  1
  Ba  Ba49  1  0.70014313  0.78483970  0.21880862  1
  Ba  Ba50  1  0.82345607  0.72078550  -0.00622491  1
  Fe  Fe51  1  0.50138536  0.22325814  0.37372931  1
  Fe  Fe52  1  0.68922711  0.36027002  0.68560812  1
  Fe  Fe53  1  0.37577452  0.22724330  0.13329629  1
  Fe  Fe54  1  0.38768070  0.17933705  0.29643929  1
  Fe  Fe55  1  0.50393519  0.53851424  0.84100334  1
  Fe  Fe56  1  0.62028162  0.31084709  0.79904046  1
  Fe  Fe57  1  0.36658247  0.70752591  0.16009929  1
  Fe  Fe58  1  0.64352545  0.01333733  0.90163358  1
  Fe  Fe59  1  0.43996706  0.88886442  0.48800908  1
  Fe  Fe60  1  0.80300637  0.12363809  0.29431664  1
  Fe  Fe61  1  0.36512826  0.59764585  0.58802498  1
  Fe  Fe62  1  0.54428491  0.38570700  0.67553706  1
  Fe  Fe63  1  0.91943191  0.38463112  0.46048162  1
  Fe  Fe64  1  0.27206161  0.87698773  0.66908271  1
  Fe  Fe65  1  0.16797915  0.16906582  0.71906702  1
  Fe  Fe66  1  0.20442797  0.41051216  0.54806706  1
  Fe  Fe67  1  0.61272675  0.60268050  0.80128626  1
  Fe  Fe68  1  0.94104629  0.44752221  0.93502549  1
  Fe  Fe69  1  0.28594203  0.61805912  0.47864907  1
  Fe  Fe70  1  0.02868515  0.86669049  0.15959469  1
  Fe  Fe71  1  0.47142596  0.79475572  0.19013184  1
  Fe  Fe72  1  0.45829073  0.27771628  0.63690535  1
  Fe  Fe73  1  0.38885250  0.92618500  0.60623600  1
  Fe  Fe74  1  0.23178728  0.53579672  0.58974476  1
  Fe  Fe75  1  0.43099477  0.32395778  0.33900501  1
  Fe  Fe76  1  0.49191656  0.28654612  0.06620194  1
  Fe  Fe77  1  0.34749596  0.83601628  0.17585663  1
  Fe  Fe78  1  0.60271123  0.25231505  0.65410787  1
  Fe  Fe79  1  0.12564962  0.13087967  0.08523028  1
  Fe  Fe80  1  0.14262323  0.88964196  0.73952400  1
  Fe  Fe81  1  0.91679622  0.54855202  0.01759613  1
  Fe  Fe82  1  0.10572539  0.16249600  0.21684489  1
  Fe  Fe83  1  0.14254618  0.84697871  0.86714648  1
  Fe  Fe84  1  0.51495395  0.15992587  0.10813030  1
  Fe  Fe85  1  0.94868436  0.44307417  0.08711729  1
  Fe  Fe86  1  0.72853868  0.89877718  0.91947558  1
  Fe  Fe87  1  0.09616509  0.25500794  0.12302653  1
  Fe  Fe88  1  0.26586617  0.85532950  0.80641589  1
  Fe  Fe89  1  0.60856224  0.45593374  0.78457319  1
  Fe  Fe90  1  0.78596113  0.16642389  0.17494845  1
  Fe  Fe91  1  0.60200610  0.88917757  0.88191510  1
  Fe  Fe92  1  0.07747868  0.19055875  0.81703346  1
  Fe  Fe93  1  0.49233243  0.25966957  0.76583849  1
  Fe  Fe94  1  0.48644595  0.24538666  0.22154798  1
  Fe  Fe95  1  0.17464113  0.28960447  0.76020392  1
  Fe  Fe96  1  0.03997002  0.89732712  0.28861730  1
  Fe  Fe97  1  0.90664550  0.88260593  0.25955513  1
  Fe  Fe98  1  0.30888060  0.90412297  0.48333888  1
  Fe  Fe99  1  0.89770289  0.85910312  0.12628109  1
  Fe  Fe100  1  0.40592367  0.10689966  0.17607840  1
  Fe  Fe101  1  0.19886873  0.49901615  0.44545798  1
  Bi  Bi102  1  0.79863275  0.39402764  0.01686250  1
  Bi  Bi103  1  0.54371813  0.32736027  0.49842305  1
  Bi  Bi104  1  0.69939296  0.75233828  0.82181184  1
  Bi  Bi105  1  0.02477499  0.34650608  0.82460156  1
  Bi  Bi106  1  0.51714358  0.55746008  0.66093735  1
  Bi  Bi107  1  -0.05869301  0.71874506  0.20342971  1
  Bi  Bi108  1  0.44390783  0.40080237  0.17959935  1
  Bi  Bi109  1  0.33957700  0.18355339  0.72519947  1
  Bi  Bi110  1  0.33013318  0.75843698  0.56218796  1
  Bi  Bi111  1  0.78646901  0.39695065  0.35555041  1
  Bi  Bi112  1  0.60294074  0.13028184  0.77590740  1
  Bi  Bi113  1  0.36505797  0.46329776  0.48184683  1
  Bi  Bi114  1  0.09538286  0.36182685  0.42354928  1
  Bi  Bi115  1  0.87541225  0.63347283  0.61308744  1
  Bi  Bi116  1  0.85580279  0.09308530  0.58601331  1
  Bi  Bi117  1  0.52518226  0.63342248  0.17936576  1
  Bi  Bi118  1  0.21481377  0.62264299  0.12681870  1
  Bi  Bi119  1  0.90555127  0.90364338  0.57159446  1
  Bi  Bi120  1  0.82026612  0.05354118  0.90639788  1
  Bi  Bi121  1  0.90522084  0.54404752  0.43539739  1
  Bi  Bi122  1  0.56355344  0.90236783  0.59905752  1
  Bi  Bi123  1  0.99197336  0.60243839  0.86215715  1
  Bi  Bi124  1  0.69218060  0.67591100  0.39492663  1
  Bi  Bi125  1  0.11859282  0.64084252  0.47526333  1
  Bi  Bi126  1  0.85002837  0.36495885  0.61924230  1
  Bi  Bi127  1  0.48464815  0.36567636  0.90204406  1
