# generated using pymatgen
data_Ba51Fe51Bi26
_symmetry_space_group_name_H-M   'P 1'
_cell_length_a   16.37227220
_cell_length_b   16.29436680
_cell_length_c   16.39907710
_cell_angle_alpha   90.61383064
_cell_angle_beta   90.87935669
_cell_angle_gamma   89.53788620
_symmetry_Int_Tables_number   1
_chemical_formula_structural   Ba51Fe51Bi26
_chemical_formula_sum   'Ba51 Fe51 Bi26'
_cell_volume   4373.97420012
_cell_formula_units_Z   1
loop_
 _symmetry_equiv_pos_site_id
 _symmetry_equiv_pos_as_xyz
  1  'x, y, z'
loop_
 _atom_site_type_symbol
 _atom_site_label
 _atom_site_symmetry_multiplicity
 _atom_site_fract_x
 _atom_site_fract_y
 _atom_site_fract_z
 _atom_site_occupancy
  Ba  Ba0  1  -0.02374747  0.26166257  0.93145908  1
  Ba  Ba1  1  -0.05017229  0.01578416  -0.08947716  1
  Ba  Ba2  1  0.88809322  0.17703679  0.38988237  1
  Ba  Ba3  1  0.79421393  -0.05866076  0.54404037  1
  Ba  Ba4  1  0.45362748  -0.02800173  0.71730936  1
  Ba  Ba5  1  0.81656738  -0.02828210  0.28267471  1
  Ba  Ba6  1  0.27483912  0.53003171  0.46803977  1
  Ba  Ba7  1  -0.09300002  0.48865627  0.72840171  1
  Ba  Ba8  1  0.62720323  0.47154910  0.69502183  1
  Ba  Ba9  1  0.10057927  0.22875076  0.25284958  1
  Ba  Ba10  1  0.41408703  0.18785123  0.06002290  1
  Ba  Ba11  1  0.21699730  0.62465947  0.07123200  1
  Ba  Ba12  1  0.75171474  0.76901438  0.18020625  1
  Ba  Ba13  1  0.49603884  0.70749608  0.75667217  1
  Ba  Ba14  1  0.21144866  0.32894959  -0.01526348  1
  Ba  Ba15  1  0.00387518  -0.07639329  0.67672838  1
  Ba  Ba16  1  0.01415659  0.78781882  0.04980786  1
  Ba  Ba17  1  0.24193899  0.56838998  0.81656967  1
  Ba  Ba18  1  0.43441543  0.46549223  -0.04303537  1
  Ba  Ba19  1  0.71422540  -0.06253146  0.77176421  1
  Ba  Ba20  1  0.81269244  0.45857669  0.03759596  1
  Ba  Ba21  1  0.60668499  0.68702932  -0.00066354  1
  Ba  Ba22  1  0.73161856  0.55404275  0.44812234  1
  Ba  Ba23  1  0.21176991  0.10696739  0.74679662  1
  Ba  Ba24  1  0.54800828  -0.01938597  -0.03445391  1
  Ba  Ba25  1  0.53784554  0.72101008  0.41291257  1
  Ba  Ba26  1  0.59500149  0.33200263  0.46774646  1
  Ba  Ba27  1  0.45290855  0.11401240  0.43599958  1
  Ba  Ba28  1  0.63316239  0.27275421  -0.00358666  1
  Ba  Ba29  1  0.35284470  0.33736159  0.29772124  1
  Ba  Ba30  1  0.39308872  0.79492438  0.16782200  1
  Ba  Ba31  1  0.55670698  -0.02778615  0.24714972  1
  Ba  Ba32  1  0.28680707  -0.02033844  0.52527095  1
  Ba  Ba33  1  0.10213625  -0.12027555  0.45534819  1
  Ba  Ba34  1  0.63992752  0.22533920  0.24894671  1
  Ba  Ba35  1  0.18919854  0.72171988  0.62972472  1
  Ba  Ba36  1  0.07571886  0.52710700  0.27294342  1
  Ba  Ba37  1  0.15103582  0.04923160  0.06204317  1
  Ba  Ba38  1  0.76919407  0.68846468  0.78205252  1
  Ba  Ba39  1  -0.01683660  0.42208529  0.47976548  1
  Ba  Ba40  1  0.00024202  0.24194921  0.64388438  1
  Ba  Ba41  1  0.01105231  0.55378584  -0.03170073  1
  Ba  Ba42  1  0.84539306  0.40299618  0.25956215  1
  Ba  Ba43  1  0.25281964  0.84937909  -0.07751812  1
  Ba  Ba44  1  0.23678056  0.35646525  0.67782488  1
  Ba  Ba45  1  0.47917529  0.58180286  0.19098440  1
  Ba  Ba46  1  0.70153698  0.16403868  0.60306918  1
  Ba  Ba47  1  0.00361334  0.77667491  0.28377371  1
  Ba  Ba48  1  0.27272769  0.01545862  0.27370073  1
  Ba  Ba49  1  0.76458976  0.26246994  0.81000104  1
  Ba  Ba50  1  0.44952232  0.20917716  0.66184059  1
  Fe  Fe51  1  0.32341639  0.43273729  0.12729330  1
  Fe  Fe52  1  0.58171534  0.85681572  0.57206203  1
  Fe  Fe53  1  -0.03646650  0.98983002  0.13059925  1
  Fe  Fe54  1  0.59794510  0.43815565  0.27137890  1
  Fe  Fe55  1  0.71590622  0.95723969  0.08398628  1
  Fe  Fe56  1  0.61338723  0.48029402  0.08145968  1
  Fe  Fe57  1  0.21751445  0.70368065  0.25908336  1
  Fe  Fe58  1  0.33943481  0.70213749  0.33601319  1
  Fe  Fe59  1  0.08432725  0.71736098  0.85285268  1
  Fe  Fe60  1  0.90790826  0.81045788  0.45939041  1
  Fe  Fe61  1  0.74926103  0.87226432  0.97361151  1
  Fe  Fe62  1  0.14438899  0.12585887  0.55262934  1
  Fe  Fe63  1  0.47112799  0.26199590  0.86580176  1
  Fe  Fe64  1  0.20181110  0.41796523  0.16299555  1
  Fe  Fe65  1  0.07996399  0.20630102  0.44939805  1
  Fe  Fe66  1  -0.04769603  0.13343350  1.07242761  1
  Fe  Fe67  1  -0.05904430  0.11460897  0.20271078  1
  Fe  Fe68  1  0.48423221  0.91310485  0.46007602  1
  Fe  Fe69  1  0.41866888  0.13267900  0.84950846  1
  Fe  Fe70  1  0.34341651  0.26775977  0.83022854  1
  Fe  Fe71  1  0.85713974  0.90261779  0.05919423  1
  Fe  Fe72  1  0.19559232  0.71006687  0.39167532  1
  Fe  Fe73  1  1.02984014  0.06731178  0.48031784  1
  Fe  Fe74  1  0.14110766  0.08114278  0.41011797  1
  Fe  Fe75  1  0.83400696  0.72584081  0.56799351  1
  Fe  Fe76  1  0.86877171  0.84000887  0.91113266  1
  Fe  Fe77  1  0.17709838  0.27627335  0.50896588  1
  Fe  Fe78  1  0.24824757  0.82890465  0.32667902  1
  Fe  Fe79  1  0.81427659  0.19104328  1.04844224  1
  Fe  Fe80  1  0.94655027  0.61806667  0.57299683  1
  Fe  Fe81  1  0.58547831  -0.01010441  0.54221124  1
  Fe  Fe82  1  0.45644198  0.45118598  0.57292524  1
  Fe  Fe83  1  0.29852432  0.16609121  -0.09161947  1
  Fe  Fe84  1  0.79385613  0.34001643  0.46278636  1
  Fe  Fe85  1  0.80260955  0.35172802  0.58837272  1
  Fe  Fe86  1  0.70319822  0.09916345  0.11032995  1
  Fe  Fe87  1  0.30347040  0.76273183  0.45666553  1
  Fe  Fe88  1  0.01077804  0.82948946  0.85050048  1
  Fe  Fe89  1  0.33876962  1.03738473  0.91060409  1
  Fe  Fe90  1  0.92026559  0.25377045  1.13727255  1
  Fe  Fe91  1  0.89690713  0.67418898  0.44783347  1
  Fe  Fe92  1  0.51914923  0.56740269  0.55963613  1
  Fe  Fe93  1  0.23705494  0.17849981  0.42816578  1
  Fe  Fe94  1  0.94077443  0.71793214  0.87645924  1
  Fe  Fe95  1  -0.01869938  0.75751778  0.55743916  1
  Fe  Fe96  1  0.27044183  0.17900670  0.56241102  1
  Fe  Fe97  1  0.83722315  0.04538449  0.09673736  1
  Fe  Fe98  1  0.81646180  0.17188099  0.18245912  1
  Fe  Fe99  1  0.62717138  0.91128429  0.43709867  1
  Fe  Fe100  1  0.37835780  0.84948440  0.38518822  1
  Fe  Fe101  1  0.66857396  0.39738624  0.16708422  1
  Bi  Bi102  1  0.03891750  0.01212909  0.29286527  1
  Bi  Bi103  1  0.41271280  0.81166529  0.57449547  1
  Bi  Bi104  1  -0.02303195  0.70568199  0.71700534  1
  Bi  Bi105  1  0.43200328  0.39806272  0.75788648  1
  Bi  Bi106  1  0.50094304  0.50427475  0.39976871  1
  Bi  Bi107  1  0.03434368  0.38052018  0.11121983  1
  Bi  Bi108  1  0.28438342  0.54400192  0.25430112  1
  Bi  Bi109  1  0.82034177  0.69701190  -0.00973096  1
  Bi  Bi110  1  0.74533938  0.06862449  -0.04976306  1
  Bi  Bi111  1  0.75523098  0.78022769  0.39907024  1
  Bi  Bi112  1  0.35425873  0.31334294  0.50224435  1
  Bi  Bi113  1  0.06343556  0.64118962  0.45500848  1
  Bi  Bi114  1  0.18627631  0.83817744  0.16035638  1
  Bi  Bi115  1  0.49507379  0.36779627  0.14350488  1
  Bi  Bi116  1  0.66874058  0.07992214  0.40799120  1
  Bi  Bi117  1  0.58586514  0.13357756  0.80644088  1
  Bi  Bi118  1  0.39271221  0.68566017  0.96468618  1
  Bi  Bi119  1  0.08515607  0.40535159  0.82074694  1
  Bi  Bi120  1  0.09428223  0.52010258  0.63399565  1
  Bi  Bi121  1  0.69428740  0.56423144  0.21221465  1
  Bi  Bi122  1  0.91521409  0.61477050  0.16501058  1
  Bi  Bi123  1  0.64987603  0.69047073  0.60280200  1
  Bi  Bi124  1  0.37207897  0.57742646  0.64833695  1
  Bi  Bi125  1  0.86786576  0.08762325  0.71846009  1
  Bi  Bi126  1  0.36368659  0.98232290  0.07083241  1
  Bi  Bi127  1  0.64527883  0.49013669  0.90908078  1
