# generated using pymatgen
data_Ba51Fe51Bi26
_symmetry_space_group_name_H-M   'P 1'
_cell_length_a   16.25958082
_cell_length_b   16.22747150
_cell_length_c   16.63408079
_cell_angle_alpha   92.36018558
_cell_angle_beta   88.82306970
_cell_angle_gamma   90.91841832
_symmetry_Int_Tables_number   1
_chemical_formula_structural   Ba51Fe51Bi26
_chemical_formula_sum   'Ba51 Fe51 Bi26'
_cell_volume   4383.77881312
_cell_formula_units_Z   1
loop_
 _symmetry_equiv_pos_site_id
 _symmetry_equiv_pos_as_xyz
  1  'x, y, z'
loop_
 _atom_site_type_symbol
 _atom_site_label
 _atom_site_symmetry_multiplicity
 _atom_site_fract_x
 _atom_site_fract_y
 _atom_site_fract_z
 _atom_site_occupancy
  Ba  Ba0  1  0.73823371  0.61538397  0.65891388  1
  Ba  Ba1  1  -0.00336098  0.25460133  0.44208578  1
  Ba  Ba2  1  0.23427001  0.21492639  0.45686662  1
  Ba  Ba3  1  0.79864993  0.47784631  0.02037108  1
  Ba  Ba4  1  -0.01221938  -0.00255303  0.29254538  1
  Ba  Ba5  1  0.13137460  0.49343149  0.50831909  1
  Ba  Ba6  1  0.49646413  0.69346746  0.30562689  1
  Ba  Ba7  1  0.76609405  0.74810080  0.01694271  1
  Ba  Ba8  1  0.37616009  0.36882075  0.03148563  1
  Ba  Ba9  1  0.74468465  0.20497546  0.50988505  1
  Ba  Ba10  1  0.04464809  0.54008349  0.73011311  1
  Ba  Ba11  1  -0.05110006  0.72666899  0.19471870  1
  Ba  Ba12  1  0.53880362  0.37188432  0.63136692  1
  Ba  Ba13  1  0.24056048  0.50558182  0.21395044  1
  Ba  Ba14  1  -0.07875911  0.01893460  0.51545763  1
  Ba  Ba15  1  0.34693831  0.81719125  0.68096402  1
  Ba  Ba16  1  0.12670910  0.45441212  -0.00895384  1
  Ba  Ba17  1  -0.03755784  0.02087366  0.75387812  1
  Ba  Ba18  1  0.41017471  0.09842496  0.04995251  1
  Ba  Ba19  1  0.15659608  0.14220711  -0.01833105  1
  Ba  Ba20  1  0.71576854  0.04854319  0.70883263  1
  Ba  Ba21  1  0.50168483  -0.04020703  0.27020706  1
  Ba  Ba22  1  0.29503356  0.05302910  0.60735284  1
  Ba  Ba23  1  0.56123572  -0.02502107  0.50782773  1
  Ba  Ba24  1  -0.03680303  0.45260776  0.27235358  1
  Ba  Ba25  1  0.77947671  0.04048944  0.18071107  1
  Ba  Ba26  1  0.59179155  0.37421941  0.10244286  1
  Ba  Ba27  1  -0.05428030  0.24390473  0.02882272  1
  Ba  Ba28  1  -0.03750699  0.64777444  -0.06047183  1
  Ba  Ba29  1  0.49128409  0.63276713  0.70057925  1
  Ba  Ba30  1  -0.03180284  0.76238870  0.71156546  1
  Ba  Ba31  1  -0.03541383  0.79276512  0.45441990  1
  Ba  Ba32  1  0.13711479  0.86058094  0.03385548  1
  Ba  Ba33  1  0.33052569  0.47387520  0.80286226  1
  Ba  Ba34  1  0.18581061  -0.06954047  0.81755107  1
  Ba  Ba35  1  0.09754953  0.28792014  0.72753134  1
  Ba  Ba36  1  0.36454492  0.21598538  0.79209190  1
  Ba  Ba37  1  0.39091023  0.44751676  0.46020070  1
  Ba  Ba38  1  0.24532814  0.05036954  0.26934880  1
  Ba  Ba39  1  0.78281709  0.33027320  0.77491501  1
  Ba  Ba40  1  0.22044596  0.77872482  0.26759954  1
  Ba  Ba41  1  0.58246565  0.54625799  -0.08249698  1
  Ba  Ba42  1  0.65526351  -0.01628560  -0.00973861  1
  Ba  Ba43  1  0.73358749  0.26705140  0.25241132  1
  Ba  Ba44  1  0.32856188  0.64496339  0.01752525  1
  Ba  Ba45  1  0.48764132  0.00455581  0.80846233  1
  Ba  Ba46  1  0.71636922  0.81051956  0.80584875  1
  Ba  Ba47  1  0.65695242  0.51319881  0.31714199  1
  Ba  Ba48  1  0.19208584  0.75219694  0.51830599  1
  Ba  Ba49  1  0.69450035  0.77262626  0.46977240  1
  Ba  Ba50  1  0.51612131  0.77939787  0.03612685  1
  Fe  Fe51  1  0.41444162  0.22391548  0.55424124  1
  Fe  Fe52  1  0.10097247  0.29806618  0.18443055  1
  Fe  Fe53  1  0.75067696  0.26935063  -0.01311935  1
  Fe  Fe54  1  0.63290233  0.31233694  0.92069912  1
  Fe  Fe55  1  0.62833798  0.19452749  0.03030660  1
  Fe  Fe56  1  0.40901641  0.71021065  0.85890403  1
  Fe  Fe57  1  0.52318611  0.20704610  0.92964747  1
  Fe  Fe58  1  -0.00421435  -0.02477404  0.93464345  1
  Fe  Fe59  1  0.15922626  0.65854592  0.92958260  1
  Fe  Fe60  1  0.50481330  0.80206413  0.83402633  1
  Fe  Fe61  1  0.43946049  0.25864143  0.40884342  1
  Fe  Fe62  1  0.72472747  0.73173566  0.24515758  1
  Fe  Fe63  1  0.90070192  0.42997985  0.47151289  1
  Fe  Fe64  1  0.95435674  0.56414624  0.44240519  1
  Fe  Fe65  1  0.48654532  0.75023130  0.53238189  1
  Fe  Fe66  1  0.91350298  0.51306259  0.58221176  1
  Fe  Fe67  1  0.09381254  0.15111245  0.16613005  1
  Fe  Fe68  1  0.86438587  0.02573708  0.98193713  1
  Fe  Fe69  1  0.37896199  0.83751366  -0.10680997  1
  Fe  Fe70  1  0.80420834  0.53224345  0.46959060  1
  Fe  Fe71  1  0.84539801  0.13275340  0.34834925  1
  Fe  Fe72  1  0.42495575  0.26519781  0.18418345  1
  Fe  Fe73  1  0.10109209  0.08952416  0.55415065  1
  Fe  Fe74  1  0.65988288  0.82342328  0.16969386  1
  Fe  Fe75  1  0.76674822  0.62422160  0.85984892  1
  Fe  Fe76  1  0.54309580  0.18885756  0.49281910  1
  Fe  Fe77  1  0.26169867  0.74708209  0.86033580  1
  Fe  Fe78  1  0.50613916  0.32932816  0.88046816  1
  Fe  Fe79  1  0.51384285  0.29835010  0.28463342  1
  Fe  Fe80  1  0.42159516  0.16925046  0.28111007  1
  Fe  Fe81  1  0.68029961  0.87240528  0.29017446  1
  Fe  Fe82  1  -0.00930692  0.84173914  0.90089683  1
  Fe  Fe83  1  0.39134844  0.65888530  0.52093751  1
  Fe  Fe84  1  0.55448023  0.17348809  0.35054739  1
  Fe  Fe85  1  0.50221496  0.15070800  0.62015208  1
  Fe  Fe86  1  -0.09161239  0.88913634  0.03354933  1
  Fe  Fe87  1  0.14851867  1.00044838  0.46745269  1
  Fe  Fe88  1  0.84077086  0.52674457  0.82907098  1
  Fe  Fe89  1  0.76634206  0.14087161  0.01958293  1
  Fe  Fe90  1  0.81205838  0.83856040  0.30810166  1
  Fe  Fe91  1  0.17540249  0.72181919  0.73515930  1
  Fe  Fe92  1  0.93009660  0.37400819  0.60236858  1
  Fe  Fe93  1  0.11491779  0.20469543  0.28279280  1
  Fe  Fe94  1  0.79919991  0.85201305  0.17527333  1
  Fe  Fe95  1  0.87596103  0.63622830  0.52467614  1
  Fe  Fe96  1  0.10711742  0.75131887  0.85042624  1
  Fe  Fe97  1  0.35458466  0.30651357  0.29619329  1
  Fe  Fe98  1  0.86639658  0.89699281  0.90372964  1
  Fe  Fe99  1  0.20658379  0.62151934  0.81278815  1
  Fe  Fe100  1  0.47854325  0.55934362  0.12181175  1
  Fe  Fe101  1  0.66644957  0.16545046  0.90119823  1
  Bi  Bi102  1  0.27154196  0.60315030  0.65008691  1
  Bi  Bi103  1  0.58077957  0.21220020  0.76320535  1
  Bi  Bi104  1  -0.05729199  0.21677318  0.23902143  1
  Bi  Bi105  1  0.76309806  0.41294378  0.58167834  1
  Bi  Bi106  1  0.55923149  0.59721085  0.50071774  1
  Bi  Bi107  1  -0.00062176  0.03071694  0.08984581  1
  Bi  Bi108  1  0.82932866  0.64625239  0.35047805  1
  Bi  Bi109  1  0.56948409  0.14582427  0.18060030  1
  Bi  Bi110  1  0.25864553  0.23089685  0.15412392  1
  Bi  Bi111  1  0.41033284  0.09115979  0.42616925  1
  Bi  Bi112  1  0.83280229  0.14551711  -0.12960422  1
  Bi  Bi113  1  0.44632516  0.45216371  0.24191991  1
  Bi  Bi114  1  0.74979368  -0.00274269  0.38672742  1
  Bi  Bi115  1  0.12574871  0.65062297  0.09368768  1
  Bi  Bi116  1  0.95695180  0.41357145  0.87765685  1
  Bi  Bi117  1  0.29830032  0.91687023  0.42530925  1
  Bi  Bi118  1  0.92612902  0.20404412  0.63616754  1
  Bi  Bi119  1  0.08041403  0.63099473  0.34958515  1
  Bi  Bi120  1  0.10237909  0.92804253  0.61571801  1
  Bi  Bi121  1  0.30206094  0.62432633  0.38498306  1
  Bi  Bi122  1  0.56242185  0.84002918  0.66819880  1
  Bi  Bi123  1  0.60110448  0.33438116  0.42301981  1
  Bi  Bi124  1  0.15922128  0.36231585  0.33508353  1
  Bi  Bi125  1  0.29887036  0.32936800  0.63302965  1
  Bi  Bi126  1  0.63709184  0.61917534  0.12914199  1
  Bi  Bi127  1  0.81459001  0.86890744  0.62413269  1
