# generated using pymatgen
data_Ba51Fe51Bi26
_symmetry_space_group_name_H-M   'P 1'
_cell_length_a   16.46293525
_cell_length_b   16.29645325
_cell_length_c   16.21988823
_cell_angle_alpha   92.31436883
_cell_angle_beta   91.61396357
_cell_angle_gamma   90.73082249
_symmetry_Int_Tables_number   1
_chemical_formula_structural   Ba51Fe51Bi26
_chemical_formula_sum   'Ba51 Fe51 Bi26'
_cell_volume   4345.89752888
_cell_formula_units_Z   1
loop_
 _symmetry_equiv_pos_site_id
 _symmetry_equiv_pos_as_xyz
  1  'x, y, z'
loop_
 _atom_site_type_symbol
 _atom_site_label
 _atom_site_symmetry_multiplicity
 _atom_site_fract_x
 _atom_site_fract_y
 _atom_site_fract_z
 _atom_site_occupancy
  Ba  Ba0  1  0.33204698  0.83526093  -0.05107266  1
  Ba  Ba1  1  0.53468449  0.47821390  0.05729326  1
  Ba  Ba2  1  0.71870447  0.19523046  0.47707556  1
  Ba  Ba3  1  -0.04617763  0.17234799  0.09151924  1
  Ba  Ba4  1  0.46029407  0.48516865  0.30631294  1
  Ba  Ba5  1  0.48555947  0.13886843  0.47067068  1
  Ba  Ba6  1  0.50407631  0.47937962  0.73706190  1
  Ba  Ba7  1  0.51895695  0.76882880  0.81169219  1
  Ba  Ba8  1  -0.08698700  0.68625911  0.26682021  1
  Ba  Ba9  1  0.30026629  0.63154598  0.45636422  1
  Ba  Ba10  1  0.44097329  0.25420756  0.13163274  1
  Ba  Ba11  1  -0.03175900  0.54927517  0.51826088  1
  Ba  Ba12  1  0.70849122  0.71805909  -0.04088154  1
  Ba  Ba13  1  0.42194814  0.15943895  0.72591133  1
  Ba  Ba14  1  0.54892971  -0.06142424  0.36137808  1
  Ba  Ba15  1  0.72622515  0.46685369  0.24242170  1
  Ba  Ba16  1  0.05110644  0.28247165  0.81202900  1
  Ba  Ba17  1  0.74014532  0.85219187  0.74476422  1
  Ba  Ba18  1  0.83395749  0.11902416  0.69701385  1
  Ba  Ba19  1  0.30907110  0.56725144  -0.06763633  1
  Ba  Ba20  1  0.78045671  -0.10104095  0.51540150  1
  Ba  Ba21  1  0.19740016  -0.06862623  0.76933787  1
  Ba  Ba22  1  0.82545167  0.44414873  0.75641712  1
  Ba  Ba23  1  0.26440769  0.27459678  0.53040965  1
  Ba  Ba24  1  0.34303211  0.01341290  0.21741067  1
  Ba  Ba25  1  0.15569965  0.32384255  0.03569043  1
  Ba  Ba26  1  0.05470830  0.55714100  -0.02818041  1
  Ba  Ba27  1  0.12247806  0.78870514  0.39845545  1
  Ba  Ba28  1  0.14487309  0.05231098  -0.02696776  1
  Ba  Ba29  1  0.01034445  0.28759148  0.52852939  1
  Ba  Ba30  1  0.55787925  0.86517298  0.10821506  1
  Ba  Ba31  1  -0.03001243  0.63283566  0.75525240  1
  Ba  Ba32  1  0.21003014  0.61866227  0.17983681  1
  Ba  Ba33  1  0.49117898  -0.11992858  0.57324873  1
  Ba  Ba34  1  0.82020845  0.52255152  0.02469161  1
  Ba  Ba35  1  -0.02055855  0.40680593  0.22788596  1
  Ba  Ba36  1  0.20306097  0.60035699  0.67344603  1
  Ba  Ba37  1  -0.15851011  0.03635867  -0.08383460  1
  Ba  Ba38  1  0.02522294  -0.03012942  0.56769181  1
  Ba  Ba39  1  0.22484189  0.40913491  0.31493982  1
  Ba  Ba40  1  0.60218857  0.66404625  0.56599257  1
  Ba  Ba41  1  0.71955541  0.22355251  0.19927912  1
  Ba  Ba42  1  0.79345237  -0.08608390  0.13813567  1
  Ba  Ba43  1  0.64720723  0.25362271  0.77026393  1
  Ba  Ba44  1  0.27979655  0.35163464  0.76436691  1
  Ba  Ba45  1  0.70157507  0.46512262  0.48804820  1
  Ba  Ba46  1  0.20301076  0.05179055  0.43563916  1
  Ba  Ba47  1  -0.09171950  0.11216315  0.34335726  1
  Ba  Ba48  1  -0.01737077  0.85668722  0.79653670  1
  Ba  Ba49  1  0.46778771  0.07812629  -0.03591959  1
  Ba  Ba50  1  0.09065594  -0.06133300  0.21762469  1
  Fe  Fe51  1  1.00847639  0.44284882  0.69412634  1
  Fe  Fe52  1  0.25469989  0.78688875  0.58087117  1
  Fe  Fe53  1  0.45031703  0.33104277  0.44834077  1
  Fe  Fe54  1  0.58681241  0.76177211  0.26543762  1
  Fe  Fe55  1  0.60942327  0.21579290  0.99571809  1
  Fe  Fe56  1  0.23456472  0.24410392  0.19983952  1
  Fe  Fe57  1  0.73407536  0.79439528  0.30080850  1
  Fe  Fe58  1  0.93077319  0.35793039  1.00534548  1
  Fe  Fe59  1  1.12256022  0.15093238  0.64649473  1
  Fe  Fe60  1  0.09778124  0.25385403  0.21572465  1
  Fe  Fe61  1  0.33488354  0.85032225  0.67421104  1
  Fe  Fe62  1  1.02888566  0.75122511  0.95921173  1
  Fe  Fe63  1  0.92400688  0.74147366  0.06489620  1
  Fe  Fe64  1  0.24641587  0.92128262  0.56632421  1
  Fe  Fe65  1  0.69512375  0.04991970  0.30169430  1
  Fe  Fe66  1  0.45215315  0.31897957  0.59681895  1
  Fe  Fe67  1  0.56970088  0.59620998  0.89105092  1
  Fe  Fe68  1  0.43545147  0.81586483  0.25394827  1
  Fe  Fe69  1  0.12577538  0.41339175  0.64920007  1
  Fe  Fe70  1  0.74461796  0.19227809  0.99667016  1
  Fe  Fe71  1  0.21648661  0.82432327  0.11639650  1
  Fe  Fe72  1  0.17856493  0.72429975  1.02408373  1
  Fe  Fe73  1  0.74754461  -0.06399034  0.33094357  1
  Fe  Fe74  1  0.34234613  -0.01292406  0.64007189  1
  Fe  Fe75  1  0.67277149  0.65425552  0.33863706  1
  Fe  Fe76  1  0.65464730  1.10444111  0.89639910  1
  Fe  Fe77  1  0.60212595  1.02738219  0.79006829  1
  Fe  Fe78  1  0.16103721  0.12816816  0.15426588  1
  Fe  Fe79  1  0.13475912  0.84877842  0.98915619  1
  Fe  Fe80  1  0.65369442  0.78097535  0.40571672  1
  Fe  Fe81  1  0.58106561  0.62105707  0.23774647  1
  Fe  Fe82  1  0.10645717  0.46949657  0.78311179  1
  Fe  Fe83  1  0.35077734  0.71585945  0.28743468  1
  Fe  Fe84  1  0.56183593  0.32706356  0.53007818  1
  Fe  Fe85  1  0.13175532  0.24031212  0.34695224  1
  Fe  Fe86  1  0.34578096  0.34747378  0.96561099  1
  Fe  Fe87  1  0.46255348  0.68246704  0.19003484  1
  Fe  Fe88  1  0.66150464  0.08083664  0.03901674  1
  Fe  Fe89  1  0.88139515  0.80275294  -0.05275881  1
  Fe  Fe90  1  0.07912282  0.12889095  0.26030280  1
  Fe  Fe91  1  0.21904722  0.15341179  0.28906838  1
  Fe  Fe92  1  0.90141427  0.67561326  0.93227914  1
  Fe  Fe93  1  0.28330679  0.82372616  0.24496957  1
  Fe  Fe94  1  0.34889770  0.75658947  0.13164794  1
  Fe  Fe95  1  0.23691144  0.06973018  0.62643148  1
  Fe  Fe96  1  0.80821316  0.66727804  0.63221695  1
  Fe  Fe97  1  0.06864756  0.76820357  0.10245231  1
  Fe  Fe98  1  0.81899651  0.31900292  0.05548590  1
  Fe  Fe99  1  0.90175793  0.75021547  0.59970796  1
  Fe  Fe100  1  0.68769506  0.32872110  -0.00606988  1
  Fe  Fe101  1  0.20155677  0.13967058  0.75100444  1
  Bi  Bi102  1  -0.01661727  0.91991211  0.03034324  1
  Bi  Bi103  1  0.46869144  0.48114137  0.52580321  1
  Bi  Bi104  1  0.16125562  0.72261416  0.85428384  1
  Bi  Bi105  1  0.71723355  0.68075498  0.16575345  1
  Bi  Bi106  1  0.65191230  -0.06675217  -0.06886261  1
  Bi  Bi107  1  0.49442459  0.70117777  0.38457736  1
  Bi  Bi108  1  0.03262142  0.07073930  0.77270382  1
  Bi  Bi109  1  0.79552558  0.67928500  0.45950862  1
  Bi  Bi110  1  0.84781489  0.26261978  -0.11733662  1
  Bi  Bi111  1  0.35655709  0.23887928  0.33064550  1
  Bi  Bi112  1  0.42741931  -0.04411008  0.78344510  1
  Bi  Bi113  1  0.33025682  0.86758969  0.40436293  1
  Bi  Bi114  1  0.49091312  0.30297960  -0.09545348  1
  Bi  Bi115  1  0.08877956  0.57457416  0.34871812  1
  Bi  Bi116  1  0.59097225  0.31673989  0.35198474  1
  Bi  Bi117  1  0.28030383  0.19546794  0.90342997  1
  Bi  Bi118  1  0.85558891  0.33743651  0.38195094  1
  Bi  Bi119  1  0.66299518  0.45737489  0.88945401  1
  Bi  Bi120  1  0.91361983  0.89329851  0.34431283  1
  Bi  Bi121  1  0.07505966  0.76227970  0.60762231  1
  Bi  Bi122  1  0.32792367  0.44008908  0.11195934  1
  Bi  Bi123  1  0.69662667  0.63059570  0.75559887  1
  Bi  Bi124  1  0.39276446  0.69436626  0.64828675  1
  Bi  Bi125  1  0.63378969  0.05265438  0.62307060  1
  Bi  Bi126  1  0.56681364  0.07051777  0.18420869  1
  Bi  Bi127  1  0.47873918  0.68149793  1.01059911  1
