# generated using pymatgen
data_Ba51Fe51Bi26
_symmetry_space_group_name_H-M   'P 1'
_cell_length_a   16.56321214
_cell_length_b   16.43709753
_cell_length_c   16.23430832
_cell_angle_alpha   90.58405077
_cell_angle_beta   91.14648717
_cell_angle_gamma   90.49840990
_symmetry_Int_Tables_number   1
_chemical_formula_structural   Ba51Fe51Bi26
_chemical_formula_sum   'Ba51 Fe51 Bi26'
_cell_volume   4418.51924085
_cell_formula_units_Z   1
loop_
 _symmetry_equiv_pos_site_id
 _symmetry_equiv_pos_as_xyz
  1  'x, y, z'
loop_
 _atom_site_type_symbol
 _atom_site_label
 _atom_site_symmetry_multiplicity
 _atom_site_fract_x
 _atom_site_fract_y
 _atom_site_fract_z
 _atom_site_occupancy
  Ba  Ba0  1  0.00803773  0.02009834  0.59160182  1
  Ba  Ba1  1  -0.06089217  0.49232677  0.25277212  1
  Ba  Ba2  1  0.68209070  0.74296086  0.74175460  1
  Ba  Ba3  1  0.72382028  -0.03272422  0.01750798  1
  Ba  Ba4  1  -0.00451502  0.23367494  0.34485921  1
  Ba  Ba5  1  0.56103375  0.50124749  0.04107820  1
  Ba  Ba6  1  0.45114370  0.48910200  0.73221435  1
  Ba  Ba7  1  0.05255820  0.51097198  0.46649606  1
  Ba  Ba8  1  0.20950398  0.79830500  -0.03689148  1
  Ba  Ba9  1  -0.03712756  0.74409402  0.27729741  1
  Ba  Ba10  1  -0.01416030  -0.02875781  0.83177627  1
  Ba  Ba11  1  0.64584764  0.36709580  0.82729479  1
  Ba  Ba12  1  0.37699674  0.40629334  0.13160095  1
  Ba  Ba13  1  0.30062963  0.79202758  0.55446033  1
  Ba  Ba14  1  0.51307312  0.02985225  0.49268487  1
  Ba  Ba15  1  0.47702818  0.23000863  0.22943982  1
  Ba  Ba16  1  0.36992753  0.01580699  0.23434798  1
  Ba  Ba17  1  0.78358885  0.83684313  0.49226234  1
  Ba  Ba18  1  0.10032465  0.10649605  -0.01567535  1
  Ba  Ba19  1  0.31438222  0.13287496  -0.16588726  1
  Ba  Ba20  1  0.22649509  0.00478578  0.47290082  1
  Ba  Ba21  1  0.17456937  0.24086638  0.49811206  1
  Ba  Ba22  1  0.83800434  0.05922599  0.30454679  1
  Ba  Ba23  1  0.72611249  0.79014428  0.24928870  1
  Ba  Ba24  1  0.09380473  0.76493339  0.77029239  1
  Ba  Ba25  1  0.19896675  0.80040877  0.22033267  1
  Ba  Ba26  1  0.85120726  0.17766736  0.85031208  1
  Ba  Ba27  1  0.66316501  0.61676980  0.51995103  1
  Ba  Ba28  1  0.19610776  0.31218719  -0.02466923  1
  Ba  Ba29  1  -0.02844210  0.27956832  0.61799270  1
  Ba  Ba30  1  0.42443100  0.60488638  0.44093444  1
  Ba  Ba31  1  0.24364549  0.54766737  -0.02150679  1
  Ba  Ba32  1  0.70144700  0.24249147  0.62637106  1
  Ba  Ba33  1  0.23889761  0.53406526  0.27009444  1
  Ba  Ba34  1  0.80629911  0.41753572  0.46687393  1
  Ba  Ba35  1  0.41684271  -0.04245292  -0.00954494  1
  Ba  Ba36  1  0.43411003  0.31957959  0.52333476  1
  Ba  Ba37  1  0.66893342  0.22035086  0.36732356  1
  Ba  Ba38  1  0.01491169  0.63543087  0.04445463  1
  Ba  Ba39  1  0.43688866  0.69556539  -0.13987431  1
  Ba  Ba40  1  0.04646048  0.00538632  0.21248715  1
  Ba  Ba41  1  0.68930370  0.72795551  -0.00284949  1
  Ba  Ba42  1  0.23249478  0.33253255  0.72871589  1
  Ba  Ba43  1  0.01717624  0.75598777  0.54432850  1
  Ba  Ba44  1  0.71726840  0.22312937  0.09323482  1
  Ba  Ba45  1  0.48328032  0.74862579  0.21744024  1
  Ba  Ba46  1  -0.03912760  0.30250007  0.07913144  1
  Ba  Ba47  1  0.75842890  -0.02940951  0.70432855  1
  Ba  Ba48  1  0.00383966  0.53661883  0.74711226  1
  Ba  Ba49  1  0.50726776  0.22244382  -0.04414716  1
  Ba  Ba50  1  -0.17594406  0.49992612  -0.05526629  1
  Fe  Fe51  1  0.92306217  -0.08027541  0.02225669  1
  Fe  Fe52  1  0.43083368  -0.04421824  0.78340412  1
  Fe  Fe53  1  0.84576897  0.17721288  0.48835586  1
  Fe  Fe54  1  0.27017715  0.69012793  0.74702847  1
  Fe  Fe55  1  0.74339559  0.58360195  0.31227890  1
  Fe  Fe56  1  0.48880529  0.83196879  0.72191734  1
  Fe  Fe57  1  0.72517964  0.44649957  0.29402351  1
  Fe  Fe58  1  0.23692732  0.58917103  0.51575539  1
  Fe  Fe59  1  0.87875164  0.77869612  0.04047455  1
  Fe  Fe60  1  0.85110739  0.84266072  0.90526714  1
  Fe  Fe61  1  0.65924494  0.56912884  0.20163878  1
  Fe  Fe62  1  0.29687690  0.31611146  0.32079042  1
  Fe  Fe63  1  0.74089579  0.45498089  0.16229507  1
  Fe  Fe64  1  0.60910740  0.64468040  0.32606184  1
  Fe  Fe65  1  0.51001380  0.07191528  0.82080449  1
  Fe  Fe66  1  0.63810847  0.03178251  0.83497662  1
  Fe  Fe67  1  0.32418087  0.61982404  0.64573269  1
  Fe  Fe68  1  1.00487727  0.32915358  0.82855720  1
  Fe  Fe69  1  0.00891570  0.82258271  0.10258549  1
  Fe  Fe70  1  0.06510393  0.90965608  0.02632112  1
  Fe  Fe71  1  0.59246633  0.09959930  0.70115983  1
  Fe  Fe72  1  0.30790650  0.99434224  0.68468968  1
  Fe  Fe73  1  0.60219472  0.42661676  0.22511671  1
  Fe  Fe74  1  0.44803637  0.06382768  0.68306082  1
  Fe  Fe75  1  0.54794662  0.84246482  0.59773693  1
  Fe  Fe76  1  0.42644358  0.92293065  0.63215300  1
  Fe  Fe77  1  0.67152510  0.02541249  0.22671503  1
  Fe  Fe78  1  0.65749655  0.95112119  0.34745760  1
  Fe  Fe79  1  0.17736609  0.49356140  0.61402487  1
  Fe  Fe80  1  0.89114805  0.72019301  0.89465300  1
  Fe  Fe81  1  0.17909737  0.63412362  0.63689211  1
  Fe  Fe82  1  0.84808782  0.12119289  0.60344271  1
  Fe  Fe83  1  0.11379847  0.23270194  0.18822358  1
  Fe  Fe84  1  0.18360345  -0.01984488  0.78092108  1
  Fe  Fe85  1  0.17396104  0.93014699  0.66036198  1
  Fe  Fe86  1  0.56108527  0.95882339  0.70856247  1
  Fe  Fe87  1  0.30508990  0.49143721  0.59607928  1
  Fe  Fe88  1  0.63746862  0.16188933  0.81849470  1
  Fe  Fe89  1  0.16834903  0.35974904  0.17469613  1
  Fe  Fe90  1  0.18216214  0.07829357  0.68107124  1
  Fe  Fe91  1  0.26393721  0.26437574  0.19110151  1
  Fe  Fe92  1  0.12116420  0.85127000  0.39666546  1
  Fe  Fe93  1  0.58335794  0.92629766  0.19657205  1
  Fe  Fe94  1  0.52697941  0.55543742  0.25170260  1
  Fe  Fe95  1  0.16071028  0.33196958  0.30286017  1
  Fe  Fe96  1  0.20169134  0.13462365  0.16284043  1
  Fe  Fe97  1  0.99613724  0.80700082  0.94817964  1
  Fe  Fe98  1  0.61547622  0.50607771  0.35553341  1
  Fe  Fe99  1  0.52891593  0.92035460  0.31875664  1
  Fe  Fe100  1  0.55925799  0.05175036  0.28861738  1
  Fe  Fe101  1  0.20559883  0.18994583  0.30094363  1
  Bi  Bi102  1  0.48638947  0.68487785  0.63841745  1
  Bi  Bi103  1  0.07639905  0.18031014  0.77883166  1
  Bi  Bi104  1  0.25237117  0.42722421  0.44922483  1
  Bi  Bi105  1  0.57650396  0.79475211  0.42123041  1
  Bi  Bi106  1  0.49945290  0.23716327  0.73163208  1
  Bi  Bi107  1  0.22079261  0.53804960  0.77274671  1
  Bi  Bi108  1  0.33128524  0.17110267  0.06357698  1
  Bi  Bi109  1  0.56077466  0.07246447  0.10726326  1
  Bi  Bi110  1  0.73173003  0.04839568  0.49488484  1
  Bi  Bi111  1  0.57400994  -0.12131713  0.86993168  1
  Bi  Bi112  1  0.81274588  0.61887403  0.13647948  1
  Bi  Bi113  1  0.32137413  0.15117394  0.61580637  1
  Bi  Bi114  1  0.46187767  0.42083468  0.33135725  1
  Bi  Bi115  1  0.03971295  0.44957390  0.94287553  1
  Bi  Bi116  1  0.39153938  0.40019791  0.91446439  1
  Bi  Bi117  1  0.88772918  0.79525636  0.73348732  1
  Bi  Bi118  1  0.89764439  0.08857059  1.05794578  1
  Bi  Bi119  1  0.86269925  0.63038956  0.43073062  1
  Bi  Bi120  1  0.30149377  0.85203483  0.77469397  1
  Bi  Bi121  1  0.97508149  0.92239952  0.40309494  1
  Bi  Bi122  1  0.62496665  0.57524256  0.85468072  1
  Bi  Bi123  1  0.21640221  0.96812767  0.09080595  1
  Bi  Bi124  1  0.85231747  0.37251689  0.76034513  1
  Bi  Bi125  1  0.82233827  0.31592606  0.25354846  1
  Bi  Bi126  1  0.16203868  0.69012765  0.39872827  1
  Bi  Bi127  1  0.35039814  0.16681186  0.39037295  1
