# generated using pymatgen
data_Ba51Fe51Bi26
_symmetry_space_group_name_H-M   'P 1'
_cell_length_a   16.15910485
_cell_length_b   16.73850231
_cell_length_c   16.56735014
_cell_angle_alpha   87.14194320
_cell_angle_beta   94.45823860
_cell_angle_gamma   91.42355837
_symmetry_Int_Tables_number   1
_chemical_formula_structural   Ba51Fe51Bi26
_chemical_formula_sum   'Ba51 Fe51 Bi26'
_cell_volume   4461.01866902
_cell_formula_units_Z   1
loop_
 _symmetry_equiv_pos_site_id
 _symmetry_equiv_pos_as_xyz
  1  'x, y, z'
loop_
 _atom_site_type_symbol
 _atom_site_label
 _atom_site_symmetry_multiplicity
 _atom_site_fract_x
 _atom_site_fract_y
 _atom_site_fract_z
 _atom_site_occupancy
  Ba  Ba0  1  0.75591462  0.80982094  0.34609557  1
  Ba  Ba1  1  0.23336474  0.05235798  -0.06211823  1
  Ba  Ba2  1  0.04682344  -0.05353702  0.15209728  1
  Ba  Ba3  1  0.49897622  0.33525421  0.11999940  1
  Ba  Ba4  1  0.09365676  0.63072116  0.34776306  1
  Ba  Ba5  1  0.00190643  0.50242188  -0.05416624  1
  Ba  Ba6  1  0.69866040  0.02232447  0.51287330  1
  Ba  Ba7  1  0.62579684  0.69806024  0.01199181  1
  Ba  Ba8  1  0.22212023  0.52286251  0.53889755  1
  Ba  Ba9  1  0.75407703  -0.01274947  0.09800451  1
  Ba  Ba10  1  0.43904621  0.21161573  -0.13535564  1
  Ba  Ba11  1  -0.01663824  0.21362291  0.11350215  1
  Ba  Ba12  1  0.01457776  0.16519721  0.86537975  1
  Ba  Ba13  1  0.40317602  -0.01391199  0.57246043  1
  Ba  Ba14  1  0.44102092  0.72767111  0.21691093  1
  Ba  Ba15  1  0.20030947  0.09256841  0.66801232  1
  Ba  Ba16  1  -0.00625646  -0.00904820  0.57615366  1
  Ba  Ba17  1  0.22002323  0.37640225  0.79946658  1
  Ba  Ba18  1  0.44726005  0.17175393  0.40780760  1
  Ba  Ba19  1  0.74950292  0.32562759  0.45533576  1
  Ba  Ba20  1  0.53618161  0.42401009  0.55488329  1
  Ba  Ba21  1  0.28050824  0.66604494  0.02823103  1
  Ba  Ba22  1  0.35340827  0.39339746  0.40100619  1
  Ba  Ba23  1  0.49842751  -0.06816883  -0.02154318  1
  Ba  Ba24  1  -0.14209475  -0.02766551  0.78473513  1
  Ba  Ba25  1  0.19497270  0.24544530  0.28995957  1
  Ba  Ba26  1  0.22116804  0.79573485  0.50214714  1
  Ba  Ba27  1  0.93447503  0.27667080  0.65463551  1
  Ba  Ba28  1  0.20060786  0.00078105  0.34078713  1
  Ba  Ba29  1  0.69059965  0.21184144  0.23019110  1
  Ba  Ba30  1  0.06487100  0.19665351  0.47016998  1
  Ba  Ba31  1  0.73204882  0.75309129  0.73323376  1
  Ba  Ba32  1  0.60342264  0.02835900  0.77367322  1
  Ba  Ba33  1  0.34414457  0.59794305  0.74221044  1
  Ba  Ba34  1  0.75051192  0.21537304  -0.02515071  1
  Ba  Ba35  1  0.75519131  0.57704585  0.48743980  1
  Ba  Ba36  1  0.08595253  0.80893118  -0.04629417  1
  Ba  Ba37  1  0.26929842  0.82928378  0.79801978  1
  Ba  Ba38  1  0.38658940  -0.03261315  0.20462017  1
  Ba  Ba39  1  0.57481402  0.55472255  0.82072592  1
  Ba  Ba40  1  0.49408230  0.70782749  0.51520971  1
  Ba  Ba41  1  -0.03802266  0.70094347  0.51381913  1
  Ba  Ba42  1  0.26291616  0.29462440  0.03272626  1
  Ba  Ba43  1  0.04492774  0.50449420  0.69935986  1
  Ba  Ba44  1  0.65033801  0.29623904  0.74331224  1
  Ba  Ba45  1  -0.02588761  0.53251217  0.17517977  1
  Ba  Ba46  1  -0.00555374  0.75496388  0.74049594  1
  Ba  Ba47  1  0.80499952  0.49976476  0.73116664  1
  Ba  Ba48  1  0.29421522  0.51085509  0.20014893  1
  Ba  Ba49  1  0.70397696  0.51083324  0.22976865  1
  Ba  Ba50  1  0.86484088  0.73737637  0.08070561  1
  Fe  Fe51  1  0.13262536  0.43220150  0.28989227  1
  Fe  Fe52  1  0.02420405  0.50574614  0.50068668  1
  Fe  Fe53  1  0.46323108  0.87347460  0.76444541  1
  Fe  Fe54  1  0.07338629  0.41438336  0.40776391  1
  Fe  Fe55  1  0.43010216  0.27334084  0.60970462  1
  Fe  Fe56  1  0.50062810  0.50289833  0.27412028  1
  Fe  Fe57  1  0.80170414  0.50814295  0.04751833  1
  Fe  Fe58  1  0.41416209  0.79751497  0.66482245  1
  Fe  Fe59  1  0.51780298  0.73742419  0.73304188  1
  Fe  Fe60  1  0.40800154  0.42890411  0.89958338  1
  Fe  Fe61  1  0.66186268  0.50139287  0.00752421  1
  Fe  Fe62  1  0.91203521  0.04863170  0.98819226  1
  Fe  Fe63  1  0.12780230  0.87284913  0.65873029  1
  Fe  Fe64  1  0.94939441  0.36217385  0.45753501  1
  Fe  Fe65  1  1.02707843  0.34616840  0.27716353  1
  Fe  Fe66  1  0.38932688  0.13927121  0.09107549  1
  Fe  Fe67  1  0.06758984  0.37975148  0.55721593  1
  Fe  Fe68  1  0.36780894  0.46609731  0.01871557  1
  Fe  Fe69  1  0.31239045  0.25452024  0.69739119  1
  Fe  Fe70  1  0.23234541  0.82675632  0.17323775  1
  Fe  Fe71  1  1.17795193  0.30076388  0.62268413  1
  Fe  Fe72  1  0.58567559  0.49735134  0.38873868  1
  Fe  Fe73  1  0.74619472  0.43858439  0.91617457  1
  Fe  Fe74  1  -0.00070376  0.10517804  0.28667721  1
  Fe  Fe75  1  0.31046033  0.36227048  0.59966281  1
  Fe  Fe76  1  0.29120075  0.80188052  0.31962538  1
  Fe  Fe77  1  0.35920837  0.17993195  0.20506063  1
  Fe  Fe78  1  0.58344075  1.02844570  0.19219038  1
  Fe  Fe79  1  0.88275912  0.07920541  0.38903908  1
  Fe  Fe80  1  0.29006145  0.23087466  0.54907705  1
  Fe  Fe81  1  0.15722754  0.81640355  0.28247058  1
  Fe  Fe82  1  0.89397604  0.91814773  0.97825439  1
  Fe  Fe83  1  0.92175897  0.40549100  0.32212502  1
  Fe  Fe84  1  0.01128497  0.01613366  0.38664316  1
  Fe  Fe85  1  0.88173368  0.94254184  0.42008008  1
  Fe  Fe86  1  0.70911361  0.38315910  0.05766007  1
  Fe  Fe87  1  0.19266495  0.34008987  0.49403418  1
  Fe  Fe88  1  0.91603391  0.50379384  0.40768421  1
  Fe  Fe89  1  0.84521986  0.38994085  1.00697728  1
  Fe  Fe90  1  0.28219260  0.51143574  0.91866667  1
  Fe  Fe91  1  0.24166409  0.70534661  0.23815429  1
  Fe  Fe92  1  0.01244029  -0.01349886  0.94305417  1
  Fe  Fe93  1  0.86762651  0.09511440  0.24507955  1
  Fe  Fe94  1  0.39744020  0.15380678  0.65781576  1
  Fe  Fe95  1  0.42643649  0.56519785  0.94520070  1
  Fe  Fe96  1  0.49410506  0.13711175  0.20499720  1
  Fe  Fe97  1  0.91187538  0.97023720  0.28509359  1
  Fe  Fe98  1  0.56810179  1.05668150  0.31257453  1
  Fe  Fe99  1  0.46552800  0.55915002  0.38530028  1
  Fe  Fe100  1  0.57837919  0.81897556  0.82459973  1
  Fe  Fe101  1  0.91713980  0.44709093  0.55011158  1
  Bi  Bi102  1  0.44671611  0.72720914  0.88424923  1
  Bi  Bi103  1  0.21319961  0.10691235  0.13873441  1
  Bi  Bi104  1  0.02769901  -0.14601403  0.37574150  1
  Bi  Bi105  1  -0.13057088  0.64152817  0.31325539  1
  Bi  Bi106  1  0.58553860  0.36588276  -0.07066332  1
  Bi  Bi107  1  0.11374779  0.38842488  0.13099667  1
  Bi  Bi108  1  0.42831057  0.39398772  0.73277772  1
  Bi  Bi109  1  0.38290500  0.02185371  0.78228340  1
  Bi  Bi110  1  0.31723984  0.63812840  0.38566716  1
  Bi  Bi111  1  -0.10043914  0.23697697  0.33436255  1
  Bi  Bi112  1  0.60089062  0.65624307  0.34708174  1
  Bi  Bi113  1  0.84300429  0.36288950  0.16940536  1
  Bi  Bi114  1  0.73207197  0.01311140  0.30677466  1
  Bi  Bi115  1  0.08664255  0.72195788  0.14763055  1
  Bi  Bi116  1  0.56256558  0.12465941  0.04907414  1
  Bi  Bi117  1  0.88204407  0.33698049  0.85174924  1
  Bi  Bi118  1  0.29470011  0.87237722  0.02887652  1
  Bi  Bi119  1  0.15845952  0.62233119  0.84428190  1
  Bi  Bi120  1  0.07814900  0.95707155  0.78678129  1
  Bi  Bi121  1  0.55683674  0.34658590  0.33781111  1
  Bi  Bi122  1  0.49674427  0.55127119  0.10739534  1
  Bi  Bi123  1  0.83301344  0.85276757  0.56569262  1
  Bi  Bi124  1  0.56114676  0.16669924  0.59653232  1
  Bi  Bi125  1  0.72265008  0.87322052  0.91962708  1
  Bi  Bi126  1  0.79023582  0.61017276  0.90834745  1
  Bi  Bi127  1  0.57557384  0.87193839  0.63498126  1
