# generated using pymatgen
data_Ba51Fe51Bi26
_symmetry_space_group_name_H-M   'P 1'
_cell_length_a   16.13947849
_cell_length_b   16.82846691
_cell_length_c   16.18856129
_cell_angle_alpha   91.56917128
_cell_angle_beta   88.55355405
_cell_angle_gamma   92.15916856
_symmetry_Int_Tables_number   1
_chemical_formula_structural   Ba51Fe51Bi26
_chemical_formula_sum   'Ba51 Fe51 Bi26'
_cell_volume   4390.79703476
_cell_formula_units_Z   1
loop_
 _symmetry_equiv_pos_site_id
 _symmetry_equiv_pos_as_xyz
  1  'x, y, z'
loop_
 _atom_site_type_symbol
 _atom_site_label
 _atom_site_symmetry_multiplicity
 _atom_site_fract_x
 _atom_site_fract_y
 _atom_site_fract_z
 _atom_site_occupancy
  Ba  Ba0  1  0.45914427  0.16110637  0.25553357  1
  Ba  Ba1  1  0.46365157  -0.02649701  0.41082917  1
  Ba  Ba2  1  0.02888911  0.01020059  0.13054600  1
  Ba  Ba3  1  0.13786013  0.25525113  0.79697218  1
  Ba  Ba4  1  0.55183723  0.57783954  0.82467890  1
  Ba  Ba5  1  0.66299944  0.24447664  0.02346366  1
  Ba  Ba6  1  0.01911770  0.81078954  0.50618463  1
  Ba  Ba7  1  0.71755863  -0.07288084  0.76001627  1
  Ba  Ba8  1  0.07062101  0.27217789  0.57115034  1
  Ba  Ba9  1  0.24849818  0.04873391  0.59772938  1
  Ba  Ba10  1  0.16223805  0.81961775  0.03344478  1
  Ba  Ba11  1  0.35096069  0.38751455  -0.08505639  1
  Ba  Ba12  1  -0.06629813  -0.01882939  -0.10247905  1
  Ba  Ba13  1  0.83791908  0.73568086  0.25458587  1
  Ba  Ba14  1  0.77888577  0.47596059  0.45367399  1
  Ba  Ba15  1  0.00691068  0.52490860  0.52983476  1
  Ba  Ba16  1  0.73127389  -0.06458972  0.46403384  1
  Ba  Ba17  1  -0.06321599  0.64625592  0.74791659  1
  Ba  Ba18  1  0.42498816  -0.09162377  0.80532086  1
  Ba  Ba19  1  0.56428655  0.80771935  0.24915767  1
  Ba  Ba20  1  0.18294104  0.50604821  0.75490690  1
  Ba  Ba21  1  0.44295795  0.45813519  0.66961901  1
  Ba  Ba22  1  0.19446074  0.58956457  0.03554708  1
  Ba  Ba23  1  0.67111652  0.28906714  0.25541235  1
  Ba  Ba24  1  0.85379740  0.13444249  0.53312873  1
  Ba  Ba25  1  0.60178494  0.46913613  0.01962625  1
  Ba  Ba26  1  0.05523780  0.22365523  0.33515310  1
  Ba  Ba27  1  0.31939495  0.31829381  0.36285445  1
  Ba  Ba28  1  0.72262632  0.22738471  0.78720467  1
  Ba  Ba29  1  0.49460531  0.21166393  0.67121418  1
  Ba  Ba30  1  0.03727547  0.53155598  0.25302858  1
  Ba  Ba31  1  0.14902274  0.88761877  0.79527808  1
  Ba  Ba32  1  0.77447060  0.71072000  0.57661972  1
  Ba  Ba33  1  -0.10219937  0.39974723  0.75708564  1
  Ba  Ba34  1  0.28851263  0.56409964  0.52450050  1
  Ba  Ba35  1  0.84650962  0.14831303  0.25388269  1
  Ba  Ba36  1  0.55217917  0.57890183  0.38384666  1
  Ba  Ba37  1  0.75133502  -0.05174608  0.08687160  1
  Ba  Ba38  1  0.50718635  0.73740315  0.60439274  1
  Ba  Ba39  1  0.27784902  0.03889459  0.07280532  1
  Ba  Ba40  1  0.44671491  0.73951640  0.01363185  1
  Ba  Ba41  1  0.57247013  0.32783902  0.47374096  1
  Ba  Ba42  1  -0.04967116  0.58637625  -0.01754001  1
  Ba  Ba43  1  0.73215457  0.71192763  -0.00032335  1
  Ba  Ba44  1  0.33524627  0.14283427  0.84823220  1
  Ba  Ba45  1  0.26241950  0.80340602  0.53372639  1
  Ba  Ba46  1  -0.04386568  0.23195542  -0.02303532  1
  Ba  Ba47  1  0.52897231  0.04458032  0.03260544  1
  Ba  Ba48  1  0.28836226  0.55106633  0.27692611  1
  Ba  Ba49  1  0.80142127  0.49248488  0.18939710  1
  Ba  Ba50  1  0.19042040  0.30279065  0.10203305  1
  Fe  Fe51  1  0.48938572  0.38918434  0.28287675  1
  Fe  Fe52  1  0.77135342  0.55465522  0.85830971  1
  Fe  Fe53  1  0.44846403  0.64108261  0.19647023  1
  Fe  Fe54  1  0.29479513  0.33047304  0.69539707  1
  Fe  Fe55  1  0.30547554  0.85629690  0.31805323  1
  Fe  Fe56  1  0.48086454  0.51070616  0.20064137  1
  Fe  Fe57  1  0.97050159  0.39219603  0.37238854  1
  Fe  Fe58  1  0.29774641  0.72994773  0.87653309  1
  Fe  Fe59  1  0.71641358  0.43758501  0.83289445  1
  Fe  Fe60  1  0.74076840  0.54519433  0.72330159  1
  Fe  Fe61  1  0.86142209  0.79619282  0.86253893  1
  Fe  Fe62  1  0.42669239  0.72234855  0.79635972  1
  Fe  Fe63  1  0.77719493  0.27152735  0.41473365  1
  Fe  Fe64  1  0.65401927  0.10273157  0.20403481  1
  Fe  Fe65  1  1.04451468  0.83041343  0.20417962  1
  Fe  Fe66  1  0.16168150  0.80427491  0.33897980  1
  Fe  Fe67  1  0.93483302  0.97060238  0.57410551  1
  Fe  Fe68  1  0.57457609  1.00002809  0.22849037  1
  Fe  Fe69  1  1.02912784  0.74446833  0.30764897  1
  Fe  Fe70  1  0.69420721  0.99932594  0.28386641  1
  Fe  Fe71  1  0.98989216  0.03496756  0.33170734  1
  Fe  Fe72  1  0.59965921  0.45479834  0.23047931  1
  Fe  Fe73  1  0.04508651  -0.09777376  0.33462302  1
  Fe  Fe74  1  0.28027412  -0.00826576  0.29012574  1
  Fe  Fe75  1  0.56400525  0.76950895  0.81110145  1
  Fe  Fe76  1  0.33132425  0.60874418  0.83903722  1
  Fe  Fe77  1  1.02036180  0.70291741  0.15728952  1
  Fe  Fe78  1  0.93134517  0.96318251  0.42899460  1
  Fe  Fe79  1  -0.01306126  0.78295203  0.88960894  1
  Fe  Fe80  1  0.85887760  0.33830976  0.30932257  1
  Fe  Fe81  1  0.19337838  0.93371016  0.39403035  1
  Fe  Fe82  1  0.18116972  0.88949945  0.23263714  1
  Fe  Fe83  1  0.13373386  0.02007066  0.29658669  1
  Fe  Fe84  1  0.67620794  0.42544645  0.69727072  1
  Fe  Fe85  1  0.36846121  0.32140395  0.55514148  1
  Fe  Fe86  1  0.27753001  0.71794546  0.74151909  1
  Fe  Fe87  1  0.97518573  0.35037687  0.21718086  1
  Fe  Fe88  1  0.24440221  0.37788174  0.57432604  1
  Fe  Fe89  1  0.86444276  0.32159671  0.14602978  1
  Fe  Fe90  1  0.14368319  0.71850267  0.22099898  1
  Fe  Fe91  1  0.51079396  0.22165894  0.89990012  1
  Fe  Fe92  1  0.06078319  0.96454773  0.64363054  1
  Fe  Fe93  1  -0.03806585  0.39782227  0.08186392  1
  Fe  Fe94  1  0.89391373  0.31748188  0.46089691  1
  Fe  Fe95  1  0.02768857  0.09312499  0.63266774  1
  Fe  Fe96  1  0.39756825  0.39489139  0.15927450  1
  Fe  Fe97  1  0.36733906  0.63020032  0.70703219  1
  Fe  Fe98  1  0.92918238  0.02189183  0.70836038  1
  Fe  Fe99  1  0.27691140  0.23416103  0.60295115  1
  Fe  Fe100  1  0.52191465  0.35266608  0.15204907  1
  Fe  Fe101  1  1.07106299  0.06627392  0.75774357  1
  Bi  Bi102  1  -0.06715311  0.80899394  0.05384704  1
  Bi  Bi103  1  0.39570143  0.53604517  0.06162190  1
  Bi  Bi104  1  -0.07127161  -0.14708071  0.70866775  1
  Bi  Bi105  1  -0.06400992  0.18496599  0.75158780  1
  Bi  Bi106  1  0.72521076  0.70725667  0.78462284  1
  Bi  Bi107  1  0.41490120  -0.05993754  0.19410957  1
  Bi  Bi108  1  0.30829970  0.74316883  0.18627747  1
  Bi  Bi109  1  0.39719804  0.16868259  0.48390124  1
  Bi  Bi110  1  -0.14384034  0.93988724  0.27839110  1
  Bi  Bi111  1  0.07626699  0.05228578  0.47400755  1
  Bi  Bi112  1  0.23415248  0.14894194  0.24532671  1
  Bi  Bi113  1  0.76054152  0.31625231  0.58779463  1
  Bi  Bi114  1  0.81542641  0.40094228  -0.02399677  1
  Bi  Bi115  1  0.62834067  0.62028920  0.18012606  1
  Bi  Bi116  1  0.12737727  0.08347622  0.92594305  1
  Bi  Bi117  1  0.66399118  0.12692720  0.39292798  1
  Bi  Bi118  1  0.13437799  0.65689326  0.40583543  1
  Bi  Bi119  1  0.14264181  0.41431780  0.41908720  1
  Bi  Bi120  1  0.55880077  0.08364513  0.82281875  1
  Bi  Bi121  1  0.42400252  0.24166994  0.05027536  1
  Bi  Bi122  1  0.08760245  0.41092339  0.94882981  1
  Bi  Bi123  1  0.60427187  0.86790291  0.94121124  1
  Bi  Bi124  1  0.55707016  0.36129965  0.82512014  1
  Bi  Bi125  1  0.40681295  0.73242801  0.38786821  1
  Bi  Bi126  1  0.62312117  0.55158305  0.59206227  1
  Bi  Bi127  1  0.12724102  0.68701984  0.85564123  1
