# generated using pymatgen
data_Ba51Fe51Bi26
_symmetry_space_group_name_H-M   'P 1'
_cell_length_a   15.97813422
_cell_length_b   16.96725984
_cell_length_c   15.98231571
_cell_angle_alpha   92.87340718
_cell_angle_beta   89.81599511
_cell_angle_gamma   89.08833976
_symmetry_Int_Tables_number   1
_chemical_formula_structural   Ba51Fe51Bi26
_chemical_formula_sum   'Ba51 Fe51 Bi26'
_cell_volume   4326.85791685
_cell_formula_units_Z   1
loop_
 _symmetry_equiv_pos_site_id
 _symmetry_equiv_pos_as_xyz
  1  'x, y, z'
loop_
 _atom_site_type_symbol
 _atom_site_label
 _atom_site_symmetry_multiplicity
 _atom_site_fract_x
 _atom_site_fract_y
 _atom_site_fract_z
 _atom_site_occupancy
  Ba  Ba0  1  0.80279690  0.04389022  0.72664947  1
  Ba  Ba1  1  0.07435804  0.41509884  0.38860668  1
  Ba  Ba2  1  -0.02637588  0.79821951  0.02765889  1
  Ba  Ba3  1  0.90872724  0.58488012  0.70293057  1
  Ba  Ba4  1  0.58785854  0.04671516  0.51323395  1
  Ba  Ba5  1  0.20212949  -0.08116406  0.09987082  1
  Ba  Ba6  1  -0.08214422  0.58090214  0.27032919  1
  Ba  Ba7  1  0.08737573  -0.07203432  0.31635212  1
  Ba  Ba8  1  0.73338935  0.30428103  0.05192541  1
  Ba  Ba9  1  0.50720834  0.36424222  0.90657055  1
  Ba  Ba10  1  0.05707619  0.10192210  0.10818604  1
  Ba  Ba11  1  0.13000952  0.04158698  0.73986258  1
  Ba  Ba12  1  0.70184424  0.34225103  0.50249034  1
  Ba  Ba13  1  0.46835797  0.84315241  0.61192876  1
  Ba  Ba14  1  0.54659902  0.10753240  0.76311052  1
  Ba  Ba15  1  0.03612347  0.81618145  0.77121594  1
  Ba  Ba16  1  0.22069693  0.23472854  0.49999616  1
  Ba  Ba17  1  0.55636296  -0.04322563  -0.02672652  1
  Ba  Ba18  1  0.21740625  0.61728891  0.42239156  1
  Ba  Ba19  1  0.74647352  0.80266252  0.57925873  1
  Ba  Ba20  1  0.58924654  -0.00138730  0.24191858  1
  Ba  Ba21  1  0.49075204  0.58721237  0.77440217  1
  Ba  Ba22  1  0.27500960  0.21617163  0.10093064  1
  Ba  Ba23  1  0.63085507  0.25885628  0.28143376  1
  Ba  Ba24  1  0.05437736  0.48762864  0.07177541  1
  Ba  Ba25  1  0.33199661  0.46470620  0.55465667  1
  Ba  Ba26  1  -0.00274861  0.21386795  -0.10724561  1
  Ba  Ba27  1  0.65086156  0.59007884  0.56078102  1
  Ba  Ba28  1  0.25774570  0.83748181  0.48155859  1
  Ba  Ba29  1  0.30219412  0.21919698  0.85548812  1
  Ba  Ba30  1  0.76262861  0.83334463  -0.11497775  1
  Ba  Ba31  1  0.39887007  0.81016993  -0.13018475  1
  Ba  Ba32  1  0.26322434  0.57566173  0.18355339  1
  Ba  Ba33  1  0.11546954  0.42305784  0.83547905  1
  Ba  Ba34  1  0.51237622  0.32616420  0.65094079  1
  Ba  Ba35  1  0.46475103  0.47043269  0.35683440  1
  Ba  Ba36  1  0.00061591  0.13795983  0.41289197  1
  Ba  Ba37  1  -0.04258278  -0.07234298  0.54701519  1
  Ba  Ba38  1  0.40798327  0.15000325  0.35208976  1
  Ba  Ba39  1  0.74782318  0.26885291  0.78358351  1
  Ba  Ba40  1  0.77452372  -0.10856907  0.35038261  1
  Ba  Ba41  1  0.83464623  0.07746720  0.23250815  1
  Ba  Ba42  1  0.71190335  0.71687275  0.14666774  1
  Ba  Ba43  1  0.52088963  0.17498883  0.06416040  1
  Ba  Ba44  1  0.68405698  0.50481564  0.25850076  1
  Ba  Ba45  1  0.46678351  0.55384900  0.04927161  1
  Ba  Ba46  1  0.43350525  0.81811005  0.16354785  1
  Ba  Ba47  1  0.22304992  0.62908592  0.75369058  1
  Ba  Ba48  1  0.72731911  0.57093247  -0.10336626  1
  Ba  Ba49  1  -0.05170159  0.33952454  0.62260809  1
  Ba  Ba50  1  -0.05252256  0.30926885  0.18447931  1
  Fe  Fe51  1  0.01987877  0.65294438  0.42001074  1
  Fe  Fe52  1  0.13521960  0.66718110  0.03197653  1
  Fe  Fe53  1  0.45241315  0.75381479  0.38439278  1
  Fe  Fe54  1  0.90825917  0.75144317  0.40296414  1
  Fe  Fe55  1  0.86487815  0.13769558  0.04083922  1
  Fe  Fe56  1  0.19931043  0.55926017  0.96305081  1
  Fe  Fe57  1  0.56343773  0.67919341  0.41038255  1
  Fe  Fe58  1  0.19763792  0.05970753  0.93718790  1
  Fe  Fe59  1  0.20529120  0.37900716  0.21793337  1
  Fe  Fe60  1  0.30655402  0.31261530  0.30393850  1
  Fe  Fe61  1  0.87147129  1.00311175  0.03013707  1
  Fe  Fe62  1  0.81864252  0.37221802  0.32883083  1
  Fe  Fe63  1  0.90256880  0.31572588  0.41569893  1
  Fe  Fe64  1  0.94202536  0.72936723  0.54648997  1
  Fe  Fe65  1  0.88974246  0.38158009  -0.05379037  1
  Fe  Fe66  1  0.42259062  0.34384944  1.07867614  1
  Fe  Fe67  1  0.74458797  0.15423573  0.57061174  1
  Fe  Fe68  1  0.29277165  0.65992057  0.98026098  1
  Fe  Fe69  1  0.31346287  1.00736538  0.61098671  1
  Fe  Fe70  1  0.04085748  0.78370046  0.44475517  1
  Fe  Fe71  1  0.58489723  0.78057554  0.30623111  1
  Fe  Fe72  1  0.89259394  1.05169249  0.90865548  1
  Fe  Fe73  1  0.30739510  -0.02324170  0.31200828  1
  Fe  Fe74  1  0.23818076  0.73559254  0.09042082  1
  Fe  Fe75  1  0.51702633  0.38232623  0.16403569  1
  Fe  Fe76  1  0.66862051  0.12656368  0.92937982  1
  Fe  Fe77  1  0.23475788  0.06967259  0.24117399  1
  Fe  Fe78  1  0.80593425  0.06066496  0.49230587  1
  Fe  Fe79  1  0.27108805  0.43499327  0.32487637  1
  Fe  Fe80  1  0.30979540  0.28297446  0.67496446  1
  Fe  Fe81  1  0.43129568  0.29705230  0.22313303  1
  Fe  Fe82  1  0.91852200  0.50045625  0.91373923  1
  Fe  Fe83  1  0.86548674  0.63877553  0.47712282  1
  Fe  Fe84  1  0.99028097  0.58260897  0.52608811  1
  Fe  Fe85  1  0.32385341  0.53420841  0.91092144  1
  Fe  Fe86  1  0.10446425  0.72362508  0.17095148  1
  Fe  Fe87  1  0.81912588  0.23909877  0.33942822  1
  Fe  Fe88  1  0.87175674  0.41726014  0.81420243  1
  Fe  Fe89  1  0.58949464  0.81711359  0.43836908  1
  Fe  Fe90  1  0.32252973  0.01894849  0.97411662  1
  Fe  Fe91  1  0.21922228  0.07462807  0.37647650  1
  Fe  Fe92  1  0.22637336  0.93920496  0.88401876  1
  Fe  Fe93  1  0.73664952  0.13894589  0.40937605  1
  Fe  Fe94  1  0.35463802  0.40620283  0.19277338  1
  Fe  Fe95  1  0.83544080  0.20652889  0.48320586  1
  Fe  Fe96  1  0.32254247  1.02251793  0.47157073  1
  Fe  Fe97  1  0.75407217  1.01781755  0.93058165  1
  Fe  Fe98  1  0.73309611  0.08645038  0.05466818  1
  Fe  Fe99  1  0.80095901  0.15433342  0.92214526  1
  Fe  Fe100  1  0.21503842  0.37081437  0.66629409  1
  Fe  Fe101  1  0.08150270  0.72638544  0.31117170  1
  Bi  Bi102  1  0.10331858  0.71484249  0.58737897  1
  Bi  Bi103  1  0.15073131  0.02506891  0.52222194  1
  Bi  Bi104  1  0.74436713  -0.08058650  0.09796619  1
  Bi  Bi105  1  0.86291326  0.47569104  0.46630675  1
  Bi  Bi106  1  0.36092977  0.01560481  0.80657800  1
  Bi  Bi107  1  0.19011102  0.78289730  -0.07231651  1
  Bi  Bi108  1  0.34712299  0.42531488  0.77142732  1
  Bi  Bi109  1  0.45373138  0.92147213  0.39099701  1
  Bi  Bi110  1  0.73426043  0.68862605  0.37590710  1
  Bi  Bi111  1  -0.05875514  0.78781535  0.23819628  1
  Bi  Bi112  1  0.15532136  0.22107178  0.28362483  1
  Bi  Bi113  1  0.24264342  -0.22194046  0.26470024  1
  Bi  Bi114  1  0.27463509  0.41540240  0.02264073  1
  Bi  Bi115  1  0.83157379  0.49244540  0.07638906  1
  Bi  Bi116  1  0.40059468  0.15067397  0.59480344  1
  Bi  Bi117  1  0.61894834  0.74353926  0.74724261  1
  Bi  Bi118  1  0.11075388  0.48588630  0.60238739  1
  Bi  Bi119  1  0.04211287  0.97563591  0.93106507  1
  Bi  Bi120  1  0.13362984  0.24103323  0.71169266  1
  Bi  Bi121  1  0.25619889  0.86944099  0.70702569  1
  Bi  Bi122  1  0.38463329  0.03124154  0.14865184  1
  Bi  Bi123  1  0.57620076  0.72734102  -0.03190454  1
  Bi  Bi124  1  0.42719860  0.64805588  0.52036005  1
  Bi  Bi125  1  0.49988700  0.64064959  0.24717525  1
  Bi  Bi126  1  0.72368816  0.45108618  0.70660768  1
  Bi  Bi127  1  0.03483738  0.62038698  0.89191730  1
