# generated using pymatgen
data_Ba51Fe51Bi26
_symmetry_space_group_name_H-M   'P 1'
_cell_length_a   16.75708638
_cell_length_b   16.05869549
_cell_length_c   16.35516623
_cell_angle_alpha   89.90464800
_cell_angle_beta   90.29804377
_cell_angle_gamma   90.62884180
_symmetry_Int_Tables_number   1
_chemical_formula_structural   Ba51Fe51Bi26
_chemical_formula_sum   'Ba51 Fe51 Bi26'
_cell_volume   4400.79500700
_cell_formula_units_Z   1
loop_
 _symmetry_equiv_pos_site_id
 _symmetry_equiv_pos_as_xyz
  1  'x, y, z'
loop_
 _atom_site_type_symbol
 _atom_site_label
 _atom_site_symmetry_multiplicity
 _atom_site_fract_x
 _atom_site_fract_y
 _atom_site_fract_z
 _atom_site_occupancy
  Ba  Ba0  1  0.83256867  0.49375957  0.19047096  1
  Ba  Ba1  1  0.75566320  0.79266702  0.43655681  1
  Ba  Ba2  1  0.00905336  0.26170565  -0.09023728  1
  Ba  Ba3  1  -0.02975833  0.04447157  0.68431552  1
  Ba  Ba4  1  0.30786248  -0.07487455  0.20479271  1
  Ba  Ba5  1  0.52688588  0.33226510  0.49388787  1
  Ba  Ba6  1  0.83944438  0.22551640  0.16400346  1
  Ba  Ba7  1  0.29487466  0.53326468  0.10275668  1
  Ba  Ba8  1  0.33874754  0.29631985  0.09866247  1
  Ba  Ba9  1  0.11919788  0.80561949  0.56919559  1
  Ba  Ba10  1  0.47147781  0.41650800  0.75820825  1
  Ba  Ba11  1  0.03400046  -0.00544656  0.46070194  1
  Ba  Ba12  1  0.54698091  0.57124910  0.13043525  1
  Ba  Ba13  1  0.26945147  0.45027101  0.59652133  1
  Ba  Ba14  1  0.77062658  0.03137714  0.52104596  1
  Ba  Ba15  1  0.26541012  0.01369444  -0.04679648  1
  Ba  Ba16  1  0.76483273  0.27478178  0.41320088  1
  Ba  Ba17  1  0.06169568  0.27941524  0.48578035  1
  Ba  Ba18  1  0.49975202  0.57864853  0.41459996  1
  Ba  Ba19  1  0.56168812  0.79990662  0.29030667  1
  Ba  Ba20  1  0.35243190  0.71397850  0.65947463  1
  Ba  Ba21  1  0.06399362  0.38512867  0.19334250  1
  Ba  Ba22  1  -0.06103558  -0.08927336  0.24381329  1
  Ba  Ba23  1  0.74984477  -0.06776720  0.76750598  1
  Ba  Ba24  1  0.23109670  0.45286965  0.85617525  1
  Ba  Ba25  1  0.74193339  0.52532074  0.47368084  1
  Ba  Ba26  1  0.46080104  0.00147260  0.76024388  1
  Ba  Ba27  1  -0.00757362  0.73763569  0.75785177  1
  Ba  Ba28  1  0.21091189  0.74118751  0.02678194  1
  Ba  Ba29  1  0.72633977  0.71392945  0.66324329  1
  Ba  Ba30  1  0.10040842  0.10527184  0.24074286  1
  Ba  Ba31  1  -0.13217803  0.26565910  0.66096739  1
  Ba  Ba32  1  0.40464633  0.12934901  0.43580226  1
  Ba  Ba33  1  0.01063659  0.45431794  0.73102587  1
  Ba  Ba34  1  0.53124822  0.72361820  0.79917976  1
  Ba  Ba35  1  0.05883028  0.57593095  0.51842273  1
  Ba  Ba36  1  0.70750534  0.01541646  0.26346116  1
  Ba  Ba37  1  0.18286746  0.66229412  0.29178167  1
  Ba  Ba38  1  0.72679287  0.44535384  0.70947287  1
  Ba  Ba39  1  0.66532100  0.48039766  -0.05474554  1
  Ba  Ba40  1  -0.06439010  0.49111053  -0.02457399  1
  Ba  Ba41  1  0.63156714  0.18514253  0.78985720  1
  Ba  Ba42  1  0.01110730  0.00426627  -0.06112794  1
  Ba  Ba43  1  -0.05062768  0.63877459  0.32286273  1
  Ba  Ba44  1  0.45664539  0.79242580  0.01442125  1
  Ba  Ba45  1  0.28775501  0.00965854  0.60339951  1
  Ba  Ba46  1  0.78531006  0.73367011  0.15979073  1
  Ba  Ba47  1  -0.02820233  0.75751737  0.00472641  1
  Ba  Ba48  1  0.54483000  0.21975243  0.25102406  1
  Ba  Ba49  1  0.34562919  0.80391705  0.41880842  1
  Ba  Ba50  1  0.72322231  0.03832995  -0.00640304  1
  Fe  Fe51  1  0.15046501  0.83733778  0.86488022  1
  Fe  Fe52  1  0.22201709  0.70902287  0.83198711  1
  Fe  Fe53  1  0.26308201  0.14641132  0.75398563  1
  Fe  Fe54  1  0.37117481  0.30471911  0.88614418  1
  Fe  Fe55  1  0.28063257  0.42102062  0.28182650  1
  Fe  Fe56  1  0.42104242  0.08888177  0.10176892  1
  Fe  Fe57  1  0.23577387  0.20569396  0.39290871  1
  Fe  Fe58  1  0.38331068  0.41933997  0.39598350  1
  Fe  Fe59  1  0.26350872  0.34950644  0.42662673  1
  Fe  Fe60  1  0.51995092  0.17485312  0.04401674  1
  Fe  Fe61  1  0.20983983  0.28942823  0.29034493  1
  Fe  Fe62  1  0.05594850  0.23206087  0.71482731  1
  Fe  Fe63  1  0.49499156  0.26745327  0.92756177  1
  Fe  Fe64  1  0.91692645  0.15386235  0.50342884  1
  Fe  Fe65  1  0.19860595  0.81074627  0.74447571  1
  Fe  Fe66  1  0.40151764  0.18553594  0.81796386  1
  Fe  Fe67  1  0.49705169  0.92379960  0.44624648  1
  Fe  Fe68  1  0.05128900  0.80542667  0.37942575  1
  Fe  Fe69  1  0.12417742  0.87707072  0.29614714  1
  Fe  Fe70  1  0.70221721  0.67928823  0.87212794  1
  Fe  Fe71  1  0.80533341  0.76537976  0.86266273  1
  Fe  Fe72  1  0.59770356  0.01389620  0.42846369  1
  Fe  Fe73  1  0.12630730  0.14388630  0.80316263  1
  Fe  Fe74  1  0.95217094  0.76322429  0.47400835  1
  Fe  Fe75  1  0.82339661  0.22861630  -0.02982391  1
  Fe  Fe76  1  0.62777304  0.44132636  0.29818072  1
  Fe  Fe77  1  0.60801355  0.14919529  0.59103998  1
  Fe  Fe78  1  0.87122048  0.56368893  0.64779910  1
  Fe  Fe79  1  0.57938766  0.86704887  0.66096830  1
  Fe  Fe80  1  0.39901755  0.16382249  0.96222776  1
  Fe  Fe81  1  0.28794403  0.51235371  0.40907091  1
  Fe  Fe82  1  0.18161751  0.27873853  0.73250898  1
  Fe  Fe83  1  0.14249706  0.14534852  0.65859396  1
  Fe  Fe84  1  0.52107089  1.04112266  0.54988104  1
  Fe  Fe85  1  0.35085453  0.29044022  0.32500952  1
  Fe  Fe86  1  0.56878275  1.06439531  0.12632043  1
  Fe  Fe87  1  0.65704985  0.71361796  0.00362989  1
  Fe  Fe88  1  0.61679178  0.90684273  0.52659196  1
  Fe  Fe89  1  0.89096003  0.65770509  0.54786950  1
  Fe  Fe90  1  0.61440264  1.00248389  0.63660561  1
  Fe  Fe91  1  0.60717972  0.14594474  0.46126222  1
  Fe  Fe92  1  0.66513992  0.81913372  0.91259261  1
  Fe  Fe93  1  0.77499887  0.81413625  -0.01530360  1
  Fe  Fe94  1  0.79671305  0.35192939  0.01619019  1
  Fe  Fe95  1  0.35690293  0.54312849  0.29657767  1
  Fe  Fe96  1  0.32324296  0.27990825  0.74175361  1
  Fe  Fe97  1  0.48926838  0.96014599  0.12231056  1
  Fe  Fe98  1  0.79136626  0.66195180  -0.02332358  1
  Fe  Fe99  1  0.89911157  0.47553576  0.55582374  1
  Fe  Fe100  1  0.47550112  0.90493041  0.58534502  1
  Fe  Fe101  1  0.80099915  0.31721020  0.87394906  1
  Bi  Bi102  1  0.46237245  0.41798416  0.25228984  1
  Bi  Bi103  1  0.14902411  -0.02288078  0.76184299  1
  Bi  Bi104  1  0.54022688  0.75096263  0.53413981  1
  Bi  Bi105  1  0.22873404  0.22858324  0.90936310  1
  Bi  Bi106  1  0.50279852  0.02148662  -0.03711497  1
  Bi  Bi107  1  0.14047856  0.45162079  0.37414348  1
  Bi  Bi108  1  0.45549017  0.19644665  0.65394850  1
  Bi  Bi109  1  0.25771307  0.23406857  0.57096994  1
  Bi  Bi110  1  0.63924574  0.86913102  0.09309045  1
  Bi  Bi111  1  0.44836107  0.43383137  -0.02943182  1
  Bi  Bi112  1  0.49597393  0.00153148  0.28655083  1
  Bi  Bi113  1  0.30723992  0.14331484  0.24110438  1
  Bi  Bi114  1  0.65819172  0.25405678  -0.01271008  1
  Bi  Bi115  1  0.89656319  0.11053199  0.34229035  1
  Bi  Bi116  1  0.83928961  0.59169051  0.81767766  1
  Bi  Bi117  1  0.33586440  0.84152111  0.83786241  1
  Bi  Bi118  1  0.67657970  0.37012338  0.15471376  1
  Bi  Bi119  1  0.04883603  0.59636590  0.13119953  1
  Bi  Bi120  1  0.38182027  0.70186014  0.22106526  1
  Bi  Bi121  1  0.10944442  -0.08896304  0.12237930  1
  Bi  Bi122  1  0.67870122  0.61089161  0.29724007  1
  Bi  Bi123  1  0.35885161  0.62238073  0.88942462  1
  Bi  Bi124  1  0.16262235  0.61705909  0.70103597  1
  Bi  Bi125  1  0.84494421  0.13000532  0.83420026  1
  Bi  Bi126  1  0.89059713  0.85359481  0.60192582  1
  Bi  Bi127  1  0.91566899  0.42647692  0.38675330  1
