# generated using pymatgen
data_Ba51Fe51Bi26
_symmetry_space_group_name_H-M   'P 1'
_cell_length_a   16.05899705
_cell_length_b   16.39415614
_cell_length_c   16.48476318
_cell_angle_alpha   88.62124581
_cell_angle_beta   89.31767094
_cell_angle_gamma   88.14298212
_symmetry_Int_Tables_number   1
_chemical_formula_structural   Ba51Fe51Bi26
_chemical_formula_sum   'Ba51 Fe51 Bi26'
_cell_volume   4336.20049869
_cell_formula_units_Z   1
loop_
 _symmetry_equiv_pos_site_id
 _symmetry_equiv_pos_as_xyz
  1  'x, y, z'
loop_
 _atom_site_type_symbol
 _atom_site_label
 _atom_site_symmetry_multiplicity
 _atom_site_fract_x
 _atom_site_fract_y
 _atom_site_fract_z
 _atom_site_occupancy
  Ba  Ba0  1  0.74043324  0.83725828  0.30420068  1
  Ba  Ba1  1  0.25046110  0.75016272  0.61479646  1
  Ba  Ba2  1  0.07201800  0.05202443  0.36509858  1
  Ba  Ba3  1  0.46794441  0.66703400  0.23622635  1
  Ba  Ba4  1  0.22281994  0.42729412  0.56339590  1
  Ba  Ba5  1  0.22957720  0.73543943  0.13029517  1
  Ba  Ba6  1  -0.03092029  0.77583326  0.50034395  1
  Ba  Ba7  1  0.24737939  0.52850055  0.29914963  1
  Ba  Ba8  1  0.53352673  0.69011341  0.70775809  1
  Ba  Ba9  1  -0.09300358  0.46355188  0.68885779  1
  Ba  Ba10  1  0.24244016  0.28232095  0.23082906  1
  Ba  Ba11  1  0.34399326  0.77264856  -0.14375448  1
  Ba  Ba12  1  0.50626206  0.51420728  0.47119143  1
  Ba  Ba13  1  0.43304562  0.07257127  0.56226381  1
  Ba  Ba14  1  0.02804624  -0.07812481  -0.01361476  1
  Ba  Ba15  1  0.78981398  0.02801165  0.10264105  1
  Ba  Ba16  1  0.02952157  0.55803667  0.47233629  1
  Ba  Ba17  1  0.71771796  0.81688007  0.54738357  1
  Ba  Ba18  1  0.75051709  0.73208812  0.79536602  1
  Ba  Ba19  1  0.01261408  -0.02484807  0.61282879  1
  Ba  Ba20  1  0.53260769  0.48156385  0.07865960  1
  Ba  Ba21  1  0.77285658  0.08011350  0.56733201  1
  Ba  Ba22  1  0.66736840  0.44669573  0.70789526  1
  Ba  Ba23  1  0.75932914  0.53205316  -0.02356227  1
  Ba  Ba24  1  0.74139030  0.60588917  0.20604867  1
  Ba  Ba25  1  -0.03910331  0.26618824  0.26725557  1
  Ba  Ba26  1  0.78036146  0.54551839  0.46004570  1
  Ba  Ba27  1  0.46979975  0.20368163  0.32938761  1
  Ba  Ba28  1  0.54732513  0.00432911  -0.00818521  1
  Ba  Ba29  1  -0.09802347  0.22061136  0.01828679  1
  Ba  Ba30  1  0.53624115  -0.03102376  0.23563703  1
  Ba  Ba31  1  0.25298227  0.01615705  0.72988295  1
  Ba  Ba32  1  0.01009948  0.17648034  0.78194788  1
  Ba  Ba33  1  0.22747541  0.53400398  0.79741316  1
  Ba  Ba34  1  -0.01777010  0.72938550  0.74396630  1
  Ba  Ba35  1  0.46276728  0.25336734  0.01776943  1
  Ba  Ba36  1  0.47970109  0.47134756  0.85384593  1
  Ba  Ba37  1  0.44596710  0.31427910  0.60973868  1
  Ba  Ba38  1  0.29686896  0.29155004  0.81945036  1
  Ba  Ba39  1  0.01103706  0.43546179  -0.04825946  1
  Ba  Ba40  1  0.46836205  0.82966954  0.45797761  1
  Ba  Ba41  1  0.77425659  0.78014146  0.01682645  1
  Ba  Ba42  1  0.18158193  0.15729419  0.01010228  1
  Ba  Ba43  1  0.30556397  -0.05703464  0.02731075  1
  Ba  Ba44  1  0.01124661  0.53069659  0.19572893  1
  Ba  Ba45  1  0.69258729  0.35111298  0.31239182  1
  Ba  Ba46  1  0.30213157  0.03277398  0.34476536  1
  Ba  Ba47  1  0.76109469  0.18085910  0.80707237  1
  Ba  Ba48  1  0.10118006  0.67214605  -0.04494571  1
  Ba  Ba49  1  0.02412054  0.26107400  0.54196614  1
  Ba  Ba50  1  -0.02188857  0.86630676  0.23147234  1
  Fe  Fe51  1  0.45449263  0.72836270  0.04019521  1
  Fe  Fe52  1  0.09153322  0.72794005  0.32571344  1
  Fe  Fe53  1  0.65244131  0.33988655  0.91503802  1
  Fe  Fe54  1  0.85296395  0.13379229  0.38632925  1
  Fe  Fe55  1  0.70041324  0.34953022  0.53805626  1
  Fe  Fe56  1  0.91897229  0.63382364  0.02940919  1
  Fe  Fe57  1  -0.15594073  0.35959532  0.50612975  1
  Fe  Fe58  1  0.59048351  0.90128140  0.76748252  1
  Fe  Fe59  1  0.45766871  0.94061715  0.82596055  1
  Fe  Fe60  1  0.24251334  0.73408841  0.31986464  1
  Fe  Fe61  1  0.73724045  0.91504170  0.71351504  1
  Fe  Fe62  1  0.72334881  0.34365029  0.02746496  1
  Fe  Fe63  1  0.59682061  0.66870819  0.03808220  1
  Fe  Fe64  1  0.86826749  0.88925453  0.80227274  1
  Fe  Fe65  1  0.19779738  0.53516866  0.10143130  1
  Fe  Fe66  1  0.66144091  0.25519431  0.64546180  1
  Fe  Fe67  1  0.20892225  0.12583534  0.49616564  1
  Fe  Fe68  1  0.89414329  0.02266588  0.87741511  1
  Fe  Fe69  1  0.80506796  0.28199156  0.60662006  1
  Fe  Fe70  1  0.51258904  0.04292712  0.75410000  1
  Fe  Fe71  1  0.15534470  0.94802393  0.17406089  1
  Fe  Fe72  1  0.79166286  0.17545512  0.25722694  1
  Fe  Fe73  1  0.31626869  0.21113510  0.47349451  1
  Fe  Fe74  1  0.75106981  1.03452159  0.31938832  1
  Fe  Fe75  1  0.88527182  1.05826481  0.27398334  1
  Fe  Fe76  1  0.17597865  0.86010458  0.28474767  1
  Fe  Fe77  1  -0.01526543  -0.04008521  0.79911128  1
  Fe  Fe78  1  0.15174410  0.40853181  0.10279509  1
  Fe  Fe79  1  0.60312233  0.97984882  0.64185372  1
  Fe  Fe80  1  0.59472631  0.13743978  0.67283952  1
  Fe  Fe81  1  0.61433141  0.63882829  0.90573515  1
  Fe  Fe82  1  0.74438573  0.62139851  0.63851738  1
  Fe  Fe83  1  0.86525729  0.64672970  0.61127111  1
  Fe  Fe84  1  0.83946764  0.01061387  0.74643768  1
  Fe  Fe85  1  0.12872585  0.84336248  0.41493952  1
  Fe  Fe86  1  0.48780464  0.64397986  0.93470247  1
  Fe  Fe87  1  0.30508139  0.43946346  0.10795928  1
  Fe  Fe88  1  0.69933414  0.15056456  0.37382488  1
  Fe  Fe89  1  0.20387344  0.48183143  0.98148307  1
  Fe  Fe90  1  0.57831901  0.79998529  0.09465783  1
  Fe  Fe91  1  0.26856769  0.82726615  0.41234518  1
  Fe  Fe92  1  0.78394843  0.24632312  0.45539373  1
  Fe  Fe93  1  0.18973399  0.06981122  0.18338969  1
  Fe  Fe94  1  0.33344915  0.42310758  0.97707489  1
  Fe  Fe95  1  0.45109940  0.83993528  0.11404430  1
  Fe  Fe96  1  0.23503172  0.34148760  1.01757384  1
  Fe  Fe97  1  0.66948068  0.02994068  0.75421592  1
  Fe  Fe98  1  0.17032753  0.70703769  0.43605741  1
  Fe  Fe99  1  0.74895085  0.25782650  0.13985230  1
  Fe  Fe100  1  0.91066504  0.63734669  0.90542480  1
  Fe  Fe101  1  0.19952588  0.25596619  0.42586253  1
  Bi  Bi102  1  0.55940370  0.80142820  -0.09238548  1
  Bi  Bi103  1  0.33810704  0.59341650  0.00200065  1
  Bi  Bi104  1  0.55535271  0.27269032  0.78945996  1
  Bi  Bi105  1  0.60403692  0.22107506  0.49488591  1
  Bi  Bi106  1  0.09694310  0.38613942  0.37080320  1
  Bi  Bi107  1  0.21322217  -0.04928380  0.52247733  1
  Bi  Bi108  1  0.73836149  -0.04540690  0.89208865  1
  Bi  Bi109  1  0.43874214  -0.11672016  0.67061888  1
  Bi  Bi110  1  0.33953775  0.65784518  0.43999460  1
  Bi  Bi111  1  0.01563150  0.07107410  0.15079901  1
  Bi  Bi112  1  0.63287656  0.15564224  0.20731741  1
  Bi  Bi113  1  0.61851355  -0.00328177  0.43558527  1
  Bi  Bi114  1  0.67359686  0.18653897  0.00231266  1
  Bi  Bi115  1  0.35783602  0.11047445  0.14940124  1
  Bi  Bi116  1  0.83800113  0.40542550  0.14137573  1
  Bi  Bi117  1  0.39994219  0.52699347  0.66559707  1
  Bi  Bi118  1  0.88258317  0.95690316  0.41869204  1
  Bi  Bi119  1  0.91711166  0.67751059  0.32203350  1
  Bi  Bi120  1  0.38150938  0.09080618  0.87780585  1
  Bi  Bi121  1  0.35149622  0.85252540  0.25223000  1
  Bi  Bi122  1  0.09538467  0.36830613  0.74680477  1
  Bi  Bi123  1  0.82052265  0.36667696  0.86680859  1
  Bi  Bi124  1  0.23798969  0.21335829  0.63012977  1
  Bi  Bi125  1  0.62268552  0.68111823  0.38859481  1
  Bi  Bi126  1  0.35489767  0.36364199  0.40722773  1
  Bi  Bi127  1  0.13352393  0.85600364  0.80755133  1
