# generated using pymatgen
data_Ba51Fe51Bi26
_symmetry_space_group_name_H-M   'P 1'
_cell_length_a   16.41059492
_cell_length_b   16.64211053
_cell_length_c   16.16000206
_cell_angle_alpha   90.97363581
_cell_angle_beta   89.25603216
_cell_angle_gamma   86.58370673
_symmetry_Int_Tables_number   1
_chemical_formula_structural   Ba51Fe51Bi26
_chemical_formula_sum   'Ba51 Fe51 Bi26'
_cell_volume   4404.49640284
_cell_formula_units_Z   1
loop_
 _symmetry_equiv_pos_site_id
 _symmetry_equiv_pos_as_xyz
  1  'x, y, z'
loop_
 _atom_site_type_symbol
 _atom_site_label
 _atom_site_symmetry_multiplicity
 _atom_site_fract_x
 _atom_site_fract_y
 _atom_site_fract_z
 _atom_site_occupancy
  Ba  Ba0  1  0.71150221  0.77513920  0.06166742  1
  Ba  Ba1  1  0.68580321  0.43521159  0.38114691  1
  Ba  Ba2  1  0.52761346  0.21678909  -0.04258287  1
  Ba  Ba3  1  0.91327865  0.77378833  0.56660101  1
  Ba  Ba4  1  -0.04419007  0.51450432  0.11857813  1
  Ba  Ba5  1  0.28814788  0.67453581  0.36441533  1
  Ba  Ba6  1  -0.06277318  0.72873676  0.22323513  1
  Ba  Ba7  1  0.77059177  0.73294618  0.79469678  1
  Ba  Ba8  1  0.30677040  0.46183690  0.21568635  1
  Ba  Ba9  1  0.56929185  0.55873060  0.02925444  1
  Ba  Ba10  1  0.01000352  0.50173753  0.52837884  1
  Ba  Ba11  1  0.18905270  0.46987264  0.71779812  1
  Ba  Ba12  1  0.79381429  0.36855882  -0.01714775  1
  Ba  Ba13  1  0.67748585  0.01576311  0.00843805  1
  Ba  Ba14  1  -0.08351546  0.26331116  0.55813556  1
  Ba  Ba15  1  0.44654420  -0.06442669  0.02846415  1
  Ba  Ba16  1  0.50022245  0.68503917  0.22353852  1
  Ba  Ba17  1  0.71774527  0.77121597  0.34852565  1
  Ba  Ba18  1  0.15308838  0.24350162  0.16779954  1
  Ba  Ba19  1  0.13910796  0.86004411  0.70477978  1
  Ba  Ba20  1  0.32512082  0.25529289  0.62180689  1
  Ba  Ba21  1  -0.05043165  0.10378650  0.82552129  1
  Ba  Ba22  1  0.54387876  0.35857946  0.18497343  1
  Ba  Ba23  1  0.28900949  0.14571639  -0.05060215  1
  Ba  Ba24  1  0.50277804  0.74765018  -0.12469107  1
  Ba  Ba25  1  0.51135251  0.88116446  0.67516853  1
  Ba  Ba26  1  -0.04523364  0.91253169  -0.00338366  1
  Ba  Ba27  1  0.05626406  0.06262053  0.37164248  1
  Ba  Ba28  1  0.77088121  -0.01341726  0.25867447  1
  Ba  Ba29  1  0.06584328  0.30070706  -0.06733638  1
  Ba  Ba30  1  0.59744239  0.24457351  0.73016061  1
  Ba  Ba31  1  0.33801539  0.03960848  0.51620041  1
  Ba  Ba32  1  -0.07510294  0.54073524  0.82075586  1
  Ba  Ba33  1  -0.03743214  0.00151132  0.58745086  1
  Ba  Ba34  1  0.20772994  -0.06839752  0.05368208  1
  Ba  Ba35  1  0.28197450  0.42942154  -0.01941986  1
  Ba  Ba36  1  0.41693411  -0.12116211  0.36210283  1
  Ba  Ba37  1  -0.12103869  0.14730261  0.09725983  1
  Ba  Ba38  1  0.19831087  0.24486866  0.40389129  1
  Ba  Ba39  1  0.75174945  0.58900182  0.54431956  1
  Ba  Ba40  1  0.49636177  0.19971604  0.43717158  1
  Ba  Ba41  1  0.53452126  0.46354952  0.55999868  1
  Ba  Ba42  1  0.29586678  0.44176912  0.47089236  1
  Ba  Ba43  1  0.50286362  0.09676603  0.22235141  1
  Ba  Ba44  1  0.43737960  0.51878669  0.79751828  1
  Ba  Ba45  1  0.18634955  0.66248456  0.10604346  1
  Ba  Ba46  1  0.13495562  -0.15120489  0.27929434  1
  Ba  Ba47  1  -0.06305613  0.34312565  0.30813974  1
  Ba  Ba48  1  0.67748432  0.02852415  0.55068225  1
  Ba  Ba49  1  0.22121730  0.68929919  -0.14852299  1
  Ba  Ba50  1  0.25597519  0.05934204  0.74072661  1
  Fe  Fe51  1  0.68069970  0.17091814  0.22336279  1
  Fe  Fe52  1  0.68309815  0.58761161  0.26823454  1
  Fe  Fe53  1  0.13091085  0.29333426  0.64552793  1
  Fe  Fe54  1  0.81024788  0.98127902  0.72481178  1
  Fe  Fe55  1  0.22489339  0.68035863  0.64987423  1
  Fe  Fe56  1  0.11077925  0.41847800  0.34601663  1
  Fe  Fe57  1  0.42097675  0.15370030  0.77229015  1
  Fe  Fe58  1  0.70700995  0.49816752  0.14055199  1
  Fe  Fe59  1  0.35491477  0.23617933  0.27538932  1
  Fe  Fe60  1  0.97218549  0.95089060  0.21456256  1
  Fe  Fe61  1  0.46988362  0.08989652  0.67044826  1
  Fe  Fe62  1  0.69702609  0.04249553  0.79177975  1
  Fe  Fe63  1  0.42597509  0.75183170  0.55250172  1
  Fe  Fe64  1  0.68947401  0.14014368  0.37776501  1
  Fe  Fe65  1  0.31118588  0.11495813  0.17753623  1
  Fe  Fe66  1  0.64900716  0.91282661  0.83598754  1
  Fe  Fe67  1  0.19029410  0.05658115  0.22768227  1
  Fe  Fe68  1  0.72728594  0.38398453  0.64448981  1
  Fe  Fe69  1  0.71005326  0.90132183  0.71070775  1
  Fe  Fe70  1  0.58788789  0.62435840  0.39742916  1
  Fe  Fe71  1  0.56624090  0.67326480  0.55175154  1
  Fe  Fe72  1  0.63383861  0.45970761  0.73250541  1
  Fe  Fe73  1  0.40253200  0.33633611  0.33758019  1
  Fe  Fe74  1  0.31984838  0.98543086  0.21653791  1
  Fe  Fe75  1  0.10665496  0.60073265  0.26388672  1
  Fe  Fe76  1  0.74545251  0.40628691  0.80285721  1
  Fe  Fe77  1  0.81177118  0.29486358  0.75214556  1
  Fe  Fe78  1  0.78242829  0.92624070  0.84986781  1
  Fe  Fe79  1  0.54678475  0.75921709  0.45375010  1
  Fe  Fe80  1  0.13319818  0.74185327  0.54452128  1
  Fe  Fe81  1  0.19490736  0.28045225  0.78056678  1
  Fe  Fe82  1  0.80023645  0.47825533  0.23000974  1
  Fe  Fe83  1  0.27997471  0.74727185  0.54239683  1
  Fe  Fe84  1  0.80271583  0.18271895  0.28243356  1
  Fe  Fe85  1  0.11817686  0.47068533  0.22493029  1
  Fe  Fe86  1  0.77768718  0.25354977  0.39526354  1
  Fe  Fe87  1  0.75225050  0.52359224  0.72045427  1
  Fe  Fe88  1  0.34581301  0.74548868  0.68797768  1
  Fe  Fe89  1  0.10167563  0.20493379  0.73825882  1
  Fe  Fe90  1  0.68318035  0.54011292  0.85040178  1
  Fe  Fe91  1  0.15497953  0.53883453  0.37969936  1
  Fe  Fe92  1  0.77500060  0.61207104  0.17056337  1
  Fe  Fe93  1  0.84621703  0.41882283  0.68538346  1
  Fe  Fe94  1  0.05772612  1.02731333  0.16433677  1
  Fe  Fe95  1  0.18434499  0.61562907  0.52350152  1
  Fe  Fe96  1  0.31513708  0.10324571  0.31874961  1
  Fe  Fe97  1  0.46011811  0.64050259  0.45598266  1
  Fe  Fe98  1  0.32140332  0.85809133  0.61846009  1
  Fe  Fe99  1  0.65552650  0.25995530  0.32449520  1
  Fe  Fe100  1  1.01359568  0.52672837  0.32113104  1
  Fe  Fe101  1  0.24717725  -0.00739460  0.33830479  1
  Bi  Bi102  1  0.78206305  0.58408613  -0.00925706  1
  Bi  Bi103  1  0.75888162  0.32172474  0.19018830  1
  Bi  Bi104  1  0.51952382  0.03378575  0.83998414  1
  Bi  Bi105  1  0.93441201  -0.12205904  0.77687456  1
  Bi  Bi106  1  0.68740849  -0.20011832  0.56727583  1
  Bi  Bi107  1  0.60273774  0.62658299  0.71547510  1
  Bi  Bi108  1  0.36043017  0.59358238  0.59941614  1
  Bi  Bi109  1  0.59588844  0.40155348  0.89094082  1
  Bi  Bi110  1  0.20510901  0.88980138  0.47954724  1
  Bi  Bi111  1  -0.00465507  0.35057800  0.73937199  1
  Bi  Bi112  1  0.67019293  0.27089920  0.52237492  1
  Bi  Bi113  1  0.05810499  0.68354360  0.40603350  1
  Bi  Bi114  1  -0.14837727  0.57939557  0.34825038  1
  Bi  Bi115  1  0.32870338  0.86804679  0.81775046  1
  Bi  Bi116  1  0.85135013  0.10310908  0.42695276  1
  Bi  Bi117  1  0.36799582  0.62279191  0.00269083  1
  Bi  Bi118  1  1.06406470  0.64948457  0.68086902  1
  Bi  Bi119  1  0.58200929  0.88892611  0.19778436  1
  Bi  Bi120  1  0.79563748  0.14129992  0.68339866  1
  Bi  Bi121  1  0.35953771  0.30777921  0.82291375  1
  Bi  Bi122  1  0.46960196  0.50394052  0.34842729  1
  Bi  Bi123  1  0.74867462  0.17800090  0.88974030  1
  Bi  Bi124  1  0.92914025  0.88863362  0.37165313  1
  Bi  Bi125  1  0.36628057  0.26539164  0.10775411  1
  Bi  Bi126  1  0.07692711  1.09835725  1.00837058  1
  Bi  Bi127  1  0.13042408  0.13568324  0.57568240  1
