# generated using pymatgen
data_Ba51Fe51Bi26
_symmetry_space_group_name_H-M   'P 1'
_cell_length_a   16.40554879
_cell_length_b   16.93446932
_cell_length_c   15.92473249
_cell_angle_alpha   85.25177594
_cell_angle_beta   90.90656218
_cell_angle_gamma   94.50210164
_symmetry_Int_Tables_number   1
_chemical_formula_structural   Ba51Fe51Bi26
_chemical_formula_sum   'Ba51 Fe51 Bi26'
_cell_volume   4395.21610159
_cell_formula_units_Z   1
loop_
 _symmetry_equiv_pos_site_id
 _symmetry_equiv_pos_as_xyz
  1  'x, y, z'
loop_
 _atom_site_type_symbol
 _atom_site_label
 _atom_site_symmetry_multiplicity
 _atom_site_fract_x
 _atom_site_fract_y
 _atom_site_fract_z
 _atom_site_occupancy
  Ba  Ba0  1  -0.06049383  -0.13449062  0.00279140  1
  Ba  Ba1  1  0.28242741  0.60206547  0.65108573  1
  Ba  Ba2  1  0.44015966  -0.03840183  0.20336074  1
  Ba  Ba3  1  0.61919840  0.32421283  0.40278503  1
  Ba  Ba4  1  0.48033986  0.79922316  0.00414075  1
  Ba  Ba5  1  0.59690748  0.55171676  0.49709870  1
  Ba  Ba6  1  0.26726036  0.24994241  -0.02461850  1
  Ba  Ba7  1  0.00642817  0.78828293  0.25531446  1
  Ba  Ba8  1  0.06978730  0.23878893  0.53875979  1
  Ba  Ba9  1  0.46835767  0.41555138  0.73551451  1
  Ba  Ba10  1  -0.03621439  0.55721900  0.72047857  1
  Ba  Ba11  1  0.77622099  0.21059531  0.29893097  1
  Ba  Ba12  1  0.02967018  -0.12396210  0.76501693  1
  Ba  Ba13  1  0.75825260  0.51395329  0.03532383  1
  Ba  Ba14  1  0.50647369  0.71298016  0.65373348  1
  Ba  Ba15  1  0.27364858  0.75800769  0.14696003  1
  Ba  Ba16  1  0.84971340  0.02788285  0.47879335  1
  Ba  Ba17  1  0.35324994  0.41028215  0.48449138  1
  Ba  Ba18  1  0.78875498  0.23087265  0.68316805  1
  Ba  Ba19  1  0.42098726  0.27624373  0.27369868  1
  Ba  Ba20  1  0.76819143  -0.00988433  0.77592810  1
  Ba  Ba21  1  0.73528077  0.51415310  0.77429195  1
  Ba  Ba22  1  0.71306835  0.28263981  0.08088214  1
  Ba  Ba23  1  0.29991159  0.80029537  0.82973249  1
  Ba  Ba24  1  0.20356694  0.35111701  0.72328954  1
  Ba  Ba25  1  0.29586185  0.55693261  0.30600497  1
  Ba  Ba26  1  0.35792348  0.03315243  0.42677581  1
  Ba  Ba27  1  0.18898930  -0.00538967  0.14483783  1
  Ba  Ba28  1  0.70956326  0.02525321  0.07721595  1
  Ba  Ba29  1  0.09373584  0.52366946  0.49282532  1
  Ba  Ba30  1  0.17136922  0.19062490  0.29568190  1
  Ba  Ba31  1  0.54935135  -0.06180120  0.57664149  1
  Ba  Ba32  1  0.00938293  0.19599505  0.83537781  1
  Ba  Ba33  1  0.71774805  0.75940514  -0.00515353  1
  Ba  Ba34  1  0.63665064  -0.03421595  0.34531518  1
  Ba  Ba35  1  0.49670357  0.59956475  -0.11287510  1
  Ba  Ba36  1  0.13617899  0.36346391  0.12175256  1
  Ba  Ba37  1  0.01277599  0.75260946  0.55372460  1
  Ba  Ba38  1  0.75729724  0.64883743  0.24314939  1
  Ba  Ba39  1  0.76209394  0.77601300  0.45122483  1
  Ba  Ba40  1  0.39611568  0.45509403  0.07150583  1
  Ba  Ba41  1  0.30057554  0.05922963  0.66903710  1
  Ba  Ba42  1  0.51989482  0.67355608  0.28039283  1
  Ba  Ba43  1  0.21662284  0.82950927  0.40066237  1
  Ba  Ba44  1  -0.04173821  0.03267705  0.22041228  1
  Ba  Ba45  1  -0.01191773  0.51553740  0.23283165  1
  Ba  Ba46  1  0.84616235  0.42747127  0.46827594  1
  Ba  Ba47  1  -0.00229851  0.52719441  -0.02993735  1
  Ba  Ba48  1  0.18150242  0.04647591  -0.11146231  1
  Ba  Ba49  1  0.53381807  0.06905054  0.77558953  1
  Ba  Ba50  1  0.51000692  0.21507296  -0.02051361  1
  Fe  Fe51  1  0.78609532  0.80430622  0.78570921  1
  Fe  Fe52  1  0.97594047  0.22661796  0.18520648  1
  Fe  Fe53  1  0.14741048  0.52074308  0.83402962  1
  Fe  Fe54  1  0.14860759  0.38984298  0.91239141  1
  Fe  Fe55  1  0.13759636  0.99760228  0.37053820  1
  Fe  Fe56  1  0.69917706  0.80782412  0.66861759  1
  Fe  Fe57  1  0.17942136  0.06948176  0.48771824  1
  Fe  Fe58  1  0.28719131  0.47555011  -0.12294849  1
  Fe  Fe59  1  0.54419068  0.25022952  0.69250518  1
  Fe  Fe60  1  0.42849495  0.64893129  0.47235445  1
  Fe  Fe61  1  0.37726450  0.77787371  0.51592172  1
  Fe  Fe62  1  0.31736674  0.91575369  0.01508078  1
  Fe  Fe63  1  0.74851748  0.33645477  0.87486497  1
  Fe  Fe64  1  0.37873482  0.74823401  0.36218363  1
  Fe  Fe65  1  0.04172916  0.40481191  0.82698921  1
  Fe  Fe66  1  0.30282970  0.67164516  0.46029907  1
  Fe  Fe67  1  1.00638595  0.95383783  0.56684372  1
  Fe  Fe68  1  0.14209955  0.94157053  0.52415895  1
  Fe  Fe69  1  0.20248880  0.50500333  -0.02718900  1
  Fe  Fe70  1  0.00101121  0.33019169  0.96165169  1
  Fe  Fe71  1  0.36813192  0.96596737  0.89399334  1
  Fe  Fe72  1  0.86687381  0.36781071  0.97979508  1
  Fe  Fe73  1  0.52259981  0.15954147  0.57329496  1
  Fe  Fe74  1  0.98872229  0.32456579  0.26439340  1
  Fe  Fe75  1  0.93358440  0.35053858  0.11492278  1
  Fe  Fe76  1  1.03166495  0.92456948  0.42072024  1
  Fe  Fe77  1  0.10009764  0.04392315  0.60937620  1
  Fe  Fe78  1  0.51192697  0.76771644  0.44941192  1
  Fe  Fe79  1  0.53330167  0.14012519  0.42066515  1
  Fe  Fe80  1  0.34481165  0.04611816  0.02237696  1
  Fe  Fe81  1  0.82070684  0.71276851  0.69428770  1
  Fe  Fe82  1  0.69304066  0.67676669  0.65086607  1
  Fe  Fe83  1  0.04550956  0.72141717  0.92099133  1
  Fe  Fe84  1  0.62079079  0.50246582  0.28358703  1
  Fe  Fe85  1  0.26703718  0.60698778  -0.15258630  1
  Fe  Fe86  1  1.04512585  0.05704710  0.45662084  1
  Fe  Fe87  1  0.40859324  0.22972067  0.61765745  1
  Fe  Fe88  1  0.43302810  0.86122782  0.41072195  1
  Fe  Fe89  1  0.37609061  0.09285857  0.89558129  1
  Fe  Fe90  1  0.50860324  0.31248822  0.56301156  1
  Fe  Fe91  1  0.59368066  0.41880646  0.18745626  1
  Fe  Fe92  1  0.16652559  0.64688210  0.94300959  1
  Fe  Fe93  1  0.85452549  0.25275704  0.92015460  1
  Fe  Fe94  1  0.49201550  0.47157508  0.26659667  1
  Fe  Fe95  1  0.90015369  0.36965959  0.83456783  1
  Fe  Fe96  1  0.63472365  0.29915365  0.79671317  1
  Fe  Fe97  1  0.08405351  0.70212746  0.05322457  1
  Fe  Fe98  1  0.69007639  0.70175846  0.79112208  1
  Fe  Fe99  1  0.30543565  0.60748222  0.97839726  1
  Fe  Fe100  1  -0.08113312  0.23154826  1.05222727  1
  Fe  Fe101  1  0.44604490  0.22010820  0.47124914  1
  Bi  Bi102  1  0.76240503  0.42328724  0.24896203  1
  Bi  Bi103  1  0.85838936  0.86708210  0.62737336  1
  Bi  Bi104  1  -0.04728543  0.07342610  0.67373448  1
  Bi  Bi105  1  0.27890861  0.21062551  0.49791922  1
  Bi  Bi106  1  -0.02293039  0.36315054  0.66933159  1
  Bi  Bi107  1  -0.03108577  0.18077610  0.36065093  1
  Bi  Bi108  1  0.50218454  0.00699919  -0.00767058  1
  Bi  Bi109  1  0.37320964  0.22472769  0.78798860  1
  Bi  Bi110  1  0.12758225  0.68709664  -0.23526571  1
  Bi  Bi111  1  0.15434324  0.84827438  -0.01926772  1
  Bi  Bi112  1  0.70688883  0.16445881  0.88862509  1
  Bi  Bi113  1  -0.12166649  0.68937376  -0.13781948  1
  Bi  Bi114  1  0.67415247  0.12081860  0.51551972  1
  Bi  Bi115  1  0.80862569  0.60116505  0.57089029  1
  Bi  Bi116  1  0.56965301  0.14450510  0.24188363  1
  Bi  Bi117  1  0.13812504  0.39169773  0.34744748  1
  Bi  Bi118  1  0.61724952  0.84221958  0.17481755  1
  Bi  Bi119  1  0.65581746  0.37942540  0.62406574  1
  Bi  Bi120  1  0.92881292  0.63067092  0.39574510  1
  Bi  Bi121  1  0.59687742  0.40749812  0.91892383  1
  Bi  Bi122  1  0.81135722  0.86971067  0.21887723  1
  Bi  Bi123  1  0.18118403  0.57413136  0.11751973  1
  Bi  Bi124  1  0.57288605  0.57707967  0.10975440  1
  Bi  Bi125  1  0.59734131  0.83986303  0.80532150  1
  Bi  Bi126  1  0.91863910  0.67234851  0.09230494  1
  Bi  Bi127  1  0.07392036  0.16232864  0.06078740  1
