# generated using pymatgen
data_Ba51Fe51Bi26
_symmetry_space_group_name_H-M   'P 1'
_cell_length_a   16.49105880
_cell_length_b   16.27645170
_cell_length_c   16.53268676
_cell_angle_alpha   90.10447649
_cell_angle_beta   90.16255349
_cell_angle_gamma   89.72080360
_symmetry_Int_Tables_number   1
_chemical_formula_structural   Ba51Fe51Bi26
_chemical_formula_sum   'Ba51 Fe51 Bi26'
_cell_volume   4437.55855006
_cell_formula_units_Z   1
loop_
 _symmetry_equiv_pos_site_id
 _symmetry_equiv_pos_as_xyz
  1  'x, y, z'
loop_
 _atom_site_type_symbol
 _atom_site_label
 _atom_site_symmetry_multiplicity
 _atom_site_fract_x
 _atom_site_fract_y
 _atom_site_fract_z
 _atom_site_occupancy
  Ba  Ba0  1  0.77493186  0.27331212  0.77452033  1
  Ba  Ba1  1  0.09953265  0.21637131  0.49039470  1
  Ba  Ba2  1  0.16486637  0.60972607  0.50281700  1
  Ba  Ba3  1  0.19483212  0.40367047  -0.01256654  1
  Ba  Ba4  1  0.54802775  -0.04905794  0.12249967  1
  Ba  Ba5  1  0.51243851  0.48522903  -0.00749703  1
  Ba  Ba6  1  0.29970412  0.46776865  0.76937513  1
  Ba  Ba7  1  0.85430619  0.49386332  0.78823519  1
  Ba  Ba8  1  -0.00871070  0.17411877  0.74902198  1
  Ba  Ba9  1  -0.05041976  0.48248592  0.01668743  1
  Ba  Ba10  1  -0.02312130  0.67257023  0.67711681  1
  Ba  Ba11  1  0.01116938  0.47553382  0.25859377  1
  Ba  Ba12  1  0.54328215  0.84331673  0.43645423  1
  Ba  Ba13  1  0.25283263  0.54534738  0.19063487  1
  Ba  Ba14  1  0.52234854  0.23977358  0.48160636  1
  Ba  Ba15  1  0.08339971  0.41723417  0.63071646  1
  Ba  Ba16  1  0.84387233  -0.00777682  0.23642966  1
  Ba  Ba17  1  0.41659689  0.06384879  0.30395442  1
  Ba  Ba18  1  0.70025122  0.77545474  0.25570334  1
  Ba  Ba19  1  0.35819435  0.74151472  0.56116277  1
  Ba  Ba20  1  0.29357227  -0.07361872  0.70860739  1
  Ba  Ba21  1  0.78682773  0.74004359  0.48808227  1
  Ba  Ba22  1  0.80275575  0.25004987  0.54228395  1
  Ba  Ba23  1  0.49351002  0.50097359  0.27215078  1
  Ba  Ba24  1  -0.08346150  0.72412516  0.14623487  1
  Ba  Ba25  1  0.36792914  0.48630931  0.46043621  1
  Ba  Ba26  1  0.75343902  0.51750300  0.23980413  1
  Ba  Ba27  1  0.73035246  0.00047454  0.51871860  1
  Ba  Ba28  1  0.00623675  0.23215299  0.27477101  1
  Ba  Ba29  1  -0.01663135  0.87997193  0.49680246  1
  Ba  Ba30  1  0.66060447  0.08872724  -0.02682498  1
  Ba  Ba31  1  0.55207506  0.51971440  0.58093377  1
  Ba  Ba32  1  0.40804063  0.76782884  0.04042917  1
  Ba  Ba33  1  0.51396161  0.27305810  0.76350003  1
  Ba  Ba34  1  0.72445151  0.24362656  0.30546611  1
  Ba  Ba35  1  -0.17873302  0.72680239  -0.11385553  1
  Ba  Ba36  1  0.71218631  0.32848849  -0.00262589  1
  Ba  Ba37  1  0.02684466  -0.10157530  0.79192520  1
  Ba  Ba38  1  -0.15160175  -0.04472155  -0.02516525  1
  Ba  Ba39  1  0.13453402  0.80044322  0.33032881  1
  Ba  Ba40  1  0.78863402  0.50750347  0.54287698  1
  Ba  Ba41  1  0.26976859  0.17619360  0.68698662  1
  Ba  Ba42  1  0.48936482  0.00441608  0.83350731  1
  Ba  Ba43  1  0.66622770  0.76658433  0.71183039  1
  Ba  Ba44  1  0.09085952  -0.03544702  0.13957274  1
  Ba  Ba45  1  0.22941370  -0.06812133  -0.06739985  1
  Ba  Ba46  1  0.19231341  0.18028814  0.07975457  1
  Ba  Ba47  1  0.14061010  0.70836237  0.01114759  1
  Ba  Ba48  1  0.46473770  0.70918519  0.81838017  1
  Ba  Ba49  1  -0.04595558  0.20631921  -0.01518472  1
  Ba  Ba50  1  0.42957920  0.20106620  0.04402556  1
  Fe  Fe51  1  0.33349753  0.34557484  0.17476386  1
  Fe  Fe52  1  0.30755613  0.77273486  0.22796918  1
  Fe  Fe53  1  0.73683645  0.81050399  0.04740208  1
  Fe  Fe54  1  0.31338961  0.37589069  0.30807417  1
  Fe  Fe55  1  0.25598802  0.94147948  0.25275414  1
  Fe  Fe56  1  0.66589038  0.42623243  0.71580033  1
  Fe  Fe57  1  0.20464325  0.90254142  0.50994234  1
  Fe  Fe58  1  0.30984438  0.22646521  0.23048046  1
  Fe  Fe59  1  0.27183795  0.72724933  0.86514036  1
  Fe  Fe60  1  0.19300427  0.61363939  0.84457610  1
  Fe  Fe61  1  0.23878240  -0.00842733  0.39853100  1
  Fe  Fe62  1  0.69307073  0.07953190  0.16455085  1
  Fe  Fe63  1  0.97808180  1.07181917  0.53081760  1
  Fe  Fe64  1  0.16299812  0.62986140  0.71420111  1
  Fe  Fe65  1  0.66472823  0.11084375  0.78400554  1
  Fe  Fe66  1  0.11275402  1.01996518  0.46072806  1
  Fe  Fe67  1  0.37489629  0.26295573  0.35169118  1
  Fe  Fe68  1  0.98458343  0.54863488  0.48408435  1
  Fe  Fe69  1  0.62437009  1.00554056  0.68518783  1
  Fe  Fe70  1  0.63959311  0.13879738  0.65483027  1
  Fe  Fe71  1  0.89225028  0.56945421  0.38838822  1
  Fe  Fe72  1  0.27732834  0.23886725  0.90167622  1
  Fe  Fe73  1  0.73398364  0.67907492  0.07657577  1
  Fe  Fe74  1  0.27907547  0.69087610  0.73352904  1
  Fe  Fe75  1  0.34151013  -0.02744504  0.51137340  1
  Fe  Fe76  1  0.20045836  0.33883642  0.22435891  1
  Fe  Fe77  1  0.66846085  0.45632312  0.84430836  1
  Fe  Fe78  1  0.80205634  0.09444692  0.84027663  1
  Fe  Fe79  1  0.63997256  0.68967011  0.96594649  1
  Fe  Fe80  1  0.72481698  0.97124550  0.78783326  1
  Fe  Fe81  1  0.86474749  1.00337145  0.77153752  1
  Fe  Fe82  1  0.02707069  0.63477136  0.36484547  1
  Fe  Fe83  1  0.15845282  0.75555516  0.79682221  1
  Fe  Fe84  1  0.37907682  0.88861932  0.21244823  1
  Fe  Fe85  1  0.76711176  0.18202412  0.12298203  1
  Fe  Fe86  1  0.61131739  0.77694529  0.06838821  1
  Fe  Fe87  1  0.77298953  0.08444033  0.69065598  1
  Fe  Fe88  1  0.58057607  0.13037285  0.21522621  1
  Fe  Fe89  1  0.29306479  0.30967585  0.45566981  1
  Fe  Fe90  1  0.90476751  1.03138159  0.63553580  1
  Fe  Fe91  1  0.22204562  0.25380579  0.33890579  1
  Fe  Fe92  1  0.15768530  0.25812567  0.84400902  1
  Fe  Fe93  1  -0.08801263  0.69615154  0.33941293  1
  Fe  Fe94  1  0.29909218  0.11246047  0.87137904  1
  Fe  Fe95  1  0.67820280  0.55958274  0.72960734  1
  Fe  Fe96  1  0.64340384  0.59641319  0.85551049  1
  Fe  Fe97  1  0.96791736  0.68198379  0.47533433  1
  Fe  Fe98  1  0.24997159  0.85592815  0.13753373  1
  Fe  Fe99  1  0.63036000  0.21224590  0.12728795  1
  Fe  Fe100  1  0.22636476  0.03699905  0.54471374  1
  Fe  Fe101  1  0.16805659  0.13122834  0.88725054  1
  Bi  Bi102  1  0.48444270  0.76416142  0.23820196  1
  Bi  Bi103  1  0.49311678  0.27518612  0.23497544  1
  Bi  Bi104  1  0.48005651  0.08602748  0.63489581  1
  Bi  Bi105  1  0.33991946  -0.13496070  0.38295415  1
  Bi  Bi106  1  0.51619777  0.49841050  0.78378244  1
  Bi  Bi107  1  0.09545588  0.02694051  0.63988695  1
  Bi  Bi108  1  0.64311577  0.86570262  -0.08558853  1
  Bi  Bi109  1  0.74868632  0.53833465  -0.02190418  1
  Bi  Bi110  1  0.31488238  0.14651385  0.46797885  1
  Bi  Bi111  1  0.32803670  0.00666040  0.10188803  1
  Bi  Bi112  1  0.16911342  0.41228075  0.39147394  1
  Bi  Bi113  1  0.15037870  0.78523665  0.62726765  1
  Bi  Bi114  1  0.84881588  -0.13456072  0.67179691  1
  Bi  Bi115  1  0.64140204  0.41266149  0.41548587  1
  Bi  Bi116  1  0.64225683  1.00320590  0.31225495  1
  Bi  Bi117  1  0.50355859  0.88255574  0.64970508  1
  Bi  Bi118  1  1.02563149  0.36964051  0.84456700  1
  Bi  Bi119  1  0.31652782  0.65940054  0.35363793  1
  Bi  Bi120  1  0.31643868  0.58572265  0.96424834  1
  Bi  Bi121  1  0.37300206  0.34422339  0.60729715  1
  Bi  Bi122  1  0.93964889  0.38955694  0.44288324  1
  Bi  Bi123  1  0.86379343  0.33022689  0.14774171  1
  Bi  Bi124  1  0.88513206  0.10998262  0.40392531  1
  Bi  Bi125  1  0.58389406  0.62554532  0.12775858  1
  Bi  Bi126  1  0.17349103  0.09579241  0.28971856  1
  Bi  Bi127  1  0.63170131  0.61925336  0.40495236  1
