# generated using pymatgen
data_Ba51Fe51Bi26
_symmetry_space_group_name_H-M   'P 1'
_cell_length_a   16.52826832
_cell_length_b   16.40705637
_cell_length_c   16.25786177
_cell_angle_alpha   90.49051518
_cell_angle_beta   94.67752517
_cell_angle_gamma   90.37554754
_symmetry_Int_Tables_number   1
_chemical_formula_structural   Ba51Fe51Bi26
_chemical_formula_sum   'Ba51 Fe51 Bi26'
_cell_volume   4393.84956456
_cell_formula_units_Z   1
loop_
 _symmetry_equiv_pos_site_id
 _symmetry_equiv_pos_as_xyz
  1  'x, y, z'
loop_
 _atom_site_type_symbol
 _atom_site_label
 _atom_site_symmetry_multiplicity
 _atom_site_fract_x
 _atom_site_fract_y
 _atom_site_fract_z
 _atom_site_occupancy
  Ba  Ba0  1  0.17599507  0.82543849  0.44553843  1
  Ba  Ba1  1  0.22461161  0.67121184  0.66352488  1
  Ba  Ba2  1  0.52396980  0.29472740  0.32632734  1
  Ba  Ba3  1  0.75916813  0.30223828  0.27641930  1
  Ba  Ba4  1  0.30134300  0.02160229  0.49613774  1
  Ba  Ba5  1  0.45071134  0.56218979  0.75739735  1
  Ba  Ba6  1  -0.04513676  -0.08384982  0.44079177  1
  Ba  Ba7  1  0.46436107  0.69473086  0.27128053  1
  Ba  Ba8  1  0.01342988  0.53806465  0.81323367  1
  Ba  Ba9  1  0.04024135  0.59881027  0.40051270  1
  Ba  Ba10  1  -0.01034208  0.21293971  0.40496687  1
  Ba  Ba11  1  0.01573376  0.77043779  0.66682704  1
  Ba  Ba12  1  0.54448360  0.06775815  0.47517357  1
  Ba  Ba13  1  0.05832580  0.19698029  0.05245366  1
  Ba  Ba14  1  0.31365218  0.46113482  0.25466471  1
  Ba  Ba15  1  0.23084280  0.70650142  0.23441677  1
  Ba  Ba16  1  0.51433236  0.17153881  0.89983801  1
  Ba  Ba17  1  0.57610097  0.49044694  0.14985503  1
  Ba  Ba18  1  0.58372058  0.56771749  0.52990922  1
  Ba  Ba19  1  0.70481383  0.04473530  0.15932004  1
  Ba  Ba20  1  0.17907221  0.58619712  0.00648840  1
  Ba  Ba21  1  -0.05279458  0.80991719  -0.07762093  1
  Ba  Ba22  1  0.58891962  0.26488383  0.65804790  1
  Ba  Ba23  1  0.69069790  0.39031133  -0.01702003  1
  Ba  Ba24  1  0.41387917  0.75696829  0.54823821  1
  Ba  Ba25  1  0.44418602  -0.04414354  0.77142791  1
  Ba  Ba26  1  0.84021650  0.31794476  0.59635199  1
  Ba  Ba27  1  0.21397167  0.08335734  0.71816690  1
  Ba  Ba28  1  0.32429371  0.30364247  0.75975067  1
  Ba  Ba29  1  0.09602115  0.39334789  0.59155371  1
  Ba  Ba30  1  0.56393466  0.77377639  0.06492233  1
  Ba  Ba31  1  -0.03086083  -0.02509950  0.17438553  1
  Ba  Ba32  1  0.31740927  0.27063076  0.49439804  1
  Ba  Ba33  1  0.23233052  -0.03688227  0.21235882  1
  Ba  Ba34  1  -0.02162982  -0.00419857  0.72308258  1
  Ba  Ba35  1  0.82779099  0.08547394  0.52860245  1
  Ba  Ba36  1  0.48797826  -0.01664469  0.21770806  1
  Ba  Ba37  1  -0.00436191  0.40284396  0.21238251  1
  Ba  Ba38  1  -0.01700771  0.23800461  0.82119533  1
  Ba  Ba39  1  0.71790941  0.51379311  0.78818393  1
  Ba  Ba40  1  0.37611142  0.20458329  0.09827962  1
  Ba  Ba41  1  0.63871704  0.79368103  0.83129421  1
  Ba  Ba42  1  0.35306803  0.70738036  -0.08991639  1
  Ba  Ba43  1  0.80418081  0.80578569  0.27905655  1
  Ba  Ba44  1  0.60000323  0.83757576  0.41556325  1
  Ba  Ba45  1  0.18672873  0.21658553  0.27965817  1
  Ba  Ba46  1  0.75490329  0.56989562  0.34486764  1
  Ba  Ba47  1  -0.05059937  0.64519867  0.11084024  1
  Ba  Ba48  1  0.85703123  0.57945014  0.58247237  1
  Ba  Ba49  1  0.19229031  0.36465767  -0.03764926  1
  Ba  Ba50  1  0.18485187  -0.04801906  -0.05286695  1
  Fe  Fe51  1  0.79768061  0.87050008  0.73874582  1
  Fe  Fe52  1  0.38035720  -0.00663379  0.05064332  1
  Fe  Fe53  1  0.70509360  0.09207543  0.35355448  1
  Fe  Fe54  1  0.79622449  0.02345215  0.73883629  1
  Fe  Fe55  1  0.36960312  0.56102642  0.54783899  1
  Fe  Fe56  1  0.74488518  0.96865935  0.37757399  1
  Fe  Fe57  1  0.74182366  0.72328764  0.50447980  1
  Fe  Fe58  1  0.67422446  0.02801798  -0.12188628  1
  Fe  Fe59  1  0.36327935  0.04363570  0.92831718  1
  Fe  Fe60  1  0.28579241  0.47534045  0.61286715  1
  Fe  Fe61  1  0.72082274  0.18289865  0.92119891  1
  Fe  Fe62  1  0.08552477  0.80987798  0.11173388  1
  Fe  Fe63  1  0.44803585  0.44431998  0.43322786  1
  Fe  Fe64  1  0.76297060  0.66326690  0.92965492  1
  Fe  Fe65  1  -0.12726422  0.14961477  0.02263299  1
  Fe  Fe66  1  0.83842339  0.81055413  0.60997587  1
  Fe  Fe67  1  0.47541070  0.35627262  0.00286683  1
  Fe  Fe68  1  0.77025810  0.06155222  -0.01211917  1
  Fe  Fe69  1  0.28041317  0.61713969  0.44181762  1
  Fe  Fe70  1  0.13132688  0.92677095  0.61259977  1
  Fe  Fe71  1  0.79892011  0.95394968  0.87055889  1
  Fe  Fe72  1  0.17727977  0.77951555  0.03555120  1
  Fe  Fe73  1  0.82608191  0.11374049  0.86145943  1
  Fe  Fe74  1  0.68445401  0.12889143  0.77958409  1
  Fe  Fe75  1  0.88285836  0.62396092  0.90751658  1
  Fe  Fe76  1  0.70478492  0.92098100  -0.01897593  1
  Fe  Fe77  1  0.31007625  0.46397265  0.45669272  1
  Fe  Fe78  1  0.18479089  0.87064301  0.74294308  1
  Fe  Fe79  1  0.82928036  0.06965370  0.32296448  1
  Fe  Fe80  1  0.74388519  0.60976017  0.05083028  1
  Fe  Fe81  1  -0.13403806  0.29723443  0.07948512  1
  Fe  Fe82  1  0.36777168  0.43562888  0.90935168  1
  Fe  Fe83  1  0.37151731  0.42379668  0.04997047  1
  Fe  Fe84  1  0.51162919  0.51094276  0.34530568  1
  Fe  Fe85  1  0.40767667  0.57669556  0.40684145  1
  Fe  Fe86  1  -0.15665365  0.26266996  0.94626680  1
  Fe  Fe87  1  0.39932746  0.90459018  0.95593551  1
  Fe  Fe88  1  0.77516984  0.86600478  0.49078101  1
  Fe  Fe89  1  0.08691618  0.04001664  0.54085412  1
  Fe  Fe90  1  0.47194561  0.50104705  0.97044605  1
  Fe  Fe91  1  0.67680965  0.06779057  0.64820490  1
  Fe  Fe92  1  0.83570709  0.94255894  0.01822139  1
  Fe  Fe93  1  0.75146409  0.21124052  1.06416176  1
  Fe  Fe94  1  0.25649484  0.87812731  0.64208779  1
  Fe  Fe95  1  0.67359303  0.96238542  0.74759039  1
  Fe  Fe96  1  0.70326764  0.79695131  0.62449527  1
  Fe  Fe97  1  0.79488510  0.15840186  0.71058923  1
  Fe  Fe98  1  0.83485465  0.52958991  -0.01702522  1
  Fe  Fe99  1  0.86291859  0.74593241  0.48005280  1
  Fe  Fe100  1  0.74006285  0.93786778  0.61253568  1
  Fe  Fe101  1  0.20705505  0.53474878  0.51143072  1
  Bi  Bi102  1  0.54654692  -0.01963642  -0.00630217  1
  Bi  Bi103  1  0.76502268  0.29860209  0.79430031  1
  Bi  Bi104  1  0.57031219  -0.09457552  0.61729485  1
  Bi  Bi105  1  0.58916834  0.25443856  0.11616026  1
  Bi  Bi106  1  0.78251497  0.78679286  0.05817650  1
  Bi  Bi107  1  -0.03605255  0.40057492  -0.01613139  1
  Bi  Bi108  1  0.96096699  0.02701985  -0.05423254  1
  Bi  Bi109  1  0.44383988  0.41465396  0.59917551  1
  Bi  Bi110  1  0.60141499  0.60422921  -0.05964889  1
  Bi  Bi111  1  0.23919679  0.50071879  0.79703796  1
  Bi  Bi112  1  0.82520816  0.70170289  0.75951335  1
  Bi  Bi113  1  0.02424775  0.18010089  0.61602397  1
  Bi  Bi114  1  -0.09820374  0.17642854  0.19803623  1
  Bi  Bi115  1  0.51739457  0.37910333  0.84054987  1
  Bi  Bi116  1  0.24100591  0.16333763  0.92064912  1
  Bi  Bi117  1  0.14155134  0.74814804  0.85842836  1
  Bi  Bi118  1  0.41523070  0.13739374  0.65491900  1
  Bi  Bi119  1  0.38484743  0.58811140  0.09299138  1
  Bi  Bi120  1  0.37868605  0.86765114  0.36441386  1
  Bi  Bi121  1  0.80358781  0.48584188  0.15359790  1
  Bi  Bi122  1  0.38013182  0.13828109  0.31964555  1
  Bi  Bi123  1  0.15726590  0.40626276  0.38755356  1
  Bi  Bi124  1  0.90519191  0.42605462  0.42776731  1
  Bi  Bi125  1  0.02968276  0.78447627  0.26992090  1
  Bi  Bi126  1  0.11289335  0.03800068  0.37205221  1
  Bi  Bi127  1  0.34307321  0.82911334  0.09404700  1
