# generated using pymatgen
data_Ba51Fe51Bi26
_symmetry_space_group_name_H-M   'P 1'
_cell_length_a   15.98025040
_cell_length_b   16.65109574
_cell_length_c   16.27557887
_cell_angle_alpha   88.63737051
_cell_angle_beta   88.21571922
_cell_angle_gamma   89.20753455
_symmetry_Int_Tables_number   1
_chemical_formula_structural   Ba51Fe51Bi26
_chemical_formula_sum   'Ba51 Fe51 Bi26'
_cell_volume   4327.05204594
_cell_formula_units_Z   1
loop_
 _symmetry_equiv_pos_site_id
 _symmetry_equiv_pos_as_xyz
  1  'x, y, z'
loop_
 _atom_site_type_symbol
 _atom_site_label
 _atom_site_symmetry_multiplicity
 _atom_site_fract_x
 _atom_site_fract_y
 _atom_site_fract_z
 _atom_site_occupancy
  Ba  Ba0  1  0.49271989  0.15053449  0.78297766  1
  Ba  Ba1  1  0.42384093  0.88992742  0.72790858  1
  Ba  Ba2  1  0.80103456  0.23845932  0.45376789  1
  Ba  Ba3  1  0.29816128  0.20503757  0.40016615  1
  Ba  Ba4  1  0.78260928  0.72130622  0.50915984  1
  Ba  Ba5  1  0.51555559  0.76400156  0.54264717  1
  Ba  Ba6  1  0.68784072  0.09139087  -0.03856562  1
  Ba  Ba7  1  0.04676559  0.66102203  0.46915603  1
  Ba  Ba8  1  0.05571927  0.19218333  0.47492282  1
  Ba  Ba9  1  0.44451854  0.48053202  0.34610084  1
  Ba  Ba10  1  0.68240297  0.33837304  0.84791405  1
  Ba  Ba11  1  0.51411716  0.45917408  0.62771835  1
  Ba  Ba12  1  0.27364391  0.73732094  0.53949526  1
  Ba  Ba13  1  0.73295133  0.46557732  0.52394481  1
  Ba  Ba14  1  0.08496090  0.30919579  0.05167933  1
  Ba  Ba15  1  0.34466639  0.59029523  0.12569587  1
  Ba  Ba16  1  -0.03337610  0.44765782  0.47859512  1
  Ba  Ba17  1  0.03461017  -0.07161849  0.50948782  1
  Ba  Ba18  1  0.00531468  -0.02640875  0.22525435  1
  Ba  Ba19  1  0.28671199  0.49141706  0.72167263  1
  Ba  Ba20  1  0.80740876  -0.00366920  0.39063323  1
  Ba  Ba21  1  0.56458009  0.93492776  0.09458312  1
  Ba  Ba22  1  0.08459628  0.63026066  0.78508306  1
  Ba  Ba23  1  0.53221872  0.72916270  0.26605659  1
  Ba  Ba24  1  0.04653333  0.17765399  0.74291678  1
  Ba  Ba25  1  0.70787670  0.07619642  0.68594686  1
  Ba  Ba26  1  0.26684317  0.25536096  0.63069758  1
  Ba  Ba27  1  0.07185272  0.35313510  0.28337254  1
  Ba  Ba28  1  0.14056458  0.85050938  0.73526230  1
  Ba  Ba29  1  0.64671280  0.47714073  0.16057172  1
  Ba  Ba30  1  0.26089779  0.05402304  0.77377240  1
  Ba  Ba31  1  0.84199351  -0.14894972  0.03860284  1
  Ba  Ba32  1  -0.09345352  -0.04303327  0.76420926  1
  Ba  Ba33  1  0.28209912  0.28625204  -0.13068193  1
  Ba  Ba34  1  0.75597118  0.59958350  -0.04338535  1
  Ba  Ba35  1  0.47817727  0.36635604  -0.00487281  1
  Ba  Ba36  1  0.24212231  -0.06046238  0.00042496  1
  Ba  Ba37  1  -0.06287799  0.37659126  0.85779066  1
  Ba  Ba38  1  0.84591440  0.33389838  0.20097180  1
  Ba  Ba39  1  -0.04963029  0.68511465  0.16901358  1
  Ba  Ba40  1  0.20838287  0.48774634  -0.04237773  1
  Ba  Ba41  1  0.19608321  0.80149473  0.26745282  1
  Ba  Ba42  1  0.53350261  0.22400004  0.49829766  1
  Ba  Ba43  1  0.33458380  0.02893431  0.19731559  1
  Ba  Ba44  1  0.47203232  0.75065665  -0.06305145  1
  Ba  Ba45  1  0.69738852  0.80975275  0.75268135  1
  Ba  Ba46  1  -0.05976158  0.11583638  0.03359816  1
  Ba  Ba47  1  0.84555541  0.58265236  0.72825492  1
  Ba  Ba48  1  0.22843014  0.44158429  0.46568831  1
  Ba  Ba49  1  0.46417557  0.25897779  0.22027692  1
  Ba  Ba50  1  0.53832281  0.01693226  0.36498939  1
  Fe  Fe51  1  0.80858576  0.48574352  0.33475681  1
  Fe  Fe52  1  0.21165894  0.42061117  0.15034097  1
  Fe  Fe53  1  0.19263590  0.12098741  0.07272801  1
  Fe  Fe54  1  0.96486979  0.33524122  0.65161309  1
  Fe  Fe55  1  0.30635825  0.34652224  0.09141258  1
  Fe  Fe56  1  0.22310089  0.49166356  0.27147183  1
  Fe  Fe57  1  0.66614219  0.26959071  0.20567491  1
  Fe  Fe58  1  0.00840326  0.71770934  -0.03457152  1
  Fe  Fe59  1  0.72578853  0.60171608  0.31313575  1
  Fe  Fe60  1  0.86918181  0.61997009  0.34807805  1
  Fe  Fe61  1  0.86128292  0.48385223  1.07724363  1
  Fe  Fe62  1  0.09679705  0.35675517  0.59953031  1
  Fe  Fe63  1  0.31917963  0.10873230  0.96021311  1
  Fe  Fe64  1  0.38805879  0.57422557  0.88492091  1
  Fe  Fe65  1  0.32938787  0.01889252  0.42962967  1
  Fe  Fe66  1  0.62418198  0.12193482  0.18723826  1
  Fe  Fe67  1  0.26826789  0.66155878  0.91477824  1
  Fe  Fe68  1  0.24212946  0.91911703  0.46649501  1
  Fe  Fe69  1  0.62354289  0.23428319  0.08381913  1
  Fe  Fe70  1  0.76518787  0.15026693  0.25397346  1
  Fe  Fe71  1  0.99776701  0.46222167  0.68019172  1
  Fe  Fe72  1  0.61345311  0.51207933  0.79845536  1
  Fe  Fe73  1  0.10308851  0.38196201  0.73081657  1
  Fe  Fe74  1  0.30525365  0.38000975  0.23818235  1
  Fe  Fe75  1  0.77854932  0.73603838  0.30374167  1
  Fe  Fe76  1  0.28281042  0.79038805  0.88063959  1
  Fe  Fe77  1  0.38637563  0.93605136  0.52926696  1
  Fe  Fe78  1  0.95819189  0.51853238  0.28815686  1
  Fe  Fe79  1  0.82950790  0.54488585  0.20768786  1
  Fe  Fe80  1  0.02243016  0.84522695  0.91659135  1
  Fe  Fe81  1  0.59941968  0.63485231  0.83638883  1
  Fe  Fe82  1  0.48289825  0.60241126  0.77221501  1
  Fe  Fe83  1  0.52832418  0.54950871  0.92454026  1
  Fe  Fe84  1  0.35711787  0.06734931  0.57138412  1
  Fe  Fe85  1  0.64260132  0.18816317  0.31261133  1
  Fe  Fe86  1  0.26364292  0.94658655  0.59993793  1
  Fe  Fe87  1  0.65349554  0.90981325  0.54666872  1
  Fe  Fe88  1  0.25588639  0.74813969  0.02719824  1
  Fe  Fe89  1  0.84995748  0.24817656  0.67045348  1
  Fe  Fe90  1  0.96938657  0.48554986  1.14668277  1
  Fe  Fe91  1  0.17063751  0.14052480  0.94586881  1
  Fe  Fe92  1  0.30088359  0.21298877  0.04707607  1
  Fe  Fe93  1  0.09986311  0.54811591  0.31545646  1
  Fe  Fe94  1  0.74489806  0.17812209  0.12016741  1
  Fe  Fe95  1  0.73690036  0.84354748  0.23431806  1
  Fe  Fe96  1  0.42699598  0.02475304  0.93246856  1
  Fe  Fe97  1  0.47816001  0.46963334  0.82729284  1
  Fe  Fe98  1  0.14781070  0.76922698  0.91664364  1
  Fe  Fe99  1  0.11404558  0.48990808  0.61992052  1
  Fe  Fe100  1  0.13918009  0.66618140  0.01387349  1
  Fe  Fe101  1  0.22255405  0.05769455  0.53141122  1
  Bi  Bi102  1  0.72100998  0.69078960  0.15076390  1
  Bi  Bi103  1  0.16684451  0.03158313  0.36168144  1
  Bi  Bi104  1  0.23026924  0.22864308  0.20156264  1
  Bi  Bi105  1  0.33213317  0.69380126  0.74974342  1
  Bi  Bi106  1  0.52874287  0.02064690  0.58505563  1
  Bi  Bi107  1  0.90274539  0.09819436  0.59072062  1
  Bi  Bi108  1  -0.01371647  0.54759000  -0.02538686  1
  Bi  Bi109  1  0.47557345  0.14501429  0.03716433  1
  Bi  Bi110  1  0.76611825  0.00490828  0.16607486  1
  Bi  Bi111  1  0.64705547  0.35712835  0.34770343  1
  Bi  Bi112  1  0.12386471  0.55896575  0.15048223  1
  Bi  Bi113  1  0.07930892  0.82549239  0.07797757  1
  Bi  Bi114  1  0.07044469  0.00957272  -0.11309912  1
  Bi  Bi115  1  0.37684212  0.81361948  0.12657211  1
  Bi  Bi116  1  0.95531191  0.76502221  0.64286345  1
  Bi  Bi117  1  0.26163936  0.62175999  0.35985644  1
  Bi  Bi118  1  0.92858873  0.80208169  0.34944562  1
  Bi  Bi119  1  0.56892420  0.95012206  0.86563638  1
  Bi  Bi120  1  0.59434520  0.59575975  0.42918477  1
  Bi  Bi121  1  0.63926083  0.62685975  0.66882768  1
  Bi  Bi122  1  0.84324309  0.18453867  0.83441691  1
  Bi  Bi123  1  0.88685246  0.75641256  0.85199398  1
  Bi  Bi124  1  0.67484647  0.28720919  0.64242737  1
  Bi  Bi125  1  0.38313676  0.86120388  0.37817527  1
  Bi  Bi126  1  0.65832949  0.84746563  0.39035146  1
  Bi  Bi127  1  -0.06240906  0.16359955  0.28722021  1
