# generated using pymatgen
data_Ba51Fe51Bi26
_symmetry_space_group_name_H-M   'P 1'
_cell_length_a   16.67450525
_cell_length_b   16.47870652
_cell_length_c   16.09143540
_cell_angle_alpha   89.36910881
_cell_angle_beta   89.56268269
_cell_angle_gamma   89.96497350
_symmetry_Int_Tables_number   1
_chemical_formula_structural   Ba51Fe51Bi26
_chemical_formula_sum   'Ba51 Fe51 Bi26'
_cell_volume   4421.11511098
_cell_formula_units_Z   1
loop_
 _symmetry_equiv_pos_site_id
 _symmetry_equiv_pos_as_xyz
  1  'x, y, z'
loop_
 _atom_site_type_symbol
 _atom_site_label
 _atom_site_symmetry_multiplicity
 _atom_site_fract_x
 _atom_site_fract_y
 _atom_site_fract_z
 _atom_site_occupancy
  Ba  Ba0  1  0.51443728  0.09449613  0.31878968  1
  Ba  Ba1  1  0.86630148  0.18710209  0.54306636  1
  Ba  Ba2  1  0.48429018  0.46907113  0.51503705  1
  Ba  Ba3  1  0.51769295  0.21916897  0.53257369  1
  Ba  Ba4  1  -0.08248159  0.13356204  0.31543202  1
  Ba  Ba5  1  -0.07389688  0.76019623  0.42949103  1
  Ba  Ba6  1  0.48839747  0.50541121  -0.03635278  1
  Ba  Ba7  1  0.26404064  0.06632815  0.76123924  1
  Ba  Ba8  1  0.67092676  0.67798382  0.23122912  1
  Ba  Ba9  1  -0.01849808  0.77924126  -0.13303759  1
  Ba  Ba10  1  0.50403232  0.64149696  0.70588222  1
  Ba  Ba11  1  -0.06400626  -0.03735857  0.06543389  1
  Ba  Ba12  1  0.49277812  0.26512070  0.05962477  1
  Ba  Ba13  1  0.14753739  0.16952761  0.28435953  1
  Ba  Ba14  1  0.71592585  0.39203051  0.50003410  1
  Ba  Ba15  1  0.80890355  0.51006211  0.26569938  1
  Ba  Ba16  1  0.51546024  0.75191236  0.47109242  1
  Ba  Ba17  1  0.17663235  0.76623635  0.48157638  1
  Ba  Ba18  1  -0.08037763  0.51066142  0.49946991  1
  Ba  Ba19  1  0.74929123  0.23284324  0.75647123  1
  Ba  Ba20  1  0.55744285  -0.00116771  0.73454602  1
  Ba  Ba21  1  0.73167361  -0.03829866  0.27114388  1
  Ba  Ba22  1  0.02452316  0.17954410  0.76752356  1
  Ba  Ba23  1  0.72284689  0.78673182  0.68518557  1
  Ba  Ba24  1  0.78484263  0.53610299  0.72388696  1
  Ba  Ba25  1  0.48678269  0.75772372  -0.02602523  1
  Ba  Ba26  1  -0.04174005  0.73303700  0.16841875  1
  Ba  Ba27  1  0.50174066  0.84488863  0.21612959  1
  Ba  Ba28  1  0.27048119  0.51499923  0.73212154  1
  Ba  Ba29  1  0.25490320  0.48981830  0.03755418  1
  Ba  Ba30  1  0.07159075  -0.02491959  0.53724648  1
  Ba  Ba31  1  0.83646140  -0.03752013  0.81564918  1
  Ba  Ba32  1  0.00043892  0.53411015  -0.04892359  1
  Ba  Ba33  1  0.75575111  0.51827881  -0.02398900  1
  Ba  Ba34  1  0.08047854  0.32094805  0.47824001  1
  Ba  Ba35  1  0.02181068  0.64131863  0.67356165  1
  Ba  Ba36  1  0.34587631  0.83338687  0.74373980  1
  Ba  Ba37  1  0.15529669  0.02547031  -0.01678403  1
  Ba  Ba38  1  0.45566678  0.54912253  0.26669683  1
  Ba  Ba39  1  0.23710217  0.51885069  0.47310999  1
  Ba  Ba40  1  0.50762357  -0.00607846  0.00905664  1
  Ba  Ba41  1  0.75518551  0.28999753  -0.01337875  1
  Ba  Ba42  1  0.31202084  0.04507448  0.16898823  1
  Ba  Ba43  1  0.30231046  0.07005269  0.46858891  1
  Ba  Ba44  1  0.18976439  0.76651046  0.01921235  1
  Ba  Ba45  1  0.05272073  0.46251199  0.24431401  1
  Ba  Ba46  1  0.28013683  0.84059045  0.27888105  1
  Ba  Ba47  1  0.07694014  0.39563579  0.72817888  1
  Ba  Ba48  1  0.71891936  0.29329423  0.22701499  1
  Ba  Ba49  1  0.46386508  0.23722962  0.79867928  1
  Ba  Ba50  1  0.02547199  0.25821319  0.03696255  1
  Fe  Fe51  1  0.13760270  -0.03156718  0.31712090  1
  Fe  Fe52  1  0.36088169  0.37219077  0.32196852  1
  Fe  Fe53  1  0.31759891  0.17797887  0.93468636  1
  Fe  Fe54  1  0.76928848  1.02183672  0.46753724  1
  Fe  Fe55  1  0.40499431  0.90658596  0.40358607  1
  Fe  Fe56  1  0.25430325  0.32303109  0.21225663  1
  Fe  Fe57  1  0.38168586  0.37993656  0.18521058  1
  Fe  Fe58  1  0.24689084  0.65068968  0.28965796  1
  Fe  Fe59  1  0.80268635  0.89017968  0.52871777  1
  Fe  Fe60  1  0.88067135  -0.01212172  0.57735852  1
  Fe  Fe61  1  0.18960020  0.21055240  0.90836111  1
  Fe  Fe62  1  0.35263775  0.85749169  0.08840934  1
  Fe  Fe63  1  0.64573891  0.82634350  0.07481363  1
  Fe  Fe64  1  0.17405495  0.34314638  0.91696492  1
  Fe  Fe65  1  0.61674901  0.49306713  0.80772103  1
  Fe  Fe66  1  0.22524994  0.32452841  0.61572658  1
  Fe  Fe67  1  0.32267171  0.23326335  0.33678814  1
  Fe  Fe68  1  0.79368479  0.71461760  0.89436065  1
  Fe  Fe69  1  0.35411669  0.85673164  0.51201642  1
  Fe  Fe70  1  0.62537406  0.38950186  0.71298088  1
  Fe  Fe71  1  0.63613966  0.04890950  0.50359300  1
  Fe  Fe72  1  0.62939712  0.55669171  0.40396951  1
  Fe  Fe73  1  0.10552059  0.86655140  0.20049478  1
  Fe  Fe74  1  0.17293935  0.68871137  0.81559860  1
  Fe  Fe75  1  0.12197241  0.72530999  0.26858634  1
  Fe  Fe76  1  0.19828073  0.72443600  0.68626832  1
  Fe  Fe77  1  0.32796392  0.92251495  0.98236709  1
  Fe  Fe78  1  0.78340891  0.64512642  0.55215091  1
  Fe  Fe79  1  0.65900628  0.61307338  0.54095138  1
  Fe  Fe80  1  0.75201532  0.60569163  0.42847334  1
  Fe  Fe81  1  0.66348755  0.92065684  0.52056752  1
  Fe  Fe82  1  0.66628097  0.11641807  0.07627801  1
  Fe  Fe83  1  0.30554280  0.31172145  0.93879312  1
  Fe  Fe84  1  0.08818118  -0.00044819  0.19778078  1
  Fe  Fe85  1  0.83447369  0.69731930  0.02444127  1
  Fe  Fe86  1  0.16579083  0.82308789  0.80305838  1
  Fe  Fe87  1  0.36165356  0.34622131  0.64658490  1
  Fe  Fe88  1  0.22698774  0.34178734  0.34537932  1
  Fe  Fe89  1  0.10198502  0.82079982  0.68501920  1
  Fe  Fe90  1  0.89894840  0.36580290  0.65953934  1
  Fe  Fe91  1  0.62148719  0.45698839  0.32038048  1
  Fe  Fe92  1  0.61296317  0.37048258  0.84925139  1
  Fe  Fe93  1  0.69865809  0.70640751  0.02179303  1
  Fe  Fe94  1  0.69035153  0.81988924  0.93141444  1
  Fe  Fe95  1  0.77029275  0.80700944  0.10943900  1
  Fe  Fe96  1  0.31630376  0.22052641  0.62652418  1
  Fe  Fe97  1  0.81643619  0.82913427  0.98070902  1
  Fe  Fe98  1  0.37468399  0.24439160  0.21546656  1
  Fe  Fe99  1  0.89570766  -0.02573057  0.44184563  1
  Fe  Fe100  1  0.08258680  0.84748230  0.33439338  1
  Fe  Fe101  1  0.18338420  0.63495806  0.17819521  1
  Bi  Bi102  1  0.25373386  0.48698862  0.25774913  1
  Bi  Bi103  1  0.71656991  0.77329710  0.44158282  1
  Bi  Bi104  1  -0.04947101  -0.07308983  0.28311148  1
  Bi  Bi105  1  0.23779971  0.22546563  0.07737990  1
  Bi  Bi106  1  0.48916441  -0.02354852  0.53098296  1
  Bi  Bi107  1  0.46839531  0.43880705  0.74251458  1
  Bi  Bi108  1  0.73502323  0.03828987  0.64264912  1
  Bi  Bi109  1  0.51295185  0.31977389  0.30269800  1
  Bi  Bi110  1  0.07488150  -0.03618678  0.78176592  1
  Bi  Bi111  1  0.32729196  0.31982626  0.48257264  1
  Bi  Bi112  1  0.72035699  -0.03712300  0.02887557  1
  Bi  Bi113  1  0.25800186  0.28922019  0.77730595  1
  Bi  Bi114  1  0.64071678  0.65582062  -0.14027646  1
  Bi  Bi115  1  0.89685890  0.13171948  0.92903194  1
  Bi  Bi116  1  0.89768498  0.34151384  0.37286294  1
  Bi  Bi117  1  0.34961982  0.68895147  0.14077294  1
  Bi  Bi118  1  0.82375745  0.13496302  0.12441369  1
  Bi  Bi119  1  0.89398859  0.37983872  0.82915155  1
  Bi  Bi120  1  0.33788146  0.68426268  0.58205982  1
  Bi  Bi121  1  0.93303576  0.83601074  0.64205576  1
  Bi  Bi122  1  0.90001722  0.41469601  0.10065021  1
  Bi  Bi123  1  0.15595516  0.16590075  0.59453445  1
  Bi  Bi124  1  0.61925382  0.14150221  0.91076480  1
  Bi  Bi125  1  0.32741644  0.65140088  0.87904225  1
  Bi  Bi126  1  0.70172280  0.16658981  0.40177929  1
  Bi  Bi127  1  0.62176169  0.47465124  0.14577613  1
