# generated using pymatgen
data_Ba51Fe51Bi26
_symmetry_space_group_name_H-M   'P 1'
_cell_length_a   16.28412440
_cell_length_b   16.68220587
_cell_length_c   16.28315635
_cell_angle_alpha   88.69790318
_cell_angle_beta   89.95464516
_cell_angle_gamma   90.00447376
_symmetry_Int_Tables_number   1
_chemical_formula_structural   Ba51Fe51Bi26
_chemical_formula_sum   'Ba51 Fe51 Bi26'
_cell_volume   4422.25909736
_cell_formula_units_Z   1
loop_
 _symmetry_equiv_pos_site_id
 _symmetry_equiv_pos_as_xyz
  1  'x, y, z'
loop_
 _atom_site_type_symbol
 _atom_site_label
 _atom_site_symmetry_multiplicity
 _atom_site_fract_x
 _atom_site_fract_y
 _atom_site_fract_z
 _atom_site_occupancy
  Ba  Ba0  1  0.56742084  0.40468880  0.58325646  1
  Ba  Ba1  1  0.56091213  0.13441053  -0.00384185  1
  Ba  Ba2  1  0.00280943  0.28687134  0.34126516  1
  Ba  Ba3  1  0.08903812  0.66479138  0.01544909  1
  Ba  Ba4  1  0.30719897  0.51448188  0.54893309  1
  Ba  Ba5  1  -0.03374087  0.05391074  0.50596545  1
  Ba  Ba6  1  0.76749095  0.25689421  0.67662419  1
  Ba  Ba7  1  0.46720384  0.62457369  0.16997265  1
  Ba  Ba8  1  0.22048124  0.71265395  0.22676732  1
  Ba  Ba9  1  0.23871307  0.83197289  0.47541461  1
  Ba  Ba10  1  0.62261250  0.80230829  0.30958317  1
  Ba  Ba11  1  0.71351808  0.61377057  0.45849762  1
  Ba  Ba12  1  0.45433866  0.73469261  0.47454133  1
  Ba  Ba13  1  0.24271301  0.11102637  0.54038973  1
  Ba  Ba14  1  0.68342195  0.44526869  0.09293145  1
  Ba  Ba15  1  0.76929124  0.85868126  0.78409983  1
  Ba  Ba16  1  -0.02040250  0.52715621  0.71869473  1
  Ba  Ba17  1  0.25268723  -0.04543560  0.26856347  1
  Ba  Ba18  1  -0.04026577  -0.00114360  0.22672847  1
  Ba  Ba19  1  0.77648330  0.31809882  0.40671606  1
  Ba  Ba20  1  0.55462315  -0.01817521  0.19923574  1
  Ba  Ba21  1  0.87228912  -0.08188750  0.00941989  1
  Ba  Ba22  1  -0.04514441  0.19660418  0.00318155  1
  Ba  Ba23  1  0.53701119  0.14750617  0.52695873  1
  Ba  Ba24  1  0.21267546  0.57988145  0.79240498  1
  Ba  Ba25  1  0.31281669  0.46242887  0.30761046  1
  Ba  Ba26  1  0.75348068  0.19134974  0.14178671  1
  Ba  Ba27  1  0.02683896  0.29221886  0.60598510  1
  Ba  Ba28  1  0.00264427  0.79256897  0.73646834  1
  Ba  Ba29  1  0.19647820  0.09955752  0.08359170  1
  Ba  Ba30  1  -0.03381722  0.43569442  -0.00811106  1
  Ba  Ba31  1  0.76970761  0.85654072  0.52613016  1
  Ba  Ba32  1  0.51388375  0.27871078  0.81474969  1
  Ba  Ba33  1  -0.09256540  0.74712521  0.22018365  1
  Ba  Ba34  1  0.56741232  0.00846499  0.71038084  1
  Ba  Ba35  1  0.27511581  0.22768838  0.33511887  1
  Ba  Ba36  1  0.53913631  0.81466126  0.84756738  1
  Ba  Ba37  1  0.26557324  -0.00797880  0.77663639  1
  Ba  Ba38  1  0.05266576  0.51442947  0.23765197  1
  Ba  Ba39  1  0.74365681  0.70596024  0.02295048  1
  Ba  Ba40  1  0.32647654  0.29841288  0.07621648  1
  Ba  Ba41  1  0.08820256  -0.03553714  -0.07154247  1
  Ba  Ba42  1  0.39629127  -0.03991405  0.01755896  1
  Ba  Ba43  1  0.22031760  0.27029011  0.78307993  1
  Ba  Ba44  1  0.39879608  0.48934907  -0.04308599  1
  Ba  Ba45  1  0.53400851  0.60453042  0.69617523  1
  Ba  Ba46  1  0.73394319  0.04269772  0.36738375  1
  Ba  Ba47  1  0.76935532  0.45199082  0.81602164  1
  Ba  Ba48  1  -0.00013804  0.79110435  0.49824020  1
  Ba  Ba49  1  0.00416267  0.54352530  0.47093798  1
  Ba  Ba50  1  0.53168645  0.22857807  0.29318111  1
  Fe  Fe51  1  0.41996394  0.05994224  0.36655923  1
  Fe  Fe52  1  0.29191290  0.68015500  1.00143420  1
  Fe  Fe53  1  0.42482362  0.72179000  -0.00481327  1
  Fe  Fe54  1  0.69654755  0.14359104  0.84027041  1
  Fe  Fe55  1  0.77997695  0.89323939  0.23183704  1
  Fe  Fe56  1  0.52460047  0.53537111  0.40523941  1
  Fe  Fe57  1  0.65450233  0.91116163  -0.01718146  1
  Fe  Fe58  1  0.70643206  0.88363799  0.11542667  1
  Fe  Fe59  1  0.33533857  0.80483333  0.92193024  1
  Fe  Fe60  1  0.89202087  0.98479150  0.69216166  1
  Fe  Fe61  1  0.85079247  0.58610484  0.31719429  1
  Fe  Fe62  1  0.16850016  0.33081849  0.20367854  1
  Fe  Fe63  1  0.03062607  0.32652975  0.14650688  1
  Fe  Fe64  1  0.84671290  0.53447804  0.19319716  1
  Fe  Fe65  1  0.62481218  0.39278551  0.28251971  1
  Fe  Fe66  1  0.90434434  0.03750538  0.84228597  1
  Fe  Fe67  1  0.38154878  0.30000222  0.63220942  1
  Fe  Fe68  1  0.07749437  0.82670965  0.30463441  1
  Fe  Fe69  1  0.78947528  0.09170250  -0.06690000  1
  Fe  Fe70  1  0.32958725  0.80179807  0.77185087  1
  Fe  Fe71  1  0.84475996  0.67315326  0.72326321  1
  Fe  Fe72  1  0.06190200  0.70781052  0.33910995  1
  Fe  Fe73  1  0.31602203  0.72056531  0.65957905  1
  Fe  Fe74  1  0.53046071  -0.08350570  0.51002677  1
  Fe  Fe75  1  0.54574601  -0.00080114  0.40335794  1
  Fe  Fe76  1  0.73137272  0.70493979  0.65405135  1
  Fe  Fe77  1  0.85805097  0.63712159  0.59475453  1
  Fe  Fe78  1  0.76206589  0.00318734  0.16763214  1
  Fe  Fe79  1  0.88256702  0.46250684  0.32291106  1
  Fe  Fe80  1  0.74779748  0.57229100  0.66226068  1
  Fe  Fe81  1  0.27192150  0.31887783  0.56440620  1
  Fe  Fe82  1  0.59100129  0.52429338  0.28123608  1
  Fe  Fe83  1  0.70992729  0.01828206  0.03722124  1
  Fe  Fe84  1  0.44181808  0.91415611  0.38173223  1
  Fe  Fe85  1  0.23332626  0.81308194  1.02638758  1
  Fe  Fe86  1  0.21251111  0.80349841  0.68204081  1
  Fe  Fe87  1  0.90662864  0.11756078  0.69993168  1
  Fe  Fe88  1  0.68633583  1.00494855  0.88605126  1
  Fe  Fe89  1  0.63691674  0.44714014  0.40563502  1
  Fe  Fe90  1  0.85232711  0.17665778  0.83052931  1
  Fe  Fe91  1  0.77935566  0.05618446  0.77111001  1
  Fe  Fe92  1  0.05357419  0.09795921  0.67912142  1
  Fe  Fe93  1  0.35667627  0.78788512  0.08937336  1
  Fe  Fe94  1  0.74066043  0.48188105  0.29480103  1
  Fe  Fe95  1  0.40920827  0.98790549  0.48967204  1
  Fe  Fe96  1  0.00350579  0.14497191  0.80207869  1
  Fe  Fe97  1  0.50095034  0.41784956  0.35346801  1
  Fe  Fe98  1  1.01428783  0.99831038  0.75235305  1
  Fe  Fe99  1  0.09850781  1.21686862  0.18959294  1
  Fe  Fe100  1  0.14506090  0.41641770  0.10102384  1
  Fe  Fe101  1  0.12692208  0.29081484  1.05605365  1
  Bi  Bi102  1  0.09256926  0.86295162  0.12559681  1
  Bi  Bi103  1  0.38528601  -0.11660023  0.62896405  1
  Bi  Bi104  1  0.17806564  0.78821069  0.85953074  1
  Bi  Bi105  1  0.18060879  0.41197922  -0.06211685  1
  Bi  Bi106  1  -0.04319864  0.31335765  0.80617066  1
  Bi  Bi107  1  0.11486856  -0.05680686  0.62238061  1
  Bi  Bi108  1  0.75981784  0.05586027  0.59603403  1
  Bi  Bi109  1  0.41441581  0.31909333  0.46395658  1
  Bi  Bi110  1  0.40650507  -0.19137705  0.26022847  1
  Bi  Bi111  1  0.70799309  0.63299643  0.21989321  1
  Bi  Bi112  1  0.73907531  0.27052873  -0.06201698  1
  Bi  Bi113  1  0.55355076  0.80444560  0.07252753  1
  Bi  Bi114  1  0.48574039  0.41074455  0.17784655  1
  Bi  Bi115  1  0.15899274  0.38438653  0.45193680  1
  Bi  Bi116  1  0.10816836  0.10362882  0.32731966  1
  Bi  Bi117  1  0.38691630  0.10970052  0.19185496  1
  Bi  Bi118  1  0.39407627  0.66525506  0.84243840  1
  Bi  Bi119  1  0.38649626  0.43227170  0.73310752  1
  Bi  Bi120  1  0.14585181  0.66626421  0.60382449  1
  Bi  Bi121  1  0.82930176  0.45091716  0.58241477  1
  Bi  Bi122  1  0.35047681  0.15043496  0.91661243  1
  Bi  Bi123  1  0.86698388  0.36539398  0.18371613  1
  Bi  Bi124  1  0.70371497  0.65246638  0.82140259  1
  Bi  Bi125  1  0.25211807  0.54463336  0.10809829  1
  Bi  Bi126  1  0.59489800  0.80345339  0.62777422  1
  Bi  Bi127  1  0.39501577  0.14799802  0.69507635  1
