# generated using pymatgen
data_Ba51Fe51Bi26
_symmetry_space_group_name_H-M   'P 1'
_cell_length_a   16.68730948
_cell_length_b   15.97442752
_cell_length_c   16.29360438
_cell_angle_alpha   88.94257295
_cell_angle_beta   90.01988628
_cell_angle_gamma   88.84379464
_symmetry_Int_Tables_number   1
_chemical_formula_structural   Ba51Fe51Bi26
_chemical_formula_sum   'Ba51 Fe51 Bi26'
_cell_volume   4341.76466488
_cell_formula_units_Z   1
loop_
 _symmetry_equiv_pos_site_id
 _symmetry_equiv_pos_as_xyz
  1  'x, y, z'
loop_
 _atom_site_type_symbol
 _atom_site_label
 _atom_site_symmetry_multiplicity
 _atom_site_fract_x
 _atom_site_fract_y
 _atom_site_fract_z
 _atom_site_occupancy
  Ba  Ba0  1  0.81001164  0.28432318  0.56769626  1
  Ba  Ba1  1  0.67799683  0.50289692  0.18431289  1
  Ba  Ba2  1  0.68284235  0.49425022  0.73478056  1
  Ba  Ba3  1  0.76526236  0.79200544  0.41686319  1
  Ba  Ba4  1  0.42492606  0.75326876  0.21591470  1
  Ba  Ba5  1  0.13337136  -0.06946094  0.01874360  1
  Ba  Ba6  1  0.69276774  0.81584154  0.16657190  1
  Ba  Ba7  1  0.23534262  0.71256512  0.50280472  1
  Ba  Ba8  1  0.55390749  0.79777684  0.77345213  1
  Ba  Ba9  1  0.69072478  0.50217157  0.45738731  1
  Ba  Ba10  1  0.09889120  0.01866156  0.73408614  1
  Ba  Ba11  1  0.41550440  0.58902114  0.39768902  1
  Ba  Ba12  1  0.03778106  -0.00788687  0.41706085  1
  Ba  Ba13  1  0.42085557  0.51666110  0.14556652  1
  Ba  Ba14  1  -0.00528220  0.25743289  0.00787270  1
  Ba  Ba15  1  0.51526467  0.29348875  0.87929903  1
  Ba  Ba16  1  -0.07075148  0.49246346  0.65593322  1
  Ba  Ba17  1  0.31231820  0.10880304  0.81943779  1
  Ba  Ba18  1  0.49220072  0.27974399  0.30589123  1
  Ba  Ba19  1  0.40371285  0.00173703  0.54204102  1
  Ba  Ba20  1  0.10447698  0.25102503  0.76798428  1
  Ba  Ba21  1  0.47583543  0.00623492  0.27181701  1
  Ba  Ba22  1  0.04315738  0.56551848  0.22312378  1
  Ba  Ba23  1  0.81401908  0.01731273  0.54346439  1
  Ba  Ba24  1  0.38128002  0.25529704  0.68498725  1
  Ba  Ba25  1  0.00512975  0.80246863  0.60274481  1
  Ba  Ba26  1  -0.01119030  0.60296599  0.45569551  1
  Ba  Ba27  1  0.05892970  0.47703145  -0.14170530  1
  Ba  Ba28  1  -0.04943602  0.86216793  0.21404553  1
  Ba  Ba29  1  0.03794704  0.24246985  0.51854835  1
  Ba  Ba30  1  0.61250958  0.17688947  0.07747520  1
  Ba  Ba31  1  0.70864537  -0.03549423  -0.03562093  1
  Ba  Ba32  1  0.50122279  0.54558673  -0.07852603  1
  Ba  Ba33  1  0.86239556  0.45432957  0.04697592  1
  Ba  Ba34  1  -0.00280204  0.27215792  0.25499908  1
  Ba  Ba35  1  0.70782092  0.06120344  0.75100251  1
  Ba  Ba36  1  0.21012566  0.41071988  0.10648114  1
  Ba  Ba37  1  0.31753015  -0.13088890  0.80139440  1
  Ba  Ba38  1  0.71556912  0.65371184  -0.02029674  1
  Ba  Ba39  1  0.23323605  -0.08484300  0.31680467  1
  Ba  Ba40  1  0.42926217  0.78127871  -0.00254464  1
  Ba  Ba41  1  0.27154549  0.37533928  0.39727218  1
  Ba  Ba42  1  0.22981440  0.44592612  0.63893096  1
  Ba  Ba43  1  0.26177216  0.16451556  0.17931625  1
  Ba  Ba44  1  0.78537126  0.24156676  0.88032854  1
  Ba  Ba45  1  0.26805266  0.54617143  -0.13303122  1
  Ba  Ba46  1  0.81492902  0.77876355  0.75563594  1
  Ba  Ba47  1  0.00877359  0.69952912  -0.01196696  1
  Ba  Ba48  1  0.74471684  0.29849557  0.31479976  1
  Ba  Ba49  1  0.57614895  0.71639601  0.52698540  1
  Ba  Ba50  1  0.72736495  0.05498126  0.27735318  1
  Fe  Fe51  1  0.56403247  0.37617715  0.08699880  1
  Fe  Fe52  1  0.86748311  0.08818628  0.98650479  1
  Fe  Fe53  1  0.91983796  0.30949488  0.74932433  1
  Fe  Fe54  1  0.25951253  0.55597633  0.24134716  1
  Fe  Fe55  1  0.66220778  0.15880494  0.54870511  1
  Fe  Fe56  1  0.15507020  0.73661985  0.79946493  1
  Fe  Fe57  1  0.33570066  0.37808998  0.96108549  1
  Fe  Fe58  1  0.50086415  0.40594000  0.46164480  1
  Fe  Fe59  1  0.31311790  0.20051510  0.50773751  1
  Fe  Fe60  1  0.21406531  0.23812959  0.58830941  1
  Fe  Fe61  1  0.30861948  0.08275857  0.01642445  1
  Fe  Fe62  1  0.39796810  0.98911063  0.95907276  1
  Fe  Fe63  1  0.90506640  1.01250139  0.85817051  1
  Fe  Fe64  1  0.19510436  0.32702838  -0.06958251  1
  Fe  Fe65  1  0.18489433  0.79374544  0.68192301  1
  Fe  Fe66  1  0.59708907  0.28541842  0.49279614  1
  Fe  Fe67  1  -0.02950112  0.05909146  0.08571450  1
  Fe  Fe68  1  0.54006713  0.14376935  0.46643809  1
  Fe  Fe69  1  0.86287519  0.47863585  0.25366909  1
  Fe  Fe70  1  0.26817522  0.67252459  0.70560148  1
  Fe  Fe71  1  -0.00091465  0.06882399  0.93977791  1
  Fe  Fe72  1  0.30043348  0.23844380  -0.02484646  1
  Fe  Fe73  1  0.44993985  0.05669994  0.07442105  1
  Fe  Fe74  1  0.29230279  0.33626747  0.84207797  1
  Fe  Fe75  1  0.20567098  0.11185904  0.49543829  1
  Fe  Fe76  1  0.52941322  0.95272177  0.02974504  1
  Fe  Fe77  1  0.53171161  0.18823620  0.60346777  1
  Fe  Fe78  1  0.39574059  0.64066571  0.75581841  1
  Fe  Fe79  1  0.52727221  0.35655527  0.60076737  1
  Fe  Fe80  1  0.25118491  0.78698413  0.12544996  1
  Fe  Fe81  1  0.56673810  0.83371801  0.35126424  1
  Fe  Fe82  1  0.83251860  1.03232891  0.11504615  1
  Fe  Fe83  1  0.51309341  0.94303174  0.89306789  1
  Fe  Fe84  1  0.52063643  0.07465870  0.92619143  1
  Fe  Fe85  1  0.88483993  0.40177800  0.83171887  1
  Fe  Fe86  1  0.83798907  0.58902686  0.31691637  1
  Fe  Fe87  1  0.51067633  0.51099541  0.57470058  1
  Fe  Fe88  1  0.41961285  0.15848688  0.98477219  1
  Fe  Fe89  1  0.90941512  0.95916764  0.73733431  1
  Fe  Fe90  1  0.24496559  0.70527472  0.25979726  1
  Fe  Fe91  1  0.91243389  1.08993567  0.21359002  1
  Fe  Fe92  1  0.58792628  1.04769746  0.58865176  1
  Fe  Fe93  1  0.13972067  0.73908276  0.17487260  1
  Fe  Fe94  1  0.37942432  0.57923512  0.61687983  1
  Fe  Fe95  1  0.44430741  0.27064634  0.50010742  1
  Fe  Fe96  1  0.50259736  0.61177412  0.68180282  1
  Fe  Fe97  1  0.57122161  0.66001461  0.13227824  1
  Fe  Fe98  1  0.40201127  0.42625641  0.55100126  1
  Fe  Fe99  1  0.23214659  0.63709707  0.12068686  1
  Fe  Fe100  1  0.24645979  0.10806723  0.62159298  1
  Fe  Fe101  1  0.19240454  0.60678998  0.33849628  1
  Bi  Bi102  1  0.01386495  0.84317951  0.81590553  1
  Bi  Bi103  1  0.64388250  0.27334139  0.69374932  1
  Bi  Bi104  1  0.49874534  0.03805573  0.74677489  1
  Bi  Bi105  1  0.15989822  0.14482830  -0.03834027  1
  Bi  Bi106  1  0.39804567  0.76101161  0.63323825  1
  Bi  Bi107  1  -0.09332315  -0.09020333  0.00959597  1
  Bi  Bi108  1  0.33086918  -0.05830707  0.12173992  1
  Bi  Bi109  1  0.08029819  0.05460024  0.21311528  1
  Bi  Bi110  1  0.41708866  0.29913443  0.09587189  1
  Bi  Bi111  1  0.22044743  0.73163277  -0.03295999  1
  Bi  Bi112  1  0.44051508  0.45870328  0.73330535  1
  Bi  Bi113  1  0.61374735  -0.02386444  0.43565294  1
  Bi  Bi114  1  0.08901089  0.75694883  0.34395104  1
  Bi  Bi115  1  0.91458809  0.13804381  0.70666331  1
  Bi  Bi116  1  0.66912121  0.42130722  0.96729839  1
  Bi  Bi117  1  0.80233526  0.64984445  0.57706280  1
  Bi  Bi118  1  0.88724232  0.14387921  0.38417259  1
  Bi  Bi119  1  0.19479777  0.93707536  0.56153700  1
  Bi  Bi120  1  0.60763363  0.66863050  0.30350306  1
  Bi  Bi121  1  0.81853789  0.21239573  0.11826406  1
  Bi  Bi122  1  0.10743839  0.62059550  0.68033195  1
  Bi  Bi123  1  0.41238317  0.82577221  0.40955430  1
  Bi  Bi124  1  0.89849421  0.41824727  0.40932227  1
  Bi  Bi125  1  0.85208295  0.65072307  0.15585212  1
  Bi  Bi126  1  0.66655412  0.88920556  0.61986503  1
  Bi  Bi127  1  0.86775435  0.57578670  0.85285746  1
