# generated using pymatgen
data_Ba51Fe51Bi26
_symmetry_space_group_name_H-M   'P 1'
_cell_length_a   16.63369416
_cell_length_b   16.10626759
_cell_length_c   16.51480647
_cell_angle_alpha   91.20834137
_cell_angle_beta   86.76320415
_cell_angle_gamma   90.75172940
_symmetry_Int_Tables_number   1
_chemical_formula_structural   Ba51Fe51Bi26
_chemical_formula_sum   'Ba51 Fe51 Bi26'
_cell_volume   4416.07182833
_cell_formula_units_Z   1
loop_
 _symmetry_equiv_pos_site_id
 _symmetry_equiv_pos_as_xyz
  1  'x, y, z'
loop_
 _atom_site_type_symbol
 _atom_site_label
 _atom_site_symmetry_multiplicity
 _atom_site_fract_x
 _atom_site_fract_y
 _atom_site_fract_z
 _atom_site_occupancy
  Ba  Ba0  1  0.45211301  0.21186639  0.24327794  1
  Ba  Ba1  1  0.61050553  0.73440864  0.49336076  1
  Ba  Ba2  1  0.48448295  0.48535564  0.21210654  1
  Ba  Ba3  1  -0.04091222  -0.05683216  -0.11110587  1
  Ba  Ba4  1  -0.03368873  0.69432735  0.73691490  1
  Ba  Ba5  1  0.30276962  0.01008411  0.26339643  1
  Ba  Ba6  1  0.08487195  0.69957167  0.34934574  1
  Ba  Ba7  1  0.74102298  0.33636318  0.46067214  1
  Ba  Ba8  1  0.71979704  0.24149342  0.71288047  1
  Ba  Ba9  1  -0.03298783  0.16712764  0.00463684  1
  Ba  Ba10  1  0.26296007  -0.05025401  -0.05967437  1
  Ba  Ba11  1  0.72216331  0.07502712  -0.01278087  1
  Ba  Ba12  1  0.27879681  0.70822401  -0.02543506  1
  Ba  Ba13  1  0.05226184  -0.00279634  0.19517407  1
  Ba  Ba14  1  0.04013888  0.25358621  0.49448547  1
  Ba  Ba15  1  0.56416908  0.01257358  0.16484573  1
  Ba  Ba16  1  0.53457956  -0.03762228  0.40750212  1
  Ba  Ba17  1  0.29895123  0.14807224  0.73642094  1
  Ba  Ba18  1  0.87938843  0.40159831  0.03711528  1
  Ba  Ba19  1  0.21274331  0.17949018  0.06223784  1
  Ba  Ba20  1  0.13631162  -0.07565272  0.69429017  1
  Ba  Ba21  1  -0.06178701  0.29700365  0.79750761  1
  Ba  Ba22  1  0.22199321  0.54767673  0.16325601  1
  Ba  Ba23  1  0.85790830  0.76900082  0.51570883  1
  Ba  Ba24  1  0.23218425  0.34089126  0.24724750  1
  Ba  Ba25  1  0.58926689  0.27509570  0.04790868  1
  Ba  Ba26  1  0.47731696  0.27236827  0.85736113  1
  Ba  Ba27  1  0.86590899  0.04305974  0.52159982  1
  Ba  Ba28  1  0.78055018  -0.00237699  0.30733630  1
  Ba  Ba29  1  0.30521944  0.74197075  0.54577323  1
  Ba  Ba30  1  -0.05724687  0.77776066  0.18287170  1
  Ba  Ba31  1  0.25792041  0.39394926  -0.08529216  1
  Ba  Ba32  1  0.70423988  0.78044932  0.13030461  1
  Ba  Ba33  1  0.47476917  0.00961703  0.76767413  1
  Ba  Ba34  1  0.63359907  0.58043268  -0.00127405  1
  Ba  Ba35  1  0.49914340  0.51590306  0.79356671  1
  Ba  Ba36  1  0.71690444  -0.00111751  0.74114830  1
  Ba  Ba37  1  0.51675879  0.21308175  0.55665698  1
  Ba  Ba38  1  0.19872361  0.59911051  0.70549837  1
  Ba  Ba39  1  0.13812538  -0.04071981  0.44897324  1
  Ba  Ba40  1  0.53212932  0.50530107  0.52449704  1
  Ba  Ba41  1  -0.02395183  0.52692712  0.52038338  1
  Ba  Ba42  1  0.16929965  0.34848216  0.68245010  1
  Ba  Ba43  1  0.83429118  0.52509578  0.83411136  1
  Ba  Ba44  1  0.49322317  0.76773158  0.27188052  1
  Ba  Ba45  1  -0.17097188  0.54947994  0.26675142  1
  Ba  Ba46  1  -0.03683494  0.26080863  0.24662842  1
  Ba  Ba47  1  0.31527395  0.30814299  0.46376691  1
  Ba  Ba48  1  0.05684525  0.59387689  0.00400703  1
  Ba  Ba49  1  0.48722534  0.76129261  0.76695960  1
  Ba  Ba50  1  0.72476199  0.74839454  0.74057235  1
  Fe  Fe51  1  0.66228605  0.43394199  0.30742758  1
  Fe  Fe52  1  0.17385063  0.83808606  0.23999960  1
  Fe  Fe53  1  1.06593111  0.35881144  0.92885115  1
  Fe  Fe54  1  0.84341930  0.73221119  0.90903767  1
  Fe  Fe55  1  0.53008975  0.07574879  0.96198608  1
  Fe  Fe56  1  0.57015901  0.92189511  0.89722424  1
  Fe  Fe57  1  0.77966168  0.34973732  0.25282032  1
  Fe  Fe58  1  0.67952693  0.16443950  0.19752957  1
  Fe  Fe59  1  0.37542944  0.35007385  0.07875535  1
  Fe  Fe60  1  0.57153418  0.00856492  0.59289762  1
  Fe  Fe61  1  -0.03031909  0.74991634  0.94134863  1
  Fe  Fe62  1  0.58556971  0.76822347  0.93299756  1
  Fe  Fe63  1  0.39926859  0.10610123  0.94278296  1
  Fe  Fe64  1  0.29956889  0.98808448  0.58453161  1
  Fe  Fe65  1  0.67180223  0.07097580  0.52411224  1
  Fe  Fe66  1  0.81882224  0.14223436  0.15784382  1
  Fe  Fe67  1  0.32624174  0.50891412  0.34125280  1
  Fe  Fe68  1  0.45120161  -0.03465875  -0.02196196  1
  Fe  Fe69  1  0.34862576  0.64450760  0.26320651  1
  Fe  Fe70  1  0.25712147  0.62703459  0.38084441  1
  Fe  Fe71  1  0.08482873  0.15979992  0.67803752  1
  Fe  Fe72  1  0.77251790  0.20950292  0.28205389  1
  Fe  Fe73  1  1.00761965  1.04725995  0.64347985  1
  Fe  Fe74  1  0.64785777  0.29612894  0.25532111  1
  Fe  Fe75  1  0.34782692  0.93566016  0.46584946  1
  Fe  Fe76  1  0.40161368  0.22152551  1.03874987  1
  Fe  Fe77  1  0.86068218  0.81828124  1.01132211  1
  Fe  Fe78  1  0.69447422  0.46444049  0.69808486  1
  Fe  Fe79  1  0.66513237  0.58255700  0.64311962  1
  Fe  Fe80  1  0.51586247  0.75158757  0.07240894  1
  Fe  Fe81  1  0.29031091  0.74787551  0.18373077  1
  Fe  Fe82  1  0.14959426  0.73965262  0.14885221  1
  Fe  Fe83  1  0.01840971  0.10852814  0.78368223  1
  Fe  Fe84  1  0.46899693  0.67500934  0.97038841  1
  Fe  Fe85  1  0.89516840  0.07583050  0.74378373  1
  Fe  Fe86  1  0.45303634  0.81910609  0.95197157  1
  Fe  Fe87  1  0.69369024  0.93615163  0.52873428  1
  Fe  Fe88  1  0.56883896  0.88505109  0.02504238  1
  Fe  Fe89  1  0.76395233  0.26452864  0.13797079  1
  Fe  Fe90  1  0.22521024  0.86593756  0.11961566  1
  Fe  Fe91  1  0.61838863  0.88349938  0.62732340  1
  Fe  Fe92  1  0.40514823  0.66978994  0.11486258  1
  Fe  Fe93  1  0.79378741  0.56613333  0.64349322  1
  Fe  Fe94  1  0.18483932  0.49024725  0.38760538  1
  Fe  Fe95  1  0.42493541  0.03658515  0.56272016  1
  Fe  Fe96  1  0.94338887  0.16720775  0.65662481  1
  Fe  Fe97  1  0.16114210  0.45453622  0.51389314  1
  Fe  Fe98  1  0.34607047  0.07840122  0.46648484  1
  Fe  Fe99  1  0.40634824  0.61102913  0.38382209  1
  Fe  Fe100  1  0.16561160  0.58921824  0.49665080  1
  Fe  Fe101  1  0.41358164  0.08162616  0.06918836  1
  Bi  Bi102  1  -0.09231762  -0.09339930  0.68537370  1
  Bi  Bi103  1  0.40976757  0.51482333  0.01265054  1
  Bi  Bi104  1  0.69335839  0.43296712  0.14082713  1
  Bi  Bi105  1  0.45745467  -0.12698714  0.59233988  1
  Bi  Bi106  1  0.72766294  0.86498661  -0.07859629  1
  Bi  Bi107  1  0.29154370  0.80404674  0.34998778  1
  Bi  Bi108  1  0.39281230  0.87380281  0.10888582  1
  Bi  Bi109  1  0.20590609  0.13528336  0.55884121  1
  Bi  Bi110  1  0.08898220  0.83993244  0.03478344  1
  Bi  Bi111  1  0.75365341  0.56903246  0.48474188  1
  Bi  Bi112  1  0.63319698  0.14942185  0.36671875  1
  Bi  Bi113  1  0.31624384  0.52253429  0.51801181  1
  Bi  Bi114  1  0.05104266  0.48472553  0.81975596  1
  Bi  Bi115  1  0.84806798  0.39969011  0.63869146  1
  Bi  Bi116  1  0.86044650  0.97468438  0.10316746  1
  Bi  Bi117  1  0.95497884  0.89481352  0.36860124  1
  Bi  Bi118  1  0.84764211  0.63239482  0.04496386  1
  Bi  Bi119  1  0.66128339  0.39701220  0.85909588  1
  Bi  Bi120  1  0.62937007  0.60630588  0.31296427  1
  Bi  Bi121  1  0.53077875  0.34994143  0.38177082  1
  Bi  Bi122  1  0.39015049  0.35469291  0.68416297  1
  Bi  Bi123  1  0.08827415  0.73229907  0.56148316  1
  Bi  Bi124  1  0.14484808  0.15834355  0.30925385  1
  Bi  Bi125  1  0.08828774  0.36541342  0.09239372  1
  Bi  Bi126  1  0.12375575  0.76869482  0.84644167  1
  Bi  Bi127  1  0.13092357  0.21230943  0.85882987  1
