# generated using pymatgen
data_Ba51Fe51Bi26
_symmetry_space_group_name_H-M   'P 1'
_cell_length_a   16.34245863
_cell_length_b   16.64356832
_cell_length_c   16.51871948
_cell_angle_alpha   89.08828379
_cell_angle_beta   91.77145444
_cell_angle_gamma   90.02741545
_symmetry_Int_Tables_number   1
_chemical_formula_structural   Ba51Fe51Bi26
_chemical_formula_sum   'Ba51 Fe51 Bi26'
_cell_volume   4490.32344330
_cell_formula_units_Z   1
loop_
 _symmetry_equiv_pos_site_id
 _symmetry_equiv_pos_as_xyz
  1  'x, y, z'
loop_
 _atom_site_type_symbol
 _atom_site_label
 _atom_site_symmetry_multiplicity
 _atom_site_fract_x
 _atom_site_fract_y
 _atom_site_fract_z
 _atom_site_occupancy
  Ba  Ba0  1  0.16098551  0.26539269  0.80815111  1
  Ba  Ba1  1  0.02512367  0.36175581  -0.01344646  1
  Ba  Ba2  1  0.51420846  0.01645122  0.74767708  1
  Ba  Ba3  1  0.21992605  0.19985573  0.46014778  1
  Ba  Ba4  1  -0.07497559  0.27375824  0.45682038  1
  Ba  Ba5  1  0.24960244  0.56004822  0.72176260  1
  Ba  Ba6  1  0.79072354  0.43690035  -0.06123802  1
  Ba  Ba7  1  0.80389012  0.77168581  -0.00553720  1
  Ba  Ba8  1  0.68913128  -0.07200792  0.57426457  1
  Ba  Ba9  1  -0.03268503  0.18139178  0.12424062  1
  Ba  Ba10  1  0.76997838  0.19376624  -0.01606875  1
  Ba  Ba11  1  0.36091253  0.44235415  0.52510051  1
  Ba  Ba12  1  0.25422017  0.78452441  0.05319465  1
  Ba  Ba13  1  -0.07562902  0.28541611  0.72395938  1
  Ba  Ba14  1  0.50419078  0.19493825  0.27045336  1
  Ba  Ba15  1  0.46851605  0.76546493  0.72312271  1
  Ba  Ba16  1  0.18695492  0.45665142  0.30482216  1
  Ba  Ba17  1  0.64593751  -0.06412411  0.24632754  1
  Ba  Ba18  1  0.34375345  0.24215716  0.03292033  1
  Ba  Ba19  1  0.68250667  0.19738793  0.74416972  1
  Ba  Ba20  1  0.53165895  0.77850405  0.49040511  1
  Ba  Ba21  1  0.77811384  0.17794988  0.27413524  1
  Ba  Ba22  1  0.53604908  0.14256798  -0.04837853  1
  Ba  Ba23  1  0.03039932  -0.03885088  0.07117879  1
  Ba  Ba24  1  0.29235646  0.49118424  -0.01691495  1
  Ba  Ba25  1  0.62884826  0.64549803  0.86481359  1
  Ba  Ba26  1  0.41018550  -0.07644738  0.28996933  1
  Ba  Ba27  1  -0.09883773  -0.05026807  0.28117538  1
  Ba  Ba28  1  0.48047427  0.89763862  -0.03411174  1
  Ba  Ba29  1  0.21344396  0.78890974  0.77729902  1
  Ba  Ba30  1  0.84331881  -0.00205801  0.76648857  1
  Ba  Ba31  1  0.75931088  0.50893655  0.19025082  1
  Ba  Ba32  1  0.15986473  0.00741825  -0.10450377  1
  Ba  Ba33  1  0.52068853  0.25941269  0.53743450  1
  Ba  Ba34  1  0.09247765  0.58282390  0.11548087  1
  Ba  Ba35  1  0.19421665  0.23138573  0.21357585  1
  Ba  Ba36  1  0.41238461  0.31721818  0.80286545  1
  Ba  Ba37  1  0.20327992  0.73030122  0.29772698  1
  Ba  Ba38  1  0.04168270  0.50559453  0.52977018  1
  Ba  Ba39  1  0.79459786  0.67768137  0.54634871  1
  Ba  Ba40  1  0.51152277  0.61099668  0.06350939  1
  Ba  Ba41  1  0.28259390  0.79770889  0.52951867  1
  Ba  Ba42  1  0.22851092  0.03298974  0.66275781  1
  Ba  Ba43  1  0.77059422  0.48687154  0.69760504  1
  Ba  Ba44  1  -0.11481555  0.72905653  0.76463471  1
  Ba  Ba45  1  0.75863507  0.47842344  0.42699627  1
  Ba  Ba46  1  -0.00992141  0.02243959  0.53411101  1
  Ba  Ba47  1  0.17388863  -0.00509304  0.27105010  1
  Ba  Ba48  1  0.47967626  0.42175247  0.19853353  1
  Ba  Ba49  1  0.43941742  0.61295607  0.34862494  1
  Ba  Ba50  1  -0.05333437  0.69462391  0.33179345  1
  Fe  Fe51  1  0.78265580  0.07472121  0.46573077  1
  Fe  Fe52  1  0.01328979  0.30232953  0.28335950  1
  Fe  Fe53  1  0.10618526  0.71319829  0.50260776  1
  Fe  Fe54  1  0.08497049  0.82941401  0.59347140  1
  Fe  Fe55  1  0.30770280  0.96807677  0.11096087  1
  Fe  Fe56  1  0.55342247  0.47908866  0.59694495  1
  Fe  Fe57  1  0.48407365  0.96980002  0.46547712  1
  Fe  Fe58  1  0.80555138  0.14657964  0.57347293  1
  Fe  Fe59  1  0.46794041  0.59796469  0.58033036  1
  Fe  Fe60  1  0.67060167  0.03498556  0.06856638  1
  Fe  Fe61  1  0.04139090  0.59999431  0.80294977  1
  Fe  Fe62  1  0.62005286  0.42874036  0.02881754  1
  Fe  Fe63  1  0.94757236  0.84101383  0.61334142  1
  Fe  Fe64  1  0.93497309  0.44741366  0.13775540  1
  Fe  Fe65  1  0.53587748  1.06185663  0.56025747  1
  Fe  Fe66  1  0.71202559  0.20015006  0.45202540  1
  Fe  Fe67  1  0.13161632  0.16298400  1.01232594  1
  Fe  Fe68  1  0.01861712  0.77144860  0.02857056  1
  Fe  Fe69  1  0.58542626  0.46015702  0.89586486  1
  Fe  Fe70  1  0.64381128  0.65337033  0.40594815  1
  Fe  Fe71  1  0.96193568  0.54288723  0.70790171  1
  Fe  Fe72  1  0.39578952  0.07877595  0.56587799  1
  Fe  Fe73  1  0.42867877  0.94927674  0.58215660  1
  Fe  Fe74  1  0.95626665  0.46047283  0.81452117  1
  Fe  Fe75  1  0.57430123  0.57250147  0.50248168  1
  Fe  Fe76  1  0.77418763  0.92379037  0.11007987  1
  Fe  Fe77  1  0.54916074  0.31702414  0.03342208  1
  Fe  Fe78  1  0.43551018  0.09384356  0.44082555  1
  Fe  Fe79  1  0.33717396  1.05203310  1.01452120  1
  Fe  Fe80  1  0.61581914  0.75507871  0.30932073  1
  Fe  Fe81  1  0.04306815  0.38192204  0.18319690  1
  Fe  Fe82  1  0.72973133  0.78141129  0.38143081  1
  Fe  Fe83  1  -0.01004401  0.69086677  -0.07512132  1
  Fe  Fe84  1  0.66331162  0.31149537  0.39669807  1
  Fe  Fe85  1  0.60317706  0.32934050  0.90980667  1
  Fe  Fe86  1  0.08986913  0.80606797  0.92111641  1
  Fe  Fe87  1  0.98464914  0.54757245  0.91452420  1
  Fe  Fe88  1  0.20525032  0.07730886  0.08136590  1
  Fe  Fe89  1  0.97954696  0.75002960  0.52019519  1
  Fe  Fe90  1  0.63561638  0.64008211  0.25549101  1
  Fe  Fe91  1  0.75185801  0.65832914  0.32957925  1
  Fe  Fe92  1  0.68442756  0.01555497  0.91928032  1
  Fe  Fe93  1  0.89778458  0.34331429  0.21540108  1
  Fe  Fe94  1  0.79909821  0.04901827  0.12132612  1
  Fe  Fe95  1  0.10432788  0.48327139  0.85918064  1
  Fe  Fe96  1  0.67871924  0.91722350  0.00314275  1
  Fe  Fe97  1  0.32862486  0.08803347  0.16234623  1
  Fe  Fe98  1  0.06917002  0.46085645  0.73205778  1
  Fe  Fe99  1  0.67222893  0.11994906  0.56413765  1
  Fe  Fe100  1  0.47861406  0.41259252  0.96729213  1
  Fe  Fe101  1  0.96586639  0.84925200  0.90536102  1
  Bi  Bi102  1  0.44302628  0.53212649  0.84074594  1
  Bi  Bi103  1  0.84414406  -0.01445071  -0.02501027  1
  Bi  Bi104  1  0.74519166  0.31043631  0.56933842  1
  Bi  Bi105  1  0.76970896  0.76943304  0.20916110  1
  Bi  Bi106  1  0.06677274  0.67207380  0.65786246  1
  Bi  Bi107  1  0.29549268  -0.00319586  0.45470274  1
  Bi  Bi108  1  0.03420471  -0.09641084  0.74922378  1
  Bi  Bi109  1  0.61279134  0.06396358  0.40452109  1
  Bi  Bi110  1  0.15325192  0.64007317  -0.08069923  1
  Bi  Bi111  1  -0.14399181  0.86138712  0.46556829  1
  Bi  Bi112  1  0.48394798  0.03705488  0.12425710  1
  Bi  Bi113  1  0.54852169  0.43279868  0.41325038  1
  Bi  Bi114  1  -0.03877640  0.47212029  0.31474477  1
  Bi  Bi115  1  0.08058318  0.85460516  0.41609596  1
  Bi  Bi116  1  0.59319868  0.39025274  0.74217048  1
  Bi  Bi117  1  0.31494799  0.59213195  0.16958536  1
  Bi  Bi118  1  0.22689658  0.59958413  0.46401320  1
  Bi  Bi119  1  0.02311550  0.13592971  0.32930346  1
  Bi  Bi120  1  0.35427364  0.32393431  0.34741349  1
  Bi  Bi121  1  0.08182236  0.19952427  0.61784493  1
  Bi  Bi122  1  0.61738364  0.63752823  0.65300512  1
  Bi  Bi123  1  0.89730679  0.58920330  0.04512061  1
  Bi  Bi124  1  0.65971000  0.86771372  0.83059191  1
  Bi  Bi125  1  0.34304838  0.11139095  0.84975733  1
  Bi  Bi126  1  0.39120066  0.70845051  0.90835332  1
  Bi  Bi127  1  0.99219658  0.15798297  0.90639399  1
