# generated using pymatgen
data_Ba51Fe51Bi26
_symmetry_space_group_name_H-M   'P 1'
_cell_length_a   16.33297957
_cell_length_b   16.44435686
_cell_length_c   16.60167168
_cell_angle_alpha   88.74574441
_cell_angle_beta   90.78968917
_cell_angle_gamma   88.73868963
_symmetry_Int_Tables_number   1
_chemical_formula_structural   Ba51Fe51Bi26
_chemical_formula_sum   'Ba51 Fe51 Bi26'
_cell_volume   4456.36335602
_cell_formula_units_Z   1
loop_
 _symmetry_equiv_pos_site_id
 _symmetry_equiv_pos_as_xyz
  1  'x, y, z'
loop_
 _atom_site_type_symbol
 _atom_site_label
 _atom_site_symmetry_multiplicity
 _atom_site_fract_x
 _atom_site_fract_y
 _atom_site_fract_z
 _atom_site_occupancy
  Ba  Ba0  1  0.25749418  0.68506254  -0.04561894  1
  Ba  Ba1  1  0.19731842  0.10223784  0.78589082  1
  Ba  Ba2  1  0.76653104  0.27293749  0.29256191  1
  Ba  Ba3  1  0.27825973  0.72768882  0.21124813  1
  Ba  Ba4  1  0.50411329  0.26045814  -0.05252666  1
  Ba  Ba5  1  0.33914334  0.15343237  0.47551116  1
  Ba  Ba6  1  0.80369343  0.77544758  -0.07725939  1
  Ba  Ba7  1  0.27722232  0.49497072  0.62047066  1
  Ba  Ba8  1  0.83608278  0.69338599  0.67480371  1
  Ba  Ba9  1  0.19246649  0.47520191  0.30843464  1
  Ba  Ba10  1  0.62373066  -0.11474993  0.07780569  1
  Ba  Ba11  1  -0.02002337  0.90359338  0.49349043  1
  Ba  Ba12  1  0.51698718  -0.04791550  0.44762356  1
  Ba  Ba13  1  0.57259275  0.72125465  0.48769282  1
  Ba  Ba14  1  0.01224640  0.30027746  0.25612170  1
  Ba  Ba15  1  0.22141656  -0.03225161  0.39524841  1
  Ba  Ba16  1  0.59378569  0.79165632  0.73368277  1
  Ba  Ba17  1  -0.01033037  -0.07223136  0.78582197  1
  Ba  Ba18  1  0.27086092  0.80571014  0.72500135  1
  Ba  Ba19  1  0.25311689  0.40579060  -0.09034990  1
  Ba  Ba20  1  -0.00536418  0.40737529  0.02176022  1
  Ba  Ba21  1  0.09897396  0.56638830  0.73903368  1
  Ba  Ba22  1  -0.12040314  0.50894038  0.84058969  1
  Ba  Ba23  1  0.78392832  -0.01659825  0.31353330  1
  Ba  Ba24  1  0.67867462  0.46137211  0.69423395  1
  Ba  Ba25  1  0.69696815  0.10593627  0.05802045  1
  Ba  Ba26  1  0.09757919  0.36395746  0.51979643  1
  Ba  Ba27  1  0.47389320  0.55586448  0.01624970  1
  Ba  Ba28  1  0.30197257  -0.06738387  -0.02599173  1
  Ba  Ba29  1  0.38883742  0.58347489  0.43144737  1
  Ba  Ba30  1  0.58140916  0.21870053  0.67004027  1
  Ba  Ba31  1  -0.01413289  0.16125094  -0.04152394  1
  Ba  Ba32  1  0.79444579  0.68467747  0.22764160  1
  Ba  Ba33  1  0.34685668  0.28020249  0.71536161  1
  Ba  Ba34  1  0.43373393  0.00219103  0.66840241  1
  Ba  Ba35  1  0.76741715  0.24400123  0.86765321  1
  Ba  Ba36  1  0.53285813  0.39267588  0.39834495  1
  Ba  Ba37  1  0.01733343  0.69844349  0.09542466  1
  Ba  Ba38  1  0.03102465  0.04904853  0.24920724  1
  Ba  Ba39  1  0.74042111  0.54477098  0.47221598  1
  Ba  Ba40  1  0.35744519  0.28935863  0.24777872  1
  Ba  Ba41  1  0.25440398  0.15557785  0.07921518  1
  Ba  Ba42  1  0.86548040  0.29524666  0.62255061  1
  Ba  Ba43  1  0.06613265  0.13395668  0.55095493  1
  Ba  Ba44  1  0.51148853  -0.06480871  -0.12029885  1
  Ba  Ba45  1  0.46050872  0.59599970  0.75482747  1
  Ba  Ba46  1  0.00884744  0.68008898  0.34027367  1
  Ba  Ba47  1  0.18720550  0.74269877  0.50699595  1
  Ba  Ba48  1  0.77806303  0.07911946  0.58252324  1
  Ba  Ba49  1  0.70144070  0.43600484  0.06124036  1
  Ba  Ba50  1  0.04130674  -0.07638490  0.04229165  1
  Fe  Fe51  1  0.80056947  0.89259608  0.55425245  1
  Fe  Fe52  1  0.70173937  0.97656950  0.86447033  1
  Fe  Fe53  1  -0.07134639  0.54019012  0.46159347  1
  Fe  Fe54  1  0.06116718  0.39089046  0.83605724  1
  Fe  Fe55  1  0.06413016  0.55613744  0.49501792  1
  Fe  Fe56  1  0.00466869  0.47998690  0.37211581  1
  Fe  Fe57  1  0.46910898  0.83426660  0.20835796  1
  Fe  Fe58  1  0.13741485  0.54269342  0.13290029  1
  Fe  Fe59  1  0.47680815  0.12166227  0.81357204  1
  Fe  Fe60  1  0.59566451  0.58629072  0.17907285  1
  Fe  Fe61  1  0.40458416  0.77867659  0.57481440  1
  Fe  Fe62  1  0.14252783  0.53818027  0.00214359  1
  Fe  Fe63  1  0.08287743  0.85578732  0.33207122  1
  Fe  Fe64  1  0.37864194  -0.07263716  0.28288692  1
  Fe  Fe65  1  0.98175082  0.65103631  0.54066273  1
  Fe  Fe66  1  0.49320243  0.73051360  0.30994908  1
  Fe  Fe67  1  0.30631999  0.06864963  0.25140267  1
  Fe  Fe68  1  0.65424306  0.92804711  0.59822853  1
  Fe  Fe69  1  0.83253527  -0.09493492  0.10431310  1
  Fe  Fe70  1  0.97585494  0.70461493  0.81680595  1
  Fe  Fe71  1  0.15426095  0.35312324  0.72782804  1
  Fe  Fe72  1  0.51922279  0.37727906  0.77202181  1
  Fe  Fe73  1  0.64239680  0.01021046  0.72594192  1
  Fe  Fe74  1  0.12069536  0.27121682  0.84899529  1
  Fe  Fe75  1  0.43639537  0.10249767  0.19158894  1
  Fe  Fe76  1  0.44522469  0.43063678  0.86016173  1
  Fe  Fe77  1  0.58338432  0.72949868  0.18656416  1
  Fe  Fe78  1  0.34213074  0.88666368  0.54390235  1
  Fe  Fe79  1  0.55688712  0.72511328  0.92638095  1
  Fe  Fe80  1  1.02408962  0.77274317  0.91806239  1
  Fe  Fe81  1  0.10691045  0.83511207  0.21347683  1
  Fe  Fe82  1  0.96967443  0.29495218  0.80975020  1
  Fe  Fe83  1  0.11344492  0.75013887  0.82693992  1
  Fe  Fe84  1  0.62335329  0.09849588  0.82687155  1
  Fe  Fe85  1  1.02261122  0.38841724  0.70592099  1
  Fe  Fe86  1  0.39292967  -0.02674578  0.15560176  1
  Fe  Fe87  1  0.71075148  0.80251485  0.58010282  1
  Fe  Fe88  1  0.51755646  0.97487440  0.23165578  1
  Fe  Fe89  1  0.06350395  0.63181576  0.91702087  1
  Fe  Fe90  1  0.58500355  0.44484731  0.86912085  1
  Fe  Fe91  1  0.06776143  0.24804950  0.72254603  1
  Fe  Fe92  1  0.87167290  0.49584932  0.32745671  1
  Fe  Fe93  1  0.42666510  0.05853540  0.31321084  1
  Fe  Fe94  1  0.62206340  0.65979617  0.30847719  1
  Fe  Fe95  1  0.43662217  0.75381625  0.88477745  1
  Fe  Fe96  1  0.37808649  0.11266896  0.89350220  1
  Fe  Fe97  1  0.52421715  0.57405293  0.29486155  1
  Fe  Fe98  1  0.26250250  0.52910152  0.09403750  1
  Fe  Fe99  1  0.76839110  0.06329249  0.79186869  1
  Fe  Fe100  1  0.70422766  0.88171760  0.46027721  1
  Fe  Fe101  1  0.46299815  0.66444499  0.19331463  1
  Bi  Bi102  1  0.19158715  0.37552841  0.11164411  1
  Bi  Bi103  1  -0.06306495  0.13525527  0.74679544  1
  Bi  Bi104  1  0.62975728  0.84161437  0.30208281  1
  Bi  Bi105  1  0.78381308  -0.10077212  0.72257328  1
  Bi  Bi106  1  0.69373498  0.48474730  0.27754775  1
  Bi  Bi107  1  0.04388794  0.76227146  0.66374421  1
  Bi  Bi108  1  0.43654287  0.77230886  0.05027922  1
  Bi  Bi109  1  0.47060623  0.06698570  0.03481567  1
  Bi  Bi110  1  0.82742151  0.75067948  0.46087358  1
  Bi  Bi111  1  0.22138096  -0.05259661  0.17158955  1
  Bi  Bi112  1  -0.07685443  0.50419283  0.62427988  1
  Bi  Bi113  1  0.38820637  0.51170663  0.22010851  1
  Bi  Bi114  1  -0.01601311  0.51484165  0.20644915  1
  Bi  Bi115  1  0.84849859  0.58308409  0.03675739  1
  Bi  Bi116  1  0.18920765  0.17725775  0.32054350  1
  Bi  Bi117  1  0.32042796  0.36751364  0.45901345  1
  Bi  Bi118  1  0.65949377  0.60360501  0.84611087  1
  Bi  Bi119  1  0.90490926  0.12957985  0.41177359  1
  Bi  Bi120  1  0.66540155  0.66687137  0.05044704  1
  Bi  Bi121  1  0.84605660  -0.00952761  0.95941232  1
  Bi  Bi122  1  0.93698309  0.85930802  0.22905426  1
  Bi  Bi123  1  0.21328837  0.98116200  0.60842852  1
  Bi  Bi124  1  0.48586783  0.42780910  0.60775289  1
  Bi  Bi125  1  0.84224028  0.26256257  0.08713728  1
  Bi  Bi126  1  0.89490599  0.36637204  0.42982968  1
  Bi  Bi127  1  0.36815672  0.79958577  0.40257968  1
