# generated using pymatgen
data_Ba51Fe51Bi26
_symmetry_space_group_name_H-M   'P 1'
_cell_length_a   16.39347844
_cell_length_b   16.05589725
_cell_length_c   16.69801685
_cell_angle_alpha   87.77135708
_cell_angle_beta   94.97477752
_cell_angle_gamma   90.24869963
_symmetry_Int_Tables_number   1
_chemical_formula_structural   Ba51Fe51Bi26
_chemical_formula_sum   'Ba51 Fe51 Bi26'
_cell_volume   4375.24794599
_cell_formula_units_Z   1
loop_
 _symmetry_equiv_pos_site_id
 _symmetry_equiv_pos_as_xyz
  1  'x, y, z'
loop_
 _atom_site_type_symbol
 _atom_site_label
 _atom_site_symmetry_multiplicity
 _atom_site_fract_x
 _atom_site_fract_y
 _atom_site_fract_z
 _atom_site_occupancy
  Ba  Ba0  1  0.50004491  0.82642629  0.53055779  1
  Ba  Ba1  1  0.67448833  -0.04167076  0.66656720  1
  Ba  Ba2  1  -0.08245581  0.53235873  0.31838154  1
  Ba  Ba3  1  0.73243356  0.39701146  0.45891809  1
  Ba  Ba4  1  0.02036465  0.23324802  0.76393387  1
  Ba  Ba5  1  0.65345563  0.24115354  0.62284908  1
  Ba  Ba6  1  0.50853157  0.28549294  0.02768995  1
  Ba  Ba7  1  0.46381197  0.00961016  0.80362673  1
  Ba  Ba8  1  0.53184041  0.60644810  0.67114179  1
  Ba  Ba9  1  0.76105184  0.22467254  0.02536819  1
  Ba  Ba10  1  0.54270627  0.49846240  -0.07946050  1
  Ba  Ba11  1  0.70333525  0.65740542  0.49079809  1
  Ba  Ba12  1  0.25298866  -0.07052932  0.70782381  1
  Ba  Ba13  1  0.50183641  0.61399076  0.15147049  1
  Ba  Ba14  1  0.14288610  0.36340148  0.32057680  1
  Ba  Ba15  1  0.24952799  0.55768570  0.18970190  1
  Ba  Ba16  1  0.04544380  0.06655143  0.02545838  1
  Ba  Ba17  1  0.54569641  0.86495341  0.28913527  1
  Ba  Ba18  1  0.73972244  0.29025427  0.24893853  1
  Ba  Ba19  1  0.77333990  0.72158032  0.24054311  1
  Ba  Ba20  1  0.47676910  0.43408600  0.51074336  1
  Ba  Ba21  1  0.00082166  0.70250478  0.49376285  1
  Ba  Ba22  1  0.34364332  0.21749574  0.34116198  1
  Ba  Ba23  1  0.81002636  -0.07170680  0.04336563  1
  Ba  Ba24  1  0.87275692  0.17984123  0.51446086  1
  Ba  Ba25  1  -0.01066769  0.72320188  0.09490318  1
  Ba  Ba26  1  0.55447131  0.10734259  0.26456165  1
  Ba  Ba27  1  0.28533907  0.12176309  0.10716599  1
  Ba  Ba28  1  0.76519392  0.48811278  0.77190777  1
  Ba  Ba29  1  0.26696502  0.21746985  0.70764226  1
  Ba  Ba30  1  0.72643242  -0.01917497  0.44229685  1
  Ba  Ba31  1  0.16841054  0.86769802  0.18178683  1
  Ba  Ba32  1  -0.02948023  0.64333196  0.71867133  1
  Ba  Ba33  1  0.18502181  0.59003684  -0.08443588  1
  Ba  Ba34  1  0.27045196  -0.07301484  -0.03804806  1
  Ba  Ba35  1  0.55189209  0.00734461  0.04342643  1
  Ba  Ba36  1  0.42800579  0.16253346  0.56367414  1
  Ba  Ba37  1  0.30325311  0.82037526  0.37859080  1
  Ba  Ba38  1  0.25181023  0.50889652  0.65233884  1
  Ba  Ba39  1  -0.02206861  0.23322833  0.18267837  1
  Ba  Ba40  1  0.21803579  0.01408095  0.46714829  1
  Ba  Ba41  1  0.24966370  0.31136400  -0.07590608  1
  Ba  Ba42  1  0.04473024  0.37424922  0.54811582  1
  Ba  Ba43  1  -0.02082989  0.45868550  0.05174998  1
  Ba  Ba44  1  0.49586239  0.39206798  0.24619886  1
  Ba  Ba45  1  -0.01755290  -0.03659894  0.50943059  1
  Ba  Ba46  1  -0.03136789  -0.01932154  0.27480208  1
  Ba  Ba47  1  0.80536160  0.17455466  0.82078642  1
  Ba  Ba48  1  0.24465144  0.57462561  0.41861906  1
  Ba  Ba49  1  -0.12307104  -0.14345750  -0.20141715  1
  Ba  Ba50  1  0.44616638  0.76274352  -0.05722907  1
  Fe  Fe51  1  0.75596719  0.72426027  0.04085195  1
  Fe  Fe52  1  0.22683128  0.70159322  0.55876554  1
  Fe  Fe53  1  0.70340306  0.09130248  0.15539490  1
  Fe  Fe54  1  0.38396420  0.67160224  0.30680644  1
  Fe  Fe55  1  1.05304220  0.18206782  0.40956336  1
  Fe  Fe56  1  0.65966760  0.82356626  0.94841634  1
  Fe  Fe57  1  0.72708031  0.60174137  0.94320467  1
  Fe  Fe58  1  0.68563350  0.58767546  0.08820517  1
  Fe  Fe59  1  0.49543516  0.24521250  0.72876970  1
  Fe  Fe60  1  0.75811751  0.73520595  0.89940578  1
  Fe  Fe61  1  0.36431612  0.67439482  0.54137079  1
  Fe  Fe62  1  0.99658075  0.02143908  0.83600317  1
  Fe  Fe63  1  0.62643978  0.68512459  0.98612427  1
  Fe  Fe64  1  0.78751706  0.48822384  0.15433971  1
  Fe  Fe65  1  0.05523038  0.01940427  0.72081735  1
  Fe  Fe66  1  0.30425608  0.81178431  0.57300796  1
  Fe  Fe67  1  0.18450050  0.26134268  0.17650862  1
  Fe  Fe68  1  0.42762480  0.54331476  0.34037424  1
  Fe  Fe69  1  0.57659236  1.11154621  0.46296784  1
  Fe  Fe70  1  0.43033331  0.33440443  0.81661142  1
  Fe  Fe71  1  0.35589476  0.71644247  0.66908255  1
  Fe  Fe72  1  0.10622667  0.82837695  0.39363400  1
  Fe  Fe73  1  0.12433567  0.27911189  1.05673187  1
  Fe  Fe74  1  0.65930226  0.44691878  0.12107138  1
  Fe  Fe75  1  0.67479918  0.18663910  0.41895898  1
  Fe  Fe76  1  0.45237585  0.63397084  0.44711098  1
  Fe  Fe77  1  0.62466111  0.69408654  0.84678473  1
  Fe  Fe78  1  0.02435394  0.88653879  -0.06563017  1
  Fe  Fe79  1  0.11234982  0.71539931  0.30903699  1
  Fe  Fe80  1  0.60404928  0.15169328  0.90787689  1
  Fe  Fe81  1  0.82883705  0.09345302  0.17302485  1
  Fe  Fe82  1  0.17353309  0.21324226  0.46097341  1
  Fe  Fe83  1  0.51856773  0.67941598  0.33752612  1
  Fe  Fe84  1  0.47837936  0.19763364  0.85578285  1
  Fe  Fe85  1  0.40154762  0.34902559  0.66343616  1
  Fe  Fe86  1  0.15860756  0.82330576  0.53930417  1
  Fe  Fe87  1  0.82328497  0.59565959  0.06337264  1
  Fe  Fe88  1  0.29875183  0.32110269  0.14071188  1
  Fe  Fe89  1  0.55876506  0.55521166  0.37706028  1
  Fe  Fe90  1  0.37123829  0.75781449  0.19802039  1
  Fe  Fe91  1  0.11191228  0.78614407  0.82525513  1
  Fe  Fe92  1  0.53511210  0.39280741  0.72067331  1
  Fe  Fe93  1  0.10500709  -0.07519547  0.83506405  1
  Fe  Fe94  1  1.00111557  0.78007723  0.30219169  1
  Fe  Fe95  1  0.02027476  0.74081003  0.90307242  1
  Fe  Fe96  1  0.65447060  0.82938596  0.81419180  1
  Fe  Fe97  1  0.19041970  0.39386191  0.09286612  1
  Fe  Fe98  1  0.56018714  0.25228493  0.41761360  1
  Fe  Fe99  1  0.12893617  0.79989974  -0.03242706  1
  Fe  Fe100  1  0.42017104  0.45565782  0.74608822  1
  Fe  Fe101  1  0.59631928  0.14292570  0.78037807  1
  Bi  Bi102  1  0.19941393  0.70782070  0.71665731  1
  Bi  Bi103  1  0.49611423  0.80915100  0.74157787  1
  Bi  Bi104  1  0.05576848  -0.14934440  0.67372806  1
  Bi  Bi105  1  0.75952640  0.43942993  -0.00375638  1
  Bi  Bi106  1  0.26719064  0.72742061  0.05914176  1
  Bi  Bi107  1  0.67694257  0.00105202  0.87621138  1
  Bi  Bi108  1  0.63010369  0.30931529  0.84242121  1
  Bi  Bi109  1  -0.10250516  0.62590859  -0.08343209  1
  Bi  Bi110  1  0.09367323  0.13972798  0.58589153  1
  Bi  Bi111  1  0.16718715  0.09144441  0.85443890  1
  Bi  Bi112  1  0.68521428  0.51827362  0.27644318  1
  Bi  Bi113  1  0.72718013  0.71166599  0.71683586  1
  Bi  Bi114  1  0.61506242  0.80073783  0.10255986  1
  Bi  Bi115  1  0.93531577  0.31580589  0.36536125  1
  Bi  Bi116  1  0.37123046  0.60262332  0.80926576  1
  Bi  Bi117  1  0.97370753  0.26508056  0.96516893  1
  Bi  Bi118  1  0.87932021  0.52783458  0.55029341  1
  Bi  Bi119  1  0.82674524  0.81755511  0.57250097  1
  Bi  Bi120  1  0.88582849  0.04762314  0.68778638  1
  Bi  Bi121  1  0.36194127  0.45260308  0.05166852  1
  Bi  Bi122  1  0.14895878  0.12411336  0.28182977  1
  Bi  Bi123  1  0.28051955  0.34158812  0.51689756  1
  Bi  Bi124  1  0.74980213  0.95017293  0.24303548  1
  Bi  Bi125  1  0.37975886  0.92930846  0.15939742  1
  Bi  Bi126  1  0.43800594  1.01189744  0.41357092  1
  Bi  Bi127  1  0.84992549  0.33941528  0.65118357  1
