# generated using pymatgen
data_Ba51Fe51Bi26
_symmetry_space_group_name_H-M   'P 1'
_cell_length_a   16.13756836
_cell_length_b   16.50331478
_cell_length_c   16.67138850
_cell_angle_alpha   91.25384968
_cell_angle_beta   90.52446176
_cell_angle_gamma   90.97554326
_symmetry_Int_Tables_number   1
_chemical_formula_structural   Ba51Fe51Bi26
_chemical_formula_sum   'Ba51 Fe51 Bi26'
_cell_volume   4438.07232226
_cell_formula_units_Z   1
loop_
 _symmetry_equiv_pos_site_id
 _symmetry_equiv_pos_as_xyz
  1  'x, y, z'
loop_
 _atom_site_type_symbol
 _atom_site_label
 _atom_site_symmetry_multiplicity
 _atom_site_fract_x
 _atom_site_fract_y
 _atom_site_fract_z
 _atom_site_occupancy
  Ba  Ba0  1  0.24791463  -0.10162829  -0.00995919  1
  Ba  Ba1  1  0.20176257  0.50022803  0.27585258  1
  Ba  Ba2  1  0.07662959  0.73415132  0.27126495  1
  Ba  Ba3  1  0.17461967  0.16249787  0.41571471  1
  Ba  Ba4  1  0.08355529  -0.02660959  0.20918922  1
  Ba  Ba5  1  0.47350254  0.01990985  0.01656058  1
  Ba  Ba6  1  -0.12808113  0.25796703  0.47826914  1
  Ba  Ba7  1  0.44985363  0.53868815  0.60024539  1
  Ba  Ba8  1  0.69478752  0.04405247  0.51057469  1
  Ba  Ba9  1  0.72522529  0.58156027  0.48452692  1
  Ba  Ba10  1  0.43110549  0.28825454  0.55083056  1
  Ba  Ba11  1  -0.06001926  0.02476516  -0.08655814  1
  Ba  Ba12  1  0.05054939  0.82027394  0.52524624  1
  Ba  Ba13  1  0.53475970  0.72409187  0.48689170  1
  Ba  Ba14  1  -0.05555535  0.48552316  0.27988473  1
  Ba  Ba15  1  0.72035652  0.03506163  0.03379063  1
  Ba  Ba16  1  0.08929964  0.52344107  0.02170959  1
  Ba  Ba17  1  0.64057137  0.26195701  0.03790686  1
  Ba  Ba18  1  0.77372062  0.78312879  0.04166091  1
  Ba  Ba19  1  -0.00576305  0.23065272  0.24815894  1
  Ba  Ba20  1  0.67522706  0.47498816  0.25822595  1
  Ba  Ba21  1  0.23823839  0.26233308  0.71890610  1
  Ba  Ba22  1  0.76269948  0.17253528  0.26182692  1
  Ba  Ba23  1  0.55173271  0.27860235  0.32070594  1
  Ba  Ba24  1  0.34313057  0.52039219  0.06969598  1
  Ba  Ba25  1  0.02997293  0.66623301  0.76966343  1
  Ba  Ba26  1  0.04509580  0.76557029  0.02277391  1
  Ba  Ba27  1  0.31883816  0.03694727  0.22027487  1
  Ba  Ba28  1  0.52038259  0.75756947  0.76524202  1
  Ba  Ba29  1  0.28345019  0.22785692  0.01327945  1
  Ba  Ba30  1  0.74893162  0.51965448  0.72066574  1
  Ba  Ba31  1  -0.01863951  -0.00841441  0.68449204  1
  Ba  Ba32  1  0.26721578  0.77583217  0.77007760  1
  Ba  Ba33  1  0.52917466  0.51521621  0.89634795  1
  Ba  Ba34  1  0.01943336  0.25485213  -0.00412749  1
  Ba  Ba35  1  0.69847718  0.01405769  0.75755954  1
  Ba  Ba36  1  0.21585208  0.46831267  0.53892529  1
  Ba  Ba37  1  0.80084204  0.82521892  0.51759036  1
  Ba  Ba38  1  0.27157055  0.73724892  0.48427003  1
  Ba  Ba39  1  0.04927234  0.40975720  0.76212410  1
  Ba  Ba40  1  0.51277893  0.70209401  0.24971873  1
  Ba  Ba41  1  0.79718079  0.50142285  0.00539265  1
  Ba  Ba42  1  -0.05246859  0.46375728  0.52978402  1
  Ba  Ba43  1  0.79327141  0.73030724  0.26872785  1
  Ba  Ba44  1  0.45675000  -0.06262309  0.40588759  1
  Ba  Ba45  1  0.77462173  0.78984846  0.74645173  1
  Ba  Ba46  1  0.31368601  0.30482345  0.27840879  1
  Ba  Ba47  1  0.20091881  0.05526009  0.81862973  1
  Ba  Ba48  1  0.67705430  0.24853617  0.72731298  1
  Ba  Ba49  1  0.49577142  0.75219624  0.00847887  1
  Ba  Ba50  1  0.31118551  0.01228176  0.57893194  1
  Fe  Fe51  1  0.34454916  0.83538442  0.24925238  1
  Fe  Fe52  1  0.16162470  0.33055428  0.14403576  1
  Fe  Fe53  1  0.23078007  0.82525267  0.16889200  1
  Fe  Fe54  1  0.70217382  0.39602318  0.44884758  1
  Fe  Fe55  1  0.48435451  0.35574925  0.15761880  1
  Fe  Fe56  1  -0.00514915  0.11534709  0.52786125  1
  Fe  Fe57  1  0.91709335  0.65621987  0.47078981  1
  Fe  Fe58  1  0.37584572  0.86581623  0.12864245  1
  Fe  Fe59  1  0.94013493  0.25303881  0.80987394  1
  Fe  Fe60  1  -0.03102940  0.19381660  0.66274251  1
  Fe  Fe61  1  0.84075555  0.22347961  0.07703097  1
  Fe  Fe62  1  0.88430422  0.07828425  0.41869707  1
  Fe  Fe63  1  0.93217725  0.98159144  0.48924150  1
  Fe  Fe64  1  0.39866950  1.01502229  0.83365725  1
  Fe  Fe65  1  0.38418942  0.32379716  0.84013806  1
  Fe  Fe66  1  0.87297690  0.15079149  0.75444756  1
  Fe  Fe67  1  0.51500958  0.08251276  0.28079202  1
  Fe  Fe68  1  0.69767487  0.95693520  0.22064310  1
  Fe  Fe69  1  0.78841964  0.98247355  0.34578574  1
  Fe  Fe70  1  0.38105359  0.57585837  0.39673423  1
  Fe  Fe71  1  0.51084514  0.27858461  0.86142622  1
  Fe  Fe72  1  0.02657620  0.03084403  0.39330118  1
  Fe  Fe73  1  0.87076828  0.68636716  0.89294035  1
  Fe  Fe74  1  0.61838052  0.40805441  0.58113599  1
  Fe  Fe75  1  0.38872430  0.10035507  0.73488774  1
  Fe  Fe76  1  0.63803336  0.02658284  0.32234096  1
  Fe  Fe77  1  0.35868303  0.44609578  0.77107306  1
  Fe  Fe78  1  0.32401901  0.55211907  0.86412281  1
  Fe  Fe79  1  0.17090150  0.20891935  0.16998241  1
  Fe  Fe80  1  0.86942625  0.65938237  0.60362697  1
  Fe  Fe81  1  0.47695602  0.97976842  0.73308029  1
  Fe  Fe82  1  0.52076128  0.54396276  0.39816813  1
  Fe  Fe83  1  0.60389239  0.07436645  0.18755411  1
  Fe  Fe84  1  0.23055261  0.48793911  0.73985052  1
  Fe  Fe85  1  0.34175410  0.73200855  0.12763020  1
  Fe  Fe86  1  0.84118374  0.94921573  0.20996036  1
  Fe  Fe87  1  0.45667872  0.22589465  0.74368678  1
  Fe  Fe88  1  0.56602575  0.43109901  0.45535122  1
  Fe  Fe89  1  0.84913800  0.33924038  0.12944790  1
  Fe  Fe90  1  0.75102232  0.38722290  0.57151181  1
  Fe  Fe91  1  0.08502383  1.01350579  0.51544815  1
  Fe  Fe92  1  0.91519164  0.04072092  0.29099109  1
  Fe  Fe93  1  0.99662398  0.64297679  0.57854490  1
  Fe  Fe94  1  0.38977040  0.17035157  0.85751384  1
  Fe  Fe95  1  0.41886514  0.45049655  0.41918729  1
  Fe  Fe96  1  0.21304640  0.69234278  0.12872104  1
  Fe  Fe97  1  0.31513696  0.59162060  0.73545114  1
  Fe  Fe98  1  0.19401130  0.57616554  0.83683954  1
  Fe  Fe99  1  0.54712547  0.45357778  0.10659566  1
  Fe  Fe100  1  0.92326419  0.80104114  0.87501658  1
  Fe  Fe101  1  0.03150047  0.16439871  0.78096842  1
  Bi  Bi102  1  0.64938268  0.25389952  0.50711958  1
  Bi  Bi103  1  -0.13525483  0.33295620  0.68393381  1
  Bi  Bi104  1  -0.06799707  -0.11941399  0.34661394  1
  Bi  Bi105  1  0.80966080  0.19754835  -0.09211293  1
  Bi  Bi106  1  0.44562697  0.48298342  0.25664515  1
  Bi  Bi107  1  0.29610462  0.68311797  0.28424429  1
  Bi  Bi108  1  0.22612324  0.40421800  0.89307322  1
  Bi  Bi109  1  0.51623215  0.38745572  0.72519630  1
  Bi  Bi110  1  0.24790594  0.68172629  -0.03749111  1
  Bi  Bi111  1  0.52485758  -0.07766795  0.19280879  1
  Bi  Bi112  1  0.45263240  0.35134573  -0.00096010  1
  Bi  Bi113  1  0.91673381  0.07666592  0.12198670  1
  Bi  Bi114  1  0.55122464  0.12114311  0.85963060  1
  Bi  Bi115  1  0.62697115  0.60320255  0.09628525  1
  Bi  Bi116  1  0.08784456  0.61268178  0.43742471  1
  Bi  Bi117  1  0.19092625  0.93983697  0.40226018  1
  Bi  Bi118  1  0.07900827  0.27710732  0.57238808  1
  Bi  Bi119  1  0.08044819  0.87067389  0.83850039  1
  Bi  Bi120  1  0.51551312  0.10483748  0.62740745  1
  Bi  Bi121  1  0.58122124  0.88912186  0.61765107  1
  Bi  Bi122  1  0.39586604  0.14003897  0.39289724  1
  Bi  Bi123  1  0.92147049  0.62813074  0.13063936  1
  Bi  Bi124  1  0.69890140  0.65238107  0.88140338  1
  Bi  Bi125  1  0.63390938  0.87976479  0.90764197  1
  Bi  Bi126  1  0.08756568  0.36059659  0.38964866  1
  Bi  Bi127  1  0.65718772  0.86184296  0.36507766  1
