# generated using pymatgen
data_Ba51Fe51Bi26
_symmetry_space_group_name_H-M   'P 1'
_cell_length_a   16.48882540
_cell_length_b   16.02118022
_cell_length_c   16.30233227
_cell_angle_alpha   89.29968794
_cell_angle_beta   92.93565047
_cell_angle_gamma   91.73119110
_symmetry_Int_Tables_number   1
_chemical_formula_structural   Ba51Fe51Bi26
_chemical_formula_sum   'Ba51 Fe51 Bi26'
_cell_volume   4298.73378317
_cell_formula_units_Z   1
loop_
 _symmetry_equiv_pos_site_id
 _symmetry_equiv_pos_as_xyz
  1  'x, y, z'
loop_
 _atom_site_type_symbol
 _atom_site_label
 _atom_site_symmetry_multiplicity
 _atom_site_fract_x
 _atom_site_fract_y
 _atom_site_fract_z
 _atom_site_occupancy
  Ba  Ba0  1  -0.09757600  0.06083471  0.56175620  1
  Ba  Ba1  1  0.61485253  0.71609229  -0.05553678  1
  Ba  Ba2  1  -0.08622112  0.55580336  0.25043907  1
  Ba  Ba3  1  0.00300310  0.30757471  0.52358539  1
  Ba  Ba4  1  0.13795601  0.48568043  0.71838219  1
  Ba  Ba5  1  0.30938265  0.05734899  -0.08870862  1
  Ba  Ba6  1  0.39327326  0.57074409  -0.03693851  1
  Ba  Ba7  1  0.70911490  0.64593606  0.16700182  1
  Ba  Ba8  1  0.55598178  0.44148830  0.25041620  1
  Ba  Ba9  1  0.45092292  0.26471999  0.86085262  1
  Ba  Ba10  1  -0.03145240  -0.01399523  0.02541850  1
  Ba  Ba11  1  -0.10828074  0.84925387  0.21236934  1
  Ba  Ba12  1  0.81134016  0.44632027  0.84724147  1
  Ba  Ba13  1  0.66971302  0.27028888  0.41975518  1
  Ba  Ba14  1  -0.07433152  0.57849271  0.67390555  1
  Ba  Ba15  1  0.34811249  0.22313404  0.32202730  1
  Ba  Ba16  1  0.55167014  0.17247698  0.62969281  1
  Ba  Ba17  1  0.04408717  0.85920312  0.54852104  1
  Ba  Ba18  1  0.78691624  0.83513186  0.65188626  1
  Ba  Ba19  1  0.21486638  0.69858638  0.27492760  1
  Ba  Ba20  1  0.03580807  0.54604485  0.45725253  1
  Ba  Ba21  1  0.56237405  0.78662885  0.45008350  1
  Ba  Ba22  1  0.85209592  0.69295216  -0.08232265  1
  Ba  Ba23  1  0.81138138  0.74769880  0.41491914  1
  Ba  Ba24  1  0.31397459  0.45820699  0.19608918  1
  Ba  Ba25  1  0.78562729  0.28533294  0.64267722  1
  Ba  Ba26  1  0.08668177  0.75254518  0.80525341  1
  Ba  Ba27  1  0.08582022  0.68616077  0.05279634  1
  Ba  Ba28  1  0.23859093  0.04799300  0.13518245  1
  Ba  Ba29  1  0.48300222  -0.07682447  0.11402589  1
  Ba  Ba30  1  0.18471537  -0.05027190  0.36952797  1
  Ba  Ba31  1  0.18345589  0.14816013  0.53056805  1
  Ba  Ba32  1  0.18391487  0.41493331  -0.02447944  1
  Ba  Ba33  1  0.68384403  0.27848238  -0.01916399  1
  Ba  Ba34  1  0.49160567  0.43110656  0.49641043  1
  Ba  Ba35  1  0.56274664  0.78397537  0.71461331  1
  Ba  Ba36  1  0.19097352  0.25671842  0.76379200  1
  Ba  Ba37  1  0.47943880  0.69903391  0.22324943  1
  Ba  Ba38  1  0.55190840  0.48769204  0.74339713  1
  Ba  Ba39  1  0.49103980  -0.00098768  0.79466195  1
  Ba  Ba40  1  0.54193018  0.19685364  0.18210477  1
  Ba  Ba41  1  0.71641338  0.01167797  0.40832750  1
  Ba  Ba42  1  0.71742074  0.03229561  0.13637206  1
  Ba  Ba43  1  0.78721701  0.32212023  0.20895754  1
  Ba  Ba44  1  0.08948288  0.01600914  0.77122727  1
  Ba  Ba45  1  0.01517122  0.32873783  0.26177053  1
  Ba  Ba46  1  -0.08753174  0.17232951  0.86812351  1
  Ba  Ba47  1  0.32483790  0.65239465  0.74741694  1
  Ba  Ba48  1  0.41826368  0.02395801  0.48105472  1
  Ba  Ba49  1  0.32181937  0.79122864  0.52217265  1
  Ba  Ba50  1  0.28641988  0.55737981  0.50242436  1
  Fe  Fe51  1  0.53709425  0.94926750  0.30899422  1
  Fe  Fe52  1  0.64797468  -0.04831091  0.92072238  1
  Fe  Fe53  1  0.25098457  0.81739862  0.09939241  1
  Fe  Fe54  1  0.67466562  0.97497423  0.76891146  1
  Fe  Fe55  1  0.90365045  0.34067826  0.02208994  1
  Fe  Fe56  1  0.88239652  1.03011858  0.30301666  1
  Fe  Fe57  1  0.26710945  0.97055903  0.74367635  1
  Fe  Fe58  1  0.63537450  0.58019714  0.56461811  1
  Fe  Fe59  1  0.35150219  0.26280046  0.12092124  1
  Fe  Fe60  1  0.31929954  0.87321430  -0.00911763  1
  Fe  Fe61  1  0.73416271  0.06213292  0.66478928  1
  Fe  Fe62  1  0.18484487  0.38942009  0.50738874  1
  Fe  Fe63  1  0.22229952  -0.04137875  0.60189185  1
  Fe  Fe64  1  0.65421202  0.44419799  0.08365045  1
  Fe  Fe65  1  0.53883303  0.08119559  0.33947188  1
  Fe  Fe66  1  0.38346055  0.75805112  0.05063885  1
  Fe  Fe67  1  0.82755519  0.54567264  0.43126643  1
  Fe  Fe68  1  0.04978457  0.15556383  0.13837047  1
  Fe  Fe69  1  0.27885859  0.23291543  1.00614857  1
  Fe  Fe70  1  0.18013865  0.30661067  0.39681811  1
  Fe  Fe71  1  0.22272522  0.84132725  0.68482493  1
  Fe  Fe72  1  0.55838607  0.53947047  0.06770609  1
  Fe  Fe73  1  1.00015861  0.43879023  0.05755736  1
  Fe  Fe74  1  0.02803975  0.27733971  0.05192551  1
  Fe  Fe75  1  0.35010450  -0.05375816  0.64268081  1
  Fe  Fe76  1  0.74865004  0.46725489  0.34565272  1
  Fe  Fe77  1  0.76817488  0.01300497  0.90566395  1
  Fe  Fe78  1  0.95287197  0.13786594  0.23914055  1
  Fe  Fe79  1  0.75148406  0.88013534  0.84602372  1
  Fe  Fe80  1  0.81324733  0.01459094  0.76772975  1
  Fe  Fe81  1  -0.02765660  0.95566148  0.37023210  1
  Fe  Fe82  1  0.68160932  0.53311224  0.97917084  1
  Fe  Fe83  1  0.29421677  0.38298373  0.61018023  1
  Fe  Fe84  1  0.25853868  0.74713071  0.95420757  1
  Fe  Fe85  1  0.56812437  0.46433113  0.95135663  1
  Fe  Fe86  1  0.26564522  0.85278032  0.84173808  1
  Fe  Fe87  1  0.35648341  0.84649240  0.73619320  1
  Fe  Fe88  1  0.40739652  0.17845578  0.03888280  1
  Fe  Fe89  1  0.00057137  0.08947935  0.38248182  1
  Fe  Fe90  1  0.70331167  0.46106616  0.48297223  1
  Fe  Fe91  1  0.83633143  0.45641978  0.53891357  1
  Fe  Fe92  1  0.28421091  0.68156271  1.08810570  1
  Fe  Fe93  1  0.16830467  0.44468198  0.35606475  1
  Fe  Fe94  1  0.76713082  0.59927230  0.54954569  1
  Fe  Fe95  1  0.42609246  0.03310891  0.27836111  1
  Fe  Fe96  1  0.72282818  0.48215758  0.62836950  1
  Fe  Fe97  1  1.02872681  1.02004612  0.24283798  1
  Fe  Fe98  1  0.83786963  0.39147615  0.41501736  1
  Fe  Fe99  1  0.99520063  0.36704290  0.92373575  1
  Fe  Fe100  1  0.30146538  0.31101299  0.50084321  1
  Fe  Fe101  1  0.29085213  0.39946153  0.39424056  1
  Bi  Bi102  1  0.10948992  0.51549270  0.19638539  1
  Bi  Bi103  1  0.46980383  0.37040566  0.05560158  1
  Bi  Bi104  1  0.13681924  0.15509965  0.31100040  1
  Bi  Bi105  1  0.82555074  0.48741004  0.06328822  1
  Bi  Bi106  1  0.34083307  0.11810878  0.68385266  1
  Bi  Bi107  1  0.69532261  0.15255789  0.80069616  1
  Bi  Bi108  1  0.76669257  -0.13977978  0.02132677  1
  Bi  Bi109  1  0.64576572  0.59551283  0.38178100  1
  Bi  Bi110  1  0.18871159  0.27313611  0.14411513  1
  Bi  Bi111  1  0.42944466  -0.19916095  -0.10949700  1
  Bi  Bi112  1  0.72305671  0.62828851  0.72527068  1
  Bi  Bi113  1  0.15513040  0.89643064  -0.03890732  1
  Bi  Bi114  1  -0.12206929  0.17931787  0.08449050  1
  Bi  Bi115  1  0.14571299  0.68191689  0.60977571  1
  Bi  Bi116  1  -0.02258181  0.34272809  0.74655214  1
  Bi  Bi117  1  0.47472258  0.62988523  0.58607549  1
  Bi  Bi118  1  1.01495485  0.54420398  0.89496142  1
  Bi  Bi119  1  0.54400796  0.09190686  -0.01043214  1
  Bi  Bi120  1  0.10440579  0.87040957  0.18179727  1
  Bi  Bi121  1  0.60971684  0.96425492  0.59477055  1
  Bi  Bi122  1  0.66436994  0.84431188  0.26315407  1
  Bi  Bi123  1  0.86404181  0.19628407  0.38351627  1
  Bi  Bi124  1  0.37827545  0.86538809  0.31639309  1
  Bi  Bi125  1  0.91984269  0.89386140  0.81797895  1
  Bi  Bi126  1  0.12087184  0.16622215  0.95949763  1
  Bi  Bi127  1  0.33803454  0.43108794  0.77505905  1
