# generated using pymatgen
data_Ba51Fe51Bi26
_symmetry_space_group_name_H-M   'P 1'
_cell_length_a   16.34290925
_cell_length_b   16.94862389
_cell_length_c   15.70904532
_cell_angle_alpha   89.38636653
_cell_angle_beta   88.33628804
_cell_angle_gamma   87.77177273
_symmetry_Int_Tables_number   1
_chemical_formula_structural   Ba51Fe51Bi26
_chemical_formula_sum   'Ba51 Fe51 Bi26'
_cell_volume   4345.92278223
_cell_formula_units_Z   1
loop_
 _symmetry_equiv_pos_site_id
 _symmetry_equiv_pos_as_xyz
  1  'x, y, z'
loop_
 _atom_site_type_symbol
 _atom_site_label
 _atom_site_symmetry_multiplicity
 _atom_site_fract_x
 _atom_site_fract_y
 _atom_site_fract_z
 _atom_site_occupancy
  Ba  Ba0  1  0.02371553  -0.08929220  0.25094781  1
  Ba  Ba1  1  0.47748781  0.50529103  0.31670471  1
  Ba  Ba2  1  0.72784097  0.81490887  0.68295300  1
  Ba  Ba3  1  0.42493002  0.37670279  0.49628865  1
  Ba  Ba4  1  0.55067167  0.12302003  -0.00923430  1
  Ba  Ba5  1  0.45919151  0.09961780  0.76014174  1
  Ba  Ba6  1  -0.04190528  0.56954682  0.02349964  1
  Ba  Ba7  1  0.03127700  0.03485328  0.46669231  1
  Ba  Ba8  1  0.21608405  0.23987381  0.48342576  1
  Ba  Ba9  1  0.72890937  0.04143523  0.73762660  1
  Ba  Ba10  1  0.31185862  0.30700744  -0.09808098  1
  Ba  Ba11  1  0.70593267  0.47638578  0.86105704  1
  Ba  Ba12  1  0.71149222  0.74040538  -0.04109337  1
  Ba  Ba13  1  0.67895701  0.34341579  0.54126462  1
  Ba  Ba14  1  0.28143726  0.79839592  0.22058055  1
  Ba  Ba15  1  0.64212945  0.25708208  0.78031155  1
  Ba  Ba16  1  0.74921451  0.82032118  0.26927479  1
  Ba  Ba17  1  0.21684725  0.66039298  -0.01462892  1
  Ba  Ba18  1  0.08182955  0.26015864  0.27865836  1
  Ba  Ba19  1  0.59730631  0.73600258  0.45038395  1
  Ba  Ba20  1  0.74903576  0.57240236  0.61698770  1
  Ba  Ba21  1  0.25231038  0.43709775  0.68637367  1
  Ba  Ba22  1  0.06704545  0.46233215  0.45242893  1
  Ba  Ba23  1  0.38641543  -0.00533533  0.15555417  1
  Ba  Ba24  1  0.59242390  -0.09347628  0.08640405  1
  Ba  Ba25  1  -0.05197550  0.63276308  0.30666047  1
  Ba  Ba26  1  0.69204132  0.11353147  0.26413423  1
  Ba  Ba27  1  0.68212838  0.45353720  0.12559655  1
  Ba  Ba28  1  0.43165513  0.50831677  -0.01684187  1
  Ba  Ba29  1  0.52826124  0.69781461  0.18036849  1
  Ba  Ba30  1  0.17809395  0.09408228  0.12582595  1
  Ba  Ba31  1  0.21905629  0.60028478  0.35245252  1
  Ba  Ba32  1  0.75353484  0.23359263  0.02484227  1
  Ba  Ba33  1  0.45541257  0.75686439  -0.13212934  1
  Ba  Ba34  1  0.50263701  -0.09431015  0.62171783  1
  Ba  Ba35  1  -0.02837885  0.74813834  0.63767414  1
  Ba  Ba36  1  0.01352138  0.32085455  -0.00056976  1
  Ba  Ba37  1  -0.05363592  0.79838757  0.04504576  1
  Ba  Ba38  1  0.40548191  0.28501343  0.19629672  1
  Ba  Ba39  1  -0.01358579  0.05957703  0.76733929  1
  Ba  Ba40  1  -0.05123668  0.28955497  0.56704418  1
  Ba  Ba41  1  0.82256076  0.30876406  0.29983835  1
  Ba  Ba42  1  0.29632615  0.03086915  0.53336598  1
  Ba  Ba43  1  -0.01255347  0.49231634  0.74538064  1
  Ba  Ba44  1  0.79793272  0.11874130  0.49295733  1
  Ba  Ba45  1  0.51150464  0.01603106  0.36240718  1
  Ba  Ba46  1  0.20769283  0.81516916  0.46651652  1
  Ba  Ba47  1  0.94492350  0.08255219  0.05678546  1
  Ba  Ba48  1  0.22741096  0.02206355  0.80513835  1
  Ba  Ba49  1  0.37549148  0.65701710  0.59716146  1
  Ba  Ba50  1  0.20193760  0.78814733  0.75015811  1
  Fe  Fe51  1  0.49423829  0.08390231  0.54797474  1
  Fe  Fe52  1  0.67524359  0.43964049  0.33010069  1
  Fe  Fe53  1  0.88583022  0.79415937  0.84825132  1
  Fe  Fe54  1  0.20003402  0.01178399  0.32923346  1
  Fe  Fe55  1  0.74212086  0.04498093  0.07064505  1
  Fe  Fe56  1  0.00632101  0.85943395  0.82994960  1
  Fe  Fe57  1  0.81888820  0.35372869  0.71687322  1
  Fe  Fe58  1  0.75928054  0.62158721  0.36794163  1
  Fe  Fe59  1  0.74410596  0.93065601  0.46828836  1
  Fe  Fe60  1  0.82647709  -0.02223199  0.33561744  1
  Fe  Fe61  1  0.19667864  0.84946407  0.05152635  1
  Fe  Fe62  1  0.87242199  0.89304134  0.43135982  1
  Fe  Fe63  1  0.13685189  0.20848208  0.80202637  1
  Fe  Fe64  1  0.59940825  0.16005607  0.46037235  1
  Fe  Fe65  1  0.82833513  0.22275838  0.71537275  1
  Fe  Fe66  1  0.80321418  0.93217597  0.03630576  1
  Fe  Fe67  1  0.16479530  0.59919105  0.77693459  1
  Fe  Fe68  1  0.45798457  0.19197346  0.44085292  1
  Fe  Fe69  1  0.63364399  1.01866558  0.51779635  1
  Fe  Fe70  1  0.44420162  0.48511378  0.69753408  1
  Fe  Fe71  1  0.65824456  0.58026078  0.28522285  1
  Fe  Fe72  1  0.12548367  0.33684331  0.81023864  1
  Fe  Fe73  1  -0.09028149  0.93672515  0.91428582  1
  Fe  Fe74  1  0.26084148  -0.03948662  0.00343088  1
  Fe  Fe75  1  0.11934962  0.30320076  0.67238950  1
  Fe  Fe76  1  0.77946908  0.90149301  0.88275592  1
  Fe  Fe77  1  0.10959338  0.17492957  0.66517261  1
  Fe  Fe78  1  0.51711139  0.56044099  0.77587244  1
  Fe  Fe79  1  0.81327681  0.04839593  0.92284701  1
  Fe  Fe80  1  0.40265664  0.19128205  0.57353115  1
  Fe  Fe81  1  0.69403204  0.99412233  0.94860598  1
  Fe  Fe82  1  0.43842588  0.85690522  0.31216768  1
  Fe  Fe83  1  0.81964456  0.98383435  0.18126189  1
  Fe  Fe84  1  0.58068187  0.44538446  0.69769688  1
  Fe  Fe85  1  0.16499179  0.56776815  0.16006145  1
  Fe  Fe86  1  0.82535867  0.30907783  0.84568662  1
  Fe  Fe87  1  0.79132709  0.50833188  0.28813074  1
  Fe  Fe88  1  0.51575294  0.42068055  0.82249514  1
  Fe  Fe89  1  0.12223462  0.46007215  0.08880416  1
  Fe  Fe90  1  0.31991766  0.94976469  0.34638523  1
  Fe  Fe91  1  0.88103929  0.90462104  0.76954306  1
  Fe  Fe92  1  0.27391353  0.85329988  0.92159559  1
  Fe  Fe93  1  0.61229176  0.11997038  0.60353256  1
  Fe  Fe94  1  0.35462948  0.84126200  0.03075699  1
  Fe  Fe95  1  0.68046254  0.52794980  0.42895495  1
  Fe  Fe96  1  0.13071326  0.44189350  0.23324191  1
  Fe  Fe97  1  0.25837221  0.45585557  0.16534105  1
  Fe  Fe98  1  0.53028601  0.22565805  0.57934243  1
  Fe  Fe99  1  0.39796497  0.86582786  0.44055104  1
  Fe  Fe100  1  0.83995776  0.17555818  0.84965747  1
  Fe  Fe101  1  0.39696117  -0.05885552  0.93941615  1
  Bi  Bi102  1  0.04005079  0.69642285  0.85520156  1
  Bi  Bi103  1  0.54972376  0.53507842  0.55075379  1
  Bi  Bi104  1  0.08913262  -0.05643428  -0.04444458  1
  Bi  Bi105  1  0.31563478  0.12535249  0.31892897  1
  Bi  Bi106  1  -0.02137672  0.27118824  0.78655431  1
  Bi  Bi107  1  0.34136185  0.59569613  0.16020533  1
  Bi  Bi108  1  0.27266718  0.20064292  0.69282771  1
  Bi  Bi109  1  0.14293957  0.47294202  -0.09884054  1
  Bi  Bi110  1  -0.03543723  0.43900800  0.20354441  1
  Bi  Bi111  1  0.57370556  -0.07438058  -0.14639548  1
  Bi  Bi112  1  0.58496510  0.29564556  0.34075094  1
  Bi  Bi113  1  0.45185302  0.31880089  0.70747622  1
  Bi  Bi114  1  0.87936308  0.94796551  0.59702459  1
  Bi  Bi115  1  0.33904031  0.59712235  0.80247713  1
  Bi  Bi116  1  0.26197673  0.39419655  0.34005941  1
  Bi  Bi117  1  0.56102800  0.33869457  0.97817356  1
  Bi  Bi118  1  0.34145618  0.10298375  -0.03336800  1
  Bi  Bi119  1  0.20597130  0.31090000  0.10478412  1
  Bi  Bi120  1  0.40061870  0.70737828  0.38245636  1
  Bi  Bi121  1  0.81160503  0.74473216  0.47332457  1
  Bi  Bi122  1  0.91984364  0.10406905  0.28228339  1
  Bi  Bi123  1  0.83120412  0.64297856  0.80545500  1
  Bi  Bi124  1  0.09763992  0.72122607  0.17064343  1
  Bi  Bi125  1  0.77094645  0.64030732  0.15992219  1
  Bi  Bi126  1  0.15525240  0.62259760  0.59725970  1
  Bi  Bi127  1  0.84537743  0.46503544  0.44932039  1
