# generated using pymatgen
data_Ba51Fe51Bi26
_symmetry_space_group_name_H-M   'P 1'
_cell_length_a   16.10412912
_cell_length_b   16.27330345
_cell_length_c   16.46557835
_cell_angle_alpha   92.42466159
_cell_angle_beta   90.74154704
_cell_angle_gamma   90.99257010
_symmetry_Int_Tables_number   1
_chemical_formula_structural   Ba51Fe51Bi26
_chemical_formula_sum   'Ba51 Fe51 Bi26'
_cell_volume   4310.17692158
_cell_formula_units_Z   1
loop_
 _symmetry_equiv_pos_site_id
 _symmetry_equiv_pos_as_xyz
  1  'x, y, z'
loop_
 _atom_site_type_symbol
 _atom_site_label
 _atom_site_symmetry_multiplicity
 _atom_site_fract_x
 _atom_site_fract_y
 _atom_site_fract_z
 _atom_site_occupancy
  Ba  Ba0  1  0.42030698  0.01693488  0.35479360  1
  Ba  Ba1  1  0.15275293  0.17421196  -0.04076138  1
  Ba  Ba2  1  0.47459696  0.77804792  -0.07949650  1
  Ba  Ba3  1  0.30849511  0.27364111  0.45441281  1
  Ba  Ba4  1  0.05094630  0.36844779  0.16323011  1
  Ba  Ba5  1  0.52273122  0.21485874  0.02034562  1
  Ba  Ba6  1  0.55330446  -0.01930320  0.61825000  1
  Ba  Ba7  1  0.32071002  0.82069365  0.59373201  1
  Ba  Ba8  1  0.81231979  0.26980876  0.44814295  1
  Ba  Ba9  1  0.03979722  0.37493753  0.63483357  1
  Ba  Ba10  1  0.77031649  0.67855181  0.57848345  1
  Ba  Ba11  1  0.23795225  0.58844806  -0.05299018  1
  Ba  Ba12  1  0.51996323  0.25930262  0.30204628  1
  Ba  Ba13  1  0.13145939  0.75783982  0.10495710  1
  Ba  Ba14  1  0.69277998  -0.19325457  0.21736464  1
  Ba  Ba15  1  0.74340784  0.75593841  -0.04514914  1
  Ba  Ba16  1  0.16779067  0.78717487  0.84120283  1
  Ba  Ba17  1  0.50433059  0.59932219  0.27039492  1
  Ba  Ba18  1  0.70264703  0.48342086  0.40707032  1
  Ba  Ba19  1  0.71867155  0.49147593  -0.06888114  1
  Ba  Ba20  1  0.32735717  -0.00324178  -0.05913485  1
  Ba  Ba21  1  0.61527065  0.05218570  0.19498996  1
  Ba  Ba22  1  0.19668571  -0.01643621  0.19828282  1
  Ba  Ba23  1  0.52866386  0.74973554  0.68100703  1
  Ba  Ba24  1  0.27316668  0.38181570  0.80615052  1
  Ba  Ba25  1  0.35403694  0.55208502  0.56505328  1
  Ba  Ba26  1  0.47634339  0.25418040  0.67337658  1
  Ba  Ba27  1  -0.08919850  0.59177570  0.74660141  1
  Ba  Ba28  1  0.81652229  0.23770499  -0.10032026  1
  Ba  Ba29  1  0.27935792  0.23908934  0.17421738  1
  Ba  Ba30  1  0.76584558  0.28146034  0.14778294  1
  Ba  Ba31  1  0.78257580  0.02625862  0.31946747  1
  Ba  Ba32  1  0.05678985  0.31894692  0.39741008  1
  Ba  Ba33  1  -0.06992314  0.85853487  0.01953189  1
  Ba  Ba34  1  0.75080266  -0.11309459  0.75785603  1
  Ba  Ba35  1  0.00770873  0.00408096  0.81262654  1
  Ba  Ba36  1  0.19543072  0.15544480  0.67234044  1
  Ba  Ba37  1  0.01483666  0.41930665  -0.10356391  1
  Ba  Ba38  1  0.84808091  0.17474025  0.65543156  1
  Ba  Ba39  1  0.64719417  0.45303548  0.66480817  1
  Ba  Ba40  1  0.29938318  0.72768594  0.34687295  1
  Ba  Ba41  1  0.18720773  -0.02349357  0.48574084  1
  Ba  Ba42  1  0.80382715  -0.10639551  0.50039838  1
  Ba  Ba43  1  -0.03108569  0.55499637  0.45418975  1
  Ba  Ba44  1  0.49403682  0.54375849  0.85436246  1
  Ba  Ba45  1  0.74595442  0.56356066  0.17895342  1
  Ba  Ba46  1  0.46178592  0.85405271  0.14431179  1
  Ba  Ba47  1  0.26425784  0.49481154  0.20785402  1
  Ba  Ba48  1  -0.06372793  -0.16792454  0.28863175  1
  Ba  Ba49  1  0.60839818  0.11890629  0.81815746  1
  Ba  Ba50  1  -0.00837844  0.59507349  0.23701867  1
  Fe  Fe51  1  0.09213367  0.89125074  0.63800225  1
  Fe  Fe52  1  0.76551111  -0.03023911  0.95445744  1
  Fe  Fe53  1  0.63933880  0.15404841  0.55787027  1
  Fe  Fe54  1  0.93130141  0.24146522  0.25273778  1
  Fe  Fe55  1  0.64011348  0.91287088  0.03720836  1
  Fe  Fe56  1  0.61349884  0.88945337  0.39612667  1
  Fe  Fe57  1  -0.00142116  1.04645597  0.10765563  1
  Fe  Fe58  1  0.39161344  0.89995278  0.76849107  1
  Fe  Fe59  1  0.47536544  0.73669841  0.45382571  1
  Fe  Fe60  1  0.62597464  0.72712008  0.39702991  1
  Fe  Fe61  1  0.95866589  0.13595045  0.34452772  1
  Fe  Fe62  1  0.53886310  1.00531662  -0.00962469  1
  Fe  Fe63  1  0.60994493  0.03047718  0.44258862  1
  Fe  Fe64  1  -0.00025388  0.68333805  0.93888678  1
  Fe  Fe65  1  0.49376633  0.96278544  0.83687424  1
  Fe  Fe66  1  0.84044074  1.06653370  1.05763548  1
  Fe  Fe67  1  1.05182840  0.76015242  0.68654194  1
  Fe  Fe68  1  0.89341852  0.59638223  0.95133721  1
  Fe  Fe69  1  0.64478445  0.15870899  0.40912531  1
  Fe  Fe70  1  0.17133972  0.64692303  0.50795445  1
  Fe  Fe71  1  1.00227258  0.02256330  0.26081600  1
  Fe  Fe72  1  0.76492410  -0.04394197  1.10049754  1
  Fe  Fe73  1  0.49079332  0.40698938  -0.01772881  1
  Fe  Fe74  1  0.52061053  0.14899512  0.48102395  1
  Fe  Fe75  1  0.62612654  0.94607906  0.90587545  1
  Fe  Fe76  1  0.12259751  0.77353225  0.56084969  1
  Fe  Fe77  1  0.18679568  0.67463514  0.65565960  1
  Fe  Fe78  1  0.36207067  0.31634178  0.96897774  1
  Fe  Fe79  1  0.44269981  0.55085337  1.05955638  1
  Fe  Fe80  1  0.39719927  0.03108585  0.74209179  1
  Fe  Fe81  1  0.51713404  0.80415564  0.34142257  1
  Fe  Fe82  1  0.89023116  0.11698390  0.19507066  1
  Fe  Fe83  1  0.01525948  0.87555085  0.50064479  1
  Fe  Fe84  1  0.02343339  0.13565562  0.48026421  1
  Fe  Fe85  1  0.95233044  0.84809646  0.64103520  1
  Fe  Fe86  1  0.73996614  0.08383174  0.49920677  1
  Fe  Fe87  1  0.56056653  0.48646868  0.07735515  1
  Fe  Fe88  1  0.89019114  0.97337087  0.16680669  1
  Fe  Fe89  1  0.98262664  0.74424529  0.54323452  1
  Fe  Fe90  1  0.83706947  0.44781634  0.58313932  1
  Fe  Fe91  1  0.48007493  0.87326011  0.46424975  1
  Fe  Fe92  1  0.36144707  0.44552747  1.01636977  1
  Fe  Fe93  1  -0.00540029  0.00043272  0.41101605  1
  Fe  Fe94  1  0.05357815  0.63363413  0.61213115  1
  Fe  Fe95  1  0.89112976  0.08850960  0.47425756  1
  Fe  Fe96  1  0.91449647  0.66150889  0.06836166  1
  Fe  Fe97  1  0.59690597  0.80329492  0.50651365  1
  Fe  Fe98  1  0.02724250  0.58854150  0.03074177  1
  Fe  Fe99  1  0.68462856  0.06049266  0.01415321  1
  Fe  Fe100  1  0.15249028  0.53648880  0.58216218  1
  Fe  Fe101  1  0.04150798  0.15856764  0.21139958  1
  Bi  Bi102  1  -0.05961416  0.79450813  0.81228598  1
  Bi  Bi103  1  0.36553176  0.18388475  -0.15528179  1
  Bi  Bi104  1  0.22747070  -0.04116422  0.73451371  1
  Bi  Bi105  1  0.13040676  0.54610958  0.75123458  1
  Bi  Bi106  1  0.58629234  0.65741436  0.06541675  1
  Bi  Bi107  1  0.79400790  0.68226095  0.36398339  1
  Bi  Bi108  1  0.59208356  0.31060252  0.49842139  1
  Bi  Bi109  1  0.56358020  0.60816757  0.51087011  1
  Bi  Bi110  1  0.08889090  0.74475267  0.39571688  1
  Bi  Bi111  1  -0.01004798  0.02084037  0.59710872  1
  Bi  Bi112  1  -0.04599642  0.20373462  0.06114664  1
  Bi  Bi113  1  0.14449433  0.12881269  0.34876513  1
  Bi  Bi114  1  -0.10707439  0.47002417  0.06161123  1
  Bi  Bi115  1  0.33849704  0.66751612  0.75743581  1
  Bi  Bi116  1  0.19532874  0.49028585  0.42091387  1
  Bi  Bi117  1  0.83983522  0.38220817  0.73227563  1
  Bi  Bi118  1  0.88003199  0.40681309  0.29747130  1
  Bi  Bi119  1  0.20321453  0.38060174  0.01510327  1
  Bi  Bi120  1  0.33823380  0.67599726  0.12787019  1
  Bi  Bi121  1  0.02840693  0.22589566  0.78904730  1
  Bi  Bi122  1  0.37504793  0.09291063  0.55924110  1
  Bi  Bi123  1  0.40856310  0.06929154  0.13603936  1
  Bi  Bi124  1  0.11757807  0.96112167  1.00269211  1
  Bi  Bi125  1  0.58878433  0.33685284  0.85316400  1
  Bi  Bi126  1  0.68518475  0.64741064  0.77766330  1
  Bi  Bi127  1  0.44755313  0.39079500  0.15649403  1
