# generated using pymatgen
data_Ba51Fe51Bi26
_symmetry_space_group_name_H-M   'P 1'
_cell_length_a   16.07401451
_cell_length_b   16.36770761
_cell_length_c   16.78201385
_cell_angle_alpha   89.72401993
_cell_angle_beta   93.75405989
_cell_angle_gamma   89.54084924
_symmetry_Int_Tables_number   1
_chemical_formula_structural   Ba51Fe51Bi26
_chemical_formula_sum   'Ba51 Fe51 Bi26'
_cell_volume   4405.58159378
_cell_formula_units_Z   1
loop_
 _symmetry_equiv_pos_site_id
 _symmetry_equiv_pos_as_xyz
  1  'x, y, z'
loop_
 _atom_site_type_symbol
 _atom_site_label
 _atom_site_symmetry_multiplicity
 _atom_site_fract_x
 _atom_site_fract_y
 _atom_site_fract_z
 _atom_site_occupancy
  Ba  Ba0  1  0.74657996  0.02793634  0.12200450  1
  Ba  Ba1  1  0.74995524  0.17482545  0.34953738  1
  Ba  Ba2  1  0.52206958  0.81221399  0.76930706  1
  Ba  Ba3  1  0.53027143  -0.05537230  0.14604726  1
  Ba  Ba4  1  0.47508067  0.55832015  0.67994882  1
  Ba  Ba5  1  0.29831262  0.09536639  0.17162635  1
  Ba  Ba6  1  -0.10018441  0.30933574  0.13023264  1
  Ba  Ba7  1  0.24824415  0.41470335  0.00212889  1
  Ba  Ba8  1  0.71507812  -0.00097225  0.78799520  1
  Ba  Ba9  1  0.03292188  0.76182421  0.84688213  1
  Ba  Ba10  1  0.86522997  -0.04692894  0.48890102  1
  Ba  Ba11  1  0.50285000  0.27677525  0.29580328  1
  Ba  Ba12  1  0.22216632  0.07584693  -0.05261108  1
  Ba  Ba13  1  0.49783432  0.31397217  0.78535585  1
  Ba  Ba14  1  0.48438601  0.67434516  -0.03190906  1
  Ba  Ba15  1  0.13453337  0.89096494  0.24755973  1
  Ba  Ba16  1  0.27513549  0.78354541  0.43991762  1
  Ba  Ba17  1  0.14589087  0.22938808  0.48371416  1
  Ba  Ba18  1  0.29546678  0.54684340  0.26447713  1
  Ba  Ba19  1  0.60265225  0.42282706  0.02273256  1
  Ba  Ba20  1  0.21518030  0.53725268  0.47839195  1
  Ba  Ba21  1  0.72203942  0.69046038  0.06442254  1
  Ba  Ba22  1  -0.00021198  0.59742144  0.65387028  1
  Ba  Ba23  1  0.85161245  0.39495059  0.51028348  1
  Ba  Ba24  1  0.71932550  0.52160901  0.66635078  1
  Ba  Ba25  1  0.38607700  0.28147573  0.55677319  1
  Ba  Ba26  1  0.71761370  0.77524476  0.58922427  1
  Ba  Ba27  1  0.00110694  0.07888756  0.14119274  1
  Ba  Ba28  1  0.78794461  0.75139968  0.84806701  1
  Ba  Ba29  1  0.13717190  0.32857493  0.25003536  1
  Ba  Ba30  1  -0.09986234  0.49044232  -0.13391680  1
  Ba  Ba31  1  0.32514692  0.79247739  0.15047913  1
  Ba  Ba32  1  0.53677579  0.02699269  0.42764277  1
  Ba  Ba33  1  0.46912176  0.22466215  0.03651440  1
  Ba  Ba34  1  0.26847802  0.01664208  0.46599983  1
  Ba  Ba35  1  0.24815423  0.65973512  0.72363089  1
  Ba  Ba36  1  -0.09753078  0.85339912  0.07836540  1
  Ba  Ba37  1  0.74128110  0.20279306  -0.05320743  1
  Ba  Ba38  1  0.50288392  0.48326508  0.44443013  1
  Ba  Ba39  1  0.05395125  0.25938056  0.86462290  1
  Ba  Ba40  1  0.48062955  0.05456783  0.66008857  1
  Ba  Ba41  1  0.03415844  0.58333437  0.10117976  1
  Ba  Ba42  1  0.27478362  -0.09156892  0.67085615  1
  Ba  Ba43  1  0.06292145  -0.00689730  0.77830981  1
  Ba  Ba44  1  -0.04077278  0.17737363  0.60503085  1
  Ba  Ba45  1  0.70585086  0.62296127  0.33241501  1
  Ba  Ba46  1  0.75796994  0.25779357  0.70144946  1
  Ba  Ba47  1  0.51911617  0.77334420  0.38077469  1
  Ba  Ba48  1  0.27690927  0.83991862  -0.07586125  1
  Ba  Ba49  1  -0.01574768  0.74162778  0.41047028  1
  Ba  Ba50  1  0.21478487  0.41106726  0.73223766  1
  Fe  Fe51  1  0.47993452  0.91960375  -0.05739731  1
  Fe  Fe52  1  0.71189379  0.51999097  0.16787629  1
  Fe  Fe53  1  0.92277206  0.02494113  0.95591090  1
  Fe  Fe54  1  0.03883431  0.54833699  0.31625037  1
  Fe  Fe55  1  0.86328585  0.00337583  0.28768462  1
  Fe  Fe56  1  -0.00317934  0.54499085  0.45768340  1
  Fe  Fe57  1  0.04920494  0.03961136  0.41596408  1
  Fe  Fe58  1  0.50687613  0.57621236  0.26695435  1
  Fe  Fe59  1  0.44396416  0.60240245  0.15123067  1
  Fe  Fe60  1  0.71063366  0.55705908  0.90608429  1
  Fe  Fe61  1  0.28926845  0.12841808  0.62240003  1
  Fe  Fe62  1  0.90466608  0.93137175  0.86999678  1
  Fe  Fe63  1  0.57610781  0.52418209  0.85019011  1
  Fe  Fe64  1  0.75244717  0.81423398  0.22680438  1
  Fe  Fe65  1  0.11592014  0.83399380  0.54561349  1
  Fe  Fe66  1  0.09582591  0.90300880  0.43704064  1
  Fe  Fe67  1  0.34280039  0.20028211  0.72442348  1
  Fe  Fe68  1  0.41312918  0.67126625  0.52145427  1
  Fe  Fe69  1  0.58271010  0.21720728  0.61292668  1
  Fe  Fe70  1  0.03649194  0.93209949  0.96203211  1
  Fe  Fe71  1  0.00416267  0.42661908  0.39265916  1
  Fe  Fe72  1  0.20145163  0.21378878  0.71585809  1
  Fe  Fe73  1  0.54761120  0.12579901  0.88810627  1
  Fe  Fe74  1  -0.02608144  0.44383740  0.25889798  1
  Fe  Fe75  1  0.73837803  0.39669360  0.22003260  1
  Fe  Fe76  1  0.38911375  0.74419569  0.62677520  1
  Fe  Fe77  1  0.17918681  0.66687419  0.95454281  1
  Fe  Fe78  1  0.57662172  0.57071270  0.14205676  1
  Fe  Fe79  1  0.43504101  0.04672568  -0.03547766  1
  Fe  Fe80  1  0.55745709  0.22029496  0.48474138  1
  Fe  Fe81  1  0.98163626  0.94731814  0.33465924  1
  Fe  Fe82  1  0.86920270  0.86314237  0.27258227  1
  Fe  Fe83  1  0.60012809  0.46670371  0.24049964  1
  Fe  Fe84  1  0.90179324  0.55388424  0.34764107  1
  Fe  Fe85  1  0.85144003  0.41695038  0.31894133  1
  Fe  Fe86  1  0.58072317  0.34733595  0.57886980  1
  Fe  Fe87  1  0.45189849  0.82833621  0.55270566  1
  Fe  Fe88  1  0.27489144  0.60082199  0.90229756  1
  Fe  Fe89  1  0.67481139  0.28206931  0.50907818  1
  Fe  Fe90  1  0.53012236  0.71411426  0.57799265  1
  Fe  Fe91  1  0.51907801  1.00135181  0.84204610  1
  Fe  Fe92  1  0.13161790  0.94819579  0.05559766  1
  Fe  Fe93  1  0.37962267  0.98574700  0.83931020  1
  Fe  Fe94  1  0.95764979  0.10079126  0.33293254  1
  Fe  Fe95  1  0.27925987  0.08313884  0.76462705  1
  Fe  Fe96  1  0.41060011  0.12392805  0.83846820  1
  Fe  Fe97  1  0.58259555  0.03161322  -0.02430894  1
  Fe  Fe98  1  0.16951737  0.09882575  0.66205105  1
  Fe  Fe99  1  0.29420715  0.19788528  0.35239210  1
  Fe  Fe100  1  0.85321566  0.51579681  0.21134807  1
  Fe  Fe101  1  0.63903952  0.63180846  0.81726174  1
  Bi  Bi102  1  0.06998653  0.41463254  0.55477552  1
  Bi  Bi103  1  -0.05133458  0.27272242  0.34450523  1
  Bi  Bi104  1  0.70186777  -0.05628311  0.31874669  1
  Bi  Bi105  1  0.07253981  -0.00437695  0.57213624  1
  Bi  Bi106  1  0.29108667  0.60893958  0.06751093  1
  Bi  Bi107  1  0.65072492  -0.12379541  -0.03680401  1
  Bi  Bi108  1  0.44563532  0.43369824  0.15954509  1
  Bi  Bi109  1  0.29546336  0.25397790  0.86705053  1
  Bi  Bi110  1  0.68149991  0.38909203  0.37364815  1
  Bi  Bi111  1  0.14694403  0.11187740  0.30666875  1
  Bi  Bi112  1  0.81628386  0.49754988  0.04631005  1
  Bi  Bi113  1  0.55034321  0.73295889  0.18284296  1
  Bi  Bi114  1  0.70083985  0.10661317  0.55555900  1
  Bi  Bi115  1  0.10933744  0.55208308  0.85179034  1
  Bi  Bi116  1  0.69508637  0.40025017  0.83782278  1
  Bi  Bi117  1  0.12798101  0.23200882  0.06520634  1
  Bi  Bi118  1  0.94871039  0.37649558  0.70485600  1
  Bi  Bi119  1  0.67739083  0.24595149  0.14685157  1
  Bi  Bi120  1  0.88393468  0.69090317  0.22659808  1
  Bi  Bi121  1  0.88227313  0.87200423  0.70870114  1
  Bi  Bi122  1  0.40247477  0.49781204  0.86180607  1
  Bi  Bi123  1  0.84290960  0.61493037  0.50452347  1
  Bi  Bi124  1  0.89246040  0.11891926  0.81882605  1
  Bi  Bi125  1  0.31394580  0.36330406  0.37768322  1
  Bi  Bi126  1  0.10717080  0.78338458  0.05279859  1
  Bi  Bi127  1  0.37352559  0.93010893  0.30395658  1
