# generated using pymatgen
data_Ba51Fe51Bi26
_symmetry_space_group_name_H-M   'P 1'
_cell_length_a   15.90647002
_cell_length_b   16.04187255
_cell_length_c   17.01998393
_cell_angle_alpha   85.87438490
_cell_angle_beta   94.05018976
_cell_angle_gamma   93.12304385
_symmetry_Int_Tables_number   1
_chemical_formula_structural   Ba51Fe51Bi26
_chemical_formula_sum   'Ba51 Fe51 Bi26'
_cell_volume   4315.58041926
_cell_formula_units_Z   1
loop_
 _symmetry_equiv_pos_site_id
 _symmetry_equiv_pos_as_xyz
  1  'x, y, z'
loop_
 _atom_site_type_symbol
 _atom_site_label
 _atom_site_symmetry_multiplicity
 _atom_site_fract_x
 _atom_site_fract_y
 _atom_site_fract_z
 _atom_site_occupancy
  Ba  Ba0  1  -0.05806041  1.00714990  0.33337542  1
  Ba  Ba1  1  0.10452495  0.22247274  0.76097741  1
  Ba  Ba2  1  0.64300173  0.46785318  0.03131780  1
  Ba  Ba3  1  0.05723485  0.05186982  -0.02421938  1
  Ba  Ba4  1  0.47670004  0.48133615  0.83171847  1
  Ba  Ba5  1  0.23894271  0.45400137  0.74310040  1
  Ba  Ba6  1  0.82589923  0.25903721  0.23062382  1
  Ba  Ba7  1  0.78014240  -0.02337036  -0.03626655  1
  Ba  Ba8  1  0.28703716  0.49663791  0.01292127  1
  Ba  Ba9  1  0.53135761  -0.11451234  0.76451721  1
  Ba  Ba10  1  -0.00327821  0.84115948  0.13259046  1
  Ba  Ba11  1  0.14803361  0.27988033  0.38049796  1
  Ba  Ba12  1  0.76211002  0.76686845  0.48151405  1
  Ba  Ba13  1  0.49021966  0.25646017  0.74455412  1
  Ba  Ba14  1  0.53656156  -0.14525578  0.02029308  1
  Ba  Ba15  1  0.48492578  0.09852173  0.27122657  1
  Ba  Ba16  1  0.68522786  0.06574000  0.14884801  1
  Ba  Ba17  1  0.52426918  0.70599435  0.53525289  1
  Ba  Ba18  1  0.00124984  0.46836553  0.67539850  1
  Ba  Ba19  1  0.25822363  0.58434937  0.27545736  1
  Ba  Ba20  1  -0.19582930  0.18889294  -0.14101170  1
  Ba  Ba21  1  0.35379698  0.04337719  0.70955437  1
  Ba  Ba22  1  0.32630979  0.74460089  0.09485752  1
  Ba  Ba23  1  0.00481515  0.73271354  0.53837375  1
  Ba  Ba24  1  0.14574148  -0.08620972  0.78672534  1
  Ba  Ba25  1  0.65510631  0.63398081  0.76291975  1
  Ba  Ba26  1  0.86452071  0.69217701  0.29469414  1
  Ba  Ba27  1  0.38389261  0.02151076  0.07214491  1
  Ba  Ba28  1  0.87124641  0.79051565  0.78924225  1
  Ba  Ba29  1  0.73922443  0.19040644  0.52695190  1
  Ba  Ba30  1  0.09018887  0.66327198  0.86063518  1
  Ba  Ba31  1  0.22227323  0.26038923  -0.00270592  1
  Ba  Ba32  1  0.38563972  0.21618243  0.47576420  1
  Ba  Ba33  1  0.48161743  0.50207917  0.19884039  1
  Ba  Ba34  1  0.42075228  0.48728406  0.44498678  1
  Ba  Ba35  1  0.87030793  0.49075725  -0.11347486  1
  Ba  Ba36  1  0.04993043  0.59831101  0.08477014  1
  Ba  Ba37  1  0.65338593  0.67370482  0.12409373  1
  Ba  Ba38  1  0.35162428  0.71320903  0.80611662  1
  Ba  Ba39  1  0.71570087  0.51541799  0.49446376  1
  Ba  Ba40  1  0.24743325  0.87931938  0.27196836  1
  Ba  Ba41  1  0.73206421  0.39448508  0.69219460  1
  Ba  Ba42  1  -0.01152479  0.47491695  0.28339534  1
  Ba  Ba43  1  0.61832852  0.32656752  0.35839833  1
  Ba  Ba44  1  0.00416656  0.29143568  0.06267933  1
  Ba  Ba45  1  0.20466584  -0.02632654  0.51780875  1
  Ba  Ba46  1  0.48473572  0.22346431  -0.02295598  1
  Ba  Ba47  1  -0.02768848  0.06608250  0.58958191  1
  Ba  Ba48  1  0.16713595  0.53353935  0.50595106  1
  Ba  Ba49  1  0.28402459  0.74643254  0.49218028  1
  Ba  Ba50  1  0.52388182  -0.05060488  0.50581252  1
  Fe  Fe51  1  0.61813882  -0.03651131  0.35399741  1
  Fe  Fe52  1  0.70879831  0.42320913  0.20950223  1
  Fe  Fe53  1  0.65702458  0.07091338  0.75529546  1
  Fe  Fe54  1  0.78429663  0.64279217  0.96169897  1
  Fe  Fe55  1  0.20092233  0.24799166  0.19066465  1
  Fe  Fe56  1  0.67449499  0.51968342  0.28394632  1
  Fe  Fe57  1  0.31133444  0.34178572  0.27914747  1
  Fe  Fe58  1  0.69093887  0.23516385  0.02814171  1
  Fe  Fe59  1  0.89206308  0.35849470  0.54426797  1
  Fe  Fe60  1  0.79253635  0.53972218  0.19872912  1
  Fe  Fe61  1  0.84798131  0.62414340  0.09232227  1
  Fe  Fe62  1  0.01054061  0.26867748  0.56606551  1
  Fe  Fe63  1  0.52235963  0.75991752  0.23552842  1
  Fe  Fe64  1  0.31020351  0.35080921  0.15222051  1
  Fe  Fe65  1  0.28210826  0.84047744  0.92850479  1
  Fe  Fe66  1  0.80952542  0.96018345  0.64962028  1
  Fe  Fe67  1  0.74484547  -0.04433587  0.76820986  1
  Fe  Fe68  1  0.01175375  0.37875842  0.47342470  1
  Fe  Fe69  1  0.81774821  0.18344236  0.04716629  1
  Fe  Fe70  1  0.38442336  0.86460899  0.61914670  1
  Fe  Fe71  1  0.79798140  0.08993214  0.70394406  1
  Fe  Fe72  1  0.44150240  0.86763036  0.20381205  1
  Fe  Fe73  1  0.34663969  0.20794138  0.14584144  1
  Fe  Fe74  1  0.42898144  0.75923950  0.32575169  1
  Fe  Fe75  1  0.18892114  0.96079312  0.09828397  1
  Fe  Fe76  1  0.10203255  1.01630597  0.17902858  1
  Fe  Fe77  1  0.40695830  0.40231352  0.62571632  1
  Fe  Fe78  1  0.30875265  0.19599195  0.27175949  1
  Fe  Fe79  1  0.67948557  0.00826459  0.63325256  1
  Fe  Fe80  1  0.16782309  0.84952787  1.01777420  1
  Fe  Fe81  1  0.52460397  0.47980295  0.64382266  1
  Fe  Fe82  1  0.13221697  0.34513447  0.57532709  1
  Fe  Fe83  1  0.79607428  0.46467828  0.33010781  1
  Fe  Fe84  1  0.27373750  0.34470584  0.58420488  1
  Fe  Fe85  1  0.47035396  0.89660385  0.32373205  1
  Fe  Fe86  1  0.43327092  0.29295651  0.24478263  1
  Fe  Fe87  1  0.08930162  1.14822625  0.19911410  1
  Fe  Fe88  1  0.23234417  0.95712409  0.96260699  1
  Fe  Fe89  1  0.79697829  0.31949954  0.00045250  1
  Fe  Fe90  1  0.58239712  0.81424992  0.36719945  1
  Fe  Fe91  1  0.43536601  0.32650912  1.11516929  1
  Fe  Fe92  1  0.90906107  0.70539458  0.97809600  1
  Fe  Fe93  1  0.67459725  0.78420206  0.27929756  1
  Fe  Fe94  1  0.36441908  -0.04885075  0.89453553  1
  Fe  Fe95  1  0.86049916  0.36854771  0.41645444  1
  Fe  Fe96  1  0.73395508  0.91107615  0.31711183  1
  Fe  Fe97  1  0.71728615  0.06268531  0.33454601  1
  Fe  Fe98  1  0.59186012  0.90084757  0.23041107  1
  Fe  Fe99  1  0.22981394  0.10061030  0.16528993  1
  Fe  Fe100  1  0.26733338  0.83766089  0.66161193  1
  Fe  Fe101  1  0.81547398  0.76939272  1.03772655  1
  Bi  Bi102  1  -0.06931129  0.07645840  0.13389910  1
  Bi  Bi103  1  0.18529220  0.07529158  0.32869610  1
  Bi  Bi104  1  -0.06357223  0.21739965  0.42053744  1
  Bi  Bi105  1  0.54649249  0.11267222  0.62303600  1
  Bi  Bi106  1  0.65656486  0.33903200  -0.11934238  1
  Bi  Bi107  1  0.55925251  0.35232484  0.55275841  1
  Bi  Bi108  1  0.76547722  -0.01555371  0.47508279  1
  Bi  Bi109  1  0.86352209  0.44634609  0.09622904  1
  Bi  Bi110  1  -0.10701839  0.24974471  0.68028014  1
  Bi  Bi111  1  0.15827988  0.41742817  0.17643064  1
  Bi  Bi112  1  0.77159319  0.86449548  0.16458596  1
  Bi  Bi113  1  -0.07015630  0.53085135  0.46610370  1
  Bi  Bi114  1  0.58686132  0.63846466  0.35147643  1
  Bi  Bi115  1  0.09185091  0.43653895  0.90078701  1
  Bi  Bi116  1  0.47101377  0.62571327  0.98878164  1
  Bi  Bi117  1  0.38593371  0.57615002  0.63856006  1
  Bi  Bi118  1  0.92910824  0.00720269  0.79743128  1
  Bi  Bi119  1  0.19344846  0.17979615  0.58359348  1
  Bi  Bi120  1  0.68363724  0.83103161  0.65009280  1
  Bi  Bi121  1  0.09908143  0.70233415  0.33502398  1
  Bi  Bi122  1  0.26672625  0.10376224  0.87632460  1
  Bi  Bi123  1  0.59889036  0.28185336  0.16066681  1
  Bi  Bi124  1  0.16685301  0.68426188  0.67304842  1
  Bi  Bi125  1  0.69449232  0.78196003  0.90808617  1
  Bi  Bi126  1  0.52811910  0.04523995  0.88496386  1
  Bi  Bi127  1  0.84371540  0.61383176  0.66984543  1
