# generated using pymatgen
data_Ba51Fe51Bi26
_symmetry_space_group_name_H-M   'P 1'
_cell_length_a   16.12078675
_cell_length_b   16.32400406
_cell_length_c   17.14753295
_cell_angle_alpha   89.15458477
_cell_angle_beta   89.44706075
_cell_angle_gamma   89.79133337
_symmetry_Int_Tables_number   1
_chemical_formula_structural   Ba51Fe51Bi26
_chemical_formula_sum   'Ba51 Fe51 Bi26'
_cell_volume   4511.74359108
_cell_formula_units_Z   1
loop_
 _symmetry_equiv_pos_site_id
 _symmetry_equiv_pos_as_xyz
  1  'x, y, z'
loop_
 _atom_site_type_symbol
 _atom_site_label
 _atom_site_symmetry_multiplicity
 _atom_site_fract_x
 _atom_site_fract_y
 _atom_site_fract_z
 _atom_site_occupancy
  Ba  Ba0  1  0.78525427  0.84284011  -0.06637425  1
  Ba  Ba1  1  0.47152590  0.40215652  0.38048354  1
  Ba  Ba2  1  0.70570308  0.65988811  0.49175349  1
  Ba  Ba3  1  0.00337715  0.23367116  0.42472897  1
  Ba  Ba4  1  0.08234046  0.47576173  0.03236751  1
  Ba  Ba5  1  0.35175945  0.54341818  -0.02629290  1
  Ba  Ba6  1  0.47355429  0.04595979  -0.12562033  1
  Ba  Ba7  1  0.21817128  -0.09882075  0.30239828  1
  Ba  Ba8  1  0.04236466  0.70170491  0.72377849  1
  Ba  Ba9  1  0.53714909  0.78032849  -0.04198244  1
  Ba  Ba10  1  -0.00613580  0.27390522  0.65289104  1
  Ba  Ba11  1  0.73912605  0.42260083  0.59105040  1
  Ba  Ba12  1  0.23488934  0.28176697  -0.02685219  1
  Ba  Ba13  1  0.53117953  0.61700681  0.21983003  1
  Ba  Ba14  1  0.81891421  0.01116820  0.66421347  1
  Ba  Ba15  1  0.68939423  0.05839392  -0.00549245  1
  Ba  Ba16  1  -0.04287554  0.50406185  0.83080288  1
  Ba  Ba17  1  0.00192601  0.69237388  0.18864049  1
  Ba  Ba18  1  0.67807370  0.24410972  0.15433581  1
  Ba  Ba19  1  -0.01054793  -0.01452465  0.01251297  1
  Ba  Ba20  1  0.04622758  0.51623838  0.52826950  1
  Ba  Ba21  1  0.03756069  0.76055069  -0.04861638  1
  Ba  Ba22  1  0.48760357  0.16717944  0.26993032  1
  Ba  Ba23  1  0.26951043  0.53131844  0.26847136  1
  Ba  Ba24  1  0.03006249  0.46463613  0.31489920  1
  Ba  Ba25  1  0.27563914  0.80411352  -0.05624995  1
  Ba  Ba26  1  0.22974071  0.21580124  0.32420983  1
  Ba  Ba27  1  -0.02085805  -0.01052155  0.48535501  1
  Ba  Ba28  1  0.75940987  0.19606870  0.52223312  1
  Ba  Ba29  1  0.00664227  0.03124394  0.23701776  1
  Ba  Ba30  1  0.48057382  0.46957567  0.60122160  1
  Ba  Ba31  1  0.49408302  -0.12528656  0.18757806  1
  Ba  Ba32  1  0.29840835  -0.03105687  0.69803135  1
  Ba  Ba33  1  0.56725883  0.23555116  0.72573255  1
  Ba  Ba34  1  0.58085190  0.45767313  -0.01045466  1
  Ba  Ba35  1  0.78406772  0.75154406  0.73253669  1
  Ba  Ba36  1  0.29335259  0.24619239  0.73239057  1
  Ba  Ba37  1  -0.04437168  0.74837724  0.51482450  1
  Ba  Ba38  1  0.82468409  0.35453614  0.00312321  1
  Ba  Ba39  1  0.80117111  0.80912874  0.28930159  1
  Ba  Ba40  1  0.08186070  0.11648508  0.82905344  1
  Ba  Ba41  1  -0.00655046  0.27327720  0.17742626  1
  Ba  Ba42  1  0.42099310  0.18397103  0.51251401  1
  Ba  Ba43  1  0.42099512  -0.09523396  0.45214424  1
  Ba  Ba44  1  0.25588085  0.70947956  0.52243368  1
  Ba  Ba45  1  0.27122970  0.04155280  0.07962133  1
  Ba  Ba46  1  0.56670904  -0.14422611  0.65081957  1
  Ba  Ba47  1  0.73813546  0.45310361  0.29977557  1
  Ba  Ba48  1  0.66867897  -0.01997953  0.43039065  1
  Ba  Ba49  1  0.79051497  0.61404358  0.04885108  1
  Ba  Ba50  1  0.26207840  0.51853904  0.71553914  1
  Fe  Fe51  1  0.40123759  0.59587123  0.40478904  1
  Fe  Fe52  1  0.74428969  0.46803113  0.87246025  1
  Fe  Fe53  1  0.02869541  1.00476792  0.68889727  1
  Fe  Fe54  1  0.82624530  0.37019301  0.77579258  1
  Fe  Fe55  1  0.70553405  0.90822659  0.11435086  1
  Fe  Fe56  1  0.86852580  0.18398466  0.77548089  1
  Fe  Fe57  1  0.13313409  0.04654717  0.59808336  1
  Fe  Fe58  1  0.41825867  0.80868993  0.79526804  1
  Fe  Fe59  1  0.52753214  0.71607605  0.77731324  1
  Fe  Fe60  1  0.39521792  0.75851230  0.68045086  1
  Fe  Fe61  1  0.49968821  0.57750271  0.81940408  1
  Fe  Fe62  1  0.10188559  0.89444195  0.76881286  1
  Fe  Fe63  1  0.01556920  0.29936000  -0.05489645  1
  Fe  Fe64  1  0.81177763  1.01343668  0.30235219  1
  Fe  Fe65  1  0.48903320  0.25895450  0.06568868  1
  Fe  Fe66  1  0.41014596  0.18761652  -0.01442052  1
  Fe  Fe67  1  0.71641002  0.13739164  0.32789264  1
  Fe  Fe68  1  0.68645046  0.36119107  0.80417420  1
  Fe  Fe69  1  0.28661902  0.05392231  0.41996673  1
  Fe  Fe70  1  0.44746745  0.63160409  0.69669624  1
  Fe  Fe71  1  0.37905809  0.67718955  0.81055005  1
  Fe  Fe72  1  -0.09742515  0.18753771  0.92074284  1
  Fe  Fe73  1  0.19135037  0.37824137  0.56568850  1
  Fe  Fe74  1  0.44042403  0.24945605  0.87479752  1
  Fe  Fe75  1  0.70121765  0.26376983  0.35747135  1
  Fe  Fe76  1  0.76655785  0.25385909  0.71843727  1
  Fe  Fe77  1  0.84565735  0.85644274  0.10915018  1
  Fe  Fe78  1  0.72970886  0.78278515  0.11278293  1
  Fe  Fe79  1  0.36660771  0.69806733  0.11422812  1
  Fe  Fe80  1  0.53530674  0.60725754  0.41321295  1
  Fe  Fe81  1  0.84954840  0.12020266  0.37384023  1
  Fe  Fe82  1  0.96658765  0.91029500  0.79399448  1
  Fe  Fe83  1  0.75178527  0.50860378  0.75217980  1
  Fe  Fe84  1  0.43166319  0.33627446  0.96718121  1
  Fe  Fe85  1  0.10955503  0.89607923  0.63723275  1
  Fe  Fe86  1  0.82410714  0.12802785  0.23071605  1
  Fe  Fe87  1  0.28677041  0.79740876  0.13493825  1
  Fe  Fe88  1  0.26781687  0.06912738  0.54403736  1
  Fe  Fe89  1  0.82853580  0.24631402  0.31563845  1
  Fe  Fe90  1  0.01833367  0.18628981  0.00702925  1
  Fe  Fe91  1  0.77147393  0.25160688  0.86275854  1
  Fe  Fe92  1  0.44733722  0.72053431  0.39327243  1
  Fe  Fe93  1  0.97572339  0.87673202  0.67096555  1
  Fe  Fe94  1  0.60898691  0.48345120  0.79176040  1
  Fe  Fe95  1  0.16433477  0.37337985  0.43860927  1
  Fe  Fe96  1  0.81680027  0.99175559  0.15994214  1
  Fe  Fe97  1  0.32454563  0.35081870  0.57607935  1
  Fe  Fe98  1  0.73116195  1.12817467  0.80282035  1
  Fe  Fe99  1  0.15719006  0.07632265  0.45113741  1
  Fe  Fe100  1  0.29281388  0.33315393  0.45489405  1
  Fe  Fe101  1  0.93550780  0.29483636  0.83589253  1
  Bi  Bi102  1  0.34560308  0.73045841  0.27428011  1
  Bi  Bi103  1  0.24027314  0.77348966  0.74152893  1
  Bi  Bi104  1  0.87011193  0.03460297  0.85604682  1
  Bi  Bi105  1  -0.13468041  0.14391675  0.07806920  1
  Bi  Bi106  1  0.65706034  0.02254432  0.22542184  1
  Bi  Bi107  1  0.60069605  0.24855321  -0.06668896  1
  Bi  Bi108  1  0.67006683  0.62975453  0.87787626  1
  Bi  Bi109  1  0.65927616  0.96193013  0.80414588  1
  Bi  Bi110  1  0.28560885  0.49992658  0.48790731  1
  Bi  Bi111  1  0.18467383  0.21535863  0.54523660  1
  Bi  Bi112  1  0.20544257  -0.08442941  0.50640542  1
  Bi  Bi113  1  0.43656933  0.41052080  0.81462186  1
  Bi  Bi114  1  0.47222284  0.69420123  0.54602800  1
  Bi  Bi115  1  0.01408911  0.83885675  0.33928714  1
  Bi  Bi116  1  0.13679925  0.87587051  0.11029165  1
  Bi  Bi117  1  0.16123159  0.60415537  0.87874956  1
  Bi  Bi118  1  0.50829939  0.38325991  0.17954251  1
  Bi  Bi119  1  0.87557708  0.57789729  0.64712542  1
  Bi  Bi120  1  0.87931463  0.60479558  0.37477699  1
  Bi  Bi121  1  0.48212161  0.07717667  0.08568224  1
  Bi  Bi122  1  0.59609776  0.78522133  0.35545778  1
  Bi  Bi123  1  0.11129042  0.34531710  0.81457354  1
  Bi  Bi124  1  0.89945819  0.47154555  0.15616756  1
  Bi  Bi125  1  0.20269795  0.64774481  0.09134915  1
  Bi  Bi126  1  0.10583058  0.66664754  0.37167592  1
  Bi  Bi127  1  0.62421995  0.60871935  0.67835566  1
