# generated using pymatgen
data_Ba51Fe51Bi26
_symmetry_space_group_name_H-M   'P 1'
_cell_length_a   16.05951497
_cell_length_b   16.48517632
_cell_length_c   16.57686836
_cell_angle_alpha   90.89191879
_cell_angle_beta   90.88710634
_cell_angle_gamma   91.51678782
_symmetry_Int_Tables_number   1
_chemical_formula_structural   Ba51Fe51Bi26
_chemical_formula_sum   'Ba51 Fe51 Bi26'
_cell_volume   4386.00145708
_cell_formula_units_Z   1
loop_
 _symmetry_equiv_pos_site_id
 _symmetry_equiv_pos_as_xyz
  1  'x, y, z'
loop_
 _atom_site_type_symbol
 _atom_site_label
 _atom_site_symmetry_multiplicity
 _atom_site_fract_x
 _atom_site_fract_y
 _atom_site_fract_z
 _atom_site_occupancy
  Ba  Ba0  1  0.28399898  0.25939174  0.09063669  1
  Ba  Ba1  1  0.28958697  0.55197422  -0.09549440  1
  Ba  Ba2  1  -0.04269567  0.72210773  0.00297666  1
  Ba  Ba3  1  0.45668206  0.79522729  0.00748068  1
  Ba  Ba4  1  -0.01454120  -0.01672485  0.42210006  1
  Ba  Ba5  1  0.33222372  0.34101218  0.47614393  1
  Ba  Ba6  1  0.72523776  0.52002145  0.19302033  1
  Ba  Ba7  1  0.21528990  0.71266117  0.04100784  1
  Ba  Ba8  1  0.24920886  -0.01347231  0.06054901  1
  Ba  Ba9  1  -0.10008585  0.16477663  0.26582936  1
  Ba  Ba10  1  -0.04915661  0.23178390  0.04903141  1
  Ba  Ba11  1  0.58650706  0.33821738  0.77965908  1
  Ba  Ba12  1  0.76535830  -0.07604697  0.74999592  1
  Ba  Ba13  1  0.11051843  0.18873193  0.49026136  1
  Ba  Ba14  1  0.61041776  -0.01511945  0.06176646  1
  Ba  Ba15  1  0.67358758  0.30954968  0.56110222  1
  Ba  Ba16  1  0.71627487  0.75336194  -0.04643290  1
  Ba  Ba17  1  0.46933584  0.86858441  0.42496646  1
  Ba  Ba18  1  0.66141143  0.72924819  0.27550156  1
  Ba  Ba19  1  0.22651385  -0.04275293  0.48917472  1
  Ba  Ba20  1  -0.03172835  0.74029022  0.50947793  1
  Ba  Ba21  1  0.43261651  0.46708408  0.08304145  1
  Ba  Ba22  1  0.88329140  0.37075556  0.43042419  1
  Ba  Ba23  1  0.02314924  0.21268283  0.76893043  1
  Ba  Ba24  1  0.78679146  0.13665885  0.68600531  1
  Ba  Ba25  1  0.21726467  -0.03588335  0.76725823  1
  Ba  Ba26  1  0.32499389  0.70331148  0.62716988  1
  Ba  Ba27  1  0.28344653  0.22674388  0.74469569  1
  Ba  Ba28  1  -0.03781126  0.79443211  0.76376851  1
  Ba  Ba29  1  0.36136012  0.45678714  0.71068782  1
  Ba  Ba30  1  0.58225322  0.54939103  0.89207933  1
  Ba  Ba31  1  0.49866818  0.06433603  0.75422693  1
  Ba  Ba32  1  0.00080366  0.01461592  -0.03123818  1
  Ba  Ba33  1  0.00367748  0.49132466  -0.04021814  1
  Ba  Ba34  1  0.46350252  0.12538317  0.50300782  1
  Ba  Ba35  1  0.80352711  0.32747052  -0.11545603  1
  Ba  Ba36  1  0.56693691  0.77681675  0.67242292  1
  Ba  Ba37  1  0.54620604  0.30263996  0.23666435  1
  Ba  Ba38  1  -0.03418663  0.52405672  0.58259284  1
  Ba  Ba39  1  0.42563287  0.64741163  0.24523120  1
  Ba  Ba40  1  0.70304483  0.59348515  0.49947645  1
  Ba  Ba41  1  0.04166346  -0.07646652  0.19417375  1
  Ba  Ba42  1  0.73964050  -0.04115309  0.24177755  1
  Ba  Ba43  1  -0.04108922  0.44263967  0.19653197  1
  Ba  Ba44  1  0.26631147  0.56991481  0.41515312  1
  Ba  Ba45  1  0.45097656  0.06763701  0.25418491  1
  Ba  Ba46  1  -0.00376943  0.67609952  0.24467584  1
  Ba  Ba47  1  0.09150000  0.42207964  0.77174330  1
  Ba  Ba48  1  0.54157804  0.20086006  -0.01437116  1
  Ba  Ba49  1  0.76277547  0.90022426  0.48467898  1
  Ba  Ba50  1  0.15575416  0.32087326  0.29157225  1
  Fe  Fe51  1  0.13265726  0.52194777  0.10616802  1
  Fe  Fe52  1  0.76973094  0.32134706  0.15065647  1
  Fe  Fe53  1  0.81653020  0.40240782  0.06147249  1
  Fe  Fe54  1  0.88998247  0.57182779  0.37293285  1
  Fe  Fe55  1  0.17463600  0.74249063  0.78235130  1
  Fe  Fe56  1  0.68063399  0.07475898  0.87358519  1
  Fe  Fe57  1  0.09623912  0.06423421  0.64202239  1
  Fe  Fe58  1  0.81881224  0.76815036  0.15887164  1
  Fe  Fe59  1  0.81535839  0.06931281  0.04594161  1
  Fe  Fe60  1  1.03999594  0.33941282  0.59410065  1
  Fe  Fe61  1  0.19706389  0.80077847  0.21507046  1
  Fe  Fe62  1  0.91023572  0.95152202  0.61198778  1
  Fe  Fe63  1  0.48756723  0.48883824  0.39095126  1
  Fe  Fe64  1  0.08520939  0.66136774  0.68978837  1
  Fe  Fe65  1  0.45898986  0.26031142  0.64118197  1
  Fe  Fe66  1  0.85681782  0.61894701  0.84631151  1
  Fe  Fe67  1  0.16959582  0.59488367  0.76458232  1
  Fe  Fe68  1  0.22441532  0.33834036  0.90617631  1
  Fe  Fe69  1  0.10160823  0.66550307  0.86411211  1
  Fe  Fe70  1  0.48872911  0.37844477  0.59689266  1
  Fe  Fe71  1  0.83500340  0.10631975  0.89553024  1
  Fe  Fe72  1  0.24838780  0.13784707  0.34342495  1
  Fe  Fe73  1  0.11762853  0.37844232  0.10248277  1
  Fe  Fe74  1  0.76360577  0.48565964  0.69269593  1
  Fe  Fe75  1  0.73657792  0.28517433  0.28333011  1
  Fe  Fe76  1  0.77360537  1.07733736  0.38982218  1
  Fe  Fe77  1  0.62521416  1.03996264  0.40841770  1
  Fe  Fe78  1  0.20865203  0.42995097  0.01751398  1
  Fe  Fe79  1  0.27574129  0.77093456  0.31694964  1
  Fe  Fe80  1  0.66042626  0.14758326  0.32425398  1
  Fe  Fe81  1  0.55809921  0.45081621  0.49747727  1
  Fe  Fe82  1  0.11646693  0.40447083  0.49893568  1
  Fe  Fe83  1  0.17494626  0.35323684  0.60871874  1
  Fe  Fe84  1  0.89255501  0.48634071  0.77614414  1
  Fe  Fe85  1  0.76350270  0.51553812  0.82553966  1
  Fe  Fe86  1  0.23659057  0.46325973  0.16449809  1
  Fe  Fe87  1  0.96634385  0.07381907  0.60341206  1
  Fe  Fe88  1  0.72396685  0.62415284  0.74631744  1
  Fe  Fe89  1  0.99832098  0.59879442  0.78687356  1
  Fe  Fe90  1  0.33290041  0.83285412  0.19505105  1
  Fe  Fe91  1  0.73482639  0.14897402  -0.02254609  1
  Fe  Fe92  1  0.11127009  0.32158959  0.97079753  1
  Fe  Fe93  1  0.04555479  0.94281936  0.60881095  1
  Fe  Fe94  1  0.76225929  0.99106807  0.93923515  1
  Fe  Fe95  1  0.10220969  0.13208084  0.19807180  1
  Fe  Fe96  1  0.12758970  0.07633607  0.31423713  1
  Fe  Fe97  1  0.74433258  0.22445355  0.40386024  1
  Fe  Fe98  1  0.44573701  0.51166452  0.53329993  1
  Fe  Fe99  1  0.23443433  0.11367320  0.21462221  1
  Fe  Fe100  1  0.85928993  0.60977736  0.71033551  1
  Fe  Fe101  1  0.69562084  0.12209628  0.49043246  1
  Bi  Bi102  1  0.36308869  0.41883422  0.27909175  1
  Bi  Bi103  1  0.70577273  0.15990599  0.15001350  1
  Bi  Bi104  1  0.87423232  0.34734292  0.67179998  1
  Bi  Bi105  1  0.26147593  -0.03935544  0.27790271  1
  Bi  Bi106  1  0.20720906  0.62479392  0.22220193  1
  Bi  Bi107  1  0.80052870  0.55189967  -0.01033767  1
  Bi  Bi108  1  0.78292277  0.74132918  0.63422262  1
  Bi  Bi109  1  0.14172003  0.80949500  0.63008218  1
  Bi  Bi110  1  -0.02643613  0.00932185  0.75938818  1
  Bi  Bi111  1  0.84168799  -0.09896994  0.06508351  1
  Bi  Bi112  1  0.18572010  0.52730174  0.60834072  1
  Bi  Bi113  1  0.87890375  0.16217475  0.49135858  1
  Bi  Bi114  1  0.58332998  0.51915016  0.66315741  1
  Bi  Bi115  1  0.39766648  0.92085954  0.62306544  1
  Bi  Bi116  1  0.64447351  0.38169289  0.03639508  1
  Bi  Bi117  1  0.57599807  0.64276085  0.08749281  1
  Bi  Bi118  1  0.66297079  0.41670146  0.37315348  1
  Bi  Bi119  1  0.49031632  0.65552653  0.45665331  1
  Bi  Bi120  1  0.11592723  0.80397677  0.36932285  1
  Bi  Bi121  1  0.16694313  0.16540037  0.92690056  1
  Bi  Bi122  1  0.12191099  0.84214385  0.91493680  1
  Bi  Bi123  1  0.39832601  0.35363157  0.90018311  1
  Bi  Bi124  1  0.61705353  1.00450183  0.58608870  1
  Bi  Bi125  1  0.04738583  0.51292471  0.38138634  1
  Bi  Bi126  1  0.59347091  0.91552618  0.86881314  1
  Bi  Bi127  1  0.50647692  0.86423851  0.20995372  1
