# generated using pymatgen
data_Ba51Fe51Bi26
_symmetry_space_group_name_H-M   'P 1'
_cell_length_a   16.01298902
_cell_length_b   16.96334084
_cell_length_c   16.36035541
_cell_angle_alpha   91.22800607
_cell_angle_beta   88.15375927
_cell_angle_gamma   93.20793959
_symmetry_Int_Tables_number   1
_chemical_formula_structural   Ba51Fe51Bi26
_chemical_formula_sum   'Ba51 Fe51 Bi26'
_cell_volume   4433.90036665
_cell_formula_units_Z   1
loop_
 _symmetry_equiv_pos_site_id
 _symmetry_equiv_pos_as_xyz
  1  'x, y, z'
loop_
 _atom_site_type_symbol
 _atom_site_label
 _atom_site_symmetry_multiplicity
 _atom_site_fract_x
 _atom_site_fract_y
 _atom_site_fract_z
 _atom_site_occupancy
  Ba  Ba0  1  0.49114399  0.01740069  0.27125957  1
  Ba  Ba1  1  -0.10403423  0.04933797  0.38518558  1
  Ba  Ba2  1  0.57222609  0.44666390  0.83487664  1
  Ba  Ba3  1  0.71916350  0.24982188  0.45397844  1
  Ba  Ba4  1  0.39383436  0.20828467  0.54035413  1
  Ba  Ba5  1  0.52755814  0.70198976  0.57249807  1
  Ba  Ba6  1  0.71487963  0.56329682  0.05918779  1
  Ba  Ba7  1  0.03811890  0.56766296  0.30407945  1
  Ba  Ba8  1  0.39137342  0.25629964  0.21587401  1
  Ba  Ba9  1  0.54780143  0.68598269  0.85670108  1
  Ba  Ba10  1  -0.03311285  -0.02364760  0.59639624  1
  Ba  Ba11  1  0.85208036  0.30335106  0.10996305  1
  Ba  Ba12  1  0.72442747  0.03421625  0.16126466  1
  Ba  Ba13  1  0.50878138  0.45338694  0.56838612  1
  Ba  Ba14  1  0.40590071  -0.06189082  0.51680102  1
  Ba  Ba15  1  0.65565693  -0.03911365  0.66678825  1
  Ba  Ba16  1  0.83404810  0.52654592  0.75702757  1
  Ba  Ba17  1  0.24310917  -0.01192046  0.15641115  1
  Ba  Ba18  1  0.20880836  0.79486931  0.34585006  1
  Ba  Ba19  1  0.84055588  0.04907975  -0.13791908  1
  Ba  Ba20  1  0.24496133  0.18696705  0.74289749  1
  Ba  Ba21  1  -0.00056436  0.78286306  0.16094605  1
  Ba  Ba22  1  0.48357099  0.76195796  0.26959306  1
  Ba  Ba23  1  -0.02543554  0.25494605  0.47433990  1
  Ba  Ba24  1  0.76639882  0.74573258  0.64368505  1
  Ba  Ba25  1  -0.07172607  0.50916821  0.53337451  1
  Ba  Ba26  1  0.18592221  -0.06060247  0.73628216  1
  Ba  Ba27  1  0.29562706  0.47814928  0.73105487  1
  Ba  Ba28  1  0.07805962  0.35630784  0.74007672  1
  Ba  Ba29  1  -0.00778305  0.09480623  0.16834930  1
  Ba  Ba30  1  0.07313310  0.00392663  -0.03835350  1
  Ba  Ba31  1  0.40978822  -0.15985382  0.76412913  1
  Ba  Ba32  1  0.66269487  0.42263256  0.26999266  1
  Ba  Ba33  1  -0.09413834  0.78363920  0.40164386  1
  Ba  Ba34  1  0.22344623  0.67773126  0.85374999  1
  Ba  Ba35  1  0.17215292  0.08561101  0.43095700  1
  Ba  Ba36  1  0.72510936  0.84024479  -0.06216632  1
  Ba  Ba37  1  0.47736661  0.56188092  0.37389418  1
  Ba  Ba38  1  0.62310013  0.24050615  0.04923175  1
  Ba  Ba39  1  0.31213981  0.24112513  -0.03307780  1
  Ba  Ba40  1  0.58729749  0.07966661  -0.12219490  1
  Ba  Ba41  1  0.74154612  0.80924420  0.19913178  1
  Ba  Ba42  1  0.06773004  0.36557685  0.18474013  1
  Ba  Ba43  1  -0.01740781  0.50192209  -0.04061411  1
  Ba  Ba44  1  -0.00955267  0.76124934  -0.08542651  1
  Ba  Ba45  1  0.60901979  0.20423845  0.67319650  1
  Ba  Ba46  1  0.33145143  0.71541124  0.08043116  1
  Ba  Ba47  1  0.26604201  0.47851302  0.08226357  1
  Ba  Ba48  1  0.35347487  -0.00451139  -0.07641058  1
  Ba  Ba49  1  0.22392471  0.48341321  0.46740343  1
  Ba  Ba50  1  0.03609035  0.72992837  0.64747152  1
  Fe  Fe51  1  0.40636567  0.56874880  0.18782063  1
  Fe  Fe52  1  0.70906780  0.56021530  0.57775103  1
  Fe  Fe53  1  0.72358888  0.02848491  0.48311739  1
  Fe  Fe54  1  0.34636649  0.45637189  0.26252098  1
  Fe  Fe55  1  0.61884190  0.92456887  0.47038320  1
  Fe  Fe56  1  -0.06326982  0.18518215  0.68540443  1
  Fe  Fe57  1  0.08156811  0.20688543  0.89821313  1
  Fe  Fe58  1  0.06754329  0.23404782  0.02979572  1
  Fe  Fe59  1  0.56825165  -0.00855232  0.05187833  1
  Fe  Fe60  1  0.33740581  0.61306980  0.55564247  1
  Fe  Fe61  1  -0.02657958  0.30764144  0.94131794  1
  Fe  Fe62  1  0.54346388  0.57943547  0.17288556  1
  Fe  Fe63  1  0.62078608  0.89805224  0.33722349  1
  Fe  Fe64  1  0.47055564  0.45237520  0.17545941  1
  Fe  Fe65  1  0.75442772  0.91826478  0.36965808  1
  Fe  Fe66  1  0.47490016  0.81802640  0.99769335  1
  Fe  Fe67  1  0.54227408  0.91167050  0.94089416  1
  Fe  Fe68  1  0.24719994  0.27282375  0.39849720  1
  Fe  Fe69  1  0.68400555  0.25723968  0.85819691  1
  Fe  Fe70  1  0.48325589  0.54349438  1.05290838  1
  Fe  Fe71  1  0.80535041  0.21215828  0.76228100  1
  Fe  Fe72  1  0.82063955  0.24337976  0.91300073  1
  Fe  Fe73  1  0.33832982  0.68193956  0.43934910  1
  Fe  Fe74  1  1.08376571  0.56826544  0.74870274  1
  Fe  Fe75  1  0.24355580  0.36112936  0.28775770  1
  Fe  Fe76  1  0.84306667  0.63453794  0.25629076  1
  Fe  Fe77  1  0.14095381  0.23327126  0.30413155  1
  Fe  Fe78  1  0.75267753  0.34014735  0.77370372  1
  Fe  Fe79  1  0.44384182  0.92667341  0.07763433  1
  Fe  Fe80  1  0.94429669  0.18048206  -0.02325280  1
  Fe  Fe81  1  0.95009922  0.21308328  0.82692326  1
  Fe  Fe82  1  0.21362000  0.68720810  0.53401580  1
  Fe  Fe83  1  0.73794837  0.47682325  0.46659753  1
  Fe  Fe84  1  0.33854891  0.76546137  0.54614158  1
  Fe  Fe85  1  0.67261335  0.02596469  0.35936546  1
  Fe  Fe86  1  0.20371488  0.62191405  0.65846318  1
  Fe  Fe87  1  0.52822707  0.26350349  0.87233040  1
  Fe  Fe88  1  0.76232031  0.90569308  0.50220304  1
  Fe  Fe89  1  0.78850241  0.62993557  0.48689623  1
  Fe  Fe90  1  0.33976232  0.68381736  0.66777477  1
  Fe  Fe91  1  0.10043377  0.52748669  0.62956909  1
  Fe  Fe92  1  0.06013935  0.17119409  0.62894019  1
  Fe  Fe93  1  0.44061583  0.18061405  0.81616621  1
  Fe  Fe94  1  0.16287179  0.81269477  0.02249878  1
  Fe  Fe95  1  0.80700185  0.55842102  0.35975225  1
  Fe  Fe96  1  0.20582416  0.86088778  0.91316044  1
  Fe  Fe97  1  0.24264369  0.76754338  0.65316619  1
  Fe  Fe98  1  0.66596318  0.58903771  0.43861692  1
  Fe  Fe99  1  0.88587517  0.33754974  0.82510917  1
  Fe  Fe100  1  0.57922812  0.86908301  0.08744337  1
  Fe  Fe101  1  0.13018002  0.33624815  0.38494665  1
  Bi  Bi102  1  0.56994741  0.70681027  0.06817628  1
  Bi  Bi103  1  0.76205388  0.39936422  0.93712849  1
  Bi  Bi104  1  0.56351615  0.08769967  0.47804529  1
  Bi  Bi105  1  0.14440606  0.36436850  -0.05664173  1
  Bi  Bi106  1  0.68184291  0.77086411  0.43371714  1
  Bi  Bi107  1  0.67091434  0.62682975  0.27185015  1
  Bi  Bi108  1  0.69934974  0.40374114  0.62525089  1
  Bi  Bi109  1  0.47600981  0.37749638  0.02314610  1
  Bi  Bi110  1  0.04751586  0.09055295  0.77123227  1
  Bi  Bi111  1  0.18705040  0.19217492  0.14480481  1
  Bi  Bi112  1  0.18392713  0.86898624  0.53949978  1
  Bi  Bi113  1  0.27429299  0.60746951  0.28958199  1
  Bi  Bi114  1  0.17963760  0.27669939  0.55687532  1
  Bi  Bi115  1  0.06355930  0.94121424  0.29987353  1
  Bi  Bi116  1  0.89508990  0.86799460  0.76804766  1
  Bi  Bi117  1  0.11862670  0.65017511  0.05261058  1
  Bi  Bi118  1  0.88746149  0.50626756  0.16490830  1
  Bi  Bi119  1  0.86327506  0.39903502  0.35785854  1
  Bi  Bi120  1  0.38681682  0.55784547  0.91465066  1
  Bi  Bi121  1  0.44921859  0.09978823  0.08212949  1
  Bi  Bi122  1  0.88534129  0.92535775  0.05776762  1
  Bi  Bi123  1  0.41871118  0.04419797  0.71334314  1
  Bi  Bi124  1  0.39580144  0.36686708  0.39600719  1
  Bi  Bi125  1  0.88232159  0.33539694  0.65401767  1
  Bi  Bi126  1  0.42856488  0.31759608  0.73270674  1
  Bi  Bi127  1  0.80635568  0.11700213  0.60091508  1
