# generated using pymatgen
data_Ba51Fe51Bi26
_symmetry_space_group_name_H-M   'P 1'
_cell_length_a   16.13939754
_cell_length_b   16.63652599
_cell_length_c   16.56660074
_cell_angle_alpha   92.00050453
_cell_angle_beta   96.80381534
_cell_angle_gamma   90.19279185
_symmetry_Int_Tables_number   1
_chemical_formula_structural   Ba51Fe51Bi26
_chemical_formula_sum   'Ba51 Fe51 Bi26'
_cell_volume   4414.04647374
_cell_formula_units_Z   1
loop_
 _symmetry_equiv_pos_site_id
 _symmetry_equiv_pos_as_xyz
  1  'x, y, z'
loop_
 _atom_site_type_symbol
 _atom_site_label
 _atom_site_symmetry_multiplicity
 _atom_site_fract_x
 _atom_site_fract_y
 _atom_site_fract_z
 _atom_site_occupancy
  Ba  Ba0  1  0.48181143  0.95056122  0.35110028  1
  Ba  Ba1  1  0.59457576  0.33726850  0.59127543  1
  Ba  Ba2  1  0.69248395  0.86838008  0.74123204  1
  Ba  Ba3  1  0.72775138  0.00231236  0.26468234  1
  Ba  Ba4  1  0.67744043  0.76593852  0.32490522  1
  Ba  Ba5  1  -0.06876874  0.17345954  0.70169993  1
  Ba  Ba6  1  0.42197003  -0.02831986  0.75936636  1
  Ba  Ba7  1  -0.08107792  0.75642854  0.66882681  1
  Ba  Ba8  1  0.14748130  0.77325001  -0.12238765  1
  Ba  Ba9  1  0.80710226  0.24461651  0.41316262  1
  Ba  Ba10  1  0.32095939  0.67133630  0.72259117  1
  Ba  Ba11  1  0.09508341  0.17035234  -0.02737275  1
  Ba  Ba12  1  0.17172178  0.16879060  0.72494886  1
  Ba  Ba13  1  0.13258460  0.13855462  0.42523626  1
  Ba  Ba14  1  0.04080536  -0.06703989  0.21771914  1
  Ba  Ba15  1  0.25790874  0.59876908  0.29909790  1
  Ba  Ba16  1  -0.06336205  0.80033608  -0.01248512  1
  Ba  Ba17  1  0.19735218  -0.05147792  0.78112139  1
  Ba  Ba18  1  0.46914349  0.24565844  0.77752541  1
  Ba  Ba19  1  0.82511807  -0.01351694  0.51944106  1
  Ba  Ba20  1  -0.08036539  0.19065379  0.19635767  1
  Ba  Ba21  1  -0.02152334  0.43869444  0.30715220  1
  Ba  Ba22  1  0.23960672  0.56712642  0.00413674  1
  Ba  Ba23  1  0.16659616  0.31218739  0.25236623  1
  Ba  Ba24  1  0.27692661  0.43030484  0.76700592  1
  Ba  Ba25  1  0.46470467  0.70625947  0.06332419  1
  Ba  Ba26  1  0.24530757  -0.00419298  0.03136253  1
  Ba  Ba27  1  0.33740301  0.29451937  0.02185999  1
  Ba  Ba28  1  0.05539557  0.36981565  0.55691383  1
  Ba  Ba29  1  0.38107169  0.14637279  0.48930857  1
  Ba  Ba30  1  0.72412560  -0.04831252  -0.00601385  1
  Ba  Ba31  1  0.55835178  0.66550862  0.77619631  1
  Ba  Ba32  1  0.74557904  0.50897369  0.73666612  1
  Ba  Ba33  1  0.02590762  0.54437860  0.82631482  1
  Ba  Ba34  1  0.05975558  0.62375971  0.49548845  1
  Ba  Ba35  1  0.76142456  0.47526712  -0.01273144  1
  Ba  Ba36  1  -0.07910600  0.35271179  -0.09138748  1
  Ba  Ba37  1  0.76890828  0.53985850  0.46440994  1
  Ba  Ba38  1  0.04296907  0.66951428  0.16860155  1
  Ba  Ba39  1  0.50670251  0.62081055  0.50394432  1
  Ba  Ba40  1  0.30297130  0.75976176  0.46132055  1
  Ba  Ba41  1  0.52810500  0.51677249  0.25875439  1
  Ba  Ba42  1  0.48683125  0.01906579  -0.00361467  1
  Ba  Ba43  1  0.07930447  -0.10946367  0.47259353  1
  Ba  Ba44  1  0.41549043  0.33110683  0.34327340  1
  Ba  Ba45  1  0.81594679  0.60295909  0.22581596  1
  Ba  Ba46  1  0.70265854  0.70010426  0.01164525  1
  Ba  Ba47  1  0.57190614  0.02366006  0.59021604  1
  Ba  Ba48  1  0.58191620  0.32841606  0.03886738  1
  Ba  Ba49  1  0.78168778  0.19273810  -0.03200750  1
  Ba  Ba50  1  0.29348116  0.83554797  0.19941115  1
  Fe  Fe51  1  0.94587101  0.77070486  0.30778643  1
  Fe  Fe52  1  0.18020684  0.47473921  0.42131396  1
  Fe  Fe53  1  0.42619897  1.14523794  0.27576697  1
  Fe  Fe54  1  0.41814506  1.03738975  0.17385747  1
  Fe  Fe55  1  0.38058936  0.40515963  0.55627723  1
  Fe  Fe56  1  -0.07176128  0.07699860  0.88699233  1
  Fe  Fe57  1  0.55393916  1.10473510  0.22602855  1
  Fe  Fe58  1  0.74153630  0.28802912  0.16830100  1
  Fe  Fe59  1  -0.01403393  0.89573788  0.80991152  1
  Fe  Fe60  1  0.67505388  0.21231787  0.25921787  1
  Fe  Fe61  1  -0.00571524  0.37921281  0.10542027  1
  Fe  Fe62  1  0.53573560  0.24753452  0.22256807  1
  Fe  Fe63  1  0.64311036  0.35115414  0.26361895  1
  Fe  Fe64  1  0.57816073  0.47316123  0.85218259  1
  Fe  Fe65  1  0.87546588  0.98847938  0.74904757  1
  Fe  Fe66  1  0.10230641  0.47537143  0.14306332  1
  Fe  Fe67  1  0.02278518  0.50393616  1.02146976  1
  Fe  Fe68  1  0.25628605  0.36936021  0.45355346  1
  Fe  Fe69  1  0.78913541  0.06197252  0.83065258  1
  Fe  Fe70  1  0.73761191  0.81008724  0.53072327  1
  Fe  Fe71  1  0.82099165  0.36662896  0.60298094  1
  Fe  Fe72  1  0.56828692  0.54760958  0.96836346  1
  Fe  Fe73  1  0.78059793  0.37239545  0.27386496  1
  Fe  Fe74  1  0.01885212  0.02748416  -0.19003636  1
  Fe  Fe75  1  0.88159958  0.94885523  0.88231228  1
  Fe  Fe76  1  0.90987078  0.38234140  0.70943157  1
  Fe  Fe77  1  0.72096710  0.18420177  0.75589733  1
  Fe  Fe78  1  0.92266832  0.58923284  1.01981790  1
  Fe  Fe79  1  0.28585124  0.14272437  0.30521169  1
  Fe  Fe80  1  0.25820248  0.57446390  0.50283498  1
  Fe  Fe81  1  0.36661700  0.82360128  0.89413116  1
  Fe  Fe82  1  0.88648241  0.87871605  0.33643530  1
  Fe  Fe83  1  0.70818888  0.44023351  0.16769416  1
  Fe  Fe84  1  0.28955750  0.86832925  0.61930346  1
  Fe  Fe85  1  0.31530667  0.15529289  0.16376323  1
  Fe  Fe86  1  0.65139721  0.89841526  0.46725532  1
  Fe  Fe87  1  0.44495352  0.55341824  0.87884443  1
  Fe  Fe88  1  0.45685877  0.16463094  0.12612284  1
  Fe  Fe89  1  0.33827248  0.48585010  0.44395363  1
  Fe  Fe90  1  0.93915029  0.49961795  0.12518314  1
  Fe  Fe91  1  0.85026384  0.38266807  0.14609701  1
  Fe  Fe92  1  0.23634721  0.46054287  0.56511166  1
  Fe  Fe93  1  0.74795551  0.06065953  0.70030524  1
  Fe  Fe94  1  0.46430394  0.42713702  0.89679071  1
  Fe  Fe95  1  0.03416644  0.96548335  -0.06749186  1
  Fe  Fe96  1  0.78217728  0.30391712  0.71525235  1
  Fe  Fe97  1  0.62321686  0.53743665  0.09936148  1
  Fe  Fe98  1  0.35984285  -0.06787561  0.53826968  1
  Fe  Fe99  1  0.30211933  1.03232684  0.23678041  1
  Fe  Fe100  1  0.36375008  0.53542723  0.59009723  1
  Fe  Fe101  1  0.60077624  0.80844276  0.53898878  1
  Bi  Bi102  1  0.46053266  0.81109090  0.62580336  1
  Bi  Bi103  1  0.61650275  0.06974230  0.81791310  1
  Bi  Bi104  1  0.26629203  -0.03473877  0.37753899  1
  Bi  Bi105  1  0.57811232  0.16601085  0.38643226  1
  Bi  Bi106  1  0.00396399  -0.03646546  0.65454721  1
  Bi  Bi107  1  0.27077702  0.28849051  0.59752364  1
  Bi  Bi108  1  0.67286015  0.33215642  0.83162451  1
  Bi  Bi109  1  -0.07023305  0.02673792  0.04501259  1
  Bi  Bi110  1  0.87353225  0.74729094  0.44837636  1
  Bi  Bi111  1  0.44687872  0.49388972  0.05357697  1
  Bi  Bi112  1  0.14704455  0.11220094  0.18570746  1
  Bi  Bi113  1  0.65302432  0.13651532  0.10777468  1
  Bi  Bi114  1  0.47553272  0.47142872  0.70763574  1
  Bi  Bi115  1  0.13255461  0.37823113  1.00666308  1
  Bi  Bi116  1  0.31935156  0.12266454  0.88509555  1
  Bi  Bi117  1  0.29029851  0.44535600  0.17226832  1
  Bi  Bi118  1  0.45092949  0.71941124  0.30028546  1
  Bi  Bi119  1  0.07184211  0.34283977  0.77289636  1
  Bi  Bi120  1  0.53697970  0.82789428  0.91091083  1
  Bi  Bi121  1  0.69743152  0.67955436  0.61912864  1
  Bi  Bi122  1  0.83398585  0.81347455  0.17137473  1
  Bi  Bi123  1  0.24373396  0.02927778  0.59405876  1
  Bi  Bi124  1  0.73385009  0.18067141  0.58868835  1
  Bi  Bi125  1  0.93259123  0.04687637  0.35822373  1
  Bi  Bi126  1  0.14861846  0.77294785  0.64651446  1
  Bi  Bi127  1  0.92466708  0.52438356  0.62450484  1
