# generated using pymatgen
data_Ba51Fe51Bi26
_symmetry_space_group_name_H-M   'P 1'
_cell_length_a   16.27557217
_cell_length_b   16.17864619
_cell_length_c   16.56069604
_cell_angle_alpha   90.92836089
_cell_angle_beta   91.00284613
_cell_angle_gamma   88.15301312
_symmetry_Int_Tables_number   1
_chemical_formula_structural   Ba51Fe51Bi26
_chemical_formula_sum   'Ba51 Fe51 Bi26'
_cell_volume   4357.24148638
_cell_formula_units_Z   1
loop_
 _symmetry_equiv_pos_site_id
 _symmetry_equiv_pos_as_xyz
  1  'x, y, z'
loop_
 _atom_site_type_symbol
 _atom_site_label
 _atom_site_symmetry_multiplicity
 _atom_site_fract_x
 _atom_site_fract_y
 _atom_site_fract_z
 _atom_site_occupancy
  Ba  Ba0  1  0.16205680  0.03548680  -0.04681361  1
  Ba  Ba1  1  0.11000842  0.46228966  0.28321784  1
  Ba  Ba2  1  -0.01796208  0.66048831  -0.02061341  1
  Ba  Ba3  1  0.61834663  0.40213178  0.46563681  1
  Ba  Ba4  1  0.20165967  -0.05157806  0.32449684  1
  Ba  Ba5  1  0.01793892  0.69703525  0.36028931  1
  Ba  Ba6  1  0.33620172  0.44125230  0.19847807  1
  Ba  Ba7  1  0.51267082  0.71628734  0.22275005  1
  Ba  Ba8  1  0.81646538  0.77435447  0.48548011  1
  Ba  Ba9  1  0.67917253  0.29552646  0.05494738  1
  Ba  Ba10  1  -0.02219663  0.44565330  0.78375989  1
  Ba  Ba11  1  0.86638763  0.52245921  0.15898235  1
  Ba  Ba12  1  0.00565926  0.55437335  0.55907576  1
  Ba  Ba13  1  0.29389462  -0.13072404  0.53808173  1
  Ba  Ba14  1  0.63323092  0.53049772  -0.06078732  1
  Ba  Ba15  1  0.71094042  0.03421002  -0.00022903  1
  Ba  Ba16  1  0.44967648  0.71991440  -0.07000240  1
  Ba  Ba17  1  0.76941541  0.78417314  0.15526447  1
  Ba  Ba18  1  0.07173089  0.43538411  -0.00333809  1
  Ba  Ba19  1  0.02297576  0.30793157  0.53626550  1
  Ba  Ba20  1  0.28682049  0.46994361  0.50660827  1
  Ba  Ba21  1  0.67494948  0.85108136  0.69312490  1
  Ba  Ba22  1  0.00866865  0.03874487  0.75567739  1
  Ba  Ba23  1  0.40154937  0.82604598  0.72562081  1
  Ba  Ba24  1  0.30278880  0.15693967  0.13802735  1
  Ba  Ba25  1  0.03057816  0.83326096  0.16791631  1
  Ba  Ba26  1  0.48267423  0.48659517  0.69933852  1
  Ba  Ba27  1  -0.04617920  0.75060411  0.74311726  1
  Ba  Ba28  1  0.09548061  0.17914113  0.28434361  1
  Ba  Ba29  1  0.83540627  0.28087579  0.30663256  1
  Ba  Ba30  1  0.53000097  0.69441740  0.49100756  1
  Ba  Ba31  1  -0.17832901  -0.00835886  0.35563626  1
  Ba  Ba32  1  0.27793739  0.67645280  0.37403439  1
  Ba  Ba33  1  0.71590046  0.77686630  -0.09210723  1
  Ba  Ba34  1  0.19942009  0.56606149  0.74230937  1
  Ba  Ba35  1  0.74574902  0.57662961  0.63321253  1
  Ba  Ba36  1  0.77077678  0.20139246  0.55476542  1
  Ba  Ba37  1  0.17289051  0.78479100  0.89098678  1
  Ba  Ba38  1  0.27899595  0.14955428  0.78414081  1
  Ba  Ba39  1  0.73524624  0.37487373  0.77461158  1
  Ba  Ba40  1  0.55775010  -0.03508789  0.47821700  1
  Ba  Ba41  1  0.50176345  0.25851160  0.25582771  1
  Ba  Ba42  1  0.78144172  0.06746747  0.76348494  1
  Ba  Ba43  1  0.58001353  -0.01473461  0.22671059  1
  Ba  Ba44  1  -0.06433125  0.22037719  -0.03160001  1
  Ba  Ba45  1  0.32083935  0.83769365  0.12743380  1
  Ba  Ba46  1  0.32671626  0.43772438  -0.05503681  1
  Ba  Ba47  1  0.60423808  0.48652159  0.22115393  1
  Ba  Ba48  1  0.14040668  0.05463202  0.54450885  1
  Ba  Ba49  1  0.27899182  0.24284820  0.56309009  1
  Ba  Ba50  1  0.48377046  0.18958300  0.48094122  1
  Fe  Fe51  1  0.89546044  0.83382203  -0.01165426  1
  Fe  Fe52  1  -0.01820547  0.88124415  0.87897475  1
  Fe  Fe53  1  0.02145141  0.90983651  -0.00115345  1
  Fe  Fe54  1  0.84874124  0.58542526  0.44873532  1
  Fe  Fe55  1  0.05724575  0.89791639  0.61342589  1
  Fe  Fe56  1  0.14335044  0.34889015  0.69893324  1
  Fe  Fe57  1  0.52456548  0.98463983  0.71324328  1
  Fe  Fe58  1  0.16120750  0.31466742  0.12462237  1
  Fe  Fe59  1  0.11478084  0.82212999  0.49030418  1
  Fe  Fe60  1  0.98914894  0.90350410  0.47639202  1
  Fe  Fe61  1  0.91444195  -0.11088030  0.60899337  1
  Fe  Fe62  1  0.43772760  0.98461944  0.05256868  1
  Fe  Fe63  1  0.52200910  0.00687953  -0.04927129  1
  Fe  Fe64  1  0.26747325  0.62726092  1.02034631  1
  Fe  Fe65  1  0.77141036  0.50445210  0.33414116  1
  Fe  Fe66  1  0.82531811  0.64305111  0.32411399  1
  Fe  Fe67  1  0.01168619  0.77054615  0.55816547  1
  Fe  Fe68  1  0.86491125  0.38081737  0.63516720  1
  Fe  Fe69  1  0.16637404  0.70127859  0.07712432  1
  Fe  Fe70  1  0.46105921  0.27501313  0.80966965  1
  Fe  Fe71  1  0.17748159  0.35018263  0.82500386  1
  Fe  Fe72  1  0.49604931  0.15219328  0.89723411  1
  Fe  Fe73  1  0.41968586  0.37060692  0.39771346  1
  Fe  Fe74  1  0.51657216  0.31550285  0.93272428  1
  Fe  Fe75  1  0.29954590  0.63918969  0.14839623  1
  Fe  Fe76  1  0.27285346  0.13306568  0.39208193  1
  Fe  Fe77  1  0.14683369  0.69125868  0.53946627  1
  Fe  Fe78  1  1.07426889  0.61575602  0.15127709  1
  Fe  Fe79  1  0.71347247  0.58550264  0.43107810  1
  Fe  Fe80  1  0.44750774  0.29125468  0.06148471  1
  Fe  Fe81  1  0.69127451  0.64257484  0.31441633  1
  Fe  Fe82  1  0.59505285  0.09024977  0.66659306  1
  Fe  Fe83  1  0.49102920  0.14317541  0.74460103  1
  Fe  Fe84  1  0.17965071  0.67189634  0.20899574  1
  Fe  Fe85  1  0.50406142  0.40569143  0.04466247  1
  Fe  Fe86  1  0.38832122  0.23711930  0.94705955  1
  Fe  Fe87  1  0.38452744  0.08378679  -0.03748121  1
  Fe  Fe88  1  0.88610629  -0.04906181  0.05218988  1
  Fe  Fe89  1  0.18645432  0.55031790  1.10837406  1
  Fe  Fe90  1  0.93912285  0.01727478  0.94595619  1
  Fe  Fe91  1  0.09786959  0.20848969  0.08757359  1
  Fe  Fe92  1  0.43772360  1.02734270  0.82690240  1
  Fe  Fe93  1  0.85106824  0.92499957  0.89579837  1
  Fe  Fe94  1  0.33960044  0.04229668  0.45897192  1
  Fe  Fe95  1  0.54009567  0.91437640  0.85015117  1
  Fe  Fe96  1  0.59240232  0.04929878  0.82016379  1
  Fe  Fe97  1  0.90968380  0.51311711  0.35403374  1
  Fe  Fe98  1  0.94213166  1.00995823  0.55784815  1
  Fe  Fe99  1  0.14279922  0.77637540  0.64253218  1
  Fe  Fe100  1  0.07696196  0.26316826  0.81761008  1
  Fe  Fe101  1  0.10467098  0.21883063  0.69672541  1
  Bi  Bi102  1  0.31452866  0.37058580  0.73274118  1
  Bi  Bi103  1  0.83406199  0.41690152  0.47832744  1
  Bi  Bi104  1  0.19804704  0.25485844  -0.03762424  1
  Bi  Bi105  1  0.31172260  0.66251060  0.59743270  1
  Bi  Bi106  1  0.34966808  -0.08302687  -0.07796217  1
  Bi  Bi107  1  0.52045497  0.13582706  0.07370251  1
  Bi  Bi108  1  0.77292700  -0.01857183  0.56456254  1
  Bi  Bi109  1  0.01436149  0.05404041  0.10758009  1
  Bi  Bi110  1  0.39502378  0.05056756  0.62165945  1
  Bi  Bi111  1  0.64080794  0.21241787  0.85817665  1
  Bi  Bi112  1  0.44880722  0.57022937  0.07552382  1
  Bi  Bi113  1  -0.07827481  0.24360021  0.72320969  1
  Bi  Bi114  1  0.40051849  0.06538749  0.30733221  1
  Bi  Bi115  1  0.56871552  0.27319939  0.66084140  1
  Bi  Bi116  1  0.83972851  0.42928625  0.96276738  1
  Bi  Bi117  1  0.18823700  0.92148939  0.72701818  1
  Bi  Bi118  1  0.45315145  0.53045189  0.36793722  1
  Bi  Bi119  1  0.57591713  0.67143785  0.75261639  1
  Bi  Bi120  1  0.99172734  0.32760031  0.16239650  1
  Bi  Bi121  1  0.57108864  0.86113363  0.04792861  1
  Bi  Bi122  1  0.66532935  0.16064188  0.36611891  1
  Bi  Bi123  1  0.82303944  0.59631433  0.83621793  1
  Bi  Bi124  1  0.40074382  0.85338786  0.35291131  1
  Bi  Bi125  1  0.95928820  0.12659578  0.43976902  1
  Bi  Bi126  1  0.27476617  0.30103559  0.34771624  1
  Bi  Bi127  1  0.66937691  0.81259654  0.33944079  1
