# generated using pymatgen
data_Ba51Fe51Bi26
_symmetry_space_group_name_H-M   'P 1'
_cell_length_a   16.06324146
_cell_length_b   16.83908594
_cell_length_c   16.33872972
_cell_angle_alpha   91.89826528
_cell_angle_beta   90.48657692
_cell_angle_gamma   90.16093807
_symmetry_Int_Tables_number   1
_chemical_formula_structural   Ba51Fe51Bi26
_chemical_formula_sum   'Ba51 Fe51 Bi26'
_cell_volume   4416.86224966
_cell_formula_units_Z   1
loop_
 _symmetry_equiv_pos_site_id
 _symmetry_equiv_pos_as_xyz
  1  'x, y, z'
loop_
 _atom_site_type_symbol
 _atom_site_label
 _atom_site_symmetry_multiplicity
 _atom_site_fract_x
 _atom_site_fract_y
 _atom_site_fract_z
 _atom_site_occupancy
  Ba  Ba0  1  0.36580156  -0.00808187  0.07615575  1
  Ba  Ba1  1  0.76109859  0.33505929  0.66331232  1
  Ba  Ba2  1  0.71716467  0.52045716  0.53030929  1
  Ba  Ba3  1  0.27304303  0.43042228  -0.03278395  1
  Ba  Ba4  1  -0.01769893  0.56481257  0.37770957  1
  Ba  Ba5  1  0.45012893  0.21703267  0.06486503  1
  Ba  Ba6  1  0.18816541  0.13182523  -0.01706134  1
  Ba  Ba7  1  0.66221294  0.55128408  0.06059203  1
  Ba  Ba8  1  0.27166359  0.28253599  0.73067522  1
  Ba  Ba9  1  0.58164976  0.00691541  0.86400363  1
  Ba  Ba10  1  0.66330907  0.34721987  -0.05760047  1
  Ba  Ba11  1  0.41048476  0.07057240  0.54799808  1
  Ba  Ba12  1  0.36192933  0.48932991  0.73500575  1
  Ba  Ba13  1  -0.12915644  0.48361509  0.84417481  1
  Ba  Ba14  1  -0.06545746  0.25420796  -0.04491488  1
  Ba  Ba15  1  0.43261201  0.53641190  0.13611391  1
  Ba  Ba16  1  0.13723235  0.61560063  0.83810790  1
  Ba  Ba17  1  0.51004462  0.74731786  0.34592165  1
  Ba  Ba18  1  0.25300927  0.20973248  0.43305315  1
  Ba  Ba19  1  0.64899797  0.02705688  0.56987869  1
  Ba  Ba20  1  0.15852934  -0.03882836  0.47821581  1
  Ba  Ba21  1  0.39080292  0.73081162  0.78735423  1
  Ba  Ba22  1  0.82465545  0.20735307  0.43966235  1
  Ba  Ba23  1  0.52508176  0.24515963  0.71309098  1
  Ba  Ba24  1  0.83221451  0.01632477  0.80240868  1
  Ba  Ba25  1  0.78956246  0.70912449  0.20863284  1
  Ba  Ba26  1  0.12378107  0.32989550  0.12541103  1
  Ba  Ba27  1  0.02886426  0.24531154  0.61904875  1
  Ba  Ba28  1  0.42594551  0.55816329  0.51427675  1
  Ba  Ba29  1  0.75521401  0.09301404  0.03008772  1
  Ba  Ba30  1  0.29748487  0.82266962  0.60980698  1
  Ba  Ba31  1  -0.10825011  0.47989611  0.09853040  1
  Ba  Ba32  1  0.56679958  0.29815952  0.44870816  1
  Ba  Ba33  1  0.30494117  0.76266702  0.19808797  1
  Ba  Ba34  1  0.10680015  -0.02351330  0.75744775  1
  Ba  Ba35  1  0.61426263  -0.07473841  0.13918905  1
  Ba  Ba36  1  0.18432482  0.44625632  0.48997920  1
  Ba  Ba37  1  -0.01602632  -0.02072451  0.01073835  1
  Ba  Ba38  1  0.90901026  0.77080671  0.79410617  1
  Ba  Ba39  1  0.36026201  0.36137397  0.29097640  1
  Ba  Ba40  1  0.17373744  0.70998437  0.43591997  1
  Ba  Ba41  1  0.65173150  0.75375400  0.84156568  1
  Ba  Ba42  1  0.13368295  0.56217278  0.18459393  1
  Ba  Ba43  1  -0.01307685  0.57862627  0.62725129  1
  Ba  Ba44  1  0.31982321  -0.00124602  0.30061885  1
  Ba  Ba45  1  0.74718617  -0.08827519  0.36725466  1
  Ba  Ba46  1  0.60190466  0.74619206  0.59188184  1
  Ba  Ba47  1  -0.07087353  -0.02290014  0.55233443  1
  Ba  Ba48  1  0.22998896  0.82907146  -0.05870909  1
  Ba  Ba49  1  0.00981309  -0.00312578  0.26602510  1
  Ba  Ba50  1  0.75374129  0.43129798  0.30216846  1
  Fe  Fe51  1  0.39299714  0.58916803  -0.07365258  1
  Fe  Fe52  1  0.88854205  0.15284776  0.16398643  1
  Fe  Fe53  1  -0.01312813  0.82105988  0.43674554  1
  Fe  Fe54  1  0.10927011  0.73670904  0.08322771  1
  Fe  Fe55  1  0.82844128  0.25814484  0.25874510  1
  Fe  Fe56  1  0.50234038  0.50096450  -0.06790493  1
  Fe  Fe57  1  0.83939398  0.81292900  0.50398570  1
  Fe  Fe58  1  0.37654491  0.18508127  0.86212897  1
  Fe  Fe59  1  0.55394726  0.44182050  0.65480236  1
  Fe  Fe60  1  0.67384444  0.47585156  0.75105821  1
  Fe  Fe61  1  0.58503906  0.56642053  0.70415884  1
  Fe  Fe62  1  0.10988351  0.20862682  0.28766063  1
  Fe  Fe63  1  0.40431502  0.17058226  0.26083374  1
  Fe  Fe64  1  0.62621400  0.16907048  0.17379171  1
  Fe  Fe65  1  0.91214371  0.28170734  0.14749698  1
  Fe  Fe66  1  0.63327794  0.55574105  0.86031179  1
  Fe  Fe67  1  0.80764937  0.71210790  0.58743106  1
  Fe  Fe68  1  0.79324756  0.21201500  0.81089683  1
  Fe  Fe69  1  0.75431425  0.25201593  0.14267965  1
  Fe  Fe70  1  0.03312294  0.29750100  0.40206681  1
  Fe  Fe71  1  1.00647817  0.82589011  0.12435436  1
  Fe  Fe72  1  0.27654268  0.10925910  0.79452122  1
  Fe  Fe73  1  0.38944808  0.06722845  0.90788495  1
  Fe  Fe74  1  0.54753144  0.44396687  0.79801480  1
  Fe  Fe75  1  0.02370422  0.17323729  0.15749428  1
  Fe  Fe76  1  0.37920068  0.87337690  0.43528853  1
  Fe  Fe77  1  0.84120452  0.65062656  0.46653357  1
  Fe  Fe78  1  -0.11507965  0.74948968  0.37959977  1
  Fe  Fe79  1  0.39044261  0.93367438  0.83317049  1
  Fe  Fe80  1  0.02841825  0.62495521  1.00696568  1
  Fe  Fe81  1  0.61061768  0.12725642  0.32811670  1
  Fe  Fe82  1  0.69148098  0.14257333  0.73860363  1
  Fe  Fe83  1  0.50999114  0.08704907  0.22466415  1
  Fe  Fe84  1  0.74118222  0.73052671  0.44194978  1
  Fe  Fe85  1  0.41379989  0.06803586  0.76971230  1
  Fe  Fe86  1  0.67779147  0.17562712  0.86548952  1
  Fe  Fe87  1  0.96670634  0.68952585  0.11224569  1
  Fe  Fe88  1  0.68096928  0.24956003  0.27885650  1
  Fe  Fe89  1  0.41817285  0.69920648  0.00594308  1
  Fe  Fe90  1  0.96927293  0.21968026  0.28504666  1
  Fe  Fe91  1  0.27525939  0.99890427  0.86531859  1
  Fe  Fe92  1  -0.05021613  0.72579453  0.52161397  1
  Fe  Fe93  1  0.53446749  0.64496898  0.95332246  1
  Fe  Fe94  1  0.12878267  0.34010806  0.32308360  1
  Fe  Fe95  1  0.47348200  0.13687025  0.36856147  1
  Fe  Fe96  1  0.31067878  0.98416674  0.72149495  1
  Fe  Fe97  1  0.89284666  0.79788628  1.03861144  1
  Fe  Fe98  1  0.48406862  0.88813145  0.50914489  1
  Fe  Fe99  1  0.52800758  0.23547273  0.26612798  1
  Fe  Fe100  1  0.50503422  0.58794169  0.82129754  1
  Fe  Fe101  1  0.01205081  0.75608226  0.97690599  1
  Bi  Bi102  1  0.02547695  0.74620953  0.27264314  1
  Bi  Bi103  1  0.76070437  0.09227409  0.25528654  1
  Bi  Bi104  1  0.76190296  0.61321632  0.71644372  1
  Bi  Bi105  1  0.25709268  0.63904236  0.02339995  1
  Bi  Bi106  1  0.06529872  0.81677946  0.60820932  1
  Bi  Bi107  1  -0.03077250  0.38688950  0.27073508  1
  Bi  Bi108  1  0.21040067  0.10411779  0.63258336  1
  Bi  Bi109  1  0.44452065  0.34037293  -0.11328521  1
  Bi  Bi110  1  0.59621172  0.35318133  0.16352779  1
  Bi  Bi111  1  0.25047283  0.17164237  0.19111584  1
  Bi  Bi112  1  0.54384972  0.71786522  0.12836351  1
  Bi  Bi113  1  0.84987424  0.64994887  -0.02211762  1
  Bi  Bi114  1  0.53099279  -0.02867529  0.36938387  1
  Bi  Bi115  1  0.22875516  0.61500371  0.62715253  1
  Bi  Bi116  1  0.77103161  0.89147698  0.95789398  1
  Bi  Bi117  1  0.03690335  0.13482152  0.42975076  1
  Bi  Bi118  1  0.47119210  0.84423016  0.95491223  1
  Bi  Bi119  1  0.76808796  0.86733194  0.65298063  1
  Bi  Bi120  1  0.39167041  0.35512846  0.55957851  1
  Bi  Bi121  1  0.05575578  0.45871078  -0.03484857  1
  Bi  Bi122  1  0.48210554  0.92024796  0.68508567  1
  Bi  Bi123  1  0.16226691  0.91428836  0.12765814  1
  Bi  Bi124  1  0.92287779  0.39917095  0.50887456  1
  Bi  Bi125  1  0.83824319  0.14618055  0.64615019  1
  Bi  Bi126  1  0.31985869  0.58075489  0.32581245  1
  Bi  Bi127  1  0.84333279  0.90428923  0.16013955  1
