# generated using pymatgen
data_Ba51Fe51Bi26
_symmetry_space_group_name_H-M   'P 1'
_cell_length_a   16.45144279
_cell_length_b   16.36344654
_cell_length_c   16.24570347
_cell_angle_alpha   89.47722933
_cell_angle_beta   89.97156866
_cell_angle_gamma   89.82090787
_symmetry_Int_Tables_number   1
_chemical_formula_structural   Ba51Fe51Bi26
_chemical_formula_sum   'Ba51 Fe51 Bi26'
_cell_volume   4373.17693645
_cell_formula_units_Z   1
loop_
 _symmetry_equiv_pos_site_id
 _symmetry_equiv_pos_as_xyz
  1  'x, y, z'
loop_
 _atom_site_type_symbol
 _atom_site_label
 _atom_site_symmetry_multiplicity
 _atom_site_fract_x
 _atom_site_fract_y
 _atom_site_fract_z
 _atom_site_occupancy
  Ba  Ba0  1  0.41889696  0.02608244  -0.10530560  1
  Ba  Ba1  1  0.36950141  0.23409212  0.56207437  1
  Ba  Ba2  1  0.00297977  0.50015713  0.03235332  1
  Ba  Ba3  1  0.75579463  0.25131030  -0.05172760  1
  Ba  Ba4  1  -0.07453994  -0.02527021  0.21692191  1
  Ba  Ba5  1  0.68676241  0.04230188  0.40981289  1
  Ba  Ba6  1  0.06608576  0.42671336  0.76754024  1
  Ba  Ba7  1  0.34014543  0.41375817  0.29264166  1
  Ba  Ba8  1  0.22931891  0.42812127  0.51335540  1
  Ba  Ba9  1  0.73255059  0.73964478  0.65490085  1
  Ba  Ba10  1  0.50985212  0.34067867  0.74893600  1
  Ba  Ba11  1  0.68942108  0.02137244  0.69984963  1
  Ba  Ba12  1  0.73123858  0.49730304  0.68438734  1
  Ba  Ba13  1  0.20003093  -0.08724713  -0.00200982  1
  Ba  Ba14  1  0.02282574  0.24901986  0.45021910  1
  Ba  Ba15  1  0.32223024  0.68864412  0.36903169  1
  Ba  Ba16  1  0.31329010  0.50994069  0.75645608  1
  Ba  Ba17  1  0.03134786  0.05893703  -0.10673006  1
  Ba  Ba18  1  0.24571042  0.76511703  0.79665048  1
  Ba  Ba19  1  0.52755348  0.22154137  0.03463060  1
  Ba  Ba20  1  0.24978062  0.22426175  0.84299627  1
  Ba  Ba21  1  0.53802656  0.69655745  0.49283895  1
  Ba  Ba22  1  0.49434499  0.80253333  0.24145940  1
  Ba  Ba23  1  0.18773245  0.26628357  0.16162653  1
  Ba  Ba24  1  0.42317047  -0.09672969  0.67383285  1
  Ba  Ba25  1  0.54931806  0.25072697  0.33739837  1
  Ba  Ba26  1  0.17249775  0.01501310  0.70808035  1
  Ba  Ba27  1  0.25141773  -0.00899608  0.24725961  1
  Ba  Ba28  1  0.20001629  0.68845043  0.56264652  1
  Ba  Ba29  1  -0.00037247  0.27432202  -0.05623171  1
  Ba  Ba30  1  0.70923845  0.52631702  0.37527462  1
  Ba  Ba31  1  0.53781561  0.63849561  0.04670295  1
  Ba  Ba32  1  0.20665047  0.07014807  0.47839183  1
  Ba  Ba33  1  0.72909047  0.25882861  0.70612528  1
  Ba  Ba34  1  0.54996407  0.75364232  0.83164222  1
  Ba  Ba35  1  -0.08105383  -0.06327416  0.70468462  1
  Ba  Ba36  1  0.09812066  0.75846041  0.30908682  1
  Ba  Ba37  1  0.69792789  -0.01111599  -0.01653640  1
  Ba  Ba38  1  -0.04097076  0.74856998  0.51551401  1
  Ba  Ba39  1  0.88230909  0.69655654  0.26178512  1
  Ba  Ba40  1  -0.06549405  0.25428177  0.18550799  1
  Ba  Ba41  1  -0.08442782  0.87428644  0.00163788  1
  Ba  Ba42  1  0.75883847  0.28609957  0.46109827  1
  Ba  Ba43  1  0.44771730  0.01897540  0.46587551  1
  Ba  Ba44  1  -0.02494948  -0.00865155  0.46820119  1
  Ba  Ba45  1  0.76356236  0.49084654  0.04020929  1
  Ba  Ba46  1  0.21538412  0.59872232  0.09193744  1
  Ba  Ba47  1  0.57616830  0.42885096  0.17442039  1
  Ba  Ba48  1  0.51605219  0.04010369  0.18674721  1
  Ba  Ba49  1  -0.07535291  0.66360257  0.83420821  1
  Ba  Ba50  1  0.38133671  0.41890421  -0.00574356  1
  Fe  Fe51  1  0.37457873  0.89466656  0.07615889  1
  Fe  Fe52  1  0.91160846  0.28012068  0.75839233  1
  Fe  Fe53  1  0.03344373  0.56240832  0.48804520  1
  Fe  Fe54  1  0.37349866  0.09359257  0.70020210  1
  Fe  Fe55  1  0.72911090  0.66873143  0.91216293  1
  Fe  Fe56  1  1.03110719  0.56835711  0.21774298  1
  Fe  Fe57  1  0.89371923  0.18574239  0.62871050  1
  Fe  Fe58  1  0.31454975  0.86453683  0.46663846  1
  Fe  Fe59  1  0.43632655  0.38548366  0.46674153  1
  Fe  Fe60  1  0.35175474  0.15929463  0.14954088  1
  Fe  Fe61  1  0.76929750  0.87719668  0.48990782  1
  Fe  Fe62  1  0.73908748  0.11774490  0.14232135  1
  Fe  Fe63  1  0.01787555  0.13159165  0.64284284  1
  Fe  Fe64  1  0.07126507  0.73427951  0.98892071  1
  Fe  Fe65  1  0.77984797  0.80664042  0.14110694  1
  Fe  Fe66  1  0.23802591  0.10991064  0.04954121  1
  Fe  Fe67  1  0.02115608  0.67773626  0.11514481  1
  Fe  Fe68  1  0.04444148  0.43440570  0.26273305  1
  Fe  Fe69  1  0.39883668  0.56464538  0.57006459  1
  Fe  Fe70  1  0.37584368  0.75846627  0.04912581  1
  Fe  Fe71  1  0.73522575  0.19341561  0.26545087  1
  Fe  Fe72  1  0.49798452  0.11783636  0.69713555  1
  Fe  Fe73  1  0.54230358  0.50108639  0.53517379  1
  Fe  Fe74  1  0.02627399  0.42582222  0.56683263  1
  Fe  Fe75  1  0.50681474  0.54613999  0.86192772  1
  Fe  Fe76  1  0.96744152  0.54547324  0.35289978  1
  Fe  Fe77  1  0.11835421  0.87623628  0.56619480  1
  Fe  Fe78  1  0.63660714  0.57406812  0.86065314  1
  Fe  Fe79  1  0.34115989  0.18403952  1.01757445  1
  Fe  Fe80  1  0.65736642  0.84560385  0.39934567  1
  Fe  Fe81  1  0.70213529  0.79825166  0.27348798  1
  Fe  Fe82  1  0.90573454  0.48575346  0.22298670  1
  Fe  Fe83  1  0.91018769  0.14301617  0.75649923  1
  Fe  Fe84  1  0.91635418  0.40535012  0.33337794  1
  Fe  Fe85  1  0.71734296  0.76234021  1.01036184  1
  Fe  Fe86  1  0.03852555  0.20672847  0.75342087  1
  Fe  Fe87  1  0.55969147  0.36182753  0.53307911  1
  Fe  Fe88  1  0.18266058  0.86865642  0.44876446  1
  Fe  Fe89  1  0.09416874  0.53405777  0.60624916  1
  Fe  Fe90  1  0.98857602  0.29055408  0.63972761  1
  Fe  Fe91  1  0.25061932  0.88182353  0.58232915  1
  Fe  Fe92  1  0.10043933  0.78386899  0.10953166  1
  Fe  Fe93  1  0.43304590  0.43679990  0.59383962  1
  Fe  Fe94  1  0.04255498  0.43747185  0.41604593  1
  Fe  Fe95  1  0.38310364  0.82512768  0.93653277  1
  Fe  Fe96  1  0.68939372  0.24152066  0.14971253  1
  Fe  Fe97  1  0.64929266  0.81717223  0.12849855  1
  Fe  Fe98  1  0.53702866  0.44470446  0.40105842  1
  Fe  Fe99  1  0.35153457  0.04084530  0.07676384  1
  Fe  Fe100  1  0.80107095  0.86811951  0.35607517  1
  Fe  Fe101  1  0.41989787  0.52255009  0.44549857  1
  Bi  Bi102  1  0.52807992  0.86452121  0.02004161  1
  Bi  Bi103  1  0.52466229  0.57228506  0.69442760  1
  Bi  Bi104  1  0.58250311  0.18525058  0.55755151  1
  Bi  Bi105  1  0.71193313  -0.04497290  0.20922955  1
  Bi  Bi106  1  0.26896487  0.78958670  0.17656760  1
  Bi  Bi107  1  -0.11982721  0.45535274  0.49029201  1
  Bi  Bi108  1  0.76830976  0.36963757  0.24382112  1
  Bi  Bi109  1  0.76054618  0.71547502  0.44158780  1
  Bi  Bi110  1  0.49341879  0.58091148  0.29902467  1
  Bi  Bi111  1  0.15698662  0.54880655  0.33709622  1
  Bi  Bi112  1  0.86313987  0.67630473  0.03910245  1
  Bi  Bi113  1  0.86174242  0.41872499  0.84884148  1
  Bi  Bi114  1  0.15807940  0.24137451  0.63482893  1
  Bi  Bi115  1  0.60452721  0.89287101  0.55678756  1
  Bi  Bi116  1  0.93809867  0.57628366  0.64194605  1
  Bi  Bi117  1  0.58877334  0.41956746  0.94078718  1
  Bi  Bi118  1  0.87915491  0.09883438  0.04008795  1
  Bi  Bi119  1  0.17916872  0.40163810  0.95770672  1
  Bi  Bi120  1  0.59071753  0.14852505  0.84084357  1
  Bi  Bi121  1  0.05842965  0.84208878  0.84407862  1
  Bi  Bi122  1  0.68717151  0.65592204  0.18601082  1
  Bi  Bi123  1  0.86727414  0.13466443  0.35102353  1
  Bi  Bi124  1  0.76204879  0.83158436  0.84440894  1
  Bi  Bi125  1  0.07739602  0.11019686  0.29391435  1
  Bi  Bi126  1  0.34793504  0.17514604  0.32336038  1
  Bi  Bi127  1  0.36764321  0.64031500  0.92089084  1
