# generated using pymatgen
data_Ba51Fe51Bi26
_symmetry_space_group_name_H-M   'P 1'
_cell_length_a   16.07737121
_cell_length_b   16.98070252
_cell_length_c   16.04478660
_cell_angle_alpha   88.93741209
_cell_angle_beta   90.99572948
_cell_angle_gamma   87.23896264
_symmetry_Int_Tables_number   1
_chemical_formula_structural   Ba51Fe51Bi26
_chemical_formula_sum   'Ba51 Fe51 Bi26'
_cell_volume   4373.73832700
_cell_formula_units_Z   1
loop_
 _symmetry_equiv_pos_site_id
 _symmetry_equiv_pos_as_xyz
  1  'x, y, z'
loop_
 _atom_site_type_symbol
 _atom_site_label
 _atom_site_symmetry_multiplicity
 _atom_site_fract_x
 _atom_site_fract_y
 _atom_site_fract_z
 _atom_site_occupancy
  Ba  Ba0  1  -0.05620741  0.36697804  0.20191595  1
  Ba  Ba1  1  0.18739129  0.20733334  0.81577084  1
  Ba  Ba2  1  0.44394909  0.50889391  0.71412674  1
  Ba  Ba3  1  0.74955982  0.54627424  0.19069302  1
  Ba  Ba4  1  0.19690693  0.46959999  0.70168757  1
  Ba  Ba5  1  0.58267144  0.30708171  0.61348181  1
  Ba  Ba6  1  0.25241099  -0.01623380  -0.04903629  1
  Ba  Ba7  1  0.81910754  0.01522273  0.15227653  1
  Ba  Ba8  1  0.61035619  0.46960883  0.37931315  1
  Ba  Ba9  1  0.83088354  0.01603980  0.42684959  1
  Ba  Ba10  1  -0.02584853  0.43206763  0.79674766  1
  Ba  Ba11  1  0.16376900  0.01605758  0.25399360  1
  Ba  Ba12  1  0.29069355  0.22972185  0.11899053  1
  Ba  Ba13  1  0.31643958  0.51757788  0.20942494  1
  Ba  Ba14  1  -0.03413260  0.10535873  0.66635998  1
  Ba  Ba15  1  0.59888090  0.73708562  0.03039070  1
  Ba  Ba16  1  0.69318974  0.37973933  0.03032784  1
  Ba  Ba17  1  0.48714478  0.16712896  0.24521403  1
  Ba  Ba18  1  0.78709583  0.27104232  0.75472949  1
  Ba  Ba19  1  0.40163449  0.72693284  0.52195035  1
  Ba  Ba20  1  0.02405151  0.08176586  0.04820203  1
  Ba  Ba21  1  0.09404036  0.71764494  0.80691544  1
  Ba  Ba22  1  0.68867545  0.15721420  -0.04986650  1
  Ba  Ba23  1  0.69272232  0.81458944  0.78848708  1
  Ba  Ba24  1  0.24195791  -0.12894732  0.66020059  1
  Ba  Ba25  1  0.29584469  0.82375369  0.20095042  1
  Ba  Ba26  1  0.21096055  0.63208881  0.43765311  1
  Ba  Ba27  1  0.36759636  0.76128231  0.88822130  1
  Ba  Ba28  1  0.26357834  0.12117514  0.60996514  1
  Ba  Ba29  1  0.46888413  0.51351575  -0.04284089  1
  Ba  Ba30  1  0.44254456  0.25393634  -0.08900653  1
  Ba  Ba31  1  -0.11704070  -0.02854623  0.86041874  1
  Ba  Ba32  1  0.03669362  0.42975780  0.51988700  1
  Ba  Ba33  1  0.48994061  0.10832255  0.67861785  1
  Ba  Ba34  1  0.40295148  -0.00284187  0.37251713  1
  Ba  Ba35  1  0.65117635  0.22658846  0.40150953  1
  Ba  Ba36  1  0.07658112  -0.00922742  0.48288399  1
  Ba  Ba37  1  0.72821552  0.52160720  0.82599915  1
  Ba  Ba38  1  0.75735742  0.80691397  0.27279626  1
  Ba  Ba39  1  -0.02990449  0.56475825  0.33772958  1
  Ba  Ba40  1  0.02857774  0.82838068  0.09326530  1
  Ba  Ba41  1  0.63980684  0.74357648  0.56735304  1
  Ba  Ba42  1  0.86039783  0.68193004  -0.04651032  1
  Ba  Ba43  1  0.19900374  0.22177443  0.38606328  1
  Ba  Ba44  1  0.09470053  0.55974875  0.05353060  1
  Ba  Ba45  1  0.06428010  0.30930339  0.01460279  1
  Ba  Ba46  1  0.35995423  0.37886186  0.47346967  1
  Ba  Ba47  1  0.80619716  0.52882325  0.56441278  1
  Ba  Ba48  1  -0.05003125  0.23545007  0.41622072  1
  Ba  Ba49  1  -0.07812098  0.81902406  0.62925876  1
  Ba  Ba50  1  0.58114494  -0.00800453  0.10755683  1
  Fe  Fe51  1  0.82090036  0.34057431  0.54003560  1
  Fe  Fe52  1  0.87205699  0.31057025  0.94774493  1
  Fe  Fe53  1  0.09984406  0.80416542  0.35294123  1
  Fe  Fe54  1  0.61826325  0.32904196  0.22296665  1
  Fe  Fe55  1  0.56004788  0.70702645  0.36087143  1
  Fe  Fe56  1  0.85907794  0.17244128  0.25736294  1
  Fe  Fe57  1  -0.02228170  0.08637827  0.29294627  1
  Fe  Fe58  1  0.25831473  0.32475135  0.95228158  1
  Fe  Fe59  1  0.59406497  0.85563861  0.39165979  1
  Fe  Fe60  1  0.17456547  0.42574256  0.90658480  1
  Fe  Fe61  1  0.96466224  0.82881953  0.42823752  1
  Fe  Fe62  1  0.97908862  0.75173976  0.30831759  1
  Fe  Fe63  1  0.43023800  0.70243658  0.71464333  1
  Fe  Fe64  1  0.06320025  0.04753816  0.84223602  1
  Fe  Fe65  1  1.04230444  0.59286711  0.66124838  1
  Fe  Fe66  1  0.42408327  0.70516877  0.29069546  1
  Fe  Fe67  1  0.02485762  0.70465230  0.45376837  1
  Fe  Fe68  1  0.65017735  0.22364328  0.14011067  1
  Fe  Fe69  1  0.62729832  0.95389499  0.91300595  1
  Fe  Fe70  1  0.43359821  0.06225595  -0.01638550  1
  Fe  Fe71  1  0.46388099  0.81911884  0.37694779  1
  Fe  Fe72  1  0.10209703  0.80200962  0.50244308  1
  Fe  Fe73  1  0.66827032  0.93030860  0.49185749  1
  Fe  Fe74  1  0.51760742  0.90005877  0.50760773  1
  Fe  Fe75  1  0.06496110  0.30184687  0.67884224  1
  Fe  Fe76  1  0.00310721  0.18241101  0.21545126  1
  Fe  Fe77  1  0.52335473  0.30290936  0.10147269  1
  Fe  Fe78  1  0.05047532  0.93999266  0.72672345  1
  Fe  Fe79  1  0.47988557  0.93878237  -0.06831977  1
  Fe  Fe80  1  0.40465711  0.37812998  0.09072947  1
  Fe  Fe81  1  0.31175480  0.40386033  0.85601181  1
  Fe  Fe82  1  0.75851914  0.28489885  0.23577544  1
  Fe  Fe83  1  0.54971048  0.94960149  0.78767778  1
  Fe  Fe84  1  0.93425223  0.29345077  0.60895791  1
  Fe  Fe85  1  0.68125214  0.05940632  0.58276581  1
  Fe  Fe86  1  0.96625242  0.63734775  0.56051741  1
  Fe  Fe87  1  0.15151964  0.01947164  0.74563409  1
  Fe  Fe88  1  0.09821609  0.91885754  0.85196493  1
  Fe  Fe89  1  0.38931218  0.07824774  0.85446828  1
  Fe  Fe90  1  0.10112569  0.69383355  0.59467775  1
  Fe  Fe91  1  0.29042612  0.43319161  0.01106796  1
  Fe  Fe92  1  0.59536793  0.94871393  0.63085895  1
  Fe  Fe93  1  0.53327038  0.05994680  0.87500824  1
  Fe  Fe94  1  0.47117309  0.35192380  0.22485500  1
  Fe  Fe95  1  0.41100470  0.96102328  0.81149770  1
  Fe  Fe96  1  0.52706782  0.62850456  0.24231895  1
  Fe  Fe97  1  0.07896846  0.23272862  0.56880191  1
  Fe  Fe98  1  0.71415147  0.15171520  0.23793853  1
  Fe  Fe99  1  0.18848783  0.29981310  0.60305646  1
  Fe  Fe100  1  0.56899614  0.03587824  0.49269446  1
  Fe  Fe101  1  0.73667811  -0.05759090  0.62247925  1
  Bi  Bi102  1  0.24496965  0.85919870  0.42257270  1
  Bi  Bi103  1  0.35903746  0.02731435  0.13999246  1
  Bi  Bi104  1  -0.15536835  0.71247267  0.45329895  1
  Bi  Bi105  1  0.63840655  0.01555746  0.32651772  1
  Bi  Bi106  1  0.54537902  0.47963658  0.16281576  1
  Bi  Bi107  1  0.78934320  0.18480645  0.56177770  1
  Bi  Bi108  1  0.75804714  0.87366151  0.00583190  1
  Bi  Bi109  1  0.25721358  0.56667037  -0.10147810  1
  Bi  Bi110  1  0.53543646  0.81721486  0.22232981  1
  Bi  Bi111  1  -0.02633218  -0.07892406  0.28164746  1
  Bi  Bi112  1  0.84599579  0.21980951  0.09051202  1
  Bi  Bi113  1  0.46473360  0.85845846  0.68015418  1
  Bi  Bi114  1  0.69088852  0.04002164  0.76552915  1
  Bi  Bi115  1  0.42688935  0.57123129  0.38879463  1
  Bi  Bi116  1  0.13223989  0.68315914  0.23306259  1
  Bi  Bi117  1  0.90858181  0.67919562  0.16483146  1
  Bi  Bi118  1  0.96060332  0.18941540  0.86638717  1
  Bi  Bi119  1  0.88942139  0.63576691  0.73493192  1
  Bi  Bi120  1  0.34736025  0.30779717  0.69185966  1
  Bi  Bi121  1  0.89228528  0.46644980  0.00183392  1
  Bi  Bi122  1  0.81919153  0.40663548  0.37674738  1
  Bi  Bi123  1  0.41292299  0.67161253  0.11001777  1
  Bi  Bi124  1  0.26692180  0.66345492  0.67521552  1
  Bi  Bi125  1  0.43897109  0.18021074  0.47031858  1
  Bi  Bi126  1  0.55825269  0.65969936  0.81966589  1
  Bi  Bi127  1  0.59980829  0.36200218  0.82510287  1
