# generated using pymatgen
data_Ba51Fe51Bi26
_symmetry_space_group_name_H-M   'P 1'
_cell_length_a   16.98285743
_cell_length_b   16.05741679
_cell_length_c   15.76741066
_cell_angle_alpha   91.17130966
_cell_angle_beta   89.81024220
_cell_angle_gamma   89.61916031
_symmetry_Int_Tables_number   1
_chemical_formula_structural   Ba51Fe51Bi26
_chemical_formula_sum   'Ba51 Fe51 Bi26'
_cell_volume   4298.76682829
_cell_formula_units_Z   1
loop_
 _symmetry_equiv_pos_site_id
 _symmetry_equiv_pos_as_xyz
  1  'x, y, z'
loop_
 _atom_site_type_symbol
 _atom_site_label
 _atom_site_symmetry_multiplicity
 _atom_site_fract_x
 _atom_site_fract_y
 _atom_site_fract_z
 _atom_site_occupancy
  Ba  Ba0  1  0.68885475  0.17512769  0.29179145  1
  Ba  Ba1  1  0.45670153  0.76818761  0.37861701  1
  Ba  Ba2  1  0.27274282  -0.04601946  0.48649297  1
  Ba  Ba3  1  0.57275535  0.35252931  -0.04255635  1
  Ba  Ba4  1  0.16236501  0.50276983  0.26383803  1
  Ba  Ba5  1  0.06104677  0.28550552  0.04264926  1
  Ba  Ba6  1  0.13095349  0.20835008  0.55143800  1
  Ba  Ba7  1  0.72074624  0.81242031  -0.05402759  1
  Ba  Ba8  1  0.77568187  0.32222650  0.51708884  1
  Ba  Ba9  1  0.67155302  0.84718282  0.48907125  1
  Ba  Ba10  1  0.43491718  0.55337204  0.56092277  1
  Ba  Ba11  1  -0.10015564  0.32881674  0.29946549  1
  Ba  Ba12  1  0.81084839  -0.04851592  0.77049934  1
  Ba  Ba13  1  0.65337135  0.53122534  0.23054255  1
  Ba  Ba14  1  0.24710419  0.40947475  0.89378337  1
  Ba  Ba15  1  0.20658187  0.26849721  0.28815438  1
  Ba  Ba16  1  0.41546861  0.57729016  0.24385001  1
  Ba  Ba17  1  0.25659381  0.04869862  0.17729937  1
  Ba  Ba18  1  0.02809941  0.51086638  0.81592227  1
  Ba  Ba19  1  0.01027467  0.87976035  -0.04920135  1
  Ba  Ba20  1  -0.07149324  0.05727401  0.17529905  1
  Ba  Ba21  1  0.06036687  0.23003432  0.80077767  1
  Ba  Ba22  1  -0.00989498  0.75976290  0.67776033  1
  Ba  Ba23  1  0.80995838  0.21302818  0.02467151  1
  Ba  Ba24  1  -0.00503930  0.68919406  0.20390312  1
  Ba  Ba25  1  0.74405260  0.71782794  0.69689960  1
  Ba  Ba26  1  0.54673957  0.15702430  0.09055635  1
  Ba  Ba27  1  0.48848790  0.00508926  0.30749157  1
  Ba  Ba28  1  0.70401364  0.58857805  0.47604110  1
  Ba  Ba29  1  0.26332990  -0.09841806  -0.03563170  1
  Ba  Ba30  1  0.57622470  0.31353403  0.67084204  1
  Ba  Ba31  1  0.48634595  -0.00718045  0.56110828  1
  Ba  Ba32  1  0.01716115  0.02203290  0.66369922  1
  Ba  Ba33  1  0.51059937  -0.07594286  -0.00656161  1
  Ba  Ba34  1  0.19490256  0.46346543  0.57750611  1
  Ba  Ba35  1  0.77308537  0.05741677  0.52615395  1
  Ba  Ba36  1  0.36901569  0.23603156  0.52487126  1
  Ba  Ba37  1  0.77717658  0.19114749  0.77937625  1
  Ba  Ba38  1  -0.10481954  0.48572361  0.08689390  1
  Ba  Ba39  1  0.53060152  0.79490967  0.74686498  1
  Ba  Ba40  1  0.02438726  -0.03322952  0.39706972  1
  Ba  Ba41  1  0.81593666  0.76991709  0.32104222  1
  Ba  Ba42  1  0.20683363  0.77656301  0.28477090  1
  Ba  Ba43  1  -0.03382321  0.55113298  0.50532268  1
  Ba  Ba44  1  0.72308166  0.53638989  -0.04649314  1
  Ba  Ba45  1  0.25373345  0.68586395  0.77280377  1
  Ba  Ba46  1  0.41604153  0.21267973  0.79753885  1
  Ba  Ba47  1  0.44518432  0.52870801  0.83115498  1
  Ba  Ba48  1  0.29639498  0.61187446  0.04606298  1
  Ba  Ba49  1  0.80623640  0.48393947  0.71873859  1
  Ba  Ba50  1  0.52998055  0.35752774  0.35897422  1
  Fe  Fe51  1  0.82838239  0.99353843  1.00264159  1
  Fe  Fe52  1  0.64734362  0.95174327  0.66763442  1
  Fe  Fe53  1  0.39257462  0.42922932  0.06681266  1
  Fe  Fe54  1  0.17003305  1.04418567  0.80700183  1
  Fe  Fe55  1  0.33440398  0.05191123  0.66957294  1
  Fe  Fe56  1  0.30223859  0.03624616  0.81075503  1
  Fe  Fe57  1  0.74087519  -0.01965729  0.10818912  1
  Fe  Fe58  1  0.58679148  0.11513138  0.81145695  1
  Fe  Fe59  1  0.26442119  0.65938382  0.57084428  1
  Fe  Fe60  1  0.88174904  0.87241747  0.53884018  1
  Fe  Fe61  1  0.24814231  0.23275672  1.00131258  1
  Fe  Fe62  1  0.44673908  0.32835832  0.14015588  1
  Fe  Fe63  1  0.61385977  0.62731357  0.82158021  1
  Fe  Fe64  1  0.62405723  -0.04071805  0.17762474  1
  Fe  Fe65  1  0.47968531  0.72336243  0.07643064  1
  Fe  Fe66  1  0.19418203  0.09786461  0.38657648  1
  Fe  Fe67  1  0.92108718  0.21319431  0.62787015  1
  Fe  Fe68  1  0.34855489  0.38179312  0.21444894  1
  Fe  Fe69  1  0.26346946  0.75528296  0.47549968  1
  Fe  Fe70  1  0.31278798  0.11303314  0.37542607  1
  Fe  Fe71  1  0.62059851  0.98169377  0.79665094  1
  Fe  Fe72  1  0.32849139  0.36215562  0.69131988  1
  Fe  Fe73  1  0.96716165  0.32629128  0.55484522  1
  Fe  Fe74  1  0.27255874  0.36423699  0.09248945  1
  Fe  Fe75  1  0.69319985  0.83534337  0.15171698  1
  Fe  Fe76  1  0.55818478  0.68728183  0.95041763  1
  Fe  Fe77  1  0.21961822  0.81902202  0.62320958  1
  Fe  Fe78  1  0.62597012  0.86101577  0.28893929  1
  Fe  Fe79  1  0.89412958  0.70575699  0.02580674  1
  Fe  Fe80  1  0.38104997  0.29525148  0.99891954  1
  Fe  Fe81  1  0.14021903  0.80215026  0.50266464  1
  Fe  Fe82  1  0.63189915  0.49615893  0.63413255  1
  Fe  Fe83  1  0.58305115  0.60967606  0.68423758  1
  Fe  Fe84  1  0.00942958  0.65336508  -0.01318941  1
  Fe  Fe85  1  0.14040491  0.69076170  0.58364726  1
  Fe  Fe86  1  0.12814964  0.64269994  0.93273289  1
  Fe  Fe87  1  0.31063943  0.90629828  0.71940054  1
  Fe  Fe88  1  0.54323836  0.82677153  0.16925108  1
  Fe  Fe89  1  0.93179149  0.33414376  0.69005342  1
  Fe  Fe90  1  0.62465275  0.73154086  0.23943698  1
  Fe  Fe91  1  0.15547311  0.65450744  0.44540587  1
  Fe  Fe92  1  0.84814787  0.74816707  0.52749625  1
  Fe  Fe93  1  0.33550359  0.24031449  0.12288998  1
  Fe  Fe94  1  0.23354094  0.13341603  0.70536214  1
  Fe  Fe95  1  0.27893038  0.60924015  0.42950534  1
  Fe  Fe96  1  0.24250890  0.27878459  0.73494153  1
  Fe  Fe97  1  0.61936871  0.08632541  0.67603759  1
  Fe  Fe98  1  0.24145477  0.17420626  -0.13994770  1
  Fe  Fe99  1  0.61173539  0.70790293  0.09010596  1
  Fe  Fe100  1  0.21056876  -0.01394149  0.67323442  1
  Fe  Fe101  1  0.62245854  0.49610377  0.77281306  1
  Bi  Bi102  1  0.51823759  0.54918043  0.05032293  1
  Bi  Bi103  1  -0.00294940  0.75594672  0.44318584  1
  Bi  Bi104  1  0.14402219  -0.12782402  0.77713282  1
  Bi  Bi105  1  0.13927918  0.75297221  0.06256505  1
  Bi  Bi106  1  0.68396885  0.05091786  -0.05556331  1
  Bi  Bi107  1  0.76763512  0.67107169  0.12534049  1
  Bi  Bi108  1  0.74732171  -0.02531530  0.30285812  1
  Bi  Bi109  1  0.36492541  0.11120075  -0.01374696  1
  Bi  Bi110  1  0.38278074  0.78373861  0.59611405  1
  Bi  Bi111  1  0.41393828  0.20499077  0.27147575  1
  Bi  Bi112  1  0.10090965  0.50523366  0.03584595  1
  Bi  Bi113  1  0.45861932  -0.00293400  0.77893754  1
  Bi  Bi114  1  0.14271300  0.09495568  -0.02316271  1
  Bi  Bi115  1  0.93314049  0.08104896  0.90183270  1
  Bi  Bi116  1  0.59172481  0.17437977  0.49870113  1
  Bi  Bi117  1  0.84998198  0.53951927  0.31914888  1
  Bi  Bi118  1  0.32905943  0.43840233  0.39314539  1
  Bi  Bi119  1  0.40702914  0.74090748  0.91424362  1
  Bi  Bi120  1  0.88218072  0.66466555  0.85724096  1
  Bi  Bi121  1  0.89374965  0.36073159  0.87927904  1
  Bi  Bi122  1  0.37976452  0.83389506  0.17382084  1
  Bi  Bi123  1  0.93504822  0.16806162  0.45567751  1
  Bi  Bi124  1  0.06612202  0.37628916  0.42245797  1
  Bi  Bi125  1  0.86426967  0.85961986  0.10710156  1
  Bi  Bi126  1  0.69378833  0.33924494  0.14855852  1
  Bi  Bi127  1  0.08592509  0.91642085  0.18113481  1
