# generated using pymatgen
data_Ba51Fe51Bi26
_symmetry_space_group_name_H-M   'P 1'
_cell_length_a   16.86061527
_cell_length_b   15.95768792
_cell_length_c   16.53573788
_cell_angle_alpha   86.24335691
_cell_angle_beta   86.74276714
_cell_angle_gamma   84.54901942
_symmetry_Int_Tables_number   1
_chemical_formula_structural   Ba51Fe51Bi26
_chemical_formula_sum   'Ba51 Fe51 Bi26'
_cell_volume   4413.67475570
_cell_formula_units_Z   1
loop_
 _symmetry_equiv_pos_site_id
 _symmetry_equiv_pos_as_xyz
  1  'x, y, z'
loop_
 _atom_site_type_symbol
 _atom_site_label
 _atom_site_symmetry_multiplicity
 _atom_site_fract_x
 _atom_site_fract_y
 _atom_site_fract_z
 _atom_site_occupancy
  Ba  Ba0  1  0.38180797  0.28364860  -0.03369075  1
  Ba  Ba1  1  0.07428582  0.44562489  0.54991720  1
  Ba  Ba2  1  -0.08237615  -0.04781555  0.75595819  1
  Ba  Ba3  1  0.49141195  0.76929887  0.09197102  1
  Ba  Ba4  1  0.57141680  0.83821467  0.53324766  1
  Ba  Ba5  1  0.22281220  0.04036015  0.20218359  1
  Ba  Ba6  1  0.04157560  0.07679105  -0.09709182  1
  Ba  Ba7  1  0.15519728  0.50803288  0.75756727  1
  Ba  Ba8  1  0.56262943  0.80550759  0.29069654  1
  Ba  Ba9  1  -0.04403651  0.70732971  0.33583280  1
  Ba  Ba10  1  0.67526953  0.07374433  0.78301438  1
  Ba  Ba11  1  -0.11584153  0.32077599  -0.03982532  1
  Ba  Ba12  1  0.32997405  0.58269170  0.26507254  1
  Ba  Ba13  1  0.00683772  0.72528380  0.71795007  1
  Ba  Ba14  1  0.36291886  -0.02025805  0.00729150  1
  Ba  Ba15  1  0.77215639  -0.04563432  0.23490382  1
  Ba  Ba16  1  0.78638309  -0.03322534  -0.01300963  1
  Ba  Ba17  1  0.47952337  0.58647727  0.48585849  1
  Ba  Ba18  1  0.53165642  0.63230658  0.76340800  1
  Ba  Ba19  1  0.80962171  0.31479929  0.35695197  1
  Ba  Ba20  1  0.17086136  0.79965472  0.29956335  1
  Ba  Ba21  1  0.57016802  0.07309519  0.05173251  1
  Ba  Ba22  1  0.27603370  0.72549635  0.03186133  1
  Ba  Ba23  1  0.70904586  0.58225002  0.35385144  1
  Ba  Ba24  1  0.32347535  0.40933624  0.50676063  1
  Ba  Ba25  1  0.05546154  0.06853022  0.43608039  1
  Ba  Ba26  1  0.00639728  0.78481986  0.05742709  1
  Ba  Ba27  1  0.76016001  0.20885526  0.12786368  1
  Ba  Ba28  1  0.16173329  -0.10865689  0.62145707  1
  Ba  Ba29  1  0.85036061  0.18125349  0.62087857  1
  Ba  Ba30  1  0.29446704  0.30294179  0.26650193  1
  Ba  Ba31  1  0.34484868  0.87182191  0.42605211  1
  Ba  Ba32  1  0.66080866  0.72667929  -0.06670729  1
  Ba  Ba33  1  0.45371824  0.40578823  0.73932657  1
  Ba  Ba34  1  0.23784945  0.15195373  0.52350681  1
  Ba  Ba35  1  0.71187683  0.51127036  0.09822979  1
  Ba  Ba36  1  0.49697626  0.05822784  0.31593322  1
  Ba  Ba37  1  0.29537335  0.71799207  0.75172483  1
  Ba  Ba38  1  0.26651087  -0.00340468  0.80920381  1
  Ba  Ba39  1  0.54031416  0.34633656  0.22939399  1
  Ba  Ba40  1  0.43842998  0.17780585  0.65854021  1
  Ba  Ba41  1  0.73747908  0.50607575  0.79901890  1
  Ba  Ba42  1  0.83097665  -0.04842680  0.48703743  1
  Ba  Ba43  1  0.01195749  0.46741811  0.23899016  1
  Ba  Ba44  1  0.15994846  0.25353429  0.76358333  1
  Ba  Ba45  1  0.20102837  0.50210803  0.02256893  1
  Ba  Ba46  1  0.00862421  0.07220593  0.14576596  1
  Ba  Ba47  1  0.52645541  -0.08394430  0.74871029  1
  Ba  Ba48  1  0.78861095  0.42767280  0.58700419  1
  Ba  Ba49  1  0.62836596  0.10817771  0.52666858  1
  Ba  Ba50  1  -0.05352809  0.56656272  -0.07067914  1
  Fe  Fe51  1  0.80434351  0.71485460  0.77614887  1
  Fe  Fe52  1  0.50234852  0.38546395  0.42424239  1
  Fe  Fe53  1  0.41585397  0.96209550  0.18895687  1
  Fe  Fe54  1  0.69546137  0.74368426  0.70098328  1
  Fe  Fe55  1  0.17963955  0.59787324  0.46273760  1
  Fe  Fe56  1  0.47911814  0.62410273  0.95412389  1
  Fe  Fe57  1  0.75586699  0.77230704  0.56192246  1
  Fe  Fe58  1  0.82052880  0.65303005  0.64696245  1
  Fe  Fe59  1  0.13802501  0.85395741  0.88375267  1
  Fe  Fe60  1  0.11295714  0.34667350  0.10082195  1
  Fe  Fe61  1  0.66490174  0.30574823  0.51862215  1
  Fe  Fe62  1  0.45537453  0.49025592  0.94109973  1
  Fe  Fe63  1  0.54534937  0.41156427  0.03419032  1
  Fe  Fe64  1  0.95596304  0.33546510  0.67169786  1
  Fe  Fe65  1  0.78872561  0.75990665  0.07794612  1
  Fe  Fe66  1  0.93231952  0.60029903  0.55625628  1
  Fe  Fe67  1  0.50720654  0.55269694  0.06995911  1
  Fe  Fe68  1  0.67742544  0.83474954  0.11549606  1
  Fe  Fe69  1  0.59088933  0.27345281  -0.00528185  1
  Fe  Fe70  1  0.67008818  0.69869533  0.15518040  1
  Fe  Fe71  1  0.76881943  0.75019876  0.21455034  1
  Fe  Fe72  1  0.28852690  0.72022295  0.55685645  1
  Fe  Fe73  1  0.09038090  0.23018345  1.05223411  1
  Fe  Fe74  1  0.62215224  0.42078596  0.44781745  1
  Fe  Fe75  1  0.44303360  0.05284138  0.50601629  1
  Fe  Fe76  1  0.29420480  0.65945179  0.44302082  1
  Fe  Fe77  1  0.17300533  0.74479073  0.48946182  1
  Fe  Fe78  1  0.71525865  0.88374538  0.66295620  1
  Fe  Fe79  1  0.74908618  0.85030619  0.78992722  1
  Fe  Fe80  1  0.70777267  0.30406357  0.83118651  1
  Fe  Fe81  1  0.21975967  0.22835044  0.10749991  1
  Fe  Fe82  1  0.57891276  0.24461842  0.86173546  1
  Fe  Fe83  1  0.35606338  0.85580713  0.22193029  1
  Fe  Fe84  1  0.11174888  0.24374628  0.21128624  1
  Fe  Fe85  1  0.57165941  0.39180586  0.88168604  1
  Fe  Fe86  1  0.04862992  0.67235755  0.51855574  1
  Fe  Fe87  1  0.59275021  0.27456019  0.41501616  1
  Fe  Fe88  1  0.83458945  0.80823868  0.66561528  1
  Fe  Fe89  1  0.81490390  0.65257853  0.49550444  1
  Fe  Fe90  1  0.90788802  0.74549564  0.54543044  1
  Fe  Fe91  1  -0.01748248  0.36549793  0.79545883  1
  Fe  Fe92  1  1.00554855  0.23023455  0.31145977  1
  Fe  Fe93  1  0.10308763  0.29810739  0.35360409  1
  Fe  Fe94  1  0.84727915  0.31535382  0.76959763  1
  Fe  Fe95  1  0.59576641  0.51938009  0.94556703  1
  Fe  Fe96  1  0.96772974  0.22111715  0.76079233  1
  Fe  Fe97  1  0.16091804  0.65830493  0.60564972  1
  Fe  Fe98  1  0.53409688  0.33858899  0.55046908  1
  Fe  Fe99  1  0.67922986  0.36829322  -0.03701378  1
  Fe  Fe100  1  0.27453434  0.58522611  0.57562371  1
  Fe  Fe101  1  0.70271378  0.21152645  -0.05950102  1
  Bi  Bi102  1  0.86481353  0.78102175  0.90670585  1
  Bi  Bi103  1  0.21552711  0.15007851  -0.03743413  1
  Bi  Bi104  1  0.75010835  0.79162732  0.38685874  1
  Bi  Bi105  1  -0.04947582  0.29126910  0.15835528  1
  Bi  Bi106  1  -0.06341663  0.51579651  0.71378229  1
  Bi  Bi107  1  -0.15853717  0.14792805  0.85279966  1
  Bi  Bi108  1  0.43164462  0.22097566  0.44281927  1
  Bi  Bi109  1  0.17562103  0.45701493  0.36300118  1
  Bi  Bi110  1  0.02778725  0.84784856  0.47487668  1
  Bi  Bi111  1  0.63296807  0.27928344  -0.31542365  1
  Bi  Bi112  1  0.54755569  0.59299676  0.22760282  1
  Bi  Bi113  1  0.66339792  0.62357175  0.58505851  1
  Bi  Bi114  1  -0.01335342  0.27776855  0.47790956  1
  Bi  Bi115  1  0.88675254  0.10411800  0.32117134  1
  Bi  Bi116  1  0.08214313  0.37227797  0.92872517  1
  Bi  Bi117  1  0.38662799  0.44615681  0.10231145  1
  Bi  Bi118  1  0.67107407  0.15594017  0.31428229  1
  Bi  Bi119  1  0.47467624  0.10921584  0.85864018  1
  Bi  Bi120  1  0.15820441  0.92501971  0.03042512  1
  Bi  Bi121  1  0.38910938  0.14470691  0.14912593  1
  Bi  Bi122  1  0.12793635  0.68226482  0.89126700  1
  Bi  Bi123  1  0.90046144  0.51260871  0.42325628  1
  Bi  Bi124  1  0.36212770  -0.04221916  0.61793479  1
  Bi  Bi125  1  0.12834332  0.64166760  0.17924199  1
  Bi  Bi126  1  0.06787571  0.09305966  0.67613482  1
  Bi  Bi127  1  0.42705960  0.78796083  0.88870025  1
