# generated using pymatgen
data_Ba51Fe51Bi26
_symmetry_space_group_name_H-M   'P 1'
_cell_length_a   16.35437079
_cell_length_b   16.59762338
_cell_length_c   16.15661826
_cell_angle_alpha   87.35649667
_cell_angle_beta   90.35653603
_cell_angle_gamma   86.63685726
_symmetry_Int_Tables_number   1
_chemical_formula_structural   Ba51Fe51Bi26
_chemical_formula_sum   'Ba51 Fe51 Bi26'
_cell_volume   4373.22475343
_cell_formula_units_Z   1
loop_
 _symmetry_equiv_pos_site_id
 _symmetry_equiv_pos_as_xyz
  1  'x, y, z'
loop_
 _atom_site_type_symbol
 _atom_site_label
 _atom_site_symmetry_multiplicity
 _atom_site_fract_x
 _atom_site_fract_y
 _atom_site_fract_z
 _atom_site_occupancy
  Ba  Ba0  1  -0.04964472  -0.10245874  0.78937926  1
  Ba  Ba1  1  0.68616201  0.51695353  0.51781008  1
  Ba  Ba2  1  0.22480917  0.02491403  0.72721143  1
  Ba  Ba3  1  0.78937709  0.73183044  0.79904575  1
  Ba  Ba4  1  0.01952363  -0.01555940  0.51851150  1
  Ba  Ba5  1  0.09409456  0.27205924  0.21543672  1
  Ba  Ba6  1  0.73948645  0.74893806  0.49465917  1
  Ba  Ba7  1  0.49755042  0.78313309  0.54164032  1
  Ba  Ba8  1  0.05712226  0.52008512  0.15579787  1
  Ba  Ba9  1  0.58692749  0.53144560  0.22621362  1
  Ba  Ba10  1  0.24943093  0.29524693  0.40659336  1
  Ba  Ba11  1  0.10377727  0.67985457  0.84229140  1
  Ba  Ba12  1  0.32507781  0.77658102  0.75956875  1
  Ba  Ba13  1  0.84516920  0.16600213  0.69844027  1
  Ba  Ba14  1  0.25158892  0.43964815  -0.00983713  1
  Ba  Ba15  1  0.51576523  0.00789765  0.03150354  1
  Ba  Ba16  1  -0.00865808  0.25066484  0.47886923  1
  Ba  Ba17  1  0.50433545  0.24606334  0.48747345  1
  Ba  Ba18  1  0.32422864  -0.07562602  -0.03650688  1
  Ba  Ba19  1  0.57707003  -0.00513330  0.46361404  1
  Ba  Ba20  1  0.54961926  0.77488098  0.83903805  1
  Ba  Ba21  1  0.69934017  0.75473031  0.05831344  1
  Ba  Ba22  1  0.25564463  0.27553170  0.74452194  1
  Ba  Ba23  1  0.49362355  0.55154618  0.67707061  1
  Ba  Ba24  1  -0.06714317  0.50263810  0.53407498  1
  Ba  Ba25  1  0.50367994  0.29696585  0.22639560  1
  Ba  Ba26  1  0.44586328  0.67988998  0.07702924  1
  Ba  Ba27  1  0.25575523  0.76501661  0.27970754  1
  Ba  Ba28  1  0.73264066  0.40907065  0.76305316  1
  Ba  Ba29  1  0.74762609  -0.01375989  0.10164723  1
  Ba  Ba30  1  0.45097535  0.26275029  -0.04782685  1
  Ba  Ba31  1  0.70787809  0.37470426  0.03498567  1
  Ba  Ba32  1  -0.02485691  0.75939607  0.58422110  1
  Ba  Ba33  1  0.71337592  -0.04209874  0.82616483  1
  Ba  Ba34  1  0.82482691  0.54855673  -0.06605298  1
  Ba  Ba35  1  0.05153551  0.10998422  0.87199515  1
  Ba  Ba36  1  0.81372518  0.19248521  0.20771194  1
  Ba  Ba37  1  0.24150866  0.85925001  0.51519250  1
  Ba  Ba38  1  0.51507866  0.29253013  0.71740603  1
  Ba  Ba39  1  0.69268158  0.18457983  -0.11515743  1
  Ba  Ba40  1  0.32340927  0.14483248  0.12391933  1
  Ba  Ba41  1  0.82921092  0.44505952  0.30797082  1
  Ba  Ba42  1  0.34941865  0.05849719  0.53187774  1
  Ba  Ba43  1  0.22333196  0.51927227  0.70225380  1
  Ba  Ba44  1  -0.06900358  0.69612358  0.29479871  1
  Ba  Ba45  1  0.44967508  0.51988820  0.44204847  1
  Ba  Ba46  1  0.18555036  0.56226188  0.44189378  1
  Ba  Ba47  1  0.75189936  0.15601335  0.46395285  1
  Ba  Ba48  1  0.05636517  0.04605206  0.11352603  1
  Ba  Ba49  1  -0.01732424  0.38683477  0.74523824  1
  Ba  Ba50  1  0.10545410  0.78777477  0.06498343  1
  Fe  Fe51  1  0.39576162  0.07893656  0.81627705  1
  Fe  Fe52  1  1.00236084  0.93927898  0.30450612  1
  Fe  Fe53  1  0.36169115  0.58596259  0.25336657  1
  Fe  Fe54  1  0.72090201  0.59199506  0.69567930  1
  Fe  Fe55  1  0.82975011  -0.02207678  0.64752687  1
  Fe  Fe56  1  0.87428565  0.89106260  0.33658474  1
  Fe  Fe57  1  0.14814377  0.95641265  0.32432540  1
  Fe  Fe58  1  0.57444019  0.82448645  0.34248441  1
  Fe  Fe59  1  0.25667615  0.50051489  0.25321378  1
  Fe  Fe60  1  0.63345004  0.58955900  0.81017461  1
  Fe  Fe61  1  0.56915766  0.46048185  0.87161997  1
  Fe  Fe62  1  0.87719454  0.83724335  0.99248065  1
  Fe  Fe63  1  0.30323887  -0.03710275  0.35161844  1
  Fe  Fe64  1  -0.10159349  0.72764749  0.07766315  1
  Fe  Fe65  1  0.91739425  0.26221137  0.89889845  1
  Fe  Fe66  1  0.61144314  0.57485184  -0.04531792  1
  Fe  Fe67  1  0.69374525  -0.03889634  0.62306825  1
  Fe  Fe68  1  -0.01089717  0.23918930  1.02686398  1
  Fe  Fe69  1  0.62056637  0.68047254  0.36157638  1
  Fe  Fe70  1  0.70315887  0.31949246  0.57438373  1
  Fe  Fe71  1  0.46403826  0.08383018  0.69012386  1
  Fe  Fe72  1  0.17046461  0.72259539  0.64947747  1
  Fe  Fe73  1  0.13811986  0.23486474  0.00126612  1
  Fe  Fe74  1  0.48169938  0.96156962  0.82582890  1
  Fe  Fe75  1  0.79772496  0.34366928  0.47907370  1
  Fe  Fe76  1  0.05822431  0.36062239  0.03135164  1
  Fe  Fe77  1  0.89162082  0.01233618  0.23578050  1
  Fe  Fe78  1  0.83347172  0.34373753  0.60558152  1
  Fe  Fe79  1  0.63370467  0.68954427  0.68390029  1
  Fe  Fe80  1  0.76229171  -0.00695662  0.31361480  1
  Fe  Fe81  1  0.06586991  0.30672516  0.90419069  1
  Fe  Fe82  1  0.23839267  0.07298067  0.28140777  1
  Fe  Fe83  1  0.41287126  0.96001417  0.71262433  1
  Fe  Fe84  1  0.55847190  0.95814636  0.69314914  1
  Fe  Fe85  1  0.43973109  0.88784929  0.35392411  1
  Fe  Fe86  1  0.47697458  0.84628337  0.21719090  1
  Fe  Fe87  1  0.79767127  0.85562623  0.64799965  1
  Fe  Fe88  1  0.93470376  0.73749046  0.92888351  1
  Fe  Fe89  1  0.49479643  0.57354836  0.88674991  1
  Fe  Fe90  1  0.39664387  0.97625775  0.24142945  1
  Fe  Fe91  1  0.37928111  0.49100876  0.15776270  1
  Fe  Fe92  1  0.18753751  0.06026146  0.40531188  1
  Fe  Fe93  1  0.71584320  0.66264968  0.27062208  1
  Fe  Fe94  1  -0.02853667  0.63616909  1.01555716  1
  Fe  Fe95  1  0.37595598  0.43811843  0.29336014  1
  Fe  Fe96  1  0.88640466  0.03572314  0.36863747  1
  Fe  Fe97  1  0.65443747  0.83575024  0.66913023  1
  Fe  Fe98  1  0.93466363  0.37565286  0.95413130  1
  Fe  Fe99  1  0.54436617  0.07604021  0.80261873  1
  Fe  Fe100  1  0.13155670  0.83208568  0.70116727  1
  Fe  Fe101  1  0.59056409  0.74412771  0.22700924  1
  Bi  Bi102  1  0.80615912  -0.05714212  0.48729787  1
  Bi  Bi103  1  0.63331442  0.11781601  0.65470485  1
  Bi  Bi104  1  0.45360736  0.70275808  0.32588853  1
  Bi  Bi105  1  0.24481428  -0.05301245  0.16762820  1
  Bi  Bi106  1  -0.06871703  0.87128146  0.15500886  1
  Bi  Bi107  1  0.57217940  -0.02613556  0.24837297  1
  Bi  Bi108  1  0.28991937  0.34598842  0.18619632  1
  Bi  Bi109  1  0.50082416  0.46238860  0.03920673  1
  Bi  Bi110  1  0.73418696  0.82320401  0.27463729  1
  Bi  Bi111  1  0.26464417  0.13502086  -0.08354680  1
  Bi  Bi112  1  -0.12766328  0.12633812  -0.00838968  1
  Bi  Bi113  1  0.02918820  0.10327034  0.32606636  1
  Bi  Bi114  1  0.04417296  0.49595301  -0.07849913  1
  Bi  Bi115  1  0.39497356  0.11843945  0.33346265  1
  Bi  Bi116  1  0.61634531  0.18258182  0.08690097  1
  Bi  Bi117  1  0.04463350  0.42873232  0.36230516  1
  Bi  Bi118  1  0.31984769  0.66303568  0.57291980  1
  Bi  Bi119  1  0.14583418  0.88461736  0.86551450  1
  Bi  Bi120  1  0.82026797  0.59360349  0.14688175  1
  Bi  Bi121  1  0.64862916  0.35867302  0.38524275  1
  Bi  Bi122  1  0.90972177  0.36431181  0.12222962  1
  Bi  Bi123  1  0.12227049  0.38329720  0.57628951  1
  Bi  Bi124  1  0.35516400  0.38378159  0.57697794  1
  Bi  Bi125  1  0.24796345  0.61674795  0.11455729  1
  Bi  Bi126  1  0.39830804  0.44108702  0.83007481  1
  Bi  Bi127  1  0.07442066  0.80951848  0.39654980  1
