# generated using pymatgen
data_Ba51Fe51Bi26
_symmetry_space_group_name_H-M   'P 1'
_cell_length_a   15.92867888
_cell_length_b   16.33261874
_cell_length_c   16.76099158
_cell_angle_alpha   96.70201675
_cell_angle_beta   93.26830867
_cell_angle_gamma   89.33435278
_symmetry_Int_Tables_number   1
_chemical_formula_structural   Ba51Fe51Bi26
_chemical_formula_sum   'Ba51 Fe51 Bi26'
_cell_volume   4323.59468345
_cell_formula_units_Z   1
loop_
 _symmetry_equiv_pos_site_id
 _symmetry_equiv_pos_as_xyz
  1  'x, y, z'
loop_
 _atom_site_type_symbol
 _atom_site_label
 _atom_site_symmetry_multiplicity
 _atom_site_fract_x
 _atom_site_fract_y
 _atom_site_fract_z
 _atom_site_occupancy
  Ba  Ba0  1  0.01965445  0.36765158  0.46863891  1
  Ba  Ba1  1  0.07450321  0.81390482  0.50464316  1
  Ba  Ba2  1  0.43440264  0.44042393  0.25729683  1
  Ba  Ba3  1  0.24105803  0.47196861  -0.02053537  1
  Ba  Ba4  1  0.57526079  -0.00640976  0.68296284  1
  Ba  Ba5  1  0.55452092  0.03490497  -0.01747290  1
  Ba  Ba6  1  0.10765466  -0.03840930  0.31071987  1
  Ba  Ba7  1  -0.11297096  0.50953533  0.62279655  1
  Ba  Ba8  1  0.96026976  0.47050254  0.03516951  1
  Ba  Ba9  1  0.00249483  -0.00590285  0.06396722  1
  Ba  Ba10  1  0.41680129  0.12282265  0.21513246  1
  Ba  Ba11  1  0.74644342  0.74930380  0.23269704  1
  Ba  Ba12  1  0.52373144  0.82087877  0.48633686  1
  Ba  Ba13  1  0.48073635  0.30103072  0.00808055  1
  Ba  Ba14  1  0.65143722  0.44968086  0.55455829  1
  Ba  Ba15  1  0.78218619  0.69073014  0.47279564  1
  Ba  Ba16  1  0.73646006  0.69116295  0.81473166  1
  Ba  Ba17  1  0.63559999  0.16265392  0.55464205  1
  Ba  Ba18  1  0.24110851  0.54784765  0.49832534  1
  Ba  Ba19  1  0.25518572  0.04074842  0.79051790  1
  Ba  Ba20  1  0.52251688  0.76151640  -0.02201526  1
  Ba  Ba21  1  -0.00002066  0.66801867  0.28410787  1
  Ba  Ba22  1  0.12729099  0.25704403  0.77363930  1
  Ba  Ba23  1  0.08605463  0.27589515  0.01624332  1
  Ba  Ba24  1  0.64475591  0.46312719  0.32664447  1
  Ba  Ba25  1  0.26142150  0.74843645  0.31004827  1
  Ba  Ba26  1  0.33045532  -0.09051057  0.11162266  1
  Ba  Ba27  1  0.46034666  0.77989693  0.73042627  1
  Ba  Ba28  1  0.19647904  0.46871284  0.23229093  1
  Ba  Ba29  1  0.70166933  0.23123556  0.79409923  1
  Ba  Ba30  1  0.81941197  0.03125093  0.86532444  1
  Ba  Ba31  1  0.41021177  0.27207465  0.49928975  1
  Ba  Ba32  1  -0.02321926  0.69787353  0.01326852  1
  Ba  Ba33  1  0.11315410  0.49203433  0.73750635  1
  Ba  Ba34  1  0.56394651  0.01674603  0.36008105  1
  Ba  Ba35  1  0.67035992  0.22975942  0.18128808  1
  Ba  Ba36  1  0.40924700  0.50946129  0.68193800  1
  Ba  Ba37  1  0.81169651  0.00595385  0.26756811  1
  Ba  Ba38  1  0.79849661  0.23839934  0.41964011  1
  Ba  Ba39  1  0.50024894  0.74316992  0.25305461  1
  Ba  Ba40  1  -0.04628771  0.23180808  0.19417839  1
  Ba  Ba41  1  0.37317608  0.25598201  0.73992436  1
  Ba  Ba42  1  0.76307314  0.86603139  0.03295534  1
  Ba  Ba43  1  0.54532676  0.54515411  0.06618432  1
  Ba  Ba44  1  0.82002183  -0.13630565  0.67282862  1
  Ba  Ba45  1  0.22138604  0.75928404  0.72249848  1
  Ba  Ba46  1  -0.07131985  0.13310863  0.68205676  1
  Ba  Ba47  1  0.13975438  -0.12180125  0.91334564  1
  Ba  Ba48  1  0.20855440  0.21622486  0.35955757  1
  Ba  Ba49  1  0.66109032  0.47129379  0.85129275  1
  Ba  Ba50  1  0.12275011  0.10261721  0.54654850  1
  Fe  Fe51  1  0.55211841  0.62045337  0.43623549  1
  Fe  Fe52  1  0.71371645  0.88407462  0.39998071  1
  Fe  Fe53  1  -0.02603175  0.38599701  0.86135881  1
  Fe  Fe54  1  0.05277502  0.65789731  0.66675370  1
  Fe  Fe55  1  0.38089470  0.93964804  0.61325628  1
  Fe  Fe56  1  0.27909167  0.94002963  0.48866190  1
  Fe  Fe57  1  0.84745566  0.40039686  0.32772100  1
  Fe  Fe58  1  0.83906302  0.38227818  0.79420976  1
  Fe  Fe59  1  0.34149400  0.63204585  0.85875734  1
  Fe  Fe60  1  0.90965239  0.68168674  0.73615913  1
  Fe  Fe61  1  0.23784321  0.92010560  0.61161090  1
  Fe  Fe62  1  0.32558586  0.07958181  0.47124466  1
  Fe  Fe63  1  0.28337950  0.18923119  0.08449630  1
  Fe  Fe64  1  0.82466718  0.34761006  0.93243839  1
  Fe  Fe65  1  0.32043117  0.07108078  0.99138345  1
  Fe  Fe66  1  0.94351181  0.71387973  0.61398738  1
  Fe  Fe67  1  0.31854870  0.28865278  0.21506786  1
  Fe  Fe68  1  0.02912426  0.68924272  0.80686934  1
  Fe  Fe69  1  0.90354091  0.04451019  0.46549026  1
  Fe  Fe70  1  0.41581121  0.64213177  0.41163904  1
  Fe  Fe71  1  0.81376713  0.42452062  0.18724224  1
  Fe  Fe72  1  -0.18894739  0.48393829  0.43245434  1
  Fe  Fe73  1  0.29412944  0.33428993  0.09985029  1
  Fe  Fe74  1  0.92026435  0.25560920  0.85142453  1
  Fe  Fe75  1  0.84388646  0.56858224  0.15434417  1
  Fe  Fe76  1  0.36806741  0.63107335  -0.01020276  1
  Fe  Fe77  1  0.75564917  0.02347148  0.44424598  1
  Fe  Fe78  1  0.71445296  0.54212531  0.17335683  1
  Fe  Fe79  1  0.26337955  0.71307747  0.04051006  1
  Fe  Fe80  1  0.88066120  1.21230940  -0.02572404  1
  Fe  Fe81  1  -0.04872085  0.33734507  0.73245534  1
  Fe  Fe82  1  0.57709278  0.64342182  0.56733908  1
  Fe  Fe83  1  0.81064037  0.31814994  0.07197806  1
  Fe  Fe84  1  0.30423529  0.05740720  0.60481129  1
  Fe  Fe85  1  0.42716146  0.99118443  0.49690480  1
  Fe  Fe86  1  0.18649702  0.09587332  0.99267690  1
  Fe  Fe87  1  -0.07522432  0.52236129  0.38853126  1
  Fe  Fe88  1  0.68186918  0.34788540  0.98806810  1
  Fe  Fe89  1  0.43317586  0.09273303  0.59159314  1
  Fe  Fe90  1  0.80160322  0.01862375  0.56935343  1
  Fe  Fe91  1  0.94104217  -0.03426738  0.55617429  1
  Fe  Fe92  1  0.67592431  0.39993437  0.11608431  1
  Fe  Fe93  1  0.84454790  0.89977811  0.46264604  1
  Fe  Fe94  1  0.69963191  0.92427947  0.52345054  1
  Fe  Fe95  1  0.31566542  0.75505604  0.92619603  1
  Fe  Fe96  1  0.76615217  0.46504465  1.04587864  1
  Fe  Fe97  1  0.19095626  0.26534777  0.17731943  1
  Fe  Fe98  1  1.01250987  0.79662578  0.72429672  1
  Fe  Fe99  1  0.82071805  0.54618241  0.29359163  1
  Fe  Fe100  1  0.44191840  0.64833864  0.54498394  1
  Fe  Fe101  1  0.73808438  0.22305656  -0.01671620  1
  Bi  Bi102  1  0.74478189  0.63639995  0.02795409  1
  Bi  Bi103  1  0.17097681  0.65113277  -0.10200810  1
  Bi  Bi104  1  0.28427011  0.23233210  -0.07076857  1
  Bi  Bi105  1  -0.06283986  0.84333739  0.19139172  1
  Bi  Bi106  1  0.79909867  0.09517209  0.06904467  1
  Bi  Bi107  1  0.34919202  -0.04708897  0.33673211  1
  Bi  Bi108  1  0.45033901  0.48533118  0.46758683  1
  Bi  Bi109  1  0.07266363  0.94630141  0.67915340  1
  Bi  Bi110  1  0.37268636  -0.08845581  -0.09592689  1
  Bi  Bi111  1  -0.01598392  0.44791323  0.24707725  1
  Bi  Bi112  1  0.31284257  0.76960153  0.53234821  1
  Bi  Bi113  1  -0.08961789  0.54296424  0.83519064  1
  Bi  Bi114  1  0.03025488  0.10632436  -0.11160309  1
  Bi  Bi115  1  0.43000095  0.48482894  0.88805457  1
  Bi  Bi116  1  0.55094182  0.33742755  0.68216526  1
  Bi  Bi117  1  -0.00576812  0.14738789  0.37841699  1
  Bi  Bi118  1  0.02918878  0.60389932  0.50135006  1
  Bi  Bi119  1  0.64312090  0.88422393  0.84161334  1
  Bi  Bi120  1  0.57782935  0.91334641  0.15524134  1
  Bi  Bi121  1  0.57473979  0.25397914  0.36594732  1
  Bi  Bi122  1  0.14173252  0.80579086  0.13333275  1
  Bi  Bi123  1  0.91858876  0.82767622  0.86599860  1
  Bi  Bi124  1  0.21794078  0.34001632  0.59120430  1
  Bi  Bi125  1  0.34192438  0.60546139  0.15013020  1
  Bi  Bi126  1  0.80905148  0.30798132  0.62995909  1
  Bi  Bi127  1  0.17999214  0.09429943  0.16453237  1
