# generated using pymatgen
data_Ba51Fe51Bi26
_symmetry_space_group_name_H-M   'P 1'
_cell_length_a   16.26360602
_cell_length_b   16.12722416
_cell_length_c   16.55076950
_cell_angle_alpha   92.27210816
_cell_angle_beta   91.35508217
_cell_angle_gamma   89.18776190
_symmetry_Int_Tables_number   1
_chemical_formula_structural   Ba51Fe51Bi26
_chemical_formula_sum   'Ba51 Fe51 Bi26'
_cell_volume   4336.04193931
_cell_formula_units_Z   1
loop_
 _symmetry_equiv_pos_site_id
 _symmetry_equiv_pos_as_xyz
  1  'x, y, z'
loop_
 _atom_site_type_symbol
 _atom_site_label
 _atom_site_symmetry_multiplicity
 _atom_site_fract_x
 _atom_site_fract_y
 _atom_site_fract_z
 _atom_site_occupancy
  Ba  Ba0  1  0.15539404  0.68993791  0.70222370  1
  Ba  Ba1  1  0.75065556  0.71647862  0.29351075  1
  Ba  Ba2  1  0.03414135  0.63309578  0.03336813  1
  Ba  Ba3  1  -0.03776507  0.49605229  0.24562153  1
  Ba  Ba4  1  -0.03095249  -0.00052778  0.29966770  1
  Ba  Ba5  1  0.18433979  0.51236208  0.46152134  1
  Ba  Ba6  1  -0.03219066  0.50022839  0.84047448  1
  Ba  Ba7  1  0.74621706  0.28231444  0.13221764  1
  Ba  Ba8  1  0.75942805  0.52801148  0.47176860  1
  Ba  Ba9  1  0.55539597  0.01520063  -0.08135540  1
  Ba  Ba10  1  0.31473962  0.73290266  0.44194649  1
  Ba  Ba11  1  0.20538660  0.33365881  -0.17210801  1
  Ba  Ba12  1  0.01184313  -0.12900857  0.05717794  1
  Ba  Ba13  1  0.45978026  0.45881833  0.77656570  1
  Ba  Ba14  1  0.10979623  -0.03339071  0.71296496  1
  Ba  Ba15  1  0.19390371  0.36357832  0.20612649  1
  Ba  Ba16  1  -0.02420534  0.39982738  0.47931623  1
  Ba  Ba17  1  0.74167798  0.33244782  0.79777723  1
  Ba  Ba18  1  0.48904326  0.26133575  0.50715801  1
  Ba  Ba19  1  0.67384437  0.78703418  -0.08827754  1
  Ba  Ba20  1  0.12355196  0.13653416  0.22615128  1
  Ba  Ba21  1  0.34263861  0.02721766  0.73843548  1
  Ba  Ba22  1  0.43590135  0.50230533  0.25411923  1
  Ba  Ba23  1  -0.06571080  0.78417157  0.84331614  1
  Ba  Ba24  1  0.00063637  0.74320623  0.27185362  1
  Ba  Ba25  1  0.33803206  0.44232903  0.02192506  1
  Ba  Ba26  1  0.74550749  -0.02125866  0.79742936  1
  Ba  Ba27  1  0.73301184  0.27121993  0.51365258  1
  Ba  Ba28  1  0.72825554  -0.01125958  0.55039876  1
  Ba  Ba29  1  0.81046774  0.01084105  0.05199371  1
  Ba  Ba30  1  -0.00586651  0.26229753  0.68859935  1
  Ba  Ba31  1  0.71811037  0.75557557  0.52963898  1
  Ba  Ba32  1  0.50786519  0.25165843  0.25385259  1
  Ba  Ba33  1  0.66667604  0.52302148  -0.03278387  1
  Ba  Ba34  1  0.08633278  0.82532849  0.48292820  1
  Ba  Ba35  1  0.24305038  0.66609340  0.20752664  1
  Ba  Ba36  1  0.24029787  0.29657695  0.57610713  1
  Ba  Ba37  1  -0.04374343  0.28283069  -0.00911961  1
  Ba  Ba38  1  0.72471730  -0.04690887  0.28318374  1
  Ba  Ba39  1  0.52707635  0.69705740  0.12372346  1
  Ba  Ba40  1  -0.06175508  0.64415718  0.61169996  1
  Ba  Ba41  1  -0.04563253  0.04516748  0.54587851  1
  Ba  Ba42  1  0.38208658  0.84207535  -0.06302018  1
  Ba  Ba43  1  0.69937860  0.51101988  0.20888047  1
  Ba  Ba44  1  0.48780637  -0.06061885  0.47714096  1
  Ba  Ba45  1  0.23703395  0.00714154  0.03678559  1
  Ba  Ba46  1  0.49628449  -0.01692560  0.17133287  1
  Ba  Ba47  1  0.68113579  0.61626353  0.72486541  1
  Ba  Ba48  1  0.47492099  0.51818289  0.52262325  1
  Ba  Ba49  1  0.30603631  0.00111155  0.31951428  1
  Ba  Ba50  1  0.50564942  0.25414718  -0.06924980  1
  Fe  Fe51  1  0.34478670  0.78398275  0.75416836  1
  Fe  Fe52  1  0.84341975  0.80362941  0.15565881  1
  Fe  Fe53  1  0.81649789  0.82584367  0.68857992  1
  Fe  Fe54  1  0.49198701  0.69583598  0.71324799  1
  Fe  Fe55  1  0.07964064  1.00713251  0.89721000  1
  Fe  Fe56  1  0.52562681  0.12429904  0.76713491  1
  Fe  Fe57  1  0.89802494  0.66864941  0.41940939  1
  Fe  Fe58  1  0.82860507  0.64824795  0.98967071  1
  Fe  Fe59  1  0.37266824  0.64355047  0.77525192  1
  Fe  Fe60  1  0.26396217  0.54906539  0.80545201  1
  Fe  Fe61  1  0.00791076  0.60314210  0.42381466  1
  Fe  Fe62  1  0.27967895  0.20406422  -0.01380060  1
  Fe  Fe63  1  0.80362515  0.10786085  0.38871243  1
  Fe  Fe64  1  0.22536563  0.98773527  0.50652278  1
  Fe  Fe65  1  0.49280971  0.11540618  0.63455667  1
  Fe  Fe66  1  0.71825621  0.83278350  0.10839913  1
  Fe  Fe67  1  0.33622620  0.69431551  0.04227240  1
  Fe  Fe68  1  0.63237624  0.12768704  0.65210929  1
  Fe  Fe69  1  0.74162667  0.20051624  0.31499202  1
  Fe  Fe70  1  0.84728411  0.14397757  0.24574402  1
  Fe  Fe71  1  0.36871789  0.70035706  0.63524694  1
  Fe  Fe72  1  0.21610122  0.13792023  0.43052525  1
  Fe  Fe73  1  0.14611156  0.14923837  -0.06698216  1
  Fe  Fe74  1  0.47584221  0.66669117  0.35508241  1
  Fe  Fe75  1  0.91455573  0.93057713  0.72000691  1
  Fe  Fe76  1  0.17155612  0.25357340  0.03628845  1
  Fe  Fe77  1  0.94176834  0.07279048  0.75310528  1
  Fe  Fe78  1  0.19049438  0.27575737  0.38223299  1
  Fe  Fe79  1  0.56511576  0.24348248  0.70250629  1
  Fe  Fe80  1  0.83399427  0.78226206  1.02313105  1
  Fe  Fe81  1  0.29523934  0.21316742  0.32808608  1
  Fe  Fe82  1  0.57119672  0.75548155  0.37295689  1
  Fe  Fe83  1  0.01988813  0.13261276  0.86061316  1
  Fe  Fe84  1  0.43815004  0.82960586  0.64974131  1
  Fe  Fe85  1  0.49037903  0.81680843  0.78108029  1
  Fe  Fe86  1  0.34469931  0.60656670  0.92211928  1
  Fe  Fe87  1  0.16813582  0.10030882  0.56239721  1
  Fe  Fe88  1  0.66266752  0.15641089  0.78506599  1
  Fe  Fe89  1  0.90978570  0.85346133  0.60601720  1
  Fe  Fe90  1  0.59357534  0.60633430  0.37736056  1
  Fe  Fe91  1  0.94043563  0.00010766  0.86833215  1
  Fe  Fe92  1  0.85890713  0.66090037  0.12483384  1
  Fe  Fe93  1  0.86352334  0.13781497  0.84555145  1
  Fe  Fe94  1  0.21473688  0.67598592  0.98821592  1
  Fe  Fe95  1  0.33084950  0.81763319  0.12717261  1
  Fe  Fe96  1  0.11999960  1.03211933  0.43368649  1
  Fe  Fe97  1  0.21832638  0.80125363  0.05366489  1
  Fe  Fe98  1  0.25938624  0.69993519  0.86142019  1
  Fe  Fe99  1  0.19719270  0.55398666  0.91589834  1
  Fe  Fe100  1  0.72942439  0.69760330  0.09044883  1
  Fe  Fe101  1  0.89562903  0.21099395  0.35947462  1
  Bi  Bi102  1  0.50895087  0.65580607  0.88335693  1
  Bi  Bi103  1  0.32385021  0.17962146  0.15422699  1
  Bi  Bi104  1  0.86079914  0.49012198  0.05188659  1
  Bi  Bi105  1  0.30530529  0.53695831  0.64255057  1
  Bi  Bi106  1  0.15079455  0.83536187  -0.10381737  1
  Bi  Bi107  1  0.33700064  0.37205026  0.38870440  1
  Bi  Bi108  1  0.51249134  0.72487616  0.53310049  1
  Bi  Bi109  1  0.34893850  0.10116415  0.53298749  1
  Bi  Bi110  1  0.80452485  0.15330064  0.68107823  1
  Bi  Bi111  1  0.39622482  0.24721287  0.73525912  1
  Bi  Bi112  1  0.55151453  -0.04159153  0.69372155  1
  Bi  Bi113  1  0.01977693  0.08381264  0.03154282  1
  Bi  Bi114  1  0.81263201  0.36129791  0.33396702  1
  Bi  Bi115  1  0.95933924  0.27396108  0.21497667  1
  Bi  Bi116  1  0.16923004  0.87567522  0.20443991  1
  Bi  Bi117  1  0.09509073  0.46297065  0.66489765  1
  Bi  Bi118  1  0.54526760  0.40446559  0.09104404  1
  Bi  Bi119  1  0.05240789  0.19728331  0.44398925  1
  Bi  Bi120  1  0.87679246  0.85095153  0.43153623  1
  Bi  Bi121  1  0.42521954  0.81352340  0.27757829  1
  Bi  Bi122  1  0.61900752  0.11024526  0.38859989  1
  Bi  Bi123  1  0.12125462  0.42696277  0.00624069  1
  Bi  Bi124  1  0.59579746  0.42344183  0.37737561  1
  Bi  Bi125  1  0.27072980  0.85650021  0.61132619  1
  Bi  Bi126  1  0.83663609  0.45020709  0.65537403  1
  Bi  Bi127  1  0.72343251  0.17343441  0.94261997  1
