# generated using pymatgen
data_Ba51Fe51Bi26
_symmetry_space_group_name_H-M   'P 1'
_cell_length_a   17.26723824
_cell_length_b   16.32669238
_cell_length_c   15.80052566
_cell_angle_alpha   92.36896604
_cell_angle_beta   89.61004498
_cell_angle_gamma   92.66637895
_symmetry_Int_Tables_number   1
_chemical_formula_structural   Ba51Fe51Bi26
_chemical_formula_sum   'Ba51 Fe51 Bi26'
_cell_volume   4445.75638870
_cell_formula_units_Z   1
loop_
 _symmetry_equiv_pos_site_id
 _symmetry_equiv_pos_as_xyz
  1  'x, y, z'
loop_
 _atom_site_type_symbol
 _atom_site_label
 _atom_site_symmetry_multiplicity
 _atom_site_fract_x
 _atom_site_fract_y
 _atom_site_fract_z
 _atom_site_occupancy
  Ba  Ba0  1  0.10532370  0.72303897  0.19296082  1
  Ba  Ba1  1  0.62471316  0.81455917  -0.05050283  1
  Ba  Ba2  1  0.68947770  0.80689188  0.71666408  1
  Ba  Ba3  1  0.28944226  0.25891411  0.59006190  1
  Ba  Ba4  1  0.86521815  0.02350160  0.11591397  1
  Ba  Ba5  1  0.48251021  0.50993338  0.24464298  1
  Ba  Ba6  1  0.39067568  0.02875778  0.21419788  1
  Ba  Ba7  1  0.38572281  -0.14191793  0.61177784  1
  Ba  Ba8  1  0.74205992  0.59733589  0.25503789  1
  Ba  Ba9  1  0.91789182  0.79256250  0.03482891  1
  Ba  Ba10  1  0.17201180  0.46905077  0.04404395  1
  Ba  Ba11  1  0.18612732  0.01748899  0.57330529  1
  Ba  Ba12  1  0.43665370  0.66239532  0.78048858  1
  Ba  Ba13  1  0.81131718  0.86664839  0.30032178  1
  Ba  Ba14  1  -0.12171503  0.38963069  0.80347849  1
  Ba  Ba15  1  -0.04391205  0.49402083  0.17410904  1
  Ba  Ba16  1  0.19583119  -0.03384081  0.32092929  1
  Ba  Ba17  1  0.09967603  0.23641395  0.09001471  1
  Ba  Ba18  1  0.39031988  -0.08247016  -0.05578042  1
  Ba  Ba19  1  0.12326499  0.00114362  0.05535989  1
  Ba  Ba20  1  0.70848684  0.04956872  0.75833645  1
  Ba  Ba21  1  0.38066051  0.73040799  0.19931284  1
  Ba  Ba22  1  0.08414019  0.27756165  0.82619270  1
  Ba  Ba23  1  0.15049280  0.77455936  0.69883285  1
  Ba  Ba24  1  0.23461697  0.48551262  0.77801049  1
  Ba  Ba25  1  0.02621900  0.35704564  0.58899584  1
  Ba  Ba26  1  0.21562063  0.69920544  -0.03819130  1
  Ba  Ba27  1  0.18516843  0.47722638  0.46362389  1
  Ba  Ba28  1  0.27180809  0.25504968  0.27422587  1
  Ba  Ba29  1  0.68042971  0.27448085  0.66347034  1
  Ba  Ba30  1  0.51282118  0.26798885  0.40013506  1
  Ba  Ba31  1  -0.02255049  0.85837970  0.46016620  1
  Ba  Ba32  1  0.45039763  0.55542102  0.00214652  1
  Ba  Ba33  1  0.51701223  0.25243736  0.11446117  1
  Ba  Ba34  1  0.78591215  0.56480120  0.69973190  1
  Ba  Ba35  1  -0.06935840  0.78563561  0.76178002  1
  Ba  Ba36  1  0.75558025  0.58483542  -0.03748794  1
  Ba  Ba37  1  -0.05564224  0.56981510  0.50368039  1
  Ba  Ba38  1  0.81465198  0.32125383  0.33447649  1
  Ba  Ba39  1  0.46924119  0.08267763  0.76148612  1
  Ba  Ba40  1  0.67339376  0.49456583  0.47601336  1
  Ba  Ba41  1  0.46228035  0.65681434  0.47342119  1
  Ba  Ba42  1  0.38189521  0.29850861  -0.11100100  1
  Ba  Ba43  1  0.43788142  0.45597523  0.62480959  1
  Ba  Ba44  1  0.72775092  0.34316474  0.02799010  1
  Ba  Ba45  1  0.21592107  0.05663842  0.83722351  1
  Ba  Ba46  1  0.57723351  0.84789140  0.30992557  1
  Ba  Ba47  1  -0.14019788  0.15274851  0.92070078  1
  Ba  Ba48  1  -0.07991990  0.13454184  0.56161320  1
  Ba  Ba49  1  0.20321709  0.71427445  0.43583614  1
  Ba  Ba50  1  0.69984761  0.02363585  0.49753014  1
  Fe  Fe51  1  0.92079426  0.01637692  0.77141977  1
  Fe  Fe52  1  0.99334561  0.30050126  0.26195499  1
  Fe  Fe53  1  0.49718679  0.45423781  0.82702676  1
  Fe  Fe54  1  0.28392613  0.44947979  0.25839099  1
  Fe  Fe55  1  0.97436936  -0.03546203  0.89327947  1
  Fe  Fe56  1  0.40358034  0.07560225  0.57020179  1
  Fe  Fe57  1  0.58183117  0.26650687  0.89549988  1
  Fe  Fe58  1  0.04698169  0.07734252  0.23404798  1
  Fe  Fe59  1  0.61233000  0.49245703  0.08226241  1
  Fe  Fe60  1  0.09377783  0.61630242  0.81448046  1
  Fe  Fe61  1  0.58006130  1.03614871  0.18710303  1
  Fe  Fe62  1  0.56579725  1.03905750  0.03988307  1
  Fe  Fe63  1  0.30292590  0.55141483  0.16725640  1
  Fe  Fe64  1  0.20298056  0.57197525  0.25602207  1
  Fe  Fe65  1  0.51187682  0.13523917  0.94654069  1
  Fe  Fe66  1  0.06000200  0.31464292  0.39137904  1
  Fe  Fe67  1  0.08953755  0.19543437  0.29977172  1
  Fe  Fe68  1  0.00113786  0.97614380  0.66116970  1
  Fe  Fe69  1  0.60233639  0.53475457  0.84155768  1
  Fe  Fe70  1  0.69117181  0.02483140  0.24965252  1
  Fe  Fe71  1  0.99303982  0.41385837  0.36026780  1
  Fe  Fe72  1  0.70250706  0.68640644  0.55020168  1
  Fe  Fe73  1  0.68654320  0.72989250  0.42348836  1
  Fe  Fe74  1  -0.05321206  0.16440242  0.23592397  1
  Fe  Fe75  1  0.05913614  0.49578811  0.87681518  1
  Fe  Fe76  1  0.06265887  0.96049386  0.77924558  1
  Fe  Fe77  1  0.99541446  0.59982003  0.70226944  1
  Fe  Fe78  1  0.05498240  1.07498544  0.38916458  1
  Fe  Fe79  1  0.11558093  0.57728391  0.66420173  1
  Fe  Fe80  1  0.97217317  0.19151156  0.37732407  1
  Fe  Fe81  1  0.04258405  0.47847623  0.74196211  1
  Fe  Fe82  1  0.64220394  0.14617999  0.94076379  1
  Fe  Fe83  1  0.65592580  0.39638191  0.83726021  1
  Fe  Fe84  1  0.58189466  1.01063468  0.90066404  1
  Fe  Fe85  1  0.31404802  0.56983214  0.32773391  1
  Fe  Fe86  1  0.43739672  0.99625682  0.44839058  1
  Fe  Fe87  1  0.69504934  1.01729791  0.97671515  1
  Fe  Fe88  1  0.82484820  0.74453416  0.57417026  1
  Fe  Fe89  1  0.81237916  0.69648127  0.44014410  1
  Fe  Fe90  1  0.52157529  0.98469132  0.56004841  1
  Fe  Fe91  1  0.52081852  0.11326625  0.52378008  1
  Fe  Fe92  1  0.94867400  1.03804263  0.32650691  1
  Fe  Fe93  1  0.61583630  0.62431745  0.10207006  1
  Fe  Fe94  1  0.95829636  0.57594280  -0.16551104  1
  Fe  Fe95  1  0.04084553  0.09643659  0.72358471  1
  Fe  Fe96  1  0.66888559  -0.04596251  0.11250285  1
  Fe  Fe97  1  0.75319050  0.82784013  0.50181397  1
  Fe  Fe98  1  0.02976577  0.08564062  0.86272911  1
  Fe  Fe99  1  0.60608059  0.45563652  0.72478869  1
  Fe  Fe100  1  0.53906053  0.33422615  0.78104287  1
  Fe  Fe101  1  0.57016762  0.41528042  0.94302875  1
  Bi  Bi102  1  0.81303515  0.10894074  0.33794577  1
  Bi  Bi103  1  0.08852945  -0.15132949  -0.09994259  1
  Bi  Bi104  1  -0.15501257  -0.07154802  0.61990777  1
  Bi  Bi105  1  0.00880837  -0.08995183  0.22796014  1
  Bi  Bi106  1  0.55975278  0.06529339  0.35479971  1
  Bi  Bi107  1  0.58984257  0.83136779  0.53112120  1
  Bi  Bi108  1  0.12497003  0.40543370  0.25320006  1
  Bi  Bi109  1  0.01912638  0.61149469  -0.00104887  1
  Bi  Bi110  1  0.69696158  0.14077898  0.11148696  1
  Bi  Bi111  1  0.12506475  0.19874570  0.48227151  1
  Bi  Bi112  1  0.48184669  0.24525590  0.63084548  1
  Bi  Bi113  1  0.59209275  0.60759976  0.65679450  1
  Bi  Bi114  1  0.51213086  -0.10904665  0.11239733  1
  Bi  Bi115  1  0.36298657  0.84849380  0.39080462  1
  Bi  Bi116  1  0.33233078  0.11735727  0.42302860  1
  Bi  Bi117  1  0.90501466  0.27790369  0.11293913  1
  Bi  Bi118  1  0.35475511  0.11991274  0.00164323  1
  Bi  Bi119  1  0.28611876  0.62985419  0.61915265  1
  Bi  Bi120  1  0.93086527  0.68110276  0.31542754  1
  Bi  Bi121  1  0.25629658  0.86354368  0.11527813  1
  Bi  Bi122  1  0.72068794  0.76079338  0.12341260  1
  Bi  Bi123  1  0.35025011  0.39029237  0.10598805  1
  Bi  Bi124  1  0.81383427  0.92723600  0.89509876  1
  Bi  Bi125  1  0.37067031  0.42223509  0.40924472  1
  Bi  Bi126  1  0.83007401  0.38351014  0.56687002  1
  Bi  Bi127  1  0.64704359  0.39918450  0.23207800  1
