# generated using pymatgen
data_Ba51Fe51Bi26
_symmetry_space_group_name_H-M   'P 1'
_cell_length_a   16.86006808
_cell_length_b   16.21974605
_cell_length_c   16.06196434
_cell_angle_alpha   88.50578591
_cell_angle_beta   87.69666800
_cell_angle_gamma   91.84685725
_symmetry_Int_Tables_number   1
_chemical_formula_structural   Ba51Fe51Bi26
_chemical_formula_sum   'Ba51 Fe51 Bi26'
_cell_volume   4384.92500701
_cell_formula_units_Z   1
loop_
 _symmetry_equiv_pos_site_id
 _symmetry_equiv_pos_as_xyz
  1  'x, y, z'
loop_
 _atom_site_type_symbol
 _atom_site_label
 _atom_site_symmetry_multiplicity
 _atom_site_fract_x
 _atom_site_fract_y
 _atom_site_fract_z
 _atom_site_occupancy
  Ba  Ba0  1  0.26285657  0.54059128  0.45617574  1
  Ba  Ba1  1  -0.04305800  -0.09163338  0.74830289  1
  Ba  Ba2  1  0.22506801  0.77543394  0.31138905  1
  Ba  Ba3  1  0.71552210  0.23063405  0.50983283  1
  Ba  Ba4  1  0.04203780  0.45395248  0.50509045  1
  Ba  Ba5  1  -0.09668405  0.54308692  0.34536120  1
  Ba  Ba6  1  0.46661275  0.24656913  0.21896265  1
  Ba  Ba7  1  0.00833835  0.48486962  0.81491082  1
  Ba  Ba8  1  0.72874441  0.31273057  0.25305192  1
  Ba  Ba9  1  -0.09715045  0.68078502  0.80839396  1
  Ba  Ba10  1  0.82237691  0.78928411  0.26736587  1
  Ba  Ba11  1  0.63420987  0.06107133  0.15337158  1
  Ba  Ba12  1  0.40599994  0.80576936  0.05602064  1
  Ba  Ba13  1  0.30536715  0.73181271  0.75907618  1
  Ba  Ba14  1  0.50923382  0.19699425  -0.09754499  1
  Ba  Ba15  1  0.46489666  0.56330449  0.83300985  1
  Ba  Ba16  1  -0.06669015  0.44713549  0.06124911  1
  Ba  Ba17  1  0.20182601  0.21380612  0.79086251  1
  Ba  Ba18  1  -0.00691564  0.70758909  0.51252751  1
  Ba  Ba19  1  -0.01768575  -0.03887047  0.48446095  1
  Ba  Ba20  1  0.47584709  0.21769813  0.51816714  1
  Ba  Ba21  1  0.85269025  -0.00874939  -0.00019399  1
  Ba  Ba22  1  0.30422554  0.51830883  0.03522838  1
  Ba  Ba23  1  0.12322429  0.69538534  0.06844852  1
  Ba  Ba24  1  0.07699902  -0.03036861  0.00634912  1
  Ba  Ba25  1  0.83107082  0.32492708  0.70672156  1
  Ba  Ba26  1  0.30778914  0.04158525  0.58027460  1
  Ba  Ba27  1  -0.08400078  0.05858946  0.23576164  1
  Ba  Ba28  1  0.01736444  0.30683292  0.23003896  1
  Ba  Ba29  1  0.51620305  0.42517640  0.02058291  1
  Ba  Ba30  1  0.69409261  -0.02915693  0.42815428  1
  Ba  Ba31  1  0.17861236  -0.06793991  0.79062701  1
  Ba  Ba32  1  0.53851460  0.48937685  0.46071081  1
  Ba  Ba33  1  0.22583568  0.50537242  0.81876961  1
  Ba  Ba34  1  0.20226088  0.82109901  0.56097563  1
  Ba  Ba35  1  0.38927903  -0.01051489  -0.12575153  1
  Ba  Ba36  1  0.55974919  0.69472300  0.23390234  1
  Ba  Ba37  1  0.00519874  0.23560479  -0.06380570  1
  Ba  Ba38  1  0.26897923  0.25161379  0.04972759  1
  Ba  Ba39  1  0.25223097  -0.03173624  0.16660691  1
  Ba  Ba40  1  0.46580596  0.76851672  0.47639840  1
  Ba  Ba41  1  0.69147784  0.55353922  0.70720708  1
  Ba  Ba42  1  0.25038697  0.16780275  0.31126304  1
  Ba  Ba43  1  0.72010501  0.53214831  0.12135084  1
  Ba  Ba44  1  0.74239049  0.17556359  -0.10919949  1
  Ba  Ba45  1  0.76533501  0.76124341  -0.00043283  1
  Ba  Ba46  1  -0.02776953  0.20571295  0.52622720  1
  Ba  Ba47  1  0.21968328  0.26974957  0.53660911  1
  Ba  Ba48  1  0.52311759  0.35861501  0.70725687  1
  Ba  Ba49  1  0.77569658  0.02068366  0.66348768  1
  Ba  Ba50  1  0.68277725  0.80179284  0.77904826  1
  Fe  Fe51  1  0.03413614  0.07182398  0.82187564  1
  Fe  Fe52  1  0.49704070  0.87065569  0.76898538  1
  Fe  Fe53  1  0.35956476  0.97222799  0.37333033  1
  Fe  Fe54  1  0.96456318  0.79908253  0.98219961  1
  Fe  Fe55  1  0.11370805  0.46775673  0.29384007  1
  Fe  Fe56  1  0.98507323  0.16419772  0.72944097  1
  Fe  Fe57  1  0.56808084  0.72856939  0.96587315  1
  Fe  Fe58  1  0.02964279  0.56309906  0.19951918  1
  Fe  Fe59  1  0.78858083  0.48323769  0.91253540  1
  Fe  Fe60  1  0.51252728  0.62555623  0.04007644  1
  Fe  Fe61  1  0.85966843  0.35027695  0.40568729  1
  Fe  Fe62  1  0.74225304  0.43694260  0.42004836  1
  Fe  Fe63  1  0.55214114  0.87333601  0.91358783  1
  Fe  Fe64  1  0.48103679  0.75910328  0.86707295  1
  Fe  Fe65  1  0.11348168  0.67526154  0.82398231  1
  Fe  Fe66  1  0.06275170  0.78800100  0.87289097  1
  Fe  Fe67  1  0.44417582  0.56187245  0.15855062  1
  Fe  Fe68  1  0.08779826  0.76133721  0.72741842  1
  Fe  Fe69  1  0.90769249  0.09127806  0.81729412  1
  Fe  Fe70  1  0.47150760  0.00424675  0.68730999  1
  Fe  Fe71  1  0.04671761  0.88434341  0.19159636  1
  Fe  Fe72  1  0.62667334  0.16976255  0.69588747  1
  Fe  Fe73  1  0.41770041  0.02621326  0.24224375  1
  Fe  Fe74  1  0.83898563  0.42129974  0.52840999  1
  Fe  Fe75  1  0.55132932  0.00057824  -0.01459339  1
  Fe  Fe76  1  0.41382346  0.52417251  0.30292820  1
  Fe  Fe77  1  0.78472973  0.69661485  0.45636234  1
  Fe  Fe78  1  0.66800792  0.96074716  -0.05338454  1
  Fe  Fe79  1  0.51055619  0.98968807  0.33087587  1
  Fe  Fe80  1  0.57151142  0.90749971  0.63471632  1
  Fe  Fe81  1  0.11848162  0.59902227  0.29349340  1
  Fe  Fe82  1  0.31182750  0.37125511  0.69331891  1
  Fe  Fe83  1  0.43121043  0.09395861  0.37532641  1
  Fe  Fe84  1  0.84114272  0.36447444  0.89831400  1
  Fe  Fe85  1  0.77188026  0.35440729  0.01581218  1
  Fe  Fe86  1  0.09104291  0.00540983  0.26818649  1
  Fe  Fe87  1  0.70910889  0.42381141  0.55200695  1
  Fe  Fe88  1  0.69068553  0.38626504  0.90944139  1
  Fe  Fe89  1  0.86474342  0.22686801  0.36811829  1
  Fe  Fe90  1  0.83159537  0.81830378  0.62724307  1
  Fe  Fe91  1  0.77272661  0.55775056  0.51177107  1
  Fe  Fe92  1  0.83399170  0.81893130  0.49410012  1
  Fe  Fe93  1  0.13419992  0.49540916  0.15888289  1
  Fe  Fe94  1  0.37930542  0.43314075  0.21446515  1
  Fe  Fe95  1  0.06302855  0.88704605  0.32614398  1
  Fe  Fe96  1  0.80828652  0.68767428  0.59401897  1
  Fe  Fe97  1  0.50268851  0.14530151  0.70691724  1
  Fe  Fe98  1  0.95284360  0.82802219  0.11297402  1
  Fe  Fe99  1  0.59217897  0.06166596  0.61589398  1
  Fe  Fe100  1  0.42507011  0.87328677  0.64697224  1
  Fe  Fe101  1  0.20922849  0.42779338  0.64638821  1
  Bi  Bi102  1  0.65311963  0.58732121  -0.07570736  1
  Bi  Bi103  1  0.42210514  0.07454465  0.07346798  1
  Bi  Bi104  1  0.67697432  0.79442253  0.55391455  1
  Bi  Bi105  1  0.01960191  0.73040154  0.28053233  1
  Bi  Bi106  1  0.60813424  0.86191984  0.08156478  1
  Bi  Bi107  1  0.55102672  0.45439184  0.23732543  1
  Bi  Bi108  1  0.89125709  0.54174952  0.63582960  1
  Bi  Bi109  1  0.60424558  0.02008638  0.80140167  1
  Bi  Bi110  1  0.19081644  -0.02651823  0.40055958  1
  Bi  Bi111  1  0.06147389  0.32519951  0.68597705  1
  Bi  Bi112  1  0.48942770  -0.01870522  0.50447074  1
  Bi  Bi113  1  0.50822091  0.72469537  0.68858438  1
  Bi  Bi114  1  0.27389471  0.57784977  0.23424868  1
  Bi  Bi115  1  0.13695933  0.61491715  0.65159331  1
  Bi  Bi116  1  0.37546897  0.51855972  0.63491536  1
  Bi  Bi117  1  0.36236899  0.36274772  0.38054561  1
  Bi  Bi118  1  0.59692455  0.14620309  0.34972051  1
  Bi  Bi119  1  0.70533591  0.59509718  0.34874289  1
  Bi  Bi120  1  0.36439973  0.35202314  0.86488864  1
  Bi  Bi121  1  0.42154883  0.85109226  0.27089236  1
  Bi  Bi122  1  0.10825115  0.13164662  0.14606456  1
  Bi  Bi123  1  0.85050224  0.21745571  0.08687103  1
  Bi  Bi124  1  0.09966681  0.06568669  0.64246600  1
  Bi  Bi125  1  0.63604147  0.26625499  0.05987726  1
  Bi  Bi126  1  0.91490192  0.65849761  0.09558501  1
  Bi  Bi127  1  0.12652612  0.40576788  1.00693496  1
