# generated using pymatgen
data_Ba51Fe51Bi26
_symmetry_space_group_name_H-M   'P 1'
_cell_length_a   16.18564316
_cell_length_b   16.72174004
_cell_length_c   16.25336699
_cell_angle_alpha   94.43886908
_cell_angle_beta   92.41443423
_cell_angle_gamma   91.63186270
_symmetry_Int_Tables_number   1
_chemical_formula_structural   Ba51Fe51Bi26
_chemical_formula_sum   'Ba51 Fe51 Bi26'
_cell_volume   4379.69498738
_cell_formula_units_Z   1
loop_
 _symmetry_equiv_pos_site_id
 _symmetry_equiv_pos_as_xyz
  1  'x, y, z'
loop_
 _atom_site_type_symbol
 _atom_site_label
 _atom_site_symmetry_multiplicity
 _atom_site_fract_x
 _atom_site_fract_y
 _atom_site_fract_z
 _atom_site_occupancy
  Ba  Ba0  1  0.19850400  0.22786301  0.69975386  1
  Ba  Ba1  1  0.50603119  0.21034672  0.57345562  1
  Ba  Ba2  1  0.25085473  0.75153108  0.29178337  1
  Ba  Ba3  1  0.30106622  0.01248955  0.50765861  1
  Ba  Ba4  1  -0.11910441  0.44100647  0.73794308  1
  Ba  Ba5  1  0.66322180  0.40384851  0.45546054  1
  Ba  Ba6  1  -0.09622492  0.69619022  0.53894415  1
  Ba  Ba7  1  0.08080687  0.73095192  0.03652677  1
  Ba  Ba8  1  0.35229226  0.57882865  0.92048284  1
  Ba  Ba9  1  0.06040677  0.49584464  0.47827185  1
  Ba  Ba10  1  -0.03732875  -0.07745197  -0.14424183  1
  Ba  Ba11  1  0.12432911  0.10052934  0.23265105  1
  Ba  Ba12  1  0.46908287  0.87153650  0.30937634  1
  Ba  Ba13  1  0.20014999  -0.07235471  -0.07344800  1
  Ba  Ba14  1  0.34270026  0.53561352  0.55221544  1
  Ba  Ba15  1  0.36649032  0.05589332  0.77782555  1
  Ba  Ba16  1  -0.04181479  -0.01051090  0.44677328  1
  Ba  Ba17  1  0.58976986  0.01784338  0.92380391  1
  Ba  Ba18  1  0.37923396  0.03245652  0.10275920  1
  Ba  Ba19  1  0.45075539  0.13964406  0.32111889  1
  Ba  Ba20  1  0.05855386  0.53534893  0.15941972  1
  Ba  Ba21  1  0.82616263  0.48547935  0.04697772  1
  Ba  Ba22  1  0.56787959  0.74268287  -0.05081841  1
  Ba  Ba23  1  0.24239301  0.28219632  0.39650216  1
  Ba  Ba24  1  0.29564679  0.75444349  0.74914920  1
  Ba  Ba25  1  0.23602417  0.17620325  -0.04104520  1
  Ba  Ba26  1  0.77111647  -0.12521421  0.05787712  1
  Ba  Ba27  1  0.47932555  0.41936552  0.67042360  1
  Ba  Ba28  1  0.54425136  0.41135527  0.06468903  1
  Ba  Ba29  1  0.53375937  0.50572875  0.29412923  1
  Ba  Ba30  1  0.38146221  0.78901309  0.08686536  1
  Ba  Ba31  1  0.76420311  0.14785125  0.75806801  1
  Ba  Ba32  1  0.14043169  0.48517123  0.75790105  1
  Ba  Ba33  1  -0.04380449  0.81775158  0.25438502  1
  Ba  Ba34  1  0.14168366  0.82616701  0.49319406  1
  Ba  Ba35  1  0.64027906  0.50340223  0.84044758  1
  Ba  Ba36  1  0.58702137  -0.02468807  0.50732087  1
  Ba  Ba37  1  -0.10429724  0.08370926  0.13548338  1
  Ba  Ba38  1  0.28922767  0.49993538  0.30334464  1
  Ba  Ba39  1  0.81049048  0.60644555  0.30697702  1
  Ba  Ba40  1  -0.01767696  0.18838064  -0.08599925  1
  Ba  Ba41  1  0.62247032  0.73246516  0.50126164  1
  Ba  Ba42  1  0.31069212  0.40572429  0.08532759  1
  Ba  Ba43  1  -0.16305527  0.25451365  0.52289995  1
  Ba  Ba44  1  0.57976414  0.26794549  0.84323267  1
  Ba  Ba45  1  -0.05473998  0.34117726  0.27968167  1
  Ba  Ba46  1  0.72015515  -0.02014690  0.30793492  1
  Ba  Ba47  1  -0.01404440  0.09287518  0.68098825  1
  Ba  Ba48  1  0.81712510  0.67448157  -0.11468895  1
  Ba  Ba49  1  0.54281734  0.84211911  0.71763763  1
  Ba  Ba50  1  0.01965369  0.70456295  0.75587301  1
  Fe  Fe51  1  0.72579443  0.58642474  0.56444867  1
  Fe  Fe52  1  0.69306583  0.09390351  0.09517162  1
  Fe  Fe53  1  0.14491999  0.31865412  0.16385177  1
  Fe  Fe54  1  0.05270344  0.23966536  0.10221883  1
  Fe  Fe55  1  0.63826326  0.77873273  0.30075387  1
  Fe  Fe56  1  0.60593864  0.21612917  1.06730707  1
  Fe  Fe57  1  0.36629350  0.28196549  0.79752180  1
  Fe  Fe58  1  0.63424985  0.65465138  0.23830697  1
  Fe  Fe59  1  0.60217936  0.26716170  0.22979324  1
  Fe  Fe60  1  0.34762278  0.84412679  0.59501447  1
  Fe  Fe61  1  0.68826949  0.50166596  0.65280533  1
  Fe  Fe62  1  0.31529820  0.39992397  0.77477308  1
  Fe  Fe63  1  0.13807709  -0.00691404  0.62305384  1
  Fe  Fe64  1  0.59089736  0.77730356  0.15942281  1
  Fe  Fe65  1  0.71421202  0.31628190  1.03605368  1
  Fe  Fe66  1  0.45301664  0.31973289  0.25058780  1
  Fe  Fe67  1  1.00576203  0.38579155  0.92943403  1
  Fe  Fe68  1  0.69991122  0.95809968  0.67552745  1
  Fe  Fe69  1  0.19990801  0.63648419  0.44215229  1
  Fe  Fe70  1  0.58103778  0.57614920  0.60081662  1
  Fe  Fe71  1  0.47435578  0.23492312  0.14447346  1
  Fe  Fe72  1  0.24793312  0.92693378  0.66918717  1
  Fe  Fe73  1  0.74016719  0.26755553  0.30755040  1
  Fe  Fe74  1  0.77532646  0.88218198  0.57176960  1
  Fe  Fe75  1  0.14031374  0.32280668  0.00564669  1
  Fe  Fe76  1  0.43421104  0.71666060  0.57878144  1
  Fe  Fe77  1  0.29965332  0.71807430  0.51124048  1
  Fe  Fe78  1  0.42021515  0.59738403  1.14511232  1
  Fe  Fe79  1  0.78833855  0.61121678  0.68681832  1
  Fe  Fe80  1  0.84542896  0.94376638  0.68139133  1
  Fe  Fe81  1  0.25183058  0.35837146  0.88981903  1
  Fe  Fe82  1  0.65718004  0.64634710  0.70304624  1
  Fe  Fe83  1  0.42061675  0.41326967  0.86641163  1
  Fe  Fe84  1  0.42086404  0.81478218  0.49092058  1
  Fe  Fe85  1  0.69888354  0.14713290  0.24699124  1
  Fe  Fe86  1  0.68650051  0.67521605  0.11414572  1
  Fe  Fe87  1  0.10788817  0.32512506  0.85675592  1
  Fe  Fe88  1  0.13289066  0.44540120  0.95670898  1
  Fe  Fe89  1  0.76060709  0.93508196  0.79577378  1
  Fe  Fe90  1  0.49599857  0.69219627  0.23528133  1
  Fe  Fe91  1  0.73146882  0.23819486  0.15145907  1
  Fe  Fe92  1  0.13472021  0.89520581  0.73263784  1
  Fe  Fe93  1  0.38289876  0.31185020  0.93008065  1
  Fe  Fe94  1  0.57510615  0.12248989  0.16319614  1
  Fe  Fe95  1  0.74148617  0.76646642  0.21644494  1
  Fe  Fe96  1  0.74211708  0.18979647  0.99637104  1
  Fe  Fe97  1  0.54366506  0.62956330  0.10658848  1
  Fe  Fe98  1  0.03003966  0.36770617  0.07036255  1
  Fe  Fe99  1  0.20425026  0.89936986  0.13776040  1
  Fe  Fe100  1  0.12878800  0.90340051  0.23921568  1
  Fe  Fe101  1  0.16406158  0.02678763  0.75645986  1
  Bi  Bi102  1  0.68303029  0.33648013  0.66285629  1
  Bi  Bi103  1  0.76743486  0.78055612  0.70604330  1
  Bi  Bi104  1  0.79522686  -0.18543981  0.40110902  1
  Bi  Bi105  1  0.42263145  0.66620688  0.39808011  1
  Bi  Bi106  1  0.86130081  0.68841444  0.10548071  1
  Bi  Bi107  1  0.80644996  0.04310528  0.93689744  1
  Bi  Bi108  1  -0.00693050  -0.11801100  0.63258830  1
  Bi  Bi109  1  0.00592616  0.55286884  -0.08504314  1
  Bi  Bi110  1  0.44028882  0.36320996  0.42487544  1
  Bi  Bi111  1  0.79979138  0.32695862  -0.10691518  1
  Bi  Bi112  1  0.71942307  0.40455495  0.22202355  1
  Bi  Bi113  1  0.45412299  0.17895112  -0.02072901  1
  Bi  Bi114  1  0.29892607  0.23146001  0.19193093  1
  Bi  Bi115  1  0.16013807  0.64489498  0.60583557  1
  Bi  Bi116  1  0.64702460  0.18047054  0.41147176  1
  Bi  Bi117  1  1.04276415  0.93413224  0.08249564  1
  Bi  Bi118  1  0.88337637  0.28287128  0.08097533  1
  Bi  Bi119  1  0.57640311  -0.05498731  0.12841658  1
  Bi  Bi120  1  0.28312461  0.97108874  0.28978313  1
  Bi  Bi121  1  0.40936729  0.88320547  0.89957832  1
  Bi  Bi122  1  0.25324538  0.61321464  0.11322726  1
  Bi  Bi123  1  1.04842701  0.65505072  0.35518180  1
  Bi  Bi124  1  0.79151449  0.04973509  0.55900197  1
  Bi  Bi125  1  0.86742070  0.15551819  0.33334721  1
  Bi  Bi126  1  0.48266043  0.63366202  0.73174278  1
  Bi  Bi127  1  0.56549116  0.06208927  0.70777241  1
