# generated using pymatgen
data_Ba51Fe51Bi26
_symmetry_space_group_name_H-M   'P 1'
_cell_length_a   15.92086022
_cell_length_b   16.71359318
_cell_length_c   16.45943894
_cell_angle_alpha   89.22497656
_cell_angle_beta   88.69935335
_cell_angle_gamma   91.33980616
_symmetry_Int_Tables_number   1
_chemical_formula_structural   Ba51Fe51Bi26
_chemical_formula_sum   'Ba51 Fe51 Bi26'
_cell_volume   4377.01229610
_cell_formula_units_Z   1
loop_
 _symmetry_equiv_pos_site_id
 _symmetry_equiv_pos_as_xyz
  1  'x, y, z'
loop_
 _atom_site_type_symbol
 _atom_site_label
 _atom_site_symmetry_multiplicity
 _atom_site_fract_x
 _atom_site_fract_y
 _atom_site_fract_z
 _atom_site_occupancy
  Ba  Ba0  1  0.75380458  0.37000531  -0.00556953  1
  Ba  Ba1  1  0.51016094  0.24937847  0.01994794  1
  Ba  Ba2  1  0.65621049  0.41833188  0.77043032  1
  Ba  Ba3  1  0.85586212  0.77615333  -0.05553562  1
  Ba  Ba4  1  0.52388499  0.70372867  0.29435457  1
  Ba  Ba5  1  0.52817586  0.03490712  0.30113089  1
  Ba  Ba6  1  0.65639698  0.64943611  0.78537705  1
  Ba  Ba7  1  0.80614182  0.01146597  0.13358659  1
  Ba  Ba8  1  0.42982877  0.81270340  0.07842838  1
  Ba  Ba9  1  0.19798119  -0.05437489  0.05989004  1
  Ba  Ba10  1  -0.04699742  -0.10885599  0.50422637  1
  Ba  Ba11  1  0.77650438  0.00393258  0.36228324  1
  Ba  Ba12  1  0.05439804  0.27113065  0.01252534  1
  Ba  Ba13  1  0.23405066  0.78111036  0.80279799  1
  Ba  Ba14  1  -0.07768608  0.49659838  0.34595851  1
  Ba  Ba15  1  0.05670400  0.66011207  0.49473406  1
  Ba  Ba16  1  -0.06585159  0.14646255  0.47386309  1
  Ba  Ba17  1  0.67372002  0.14407009  0.79878754  1
  Ba  Ba18  1  0.51708113  -0.01739481  0.56928187  1
  Ba  Ba19  1  0.43482170  0.72283783  0.69175622  1
  Ba  Ba20  1  0.85290245  0.23340437  0.24604115  1
  Ba  Ba21  1  0.85334651  0.58174052  0.08130004  1
  Ba  Ba22  1  0.01834251  -0.01236587  0.27890700  1
  Ba  Ba23  1  0.50433804  0.32957731  0.35905115  1
  Ba  Ba24  1  0.20393006  0.02712998  0.53204904  1
  Ba  Ba25  1  0.26431247  -0.04942696  0.28275663  1
  Ba  Ba26  1  0.55424740  0.51836506  0.14974868  1
  Ba  Ba27  1  0.41878216  0.26593087  0.75317605  1
  Ba  Ba28  1  0.01404573  0.48128322  0.71155939  1
  Ba  Ba29  1  0.32141771  0.19900249  0.21009120  1
  Ba  Ba30  1  0.28449383  0.52113262  0.46100155  1
  Ba  Ba31  1  0.16101118  0.01670728  0.77257096  1
  Ba  Ba32  1  -0.00601619  0.05492360  -0.02337694  1
  Ba  Ba33  1  -0.01669518  0.71208722  0.74225905  1
  Ba  Ba34  1  0.20694299  0.27542070  0.49574942  1
  Ba  Ba35  1  0.27544842  0.56038066  0.86782478  1
  Ba  Ba36  1  0.62908199  0.27017853  0.57251287  1
  Ba  Ba37  1  0.24059115  0.44418709  0.09962678  1
  Ba  Ba38  1  0.29023787  0.78545840  0.50635742  1
  Ba  Ba39  1  0.77876339  0.74249677  0.43271020  1
  Ba  Ba40  1  0.43273481  -0.01297906  0.86728180  1
  Ba  Ba41  1  0.72607281  0.50724406  0.50504355  1
  Ba  Ba42  1  -0.05963501  0.09988839  0.71348780  1
  Ba  Ba43  1  0.08904008  0.33779801  0.27986638  1
  Ba  Ba44  1  0.75956642  -0.11148926  0.73299234  1
  Ba  Ba45  1  0.24870408  0.41778142  0.69019325  1
  Ba  Ba46  1  0.24997498  0.64965292  0.25885527  1
  Ba  Ba47  1  -0.09564009  0.30798755  0.79687973  1
  Ba  Ba48  1  0.25998644  0.15573102  -0.04292285  1
  Ba  Ba49  1  0.63261671  -0.09018880  0.03564944  1
  Ba  Ba50  1  0.14329685  0.71084656  0.04730469  1
  Fe  Fe51  1  -0.00452680  0.90178550  0.72836880  1
  Fe  Fe52  1  0.48732298  0.56026962  0.90635329  1
  Fe  Fe53  1  0.70790095  0.11916637  0.99766860  1
  Fe  Fe54  1  0.84080719  0.77394520  0.14265222  1
  Fe  Fe55  1  0.58921120  0.69035415  0.47638565  1
  Fe  Fe56  1  0.96096415  0.44609251  0.94102399  1
  Fe  Fe57  1  0.10577667  0.43120095  0.90814660  1
  Fe  Fe58  1  0.84246140  0.19137444  0.04734909  1
  Fe  Fe59  1  0.56437101  0.60213382  0.58885039  1
  Fe  Fe60  1  0.03095818  0.68348916  0.29768831  1
  Fe  Fe61  1  0.87098568  0.68690449  0.26768455  1
  Fe  Fe62  1  -0.00392232  0.30746868  0.59113596  1
  Fe  Fe63  1  -0.05788978  0.32992704  0.45611811  1
  Fe  Fe64  1  0.56950193  0.44844624  0.95430074  1
  Fe  Fe65  1  0.71014361  0.20612507  0.09495753  1
  Fe  Fe66  1  0.95742267  0.80571685  0.29949010  1
  Fe  Fe67  1  0.69831933  0.04040351  0.63729814  1
  Fe  Fe68  1  0.63571111  0.56424985  0.96225683  1
  Fe  Fe69  1  0.42752024  0.69798355  0.90745244  1
  Fe  Fe70  1  0.43244642  0.53139370  0.57890568  1
  Fe  Fe71  1  0.69249614  0.08459934  0.51143109  1
  Fe  Fe72  1  0.13251809  0.32084482  0.82958315  1
  Fe  Fe73  1  0.42415934  0.45280919  -0.00360609  1
  Fe  Fe74  1  0.80033625  0.32694473  0.44654233  1
  Fe  Fe75  1  0.93093318  0.93516633  0.83263652  1
  Fe  Fe76  1  0.81381080  1.01337568  0.57045506  1
  Fe  Fe77  1  0.09613259  0.80593009  0.22016512  1
  Fe  Fe78  1  0.70576454  0.93381499  0.52849630  1
  Fe  Fe79  1  0.08396742  0.26722313  0.69528604  1
  Fe  Fe80  1  -0.02084712  0.71910871  0.17120006  1
  Fe  Fe81  1  0.13826001  0.11681978  0.17438492  1
  Fe  Fe82  1  0.45211150  0.41337900  0.87480681  1
  Fe  Fe83  1  0.88837246  0.40496431  0.55226241  1
  Fe  Fe84  1  0.65709989  0.15581042  0.21167018  1
  Fe  Fe85  1  0.19747899  0.21310175  0.74909456  1
  Fe  Fe86  1  0.82333610  0.17191698  0.92462044  1
  Fe  Fe87  1  0.08675980  0.19274290  0.82534778  1
  Fe  Fe88  1  0.54249112  0.45837894  0.59134000  1
  Fe  Fe89  1  0.10206514  0.79651641  0.34864883  1
  Fe  Fe90  1  0.49706946  0.78905380  0.48934403  1
  Fe  Fe91  1  0.60481468  0.09539498  0.10519414  1
  Fe  Fe92  1  0.84338663  0.28149558  0.58352761  1
  Fe  Fe93  1  0.77374929  0.42649948  0.21931612  1
  Fe  Fe94  1  0.05010691  0.48086541  0.03501084  1
  Fe  Fe95  1  0.72455193  0.37847142  0.33548987  1
  Fe  Fe96  1  0.44830716  0.65375137  0.50402965  1
  Fe  Fe97  1  0.77971380  0.14913356  0.61433621  1
  Fe  Fe98  1  0.73434150  0.72556163  0.22790006  1
  Fe  Fe99  1  0.82642640  0.83836511  0.25802829  1
  Fe  Fe100  1  0.61383564  0.84787877  0.44104996  1
  Fe  Fe101  1  0.54393353  0.67561826  -0.02999900  1
  Bi  Bi102  1  0.65343547  0.86870577  0.26202775  1
  Bi  Bi103  1  -0.07449978  0.39437148  0.12896411  1
  Bi  Bi104  1  0.79308907  0.00234065  -0.09349413  1
  Bi  Bi105  1  0.06598249  0.56152467  0.18640011  1
  Bi  Bi106  1  0.72678507  0.56995436  0.28985250  1
  Bi  Bi107  1  0.46604411  0.51342404  0.74031494  1
  Bi  Bi108  1  0.06291657  0.86063604  -0.10259958  1
  Bi  Bi109  1  0.28863106  0.35547999  -0.08964202  1
  Bi  Bi110  1  0.63192372  0.78731707  0.60266693  1
  Bi  Bi111  1  0.67111329  0.70020991  0.07422968  1
  Bi  Bi112  1  0.52377820  0.53157047  0.42437241  1
  Bi  Bi113  1  0.63965766  0.32600196  0.18469322  1
  Bi  Bi114  1  0.06993045  0.43961725  0.49927330  1
  Bi  Bi115  1  0.11793816  0.84868032  0.62331792  1
  Bi  Bi116  1  0.97921202  0.87505157  0.11099145  1
  Bi  Bi117  1  0.54816897  0.81555148  0.86334031  1
  Bi  Bi118  1  0.15442575  0.13535978  0.34119649  1
  Bi  Bi119  1  0.42274894  0.03648802  0.09243207  1
  Bi  Bi120  1  0.41117554  0.35236263  0.55782883  1
  Bi  Bi121  1  0.33840991  0.92630156  0.67706898  1
  Bi  Bi122  1  0.83107365  0.52844930  0.85799907  1
  Bi  Bi123  1  0.30109586  0.39608995  0.29646307  1
  Bi  Bi124  1  0.19919640  0.62590462  0.65635120  1
  Bi  Bi125  1  0.68639141  0.19895699  0.38129291  1
  Bi  Bi126  1  0.05100296  0.59076892  0.90376996  1
  Bi  Bi127  1  0.37596889  0.61328776  0.05440546  1
