# generated using pymatgen
data_Ba51Fe51Bi26
_symmetry_space_group_name_H-M   'P 1'
_cell_length_a   16.50241791
_cell_length_b   16.32031701
_cell_length_c   16.41132749
_cell_angle_alpha   89.93293142
_cell_angle_beta   90.13684530
_cell_angle_gamma   90.95008513
_symmetry_Int_Tables_number   1
_chemical_formula_structural   Ba51Fe51Bi26
_chemical_formula_sum   'Ba51 Fe51 Bi26'
_cell_volume   4419.35262682
_cell_formula_units_Z   1
loop_
 _symmetry_equiv_pos_site_id
 _symmetry_equiv_pos_as_xyz
  1  'x, y, z'
loop_
 _atom_site_type_symbol
 _atom_site_label
 _atom_site_symmetry_multiplicity
 _atom_site_fract_x
 _atom_site_fract_y
 _atom_site_fract_z
 _atom_site_occupancy
  Ba  Ba0  1  0.27181300  0.79870619  0.76286123  1
  Ba  Ba1  1  0.50384893  0.26360742  0.01800692  1
  Ba  Ba2  1  -0.03545389  0.05236977  -0.05508993  1
  Ba  Ba3  1  0.00849397  0.26158679  0.03740394  1
  Ba  Ba4  1  0.19298333  0.49217801  -0.00006401  1
  Ba  Ba5  1  0.01768455  0.45960672  0.24190971  1
  Ba  Ba6  1  0.89006063  0.44540053  -0.00732136  1
  Ba  Ba7  1  0.52773124  0.75502404  0.74336931  1
  Ba  Ba8  1  0.24418456  0.17584373  0.29619075  1
  Ba  Ba9  1  0.75217990  0.79787431  0.82880466  1
  Ba  Ba10  1  0.63529656  0.15069902  0.59157946  1
  Ba  Ba11  1  0.24858753  0.81170643  0.53597287  1
  Ba  Ba12  1  0.78001859  0.56865148  0.46690668  1
  Ba  Ba13  1  0.40706547  0.66614443  0.18015312  1
  Ba  Ba14  1  -0.02368693  -0.04847860  0.24626506  1
  Ba  Ba15  1  0.23746884  0.19560207  0.72492368  1
  Ba  Ba16  1  0.67203839  0.65464609  0.03860533  1
  Ba  Ba17  1  0.44455489  0.28215236  0.60099860  1
  Ba  Ba18  1  0.69489302  0.19891967  0.24051914  1
  Ba  Ba19  1  -0.03450679  0.80035301  0.47711595  1
  Ba  Ba20  1  0.18365319  -0.01765098  0.87470592  1
  Ba  Ba21  1  0.25993551  0.44514884  0.75530702  1
  Ba  Ba22  1  0.73667148  0.54981273  0.71116709  1
  Ba  Ba23  1  -0.00931238  -0.02405325  0.68768635  1
  Ba  Ba24  1  -0.00890211  0.47928201  0.77019709  1
  Ba  Ba25  1  0.76584816  0.77484919  0.25878159  1
  Ba  Ba26  1  0.20212072  0.76202669  0.00819777  1
  Ba  Ba27  1  0.16158668  0.72904135  0.33847130  1
  Ba  Ba28  1  0.34643845  0.05636972  0.03686907  1
  Ba  Ba29  1  0.28100563  0.27912652  -0.01670745  1
  Ba  Ba30  1  0.72173428  0.20278916  0.00034156  1
  Ba  Ba31  1  0.47438167  0.51770441  0.72245389  1
  Ba  Ba32  1  0.68577115  0.32546292  0.79374895  1
  Ba  Ba33  1  -0.03443975  0.22793243  0.72351752  1
  Ba  Ba34  1  0.24081889  0.47722025  0.33275465  1
  Ba  Ba35  1  0.73779663  0.02293359  0.75929593  1
  Ba  Ba36  1  0.75912957  0.30190967  0.44220319  1
  Ba  Ba37  1  0.00833701  0.19417089  0.26402006  1
  Ba  Ba38  1  0.47065871  0.26800248  0.28801290  1
  Ba  Ba39  1  0.56285834  -0.05236309  0.32612733  1
  Ba  Ba40  1  0.77050063  0.48726911  0.20436739  1
  Ba  Ba41  1  -0.02660815  0.68555774  0.10687561  1
  Ba  Ba42  1  0.46710104  0.83203771  -0.04118202  1
  Ba  Ba43  1  0.51833021  0.51072487  0.46352834  1
  Ba  Ba44  1  -0.01624218  0.71792580  0.72702172  1
  Ba  Ba45  1  0.40003770  -0.00061978  0.52489261  1
  Ba  Ba46  1  0.71777180  -0.04453602  0.05673723  1
  Ba  Ba47  1  0.30673297  -0.05935688  0.25602399  1
  Ba  Ba48  1  0.05138858  0.52607409  0.51293305  1
  Ba  Ba49  1  0.55309335  0.75650261  0.50138709  1
  Ba  Ba50  1  -0.00842497  0.23597388  0.48792688  1
  Fe  Fe51  1  0.83582319  0.17134319  0.85179902  1
  Fe  Fe52  1  0.50756458  0.97949451  0.12566906  1
  Fe  Fe53  1  0.31618824  0.33155305  0.44389011  1
  Fe  Fe54  1  0.35483716  0.65141124  0.60309501  1
  Fe  Fe55  1  0.55681881  0.10481925  0.12861736  1
  Fe  Fe56  1  0.85154217  0.28402244  0.15440016  1
  Fe  Fe57  1  0.61894285  0.53458748  0.88989090  1
  Fe  Fe58  1  0.60072545  0.44149977  0.27893446  1
  Fe  Fe59  1  0.56015583  0.40520401  0.14941141  1
  Fe  Fe60  1  0.83510295  0.10195019  0.38870368  1
  Fe  Fe61  1  0.92562828  0.88377946  0.86467026  1
  Fe  Fe62  1  0.33859346  0.02865044  0.74516477  1
  Fe  Fe63  1  0.87698455  0.84876481  -0.00670799  1
  Fe  Fe64  1  0.42456762  0.92704432  0.72210397  1
  Fe  Fe65  1  0.82742294  0.94113084  0.57281857  1
  Fe  Fe66  1  0.10540773  0.95015720  0.51034334  1
  Fe  Fe67  1  0.25989233  0.33439723  0.56711270  1
  Fe  Fe68  1  0.23180260  0.61368856  0.51828223  1
  Fe  Fe69  1  0.69464286  0.96806298  0.51977589  1
  Fe  Fe70  1  0.22868656  0.01598427  0.44929910  1
  Fe  Fe71  1  0.04714206  0.82968728  0.87811417  1
  Fe  Fe72  1  0.84378185  0.82453321  0.65039384  1
  Fe  Fe73  1  0.18016980  0.61998770  0.78866563  1
  Fe  Fe74  1  0.14232723  0.93568760  0.37858636  1
  Fe  Fe75  1  0.86733131  0.28954104  0.87675112  1
  Fe  Fe76  1  0.00783878  0.86861750  0.00132432  1
  Fe  Fe77  1  0.54321621  0.15515835  0.80294924  1
  Fe  Fe78  1  0.86511142  0.32712833  0.27178199  1
  Fe  Fe79  1  0.80962251  0.08081673  0.52882644  1
  Fe  Fe80  1  0.80725636  0.95931619  0.42431620  1
  Fe  Fe81  1  0.41558784  0.12590096  0.84020149  1
  Fe  Fe82  1  0.15413098  0.12762107  0.03952410  1
  Fe  Fe83  1  0.50041603  0.59061035  0.90976730  1
  Fe  Fe84  1  0.12802513  0.08550040  0.53320174  1
  Fe  Fe85  1  0.45968054  0.08115510  0.70155955  1
  Fe  Fe86  1  0.22021400  0.62275404  0.66033246  1
  Fe  Fe87  1  0.41300870  0.47770898  0.92784735  1
  Fe  Fe88  1  0.52621633  1.00245250  0.79683878  1
  Fe  Fe89  1  0.55883555  0.53796071  0.17231123  1
  Fe  Fe90  1  0.53634201  0.42946730  0.89615779  1
  Fe  Fe91  1  0.10279515  0.06450577  0.39302355  1
  Fe  Fe92  1  0.13518812  0.16318396  0.91783578  1
  Fe  Fe93  1  0.53284956  0.50425090  0.02646099  1
  Fe  Fe94  1  0.75107685  0.73243602  0.62791973  1
  Fe  Fe95  1  0.17853037  0.32498767  0.46268990  1
  Fe  Fe96  1  0.34932170  0.64658186  0.46702051  1
  Fe  Fe97  1  0.70999696  0.86315582  0.63113273  1
  Fe  Fe98  1  0.70632962  0.07391821  0.41629154  1
  Fe  Fe99  1  0.45347583  0.08554313  0.20616700  1
  Fe  Fe100  1  0.40040608  0.98428036  0.85497922  1
  Fe  Fe101  1  0.93682822  0.74885798  -0.07425866  1
  Bi  Bi102  1  0.56959770  -0.05500499  0.63686122  1
  Bi  Bi103  1  0.32795671  0.48392544  0.54983843  1
  Bi  Bi104  1  0.54918308  0.05315178  -0.04513013  1
  Bi  Bi105  1  0.44052275  0.47381956  0.27497550  1
  Bi  Bi106  1  -0.03893432  0.01935174  0.46725355  1
  Bi  Bi107  1  0.33853320  0.62781157  -0.12936707  1
  Bi  Bi108  1  0.67434130  0.41684736  0.00792780  1
  Bi  Bi109  1  0.20362309  -0.01316165  0.65139135  1
  Bi  Bi110  1  0.43869987  0.30674566  0.81699358  1
  Bi  Bi111  1  0.75707126  0.80175399  0.47311257  1
  Bi  Bi112  1  0.06400980  0.63818741  -0.09237826  1
  Bi  Bi113  1  0.76482017  -0.00350920  0.26869673  1
  Bi  Bi114  1  0.27377838  0.17682099  0.50578887  1
  Bi  Bi115  1  0.83665146  0.61581094  0.88951596  1
  Bi  Bi116  1  0.39272004  0.44079289  0.09085685  1
  Bi  Bi117  1  0.56804468  0.82240882  0.14562909  1
  Bi  Bi118  1  0.16866820  0.32720318  0.16805437  1
  Bi  Bi119  1  0.10839754  0.35534969  0.62165940  1
  Bi  Bi120  1  0.93888532  0.63776583  0.32933688  1
  Bi  Bi121  1  0.38593879  0.78549260  0.37123395  1
  Bi  Bi122  1  0.86795261  0.11320199  0.12633869  1
  Bi  Bi123  1  0.63481099  0.39010217  0.59610465  1
  Bi  Bi124  1  0.10760603  0.32209848  0.86241449  1
  Bi  Bi125  1  0.62955693  0.61463295  0.30869705  1
  Bi  Bi126  1  0.17917728  0.61765060  0.16754710  1
  Bi  Bi127  1  0.86897524  0.40003590  0.60388522  1
