# generated using pymatgen
data_Ba51Fe51Bi26
_symmetry_space_group_name_H-M   'P 1'
_cell_length_a   16.40773975
_cell_length_b   15.90687095
_cell_length_c   16.68111490
_cell_angle_alpha   89.06905832
_cell_angle_beta   90.32722679
_cell_angle_gamma   92.39867730
_symmetry_Int_Tables_number   1
_chemical_formula_structural   Ba51Fe51Bi26
_chemical_formula_sum   'Ba51 Fe51 Bi26'
_cell_volume   4349.25685626
_cell_formula_units_Z   1
loop_
 _symmetry_equiv_pos_site_id
 _symmetry_equiv_pos_as_xyz
  1  'x, y, z'
loop_
 _atom_site_type_symbol
 _atom_site_label
 _atom_site_symmetry_multiplicity
 _atom_site_fract_x
 _atom_site_fract_y
 _atom_site_fract_z
 _atom_site_occupancy
  Ba  Ba0  1  0.81276539  0.82221960  0.75585765  1
  Ba  Ba1  1  -0.10345707  -0.09365717  0.29880886  1
  Ba  Ba2  1  0.24022765  0.59686277  0.58061280  1
  Ba  Ba3  1  0.26933030  -0.06289372  0.37040803  1
  Ba  Ba4  1  0.54702704  0.56718882  0.46834214  1
  Ba  Ba5  1  0.53640891  0.24473935  0.47168526  1
  Ba  Ba6  1  0.22679227  0.20568101  0.78265747  1
  Ba  Ba7  1  0.69167010  0.16864962  -0.04213440  1
  Ba  Ba8  1  0.49935926  -0.03036011  0.31620776  1
  Ba  Ba9  1  0.22978063  -0.00654499  0.08641408  1
  Ba  Ba10  1  0.82567578  0.27684885  0.48384731  1
  Ba  Ba11  1  -0.00817258  0.69617406  0.20395323  1
  Ba  Ba12  1  0.45997074  -0.00153745  0.54740913  1
  Ba  Ba13  1  0.02745735  -0.10652251  0.68288351  1
  Ba  Ba14  1  -0.02370099  0.11148151  0.18813765  1
  Ba  Ba15  1  0.40759456  0.26967421  0.04596682  1
  Ba  Ba16  1  0.70395179  -0.00069412  0.45044898  1
  Ba  Ba17  1  0.19768713  0.20942196  0.25757357  1
  Ba  Ba18  1  0.73372443  0.50766615  0.68996871  1
  Ba  Ba19  1  0.23081727  0.47515432  0.22929777  1
  Ba  Ba20  1  0.33331363  0.79486303  -0.00618329  1
  Ba  Ba21  1  0.47897080  0.42301656  0.25219660  1
  Ba  Ba22  1  0.44751368  0.03278758  0.82069057  1
  Ba  Ba23  1  0.08887163  0.33460015  0.58615139  1
  Ba  Ba24  1  0.09006414  0.51954527  0.76017235  1
  Ba  Ba25  1  0.81247187  0.52872007  0.44486838  1
  Ba  Ba26  1  0.82887746  0.08371006  0.64433035  1
  Ba  Ba27  1  0.20437183  0.37315252  -0.04164985  1
  Ba  Ba28  1  0.68092895  0.55214210  0.19140188  1
  Ba  Ba29  1  0.23648134  0.17791714  0.48730480  1
  Ba  Ba30  1  0.61908891  0.20148797  0.70962863  1
  Ba  Ba31  1  0.27092506  0.63596412  0.83933541  1
  Ba  Ba32  1  0.03584497  0.56863887  -0.00305204  1
  Ba  Ba33  1  0.57172591  0.81818540  0.84420199  1
  Ba  Ba34  1  0.01042852  -0.06347657  -0.05518120  1
  Ba  Ba35  1  0.66409287  0.77252941  0.55756014  1
  Ba  Ba36  1  0.57124053  0.20128748  0.23153365  1
  Ba  Ba37  1  0.72520910  0.00855164  0.18745183  1
  Ba  Ba38  1  0.79977508  0.68663005  -0.01608269  1
  Ba  Ba39  1  0.03740333  0.02310307  0.44953414  1
  Ba  Ba40  1  0.28958399  0.69280946  0.36479149  1
  Ba  Ba41  1  0.35278415  0.38716237  0.54319143  1
  Ba  Ba42  1  0.55293910  0.74429225  0.25031800  1
  Ba  Ba43  1  -0.00156641  0.43447479  0.29018976  1
  Ba  Ba44  1  0.81273292  0.30525600  0.19283707  1
  Ba  Ba45  1  0.24080163  -0.01102504  0.65823229  1
  Ba  Ba46  1  -0.04117610  0.19771292  -0.02782494  1
  Ba  Ba47  1  0.51805067  -0.05711310  0.07017453  1
  Ba  Ba48  1  0.48614099  0.55530526  0.78022926  1
  Ba  Ba49  1  0.75620885  0.41320421  -0.07580819  1
  Ba  Ba50  1  0.00972070  0.73373144  0.44006424  1
  Fe  Fe51  1  0.12345194  0.57314992  0.37236401  1
  Fe  Fe52  1  0.48490560  0.59648844  0.13917121  1
  Fe  Fe53  1  0.73092974  0.18230395  0.33747361  1
  Fe  Fe54  1  0.44645377  0.23619355  0.81452258  1
  Fe  Fe55  1  0.84921657  0.13535318  0.34079344  1
  Fe  Fe56  1  0.69971327  0.67774482  0.37147651  1
  Fe  Fe57  1  0.94394276  0.38552598  0.04644816  1
  Fe  Fe58  1  0.12305280  0.72585422  0.69611232  1
  Fe  Fe59  1  0.90022100  0.40467587  0.61449137  1
  Fe  Fe60  1  -0.06728227  0.53903360  0.65593900  1
  Fe  Fe61  1  0.80594901  0.31057322  0.69583644  1
  Fe  Fe62  1  0.52634214  0.50722031  1.04122278  1
  Fe  Fe63  1  0.35594637  0.64364071  0.15099046  1
  Fe  Fe64  1  0.40900768  0.36786082  0.86486747  1
  Fe  Fe65  1  0.81391221  0.76120905  0.43898680  1
  Fe  Fe66  1  0.12007121  -0.02047431  0.24988403  1
  Fe  Fe67  1  0.08734831  0.85932930  0.30424877  1
  Fe  Fe68  1  0.83284790  0.01876306  0.02112532  1
  Fe  Fe69  1  0.85784913  0.25855652  0.80796798  1
  Fe  Fe70  1  0.17421029  0.46893068  0.42634056  1
  Fe  Fe71  1  0.54057419  0.27942088  0.90250392  1
  Fe  Fe72  1  0.53340505  0.41957390  -0.06943172  1
  Fe  Fe73  1  0.39699976  0.47988376  0.96009287  1
  Fe  Fe74  1  0.23110613  0.70481016  0.16233644  1
  Fe  Fe75  1  0.26694921  0.77561784  0.68864930  1
  Fe  Fe76  1  0.72262953  0.81322037  0.34587358  1
  Fe  Fe77  1  0.43999458  0.69927623  0.60806516  1
  Fe  Fe78  1  0.39427791  0.88066073  0.69793177  1
  Fe  Fe79  1  0.82322164  0.69752317  0.32174184  1
  Fe  Fe80  1  0.38491453  0.24330147  0.32236828  1
  Fe  Fe81  1  0.32332658  0.84464033  0.80798695  1
  Fe  Fe82  1  0.40131772  0.74393258  0.72894518  1
  Fe  Fe83  1  -0.04479662  0.16505387  0.77410967  1
  Fe  Fe84  1  0.35606277  0.80366891  0.58167155  1
  Fe  Fe85  1  0.03746700  0.64967662  0.61065648  1
  Fe  Fe86  1  0.69627736  0.84630606  0.04163996  1
  Fe  Fe87  1  0.18836509  0.82193245  0.79703530  1
  Fe  Fe88  1  -0.09561338  0.40573617  0.75056040  1
  Fe  Fe89  1  0.50182892  0.82278329  0.64236743  1
  Fe  Fe90  1  0.55164533  0.36496913  0.79465568  1
  Fe  Fe91  1  0.70698342  -0.03097672  -0.02098931  1
  Fe  Fe92  1  0.42987764  0.33723197  0.72391836  1
  Fe  Fe93  1  0.38735409  0.12274633  0.37258976  1
  Fe  Fe94  1  0.18080748  0.83083115  0.21149807  1
  Fe  Fe95  1  0.96865043  0.67734927  0.71784733  1
  Fe  Fe96  1  0.80433267  0.88983955  0.93850547  1
  Fe  Fe97  1  0.93367850  0.26774856  0.67841978  1
  Fe  Fe98  1  0.42222344  0.61714498  1.01080019  1
  Fe  Fe99  1  0.83347609  0.89140925  0.07208560  1
  Fe  Fe100  1  0.38266746  0.49395351  0.09888691  1
  Fe  Fe101  1  0.05348548  -0.10151710  0.16575063  1
  Bi  Bi102  1  0.83762408  0.04709788  -0.14721715  1
  Bi  Bi103  1  0.18448675  0.80646760  0.54401550  1
  Bi  Bi104  1  0.23059187  -0.02370905  0.87077255  1
  Bi  Bi105  1  0.12302742  0.78762903  0.05719805  1
  Bi  Bi106  1  0.28995051  0.43117967  0.74690266  1
  Bi  Bi107  1  0.03730779  0.31445563  0.81358996  1
  Bi  Bi108  1  0.24694935  0.57317489  0.03862627  1
  Bi  Bi109  1  -0.11270387  0.56474024  0.82643612  1
  Bi  Bi110  1  0.61010518  0.35220060  0.07096863  1
  Bi  Bi111  1  0.02350214  0.51578843  0.50061276  1
  Bi  Bi112  1  0.57215756  0.71025102  0.03376495  1
  Bi  Bi113  1  0.47078777  0.78985710  0.45795228  1
  Bi  Bi114  1  0.76647418  0.77247960  0.18151985  1
  Bi  Bi115  1  0.07445837  0.32388147  0.12389656  1
  Bi  Bi116  1  0.86908783  0.51325136  0.11583965  1
  Bi  Bi117  1  1.00378928  0.22497759  0.37407024  1
  Bi  Bi118  1  0.62525976  0.95476491  0.67800051  1
  Bi  Bi119  1  0.67382127  0.36678143  0.34858614  1
  Bi  Bi120  1  0.85691760  0.68199577  0.59301267  1
  Bi  Bi121  1  0.05565720  0.12151121  0.64431345  1
  Bi  Bi122  1  0.37633822  0.10626055  0.20496936  1
  Bi  Bi123  1  0.39556315  0.17992903  0.64927109  1
  Bi  Bi124  1  0.35838647  0.82971801  0.20136210  1
  Bi  Bi125  1  1.04603210  0.74021528  0.84973956  1
  Bi  Bi126  1  0.55328650  0.40760274  0.62430152  1
  Bi  Bi127  1  0.87083218  0.89909781  0.52920478  1
