# generated using pymatgen
data_Ba51Fe51Bi26
_symmetry_space_group_name_H-M   'P 1'
_cell_length_a   16.50423431
_cell_length_b   15.88385848
_cell_length_c   17.06608198
_cell_angle_alpha   88.49539376
_cell_angle_beta   90.60298198
_cell_angle_gamma   91.75421188
_symmetry_Int_Tables_number   1
_chemical_formula_structural   Ba51Fe51Bi26
_chemical_formula_sum   'Ba51 Fe51 Bi26'
_cell_volume   4470.03908999
_cell_formula_units_Z   1
loop_
 _symmetry_equiv_pos_site_id
 _symmetry_equiv_pos_as_xyz
  1  'x, y, z'
loop_
 _atom_site_type_symbol
 _atom_site_label
 _atom_site_symmetry_multiplicity
 _atom_site_fract_x
 _atom_site_fract_y
 _atom_site_fract_z
 _atom_site_occupancy
  Ba  Ba0  1  0.84643145  0.82666971  0.75546871  1
  Ba  Ba1  1  0.54847788  0.07859526  0.73629370  1
  Ba  Ba2  1  0.66174823  0.09583734  0.06020771  1
  Ba  Ba3  1  0.74256470  0.61473847  -0.11409191  1
  Ba  Ba4  1  0.14044744  0.13905213  0.83030437  1
  Ba  Ba5  1  0.38659347  0.23447291  0.31459393  1
  Ba  Ba6  1  0.66883102  0.84673437  -0.06204702  1
  Ba  Ba7  1  0.82631006  -0.14291102  0.16415016  1
  Ba  Ba8  1  0.48239928  0.33726180  0.75895986  1
  Ba  Ba9  1  0.78298836  0.54805389  0.66235810  1
  Ba  Ba10  1  0.26370921  0.00419314  0.46609644  1
  Ba  Ba11  1  -0.06142850  0.37087996  0.32823961  1
  Ba  Ba12  1  0.17445232  0.60447468  0.25714660  1
  Ba  Ba13  1  0.46094520  0.51861078  0.32386591  1
  Ba  Ba14  1  0.02883618  0.24645628  0.05729458  1
  Ba  Ba15  1  0.72260680  0.34797037  -0.03987221  1
  Ba  Ba16  1  0.59014524  -0.04753138  0.26785263  1
  Ba  Ba17  1  0.07206355  0.69878719  0.75147144  1
  Ba  Ba18  1  0.00329325  0.82326955  0.43529244  1
  Ba  Ba19  1  0.52033762  0.59982664  0.05311888  1
  Ba  Ba20  1  0.22872959  0.51323936  0.01656158  1
  Ba  Ba21  1  0.39308951  0.75973833  0.19485185  1
  Ba  Ba22  1  0.58436632  0.07020489  0.47908064  1
  Ba  Ba23  1  0.51110564  0.34744908  0.08609587  1
  Ba  Ba24  1  0.70936562  0.47619798  0.21072321  1
  Ba  Ba25  1  0.74597652  0.81513896  0.54173630  1
  Ba  Ba26  1  0.05672790  -0.03069360  0.00057457  1
  Ba  Ba27  1  0.42563787  0.11105928  0.11124911  1
  Ba  Ba28  1  -0.02208234  0.40573715  0.72325257  1
  Ba  Ba29  1  0.47031481  0.66333027  0.82826837  1
  Ba  Ba30  1  0.17374116  0.34824211  0.23563064  1
  Ba  Ba31  1  0.03119970  -0.03594881  0.64759023  1
  Ba  Ba32  1  0.58820614  0.61753448  0.52447765  1
  Ba  Ba33  1  0.66443826  0.36761278  0.45793684  1
  Ba  Ba34  1  -0.03595713  0.51028786  -0.05427228  1
  Ba  Ba35  1  0.29203904  -0.05693386  0.69193345  1
  Ba  Ba36  1  0.44314333  0.78107967  0.61971931  1
  Ba  Ba37  1  0.32680142  0.28609482  0.53614106  1
  Ba  Ba38  1  0.78298858  0.05367716  0.81876259  1
  Ba  Ba39  1  0.05339347  0.55001961  0.50643994  1
  Ba  Ba40  1  0.43507997  -0.10892705  0.02849321  1
  Ba  Ba41  1  0.82819942  0.60823093  0.41171101  1
  Ba  Ba42  1  0.20379263  0.84839158  0.29628584  1
  Ba  Ba43  1  -0.00536681  0.20451801  0.52075218  1
  Ba  Ba44  1  0.84299277  0.18465878  0.18545208  1
  Ba  Ba45  1  0.80968319  0.00095036  0.38283225  1
  Ba  Ba46  1  -0.06229344  0.62929354  0.15007850  1
  Ba  Ba47  1  0.75696775  0.26377933  0.66375096  1
  Ba  Ba48  1  0.31400071  0.24902623  -0.05163716  1
  Ba  Ba49  1  0.06475253  0.05363997  0.24908223  1
  Ba  Ba50  1  0.28265448  0.59875424  0.53606233  1
  Fe  Fe51  1  0.62241186  0.76826429  0.20755675  1
  Fe  Fe52  1  0.87452298  0.86623781  0.95568813  1
  Fe  Fe53  1  0.73031753  0.68473256  0.25429991  1
  Fe  Fe54  1  0.77857710  0.12167809  0.52790061  1
  Fe  Fe55  1  0.72588735  0.28477730  0.30399825  1
  Fe  Fe56  1  0.30622866  -0.07039949  0.88125000  1
  Fe  Fe57  1  0.31172401  0.78848856  0.45126195  1
  Fe  Fe58  1  0.29722444  0.42180043  0.67656511  1
  Fe  Fe59  1  0.26240362  0.00465621  0.17454605  1
  Fe  Fe60  1  0.67585658  0.77100125  0.34113328  1
  Fe  Fe61  1  0.19118554  0.51937445  0.82148210  1
  Fe  Fe62  1  0.16489965  0.38456572  0.74952315  1
  Fe  Fe63  1  0.14277715  0.35231018  0.43132746  1
  Fe  Fe64  1  0.21899971  0.83098564  -0.02437216  1
  Fe  Fe65  1  0.60340104  0.21477610  0.34938991  1
  Fe  Fe66  1  0.52923654  0.72886262  0.32954803  1
  Fe  Fe67  1  0.55793160  0.17343589  0.23323483  1
  Fe  Fe68  1  0.72764568  1.01825470  0.61701828  1
  Fe  Fe69  1  0.44188239  0.71107801  0.43901327  1
  Fe  Fe70  1  0.84326928  0.73810440  0.00019281  1
  Fe  Fe71  1  -0.04007223  0.28499279  0.88613894  1
  Fe  Fe72  1  0.41692883  0.83402011  0.37097012  1
  Fe  Fe73  1  0.25039407  0.28396270  0.71527511  1
  Fe  Fe74  1  0.34020243  0.69470850  0.36006272  1
  Fe  Fe75  1  0.39829145  0.05229180  0.88640385  1
  Fe  Fe76  1  0.85178193  0.20260781  -0.03042530  1
  Fe  Fe77  1  0.27897790  0.39226793  0.82334977  1
  Fe  Fe78  1  0.58490284  0.64069235  0.22839494  1
  Fe  Fe79  1  0.64234490  0.62513555  0.34326545  1
  Fe  Fe80  1  0.66373993  0.44075359  0.79031400  1
  Fe  Fe81  1  0.32699298  0.51830897  0.77380010  1
  Fe  Fe82  1  0.19147766  0.51836682  0.69214955  1
  Fe  Fe83  1  0.97378811  0.78791185  0.03942994  1
  Fe  Fe84  1  0.58197482  0.32421042  0.26993154  1
  Fe  Fe85  1  0.94273096  0.14024345  0.90042960  1
  Fe  Fe86  1  0.84150999  0.24791802  0.84403794  1
  Fe  Fe87  1  0.84474675  0.98210989  0.56842650  1
  Fe  Fe88  1  0.59396684  0.54194276  0.73783606  1
  Fe  Fe89  1  0.65757360  0.25251097  0.18828199  1
  Fe  Fe90  1  0.28697119  0.79387482  0.85670397  1
  Fe  Fe91  1  0.68632734  0.13380185  0.28480221  1
  Fe  Fe92  1  0.52407704  1.02610583  0.91655707  1
  Fe  Fe93  1  0.94208956  0.73598829  0.91552552  1
  Fe  Fe94  1  0.04492470  0.45876941  0.13826370  1
  Fe  Fe95  1  0.74603477  0.18925679  0.40137472  1
  Fe  Fe96  1  0.21636243  0.73314191  0.09370103  1
  Fe  Fe97  1  0.10556079  0.80257199  0.10244668  1
  Fe  Fe98  1  0.25176174  0.08592794  0.27459982  1
  Fe  Fe99  1  0.57943723  0.48680023  0.87349158  1
  Fe  Fe100  1  0.23121689  0.88575052  0.10511394  1
  Fe  Fe101  1  0.85780586  0.09351330  0.63358222  1
  Bi  Bi102  1  0.38686276  -0.00881091  0.29471497  1
  Bi  Bi103  1  0.34914998  0.15292639  0.75413779  1
  Bi  Bi104  1  0.71693075  0.67379541  0.09165739  1
  Bi  Bi105  1  0.27527898  0.67656002  0.73698253  1
  Bi  Bi106  1  0.14341687  0.37521150  0.59182248  1
  Bi  Bi107  1  0.56421194  0.84593833  0.45252758  1
  Bi  Bi108  1  0.11700858  0.36420118  0.90099818  1
  Bi  Bi109  1  0.44417327  0.52391791  0.65341872  1
  Bi  Bi110  1  -0.04688525  0.18192431  0.73652679  1
  Bi  Bi111  1  0.33826407  0.70124536  -0.00820988  1
  Bi  Bi112  1  0.09351096  0.68772731  -0.02029612  1
  Bi  Bi113  1  0.26410523  0.02492047  0.00084000  1
  Bi  Bi114  1  -0.14337353  0.03157844  0.01989740  1
  Bi  Bi115  1  0.87154430  0.40729384  0.52511440  1
  Bi  Bi116  1  0.41361255  0.45639710  0.91831379  1
  Bi  Bi117  1  0.27095420  0.45120192  0.38624953  1
  Bi  Bi118  1  0.65203026  0.71648161  0.71458079  1
  Bi  Bi119  1  0.18881668  0.13547339  0.62844083  1
  Bi  Bi120  1  0.53304596  0.19873043  0.92753142  1
  Bi  Bi121  1  0.92530672  0.70766064  0.59223440  1
  Bi  Bi122  1  0.21660242  0.17301858  0.13750805  1
  Bi  Bi123  1  0.17786431  0.80830977  0.54734867  1
  Bi  Bi124  1  0.17267316  0.18883105  0.38458641  1
  Bi  Bi125  1  0.88900031  0.40337840  0.11938086  1
  Bi  Bi126  1  0.46549051  0.89352687  0.82311250  1
  Bi  Bi127  1  0.14375696  0.89429113  0.82946663  1
