# generated using pymatgen
data_Ba51Fe51Bi26
_symmetry_space_group_name_H-M   'P 1'
_cell_length_a   16.17574842
_cell_length_b   16.21227902
_cell_length_c   16.60622676
_cell_angle_alpha   91.71434797
_cell_angle_beta   88.89017261
_cell_angle_gamma   91.34144022
_symmetry_Int_Tables_number   1
_chemical_formula_structural   Ba51Fe51Bi26
_chemical_formula_sum   'Ba51 Fe51 Bi26'
_cell_volume   4351.01060584
_cell_formula_units_Z   1
loop_
 _symmetry_equiv_pos_site_id
 _symmetry_equiv_pos_as_xyz
  1  'x, y, z'
loop_
 _atom_site_type_symbol
 _atom_site_label
 _atom_site_symmetry_multiplicity
 _atom_site_fract_x
 _atom_site_fract_y
 _atom_site_fract_z
 _atom_site_occupancy
  Ba  Ba0  1  0.72312810  0.67846655  0.23208766  1
  Ba  Ba1  1  0.00597441  -0.07011383  0.16701738  1
  Ba  Ba2  1  0.55584089  0.78709836  0.81511862  1
  Ba  Ba3  1  0.27039903  0.03940248  0.47192673  1
  Ba  Ba4  1  0.06070486  0.67112904  -0.10173693  1
  Ba  Ba5  1  0.20695692  0.31862317  -0.09377736  1
  Ba  Ba6  1  0.31718256  0.80305556  0.77802864  1
  Ba  Ba7  1  -0.05140952  0.28521569  0.60574220  1
  Ba  Ba8  1  -0.00531817  -0.00684256  0.43305488  1
  Ba  Ba9  1  0.23275115  0.51967498  0.78258615  1
  Ba  Ba10  1  0.26822672  0.72095388  0.42744301  1
  Ba  Ba11  1  0.20906725  0.28107795  0.63459369  1
  Ba  Ba12  1  0.08768830  0.71236918  0.25881108  1
  Ba  Ba13  1  0.48469389  0.63021712  0.37669116  1
  Ba  Ba14  1  0.68673698  0.80083502  0.01939133  1
  Ba  Ba15  1  0.77034048  0.53279586  0.02792613  1
  Ba  Ba16  1  0.76628807  0.50922540  0.59707992  1
  Ba  Ba17  1  0.50946437  0.24024428  0.46780335  1
  Ba  Ba18  1  0.50384712  0.22967666  0.19038643  1
  Ba  Ba19  1  0.74359481  -0.00252314  0.28114540  1
  Ba  Ba20  1  0.39474060  0.20214839  -0.03251450  1
  Ba  Ba21  1  0.48920554  0.77602714  0.17129126  1
  Ba  Ba22  1  0.23026224  0.14678712  0.25040582  1
  Ba  Ba23  1  0.69951303  0.25682502  0.63650840  1
  Ba  Ba24  1  0.71802011  0.08372885  -0.01460465  1
  Ba  Ba25  1  0.04068989  0.16053110  0.80799675  1
  Ba  Ba26  1  0.25760795  0.45070134  0.30695652  1
  Ba  Ba27  1  0.11389400  0.71138561  0.68246134  1
  Ba  Ba28  1  0.18776804  0.04580655  -0.00595325  1
  Ba  Ba29  1  0.78811076  -0.17453131  0.50825176  1
  Ba  Ba30  1  0.20538057  0.78995419  0.06400619  1
  Ba  Ba31  1  -0.04017528  0.16487193  0.04061023  1
  Ba  Ba32  1  0.65693572  0.00822531  0.70847119  1
  Ba  Ba33  1  -0.08195997  0.19291609  0.32866601  1
  Ba  Ba34  1  0.54952805  -0.00234290  0.48496570  1
  Ba  Ba35  1  -0.09258834  0.60848795  0.38299634  1
  Ba  Ba36  1  0.69265091  0.41909211  0.35410861  1
  Ba  Ba37  1  0.37923182  0.44431692  0.53481146  1
  Ba  Ba38  1  0.61057294  0.34553191  -0.03141262  1
  Ba  Ba39  1  0.07757587  0.50347001  0.54235512  1
  Ba  Ba40  1  0.36994324  -0.02563808  0.14951406  1
  Ba  Ba41  1  0.48192759  0.50583672  0.14928772  1
  Ba  Ba42  1  -0.08179460  -0.11030411  -0.06164098  1
  Ba  Ba43  1  -0.02217052  -0.07378252  0.69523763  1
  Ba  Ba44  1  0.83124967  0.31892332  0.82679364  1
  Ba  Ba45  1  0.17626759  0.52449535  0.09036401  1
  Ba  Ba46  1  0.50079514  0.56109557  0.71678739  1
  Ba  Ba47  1  0.24825904  0.03125446  0.73909516  1
  Ba  Ba48  1  0.81507214  0.64580245  0.79838039  1
  Ba  Ba49  1  -0.03205072  0.41686703  0.22949981  1
  Ba  Ba50  1  0.41897418  0.46408808  -0.07752528  1
  Fe  Fe51  1  -0.08449867  0.65348736  0.15627335  1
  Fe  Fe52  1  0.79295433  0.30978869  0.20808647  1
  Fe  Fe53  1  0.51709552  0.19482866  0.69303850  1
  Fe  Fe54  1  1.02937440  0.81801942  0.54474608  1
  Fe  Fe55  1  0.35420767  0.21460696  0.74910476  1
  Fe  Fe56  1  1.07051405  0.70090052  0.48285557  1
  Fe  Fe57  1  0.52614433  0.93197423  -0.03590870  1
  Fe  Fe58  1  0.82660615  0.12186708  0.52614819  1
  Fe  Fe59  1  0.68702878  0.36992000  0.15498092  1
  Fe  Fe60  1  0.99197760  0.34549637  0.93752739  1
  Fe  Fe61  1  0.88889053  0.69328995  1.01032646  1
  Fe  Fe62  1  0.47157928  0.80828514  0.47276152  1
  Fe  Fe63  1  0.49937667  0.05332662  0.01914835  1
  Fe  Fe64  1  0.86955812  0.77677386  0.12125531  1
  Fe  Fe65  1  0.38040723  0.81017468  0.58302251  1
  Fe  Fe66  1  0.70590985  0.14478903  0.45587643  1
  Fe  Fe67  1  0.97545114  0.57318680  0.04074945  1
  Fe  Fe68  1  0.46727120  0.26917348  0.80860030  1
  Fe  Fe69  1  0.40442774  0.65732198  0.88570208  1
  Fe  Fe70  1  0.27837088  0.64924046  0.93443542  1
  Fe  Fe71  1  0.89298653  0.09474402  0.63680606  1
  Fe  Fe72  1  0.17484689  0.24049892  1.08221878  1
  Fe  Fe73  1  0.54301323  1.06199948  0.89179282  1
  Fe  Fe74  1  0.59338751  0.75007866  0.50323038  1
  Fe  Fe75  1  0.53955993  0.35417532  0.72884131  1
  Fe  Fe76  1  0.07299983  0.34114132  1.05939169  1
  Fe  Fe77  1  0.00446836  0.72037515  0.07620723  1
  Fe  Fe78  1  0.47279283  0.69832402  0.57924088  1
  Fe  Fe79  1  0.38587111  0.36642398  0.75149244  1
  Fe  Fe80  1  0.06527530  0.46596347  0.95173586  1
  Fe  Fe81  1  0.78177029  0.25192806  0.45942619  1
  Fe  Fe82  1  0.44664165  0.10358579  0.79158196  1
  Fe  Fe83  1  0.53092555  0.96276986  0.28418345  1
  Fe  Fe84  1  0.79595191  0.17937795  0.16773965  1
  Fe  Fe85  1  0.39440615  1.01072571  -0.07299856  1
  Fe  Fe86  1  0.06677105  0.24152754  0.18028635  1
  Fe  Fe87  1  0.11957128  0.84231493  0.43262135  1
  Fe  Fe88  1  0.15952966  0.33877364  0.17987528  1
  Fe  Fe89  1  0.95028700  0.42682851  1.04205638  1
  Fe  Fe90  1  0.98448211  0.79144152  0.41949396  1
  Fe  Fe91  1  0.49349847  0.66048612  -0.01637657  1
  Fe  Fe92  1  0.42766106  0.29003885  0.64758960  1
  Fe  Fe93  1  0.40656688  0.13292220  0.64311720  1
  Fe  Fe94  1  0.09316442  0.20167345  0.44275403  1
  Fe  Fe95  1  0.36577713  0.64294929  0.03493209  1
  Fe  Fe96  1  0.93906159  0.49379010  0.91401721  1
  Fe  Fe97  1  0.53370787  0.82421154  0.61250633  1
  Fe  Fe98  1  0.11025185  0.28540702  0.31314951  1
  Fe  Fe99  1  0.68703192  0.23609170  0.12336298  1
  Fe  Fe100  1  0.47068789  0.95968647  0.83006298  1
  Fe  Fe101  1  0.06678939  0.33181536  0.43421104  1
  Bi  Bi102  1  0.04501947  0.39689103  0.78308951  1
  Bi  Bi103  1  0.81718895  0.31763804  0.04013451  1
  Bi  Bi104  1  0.44033853  -0.03962819  0.66626965  1
  Bi  Bi105  1  0.59435116  -0.02852076  0.12643998  1
  Bi  Bi106  1  0.61935810  0.19450957  0.82403372  1
  Bi  Bi107  1  0.67002726  0.46030538  0.79471977  1
  Bi  Bi108  1  -0.11856358  0.81355224  0.29219636  1
  Bi  Bi109  1  0.24597771  0.27958737  0.42832384  1
  Bi  Bi110  1  0.40247461  0.81144368  -0.02341063  1
  Bi  Bi111  1  0.69459757  0.62629883  0.43685724  1
  Bi  Bi112  1  0.68828612  0.20762188  0.30402493  1
  Bi  Bi113  1  0.39497983  0.88072485  0.34851557  1
  Bi  Bi114  1  0.19423714  0.87338959  0.58127738  1
  Bi  Bi115  1  0.17649833  0.91891254  0.29016098  1
  Bi  Bi116  1  0.61308930  0.83030148  0.35510865  1
  Bi  Bi117  1  0.06981900  0.11036161  0.59642381  1
  Bi  Bi118  1  0.47361811  0.40807933  0.33735073  1
  Bi  Bi119  1  0.84755447  0.07691222  0.80060039  1
  Bi  Bi120  1  0.92710955  0.67762246  0.58964712  1
  Bi  Bi121  1  0.31409696  0.63647413  0.61827946  1
  Bi  Bi122  1  0.12057394  0.88820661  0.85946440  1
  Bi  Bi123  1  0.31753835  0.35055173  0.10698478  1
  Bi  Bi124  1  0.89648631  0.39339101  0.43962247  1
  Bi  Bi125  1  0.43166601  0.08999309  0.32906862  1
  Bi  Bi126  1  0.65808757  0.70616542  0.64858692  1
  Bi  Bi127  1  0.31361032  0.64754052  0.20545904  1
