# generated using pymatgen
data_Ba51Fe51Bi26
_symmetry_space_group_name_H-M   'P 1'
_cell_length_a   16.44823514
_cell_length_b   16.56979186
_cell_length_c   16.25516025
_cell_angle_alpha   88.54121781
_cell_angle_beta   91.51372152
_cell_angle_gamma   88.26666925
_symmetry_Int_Tables_number   1
_chemical_formula_structural   Ba51Fe51Bi26
_chemical_formula_sum   'Ba51 Fe51 Bi26'
_cell_volume   4425.14256584
_cell_formula_units_Z   1
loop_
 _symmetry_equiv_pos_site_id
 _symmetry_equiv_pos_as_xyz
  1  'x, y, z'
loop_
 _atom_site_type_symbol
 _atom_site_label
 _atom_site_symmetry_multiplicity
 _atom_site_fract_x
 _atom_site_fract_y
 _atom_site_fract_z
 _atom_site_occupancy
  Ba  Ba0  1  0.57960963  0.13411284  0.28164149  1
  Ba  Ba1  1  0.68069041  0.35727322  0.53857848  1
  Ba  Ba2  1  -0.03052923  0.69766527  0.04404562  1
  Ba  Ba3  1  -0.01252295  0.62845588  0.81528675  1
  Ba  Ba4  1  0.53831923  0.19968236  0.73684319  1
  Ba  Ba5  1  0.30541944  -0.18290543  0.78166176  1
  Ba  Ba6  1  -0.04708345  -0.07656350  0.06725808  1
  Ba  Ba7  1  0.77093385  0.51929777  0.70521851  1
  Ba  Ba8  1  0.77804363  0.47540554  0.32613479  1
  Ba  Ba9  1  0.03225490  0.00672198  0.43805296  1
  Ba  Ba10  1  -0.00106893  0.86805963  0.80043757  1
  Ba  Ba11  1  0.78930992  -0.01728922  0.25368665  1
  Ba  Ba12  1  0.73211874  -0.01966751  0.76409816  1
  Ba  Ba13  1  0.51998818  0.45161101  -0.13480195  1
  Ba  Ba14  1  0.03811730  0.54300315  0.59215862  1
  Ba  Ba15  1  0.78463183  0.50671888  0.01612235  1
  Ba  Ba16  1  0.72460995  0.83061154  0.53316536  1
  Ba  Ba17  1  0.54143715  0.27425602  0.04218057  1
  Ba  Ba18  1  0.51742351  0.69545552  -0.03973676  1
  Ba  Ba19  1  -0.12714422  0.18152228  0.50213529  1
  Ba  Ba20  1  0.11297581  0.62824401  0.38465478  1
  Ba  Ba21  1  0.09113167  0.46967305  -0.01525958  1
  Ba  Ba22  1  -0.02754339  0.25047169  -0.03458224  1
  Ba  Ba23  1  0.70310365  -0.06738789  0.02622920  1
  Ba  Ba24  1  0.25281692  0.49527644  0.75850445  1
  Ba  Ba25  1  0.44625730  0.57701366  0.57315797  1
  Ba  Ba26  1  0.52137151  0.49839740  0.16188784  1
  Ba  Ba27  1  0.63738074  0.04351481  0.51108844  1
  Ba  Ba28  1  0.43881745  0.02844440  -0.05811597  1
  Ba  Ba29  1  0.57009002  0.75038401  0.69454163  1
  Ba  Ba30  1  0.22637004  0.78754250  0.51161239  1
  Ba  Ba31  1  0.18545588  0.38575040  0.20443860  1
  Ba  Ba32  1  0.42676633  -0.04603316  0.21167728  1
  Ba  Ba33  1  0.50802030  0.72937912  0.20301940  1
  Ba  Ba34  1  0.28743974  0.25031384  0.66099934  1
  Ba  Ba35  1  -0.03976441  0.76596386  0.56616136  1
  Ba  Ba36  1  0.25915440  0.04447980  0.54836942  1
  Ba  Ba37  1  0.76046642  0.29635140  0.15962766  1
  Ba  Ba38  1  0.46490714  0.37517530  0.47924727  1
  Ba  Ba39  1  0.39897303  0.31444397  0.27819531  1
  Ba  Ba40  1  -0.03194405  0.80086463  0.29089429  1
  Ba  Ba41  1  0.73578760  0.70042888  0.35833841  1
  Ba  Ba42  1  0.03274182  0.32878810  0.39160438  1
  Ba  Ba43  1  0.22860701  0.16437529  -0.00408432  1
  Ba  Ba44  1  -0.02752212  0.55464780  0.22639593  1
  Ba  Ba45  1  0.24209868  0.10578211  0.28643181  1
  Ba  Ba46  1  -0.03641240  0.11771750  0.73730803  1
  Ba  Ba47  1  -0.02672426  0.15097467  0.20556994  1
  Ba  Ba48  1  0.44714149  0.79644649  0.42080755  1
  Ba  Ba49  1  0.18238476  -0.07254352  -0.00785523  1
  Ba  Ba50  1  0.02602509  0.33761636  0.69658832  1
  Fe  Fe51  1  0.26974860  0.83453330  0.30682827  1
  Fe  Fe52  1  0.50918221  0.18673620  0.49162335  1
  Fe  Fe53  1  0.94396403  0.51839616  0.42036599  1
  Fe  Fe54  1  0.70060619  0.12559182  0.09069739  1
  Fe  Fe55  1  0.35075395  0.31477304  0.07369256  1
  Fe  Fe56  1  0.83841660  0.57099870  0.49989366  1
  Fe  Fe57  1  0.87436150  0.89458934  0.43629061  1
  Fe  Fe58  1  0.83565019  0.79861541  0.89135761  1
  Fe  Fe59  1  0.19496825  0.75327952  0.08956461  1
  Fe  Fe60  1  0.91645221  0.64418705  0.41915494  1
  Fe  Fe61  1  0.25126313  0.86790326  0.17521605  1
  Fe  Fe62  1  0.12736480  0.74603077  0.94752911  1
  Fe  Fe63  1  0.30562533  0.48651386  0.40398686  1
  Fe  Fe64  1  0.81503914  0.67180831  0.17966750  1
  Fe  Fe65  1  0.83382999  0.29984412  0.77827095  1
  Fe  Fe66  1  0.70127736  0.32625797  0.76935489  1
  Fe  Fe67  1  0.18143114  0.44957600  0.42731008  1
  Fe  Fe68  1  0.16748513  0.76435502  0.23877347  1
  Fe  Fe69  1  0.82602097  0.10571884  0.07596420  1
  Fe  Fe70  1  0.30091283  0.61243512  0.44561426  1
  Fe  Fe71  1  0.66276349  0.27971568  0.89233662  1
  Fe  Fe72  1  0.31001472  0.61735240  0.91704306  1
  Fe  Fe73  1  0.81628660  0.66679499  0.88672701  1
  Fe  Fe74  1  0.76852831  0.19380835  0.83940416  1
  Fe  Fe75  1  0.22323136  0.54030701  0.53189233  1
  Fe  Fe76  1  0.08832872  0.06622780  0.08450900  1
  Fe  Fe77  1  0.38155938  0.18770403  0.47959170  1
  Fe  Fe78  1  0.69367305  0.64280228  0.84735551  1
  Fe  Fe79  1  0.68742919  0.64660811  0.16473114  1
  Fe  Fe80  1  0.28572512  0.68716447  0.32204593  1
  Fe  Fe81  1  0.53138055  0.99603472  0.67899351  1
  Fe  Fe82  1  0.32259711  0.65730088  0.06570057  1
  Fe  Fe83  1  0.44741424  -0.05503697  0.76289301  1
  Fe  Fe84  1  0.78155180  0.33721707  0.90598725  1
  Fe  Fe85  1  0.18677508  0.62717836  1.00775550  1
  Fe  Fe86  1  0.45203673  0.09045780  0.58178642  1
  Fe  Fe87  1  0.58381943  0.50545107  0.38150961  1
  Fe  Fe88  1  0.76721404  0.20547641  -0.01505036  1
  Fe  Fe89  1  0.29790838  0.42971398  0.53930418  1
  Fe  Fe90  1  0.17996095  0.66339276  0.85889446  1
  Fe  Fe91  1  0.31241055  0.73592875  0.18895021  1
  Fe  Fe92  1  0.24349530  0.35585630  0.00460591  1
  Fe  Fe93  1  0.17141469  0.39486279  0.55271932  1
  Fe  Fe94  1  0.26654525  0.74449034  0.95585361  1
  Fe  Fe95  1  0.03715227  0.06604824  0.96624789  1
  Fe  Fe96  1  0.70493302  0.77715566  0.85840003  1
  Fe  Fe97  1  0.39379080  0.05132822  0.70294718  1
  Fe  Fe98  1  0.82388910  0.80125076  0.14838819  1
  Fe  Fe99  1  0.34359617  0.33425354  0.92221452  1
  Fe  Fe100  1  0.70129743  0.78450128  0.18570849  1
  Fe  Fe101  1  0.82110608  0.00676007  0.44923974  1
  Bi  Bi102  1  0.42908335  0.04743691  0.40820318  1
  Bi  Bi103  1  0.35189745  0.48061338  0.01813133  1
  Bi  Bi104  1  0.18978992  0.60220398  0.18119283  1
  Bi  Bi105  1  0.43320095  0.57876580  0.34465021  1
  Bi  Bi106  1  0.87030401  0.06041060  -0.08222034  1
  Bi  Bi107  1  0.88428681  0.40334639  0.53186109  1
  Bi  Bi108  1  0.56875327  -0.11911551  0.85815807  1
  Bi  Bi109  1  0.73381742  0.71899683  0.02060691  1
  Bi  Bi110  1  0.25257524  0.29026619  0.43139712  1
  Bi  Bi111  1  0.41558843  0.62581280  0.78410693  1
  Bi  Bi112  1  0.74484580  0.18935295  0.66974197  1
  Bi  Bi113  1  0.80683509  0.74149978  0.72340267  1
  Bi  Bi114  1  0.37073102  0.83347388  0.04697471  1
  Bi  Bi115  1  0.65919993  0.57690961  0.51577666  1
  Bi  Bi116  1  0.11078322  0.95114690  0.22258652  1
  Bi  Bi117  1  0.40909971  0.89533324  0.60665332  1
  Bi  Bi118  1  0.13985503  0.70740828  0.69347699  1
  Bi  Bi119  1  0.63150328  0.11750781  0.92488934  1
  Bi  Bi120  1  0.08762146  0.18379095  0.56071943  1
  Bi  Bi121  1  0.61678928  0.88476610  0.31385494  1
  Bi  Bi122  1  0.18344637  0.31430900  0.84957831  1
  Bi  Bi123  1  0.60734731  0.35285615  0.30909508  1
  Bi  Bi124  1  0.96229530  0.36344741  0.15474036  1
  Bi  Bi125  1  0.91125463  0.43190767  0.85333121  1
  Bi  Bi126  1  0.88971571  0.96664444  0.60282164  1
  Bi  Bi127  1  0.39626457  0.15473332  0.13480631  1
