# generated using pymatgen
data_Ba51Fe51Bi26
_symmetry_space_group_name_H-M   'P 1'
_cell_length_a   15.86009926
_cell_length_b   16.44777220
_cell_length_c   16.87168234
_cell_angle_alpha   93.03602346
_cell_angle_beta   88.73297473
_cell_angle_gamma   91.84606082
_symmetry_Int_Tables_number   1
_chemical_formula_structural   Ba51Fe51Bi26
_chemical_formula_sum   'Ba51 Fe51 Bi26'
_cell_volume   4391.82607975
_cell_formula_units_Z   1
loop_
 _symmetry_equiv_pos_site_id
 _symmetry_equiv_pos_as_xyz
  1  'x, y, z'
loop_
 _atom_site_type_symbol
 _atom_site_label
 _atom_site_symmetry_multiplicity
 _atom_site_fract_x
 _atom_site_fract_y
 _atom_site_fract_z
 _atom_site_occupancy
  Ba  Ba0  1  -0.01902226  0.01492948  0.51327116  1
  Ba  Ba1  1  0.71665653  0.20430339  0.76586457  1
  Ba  Ba2  1  0.19781573  0.44142151  -0.03944580  1
  Ba  Ba3  1  -0.02065373  0.56619779  0.25028093  1
  Ba  Ba4  1  0.76259088  0.19441425  0.51287980  1
  Ba  Ba5  1  0.48889881  -0.03184450  -0.02942231  1
  Ba  Ba6  1  0.25081705  0.15800859  0.56024399  1
  Ba  Ba7  1  0.51565123  0.58143900  0.16479787  1
  Ba  Ba8  1  0.71110174  0.42100556  0.41748643  1
  Ba  Ba9  1  0.24017252  0.00729072  0.78572410  1
  Ba  Ba10  1  0.58778618  0.64822986  0.40904057  1
  Ba  Ba11  1  0.21773384  0.69505211  -0.01054752  1
  Ba  Ba12  1  0.42663200  0.18959049  0.79477974  1
  Ba  Ba13  1  0.49109817  0.40061207  -0.00892482  1
  Ba  Ba14  1  0.57087521  0.22487407  0.31289885  1
  Ba  Ba15  1  0.05833289  0.01385398  0.25520685  1
  Ba  Ba16  1  -0.00521584  0.76975276  0.61380228  1
  Ba  Ba17  1  -0.02350098  0.20022329  0.74835472  1
  Ba  Ba18  1  0.72775250  0.79984681  0.24422148  1
  Ba  Ba19  1  0.00628205  0.77173914  0.09041955  1
  Ba  Ba20  1  0.37959898  -0.06624788  0.56007601  1
  Ba  Ba21  1  0.51783721  0.30890709  0.57995521  1
  Ba  Ba22  1  0.33866966  -0.01429585  0.28497363  1
  Ba  Ba23  1  0.71395044  0.02403719  0.07365706  1
  Ba  Ba24  1  0.20438629  0.76651163  0.48559674  1
  Ba  Ba25  1  -0.00857500  0.36787582  0.48436724  1
  Ba  Ba26  1  -0.05108411  -0.03996761  0.80089118  1
  Ba  Ba27  1  0.80491577  0.06073489  0.28631608  1
  Ba  Ba28  1  0.73629943  0.71044836  0.02187218  1
  Ba  Ba29  1  -0.03795826  0.71589691  0.84361675  1
  Ba  Ba30  1  0.23344909  0.50564427  0.32526572  1
  Ba  Ba31  1  0.50503691  0.67888031  0.65107255  1
  Ba  Ba32  1  -0.07880593  0.52285474  0.01962579  1
  Ba  Ba33  1  0.30892222  0.22874622  0.05771610  1
  Ba  Ba34  1  0.46184935  0.79436701  0.30584189  1
  Ba  Ba35  1  0.58710049  -0.01569140  0.70700722  1
  Ba  Ba36  1  0.75331412  0.80994779  0.70254717  1
  Ba  Ba37  1  -0.04569205  0.79245637  0.34175398  1
  Ba  Ba38  1  0.70724776  0.53807725  -0.15534588  1
  Ba  Ba39  1  0.41955393  0.48640933  0.75491379  1
  Ba  Ba40  1  0.08342117  0.26599746  0.22949741  1
  Ba  Ba41  1  0.83910904  0.37120691  0.22443523  1
  Ba  Ba42  1  0.02519865  0.49730187  0.73107959  1
  Ba  Ba43  1  0.20972749  0.72632180  0.23041146  1
  Ba  Ba44  1  0.29177655  0.44040797  0.54591160  1
  Ba  Ba45  1  0.02471837  0.04444959  0.02535273  1
  Ba  Ba46  1  0.73297094  0.29622088  -0.00538888  1
  Ba  Ba47  1  0.31968467  0.21922650  0.33238165  1
  Ba  Ba48  1  0.77808342  0.41813057  0.65843793  1
  Ba  Ba49  1  0.44916631  0.72356617  -0.07220456  1
  Ba  Ba50  1  -0.00267948  0.28817199  -0.01509726  1
  Fe  Fe51  1  0.26889881  0.82793355  0.84325879  1
  Fe  Fe52  1  0.75888078  0.01564250  0.46889146  1
  Fe  Fe53  1  0.87447439  0.90337028  0.14379370  1
  Fe  Fe54  1  0.13322015  0.31959706  0.81096594  1
  Fe  Fe55  1  0.22485073  0.40079344  0.74707796  1
  Fe  Fe56  1  0.13426247  0.46168096  0.14719099  1
  Fe  Fe57  1  0.13582039  0.83058765  0.75495646  1
  Fe  Fe58  1  0.28751722  0.65326962  0.63677894  1
  Fe  Fe59  1  0.43087027  0.50657596  0.36553727  1
  Fe  Fe60  1  0.90239837  0.54155586  0.42819927  1
  Fe  Fe61  1  0.78817230  0.55474477  0.53198828  1
  Fe  Fe62  1  0.17047839  0.72253186  0.81604543  1
  Fe  Fe63  1  0.21289696  0.22797007  0.74504795  1
  Fe  Fe64  1  0.66967840  0.90583106  0.40386623  1
  Fe  Fe65  1  0.04726968  0.53619891  0.42525674  1
  Fe  Fe66  1  0.75857516  0.78708963  0.46255864  1
  Fe  Fe67  1  0.72363458  0.51069526  0.10979463  1
  Fe  Fe68  1  0.16094185  0.69008112  0.68803389  1
  Fe  Fe69  1  0.49644918  0.27099709  0.12847895  1
  Fe  Fe70  1  0.28768230  0.31517926  0.83865490  1
  Fe  Fe71  1  0.30989591  0.30948542  0.69250593  1
  Fe  Fe72  1  0.23899945  0.04029646  0.98557555  1
  Fe  Fe73  1  0.86344375  0.68169870  0.49683133  1
  Fe  Fe74  1  0.61355932  0.00457762  0.52134014  1
  Fe  Fe75  1  0.60091505  0.19408596  0.11895033  1
  Fe  Fe76  1  0.68702372  0.52340580  0.25250221  1
  Fe  Fe77  1  0.73164630  0.90888416  0.54422735  1
  Fe  Fe78  1  0.51586611  0.48591523  0.48099424  1
  Fe  Fe79  1  0.01164468  0.65615234  0.45201220  1
  Fe  Fe80  1  0.21137634  0.06172321  0.12934663  1
  Fe  Fe81  1  0.71630017  0.68132554  0.55541983  1
  Fe  Fe82  1  0.12074036  0.58087407  0.11362454  1
  Fe  Fe83  1  0.63291254  0.05771350  0.40162606  1
  Fe  Fe84  1  0.63608679  0.54295227  0.56145776  1
  Fe  Fe85  1  0.26129324  0.80235083  0.68994965  1
  Fe  Fe86  1  0.72201856  0.93607908  0.89241393  1
  Fe  Fe87  1  0.13156587  0.13932896  0.39733124  1
  Fe  Fe88  1  0.66699360  0.06674249  0.89220833  1
  Fe  Fe89  1  0.75840402  1.01722209  0.80114746  1
  Fe  Fe90  1  0.52757742  0.95775081  0.41302113  1
  Fe  Fe91  1  0.28456182  0.90793414  0.96970353  1
  Fe  Fe92  1  0.84074403  0.63196590  0.63982756  1
  Fe  Fe93  1  0.55725407  0.46195878  0.31794572  1
  Fe  Fe94  1  0.94884139  0.56826775  0.55328222  1
  Fe  Fe95  1  0.70229568  0.60004010  0.66047881  1
  Fe  Fe96  1  0.32731184  0.00863810  1.08312807  1
  Fe  Fe97  1  0.46192117  0.38273043  0.40210453  1
  Fe  Fe98  1  0.82053037  0.90525093  0.42190046  1
  Fe  Fe99  1  0.31473505  0.70610689  0.76825484  1
  Fe  Fe100  1  0.19407045  0.92746495  0.08551335  1
  Fe  Fe101  1  0.78410250  0.60032084  0.18497227  1
  Bi  Bi102  1  0.86099558  -0.12258311  -0.01786852  1
  Bi  Bi103  1  0.79143694  0.62903284  0.35037447  1
  Bi  Bi104  1  0.22468371  0.56633790  0.79400867  1
  Bi  Bi105  1  0.12654849  0.58115056  0.56067286  1
  Bi  Bi106  1  0.80638624  0.03227398  0.64366882  1
  Bi  Bi107  1  0.54607174  0.18009372  -0.03603584  1
  Bi  Bi108  1  0.17119830  0.18053076  0.89886796  1
  Bi  Bi109  1  0.57455292  -0.16765217  0.52809641  1
  Bi  Bi110  1  0.59159549  -0.02653393  0.26040166  1
  Bi  Bi111  1  0.41966815  0.85627196  0.76396327  1
  Bi  Bi112  1  0.41026251  0.38381113  0.23544412  1
  Bi  Bi113  1  0.37495124  0.62708456  0.47861880  1
  Bi  Bi114  1  0.11567922  -0.12605658  -0.07887834  1
  Bi  Bi115  1  0.12286249  0.31658789  0.63605172  1
  Bi  Bi116  1  0.96620609  0.17819092  0.38771165  1
  Bi  Bi117  1  0.84152790  0.11974714  0.91119828  1
  Bi  Bi118  1  0.89706853  0.18130445  0.13914219  1
  Bi  Bi119  1  0.56264318  0.80522346  0.10138551  1
  Bi  Bi120  1  0.44818725  0.11198123  0.16069200  1
  Bi  Bi121  1  0.62916572  0.37892506  0.17055423  1
  Bi  Bi122  1  0.34940883  0.83896136  0.10805120  1
  Bi  Bi123  1  0.18607465  0.98951911  0.43488810  1
  Bi  Bi124  1  0.87170661  0.38872008  0.84673861  1
  Bi  Bi125  1  0.58388714  0.36396964  0.78963770  1
  Bi  Bi126  1  0.29481779  0.55237892  0.12056683  1
  Bi  Bi127  1  0.46781129  0.11162541  0.46860428  1
