# generated using pymatgen
data_Ba51Fe51Bi26
_symmetry_space_group_name_H-M   'P 1'
_cell_length_a   17.14155352
_cell_length_b   15.91175393
_cell_length_c   16.32025328
_cell_angle_alpha   89.05590526
_cell_angle_beta   92.06836693
_cell_angle_gamma   90.77101207
_symmetry_Int_Tables_number   1
_chemical_formula_structural   Ba51Fe51Bi26
_chemical_formula_sum   'Ba51 Fe51 Bi26'
_cell_volume   4447.51211668
_cell_formula_units_Z   1
loop_
 _symmetry_equiv_pos_site_id
 _symmetry_equiv_pos_as_xyz
  1  'x, y, z'
loop_
 _atom_site_type_symbol
 _atom_site_label
 _atom_site_symmetry_multiplicity
 _atom_site_fract_x
 _atom_site_fract_y
 _atom_site_fract_z
 _atom_site_occupancy
  Ba  Ba0  1  0.52174424  0.45390659  0.01368836  1
  Ba  Ba1  1  0.02848789  0.71285283  0.59950523  1
  Ba  Ba2  1  -0.11837382  -0.03184264  0.85586964  1
  Ba  Ba3  1  0.23999409  0.41852736  0.65017258  1
  Ba  Ba4  1  0.72821467  0.77643900  0.85425500  1
  Ba  Ba5  1  0.52480058  0.21905619  0.25823590  1
  Ba  Ba6  1  0.01852173  0.30301879  -0.00792823  1
  Ba  Ba7  1  0.22897016  0.06753748  0.44351156  1
  Ba  Ba8  1  0.88688631  0.79337866  0.08034779  1
  Ba  Ba9  1  0.24788418  0.24633828  -0.04775043  1
  Ba  Ba10  1  0.77523989  0.39388860  0.01414269  1
  Ba  Ba11  1  0.46851284  -0.02961007  -0.00122454  1
  Ba  Ba12  1  0.49611968  0.73819982  -0.06023548  1
  Ba  Ba13  1  0.53996840  0.23615390  0.59291212  1
  Ba  Ba14  1  0.53291102  0.71374221  0.45706719  1
  Ba  Ba15  1  0.30937125  0.18681581  0.69350826  1
  Ba  Ba16  1  0.27111306  0.26981431  0.27864765  1
  Ba  Ba17  1  0.09181904  0.05395775  0.83805535  1
  Ba  Ba18  1  -0.01613079  0.23350232  0.71363492  1
  Ba  Ba19  1  0.29213725  0.75393498  0.34001977  1
  Ba  Ba20  1  0.77236558  0.02405629  0.62747937  1
  Ba  Ba21  1  0.83020264  0.03074880  0.40927752  1
  Ba  Ba22  1  0.48722796  -0.02634811  0.57757609  1
  Ba  Ba23  1  0.05884112  0.78182927  0.85194227  1
  Ba  Ba24  1  0.44682772  0.46440671  0.23430093  1
  Ba  Ba25  1  0.71784070  0.61738395  0.08638886  1
  Ba  Ba26  1  0.55114808  0.47227241  0.46089166  1
  Ba  Ba27  1  0.80228218  0.45974081  0.33067888  1
  Ba  Ba28  1  0.48962264  0.24748420  -0.09666365  1
  Ba  Ba29  1  0.74813023  0.40536972  0.57277993  1
  Ba  Ba30  1  0.26724161  0.80342884  -0.03248300  1
  Ba  Ba31  1  0.71291434  0.23291526  0.39001789  1
  Ba  Ba32  1  0.78836683  0.51336364  0.78095000  1
  Ba  Ba33  1  0.56150411  0.78917564  0.20049852  1
  Ba  Ba34  1  0.03866033  0.51177552  0.79625493  1
  Ba  Ba35  1  0.05646226  0.43705427  0.27160532  1
  Ba  Ba36  1  0.78468086  0.76686714  0.34356446  1
  Ba  Ba37  1  0.44026470  -0.04440000  0.34355555  1
  Ba  Ba38  1  -0.00108935  0.43268413  0.51947656  1
  Ba  Ba39  1  0.51714618  0.46894320  0.73490709  1
  Ba  Ba40  1  0.03340510  0.76243291  0.30468377  1
  Ba  Ba41  1  0.22081677  0.61158932  0.14235178  1
  Ba  Ba42  1  0.22585151  0.89931147  0.67556577  1
  Ba  Ba43  1  0.30099623  0.05574081  0.13070800  1
  Ba  Ba44  1  0.27627519  0.50760336  0.41972842  1
  Ba  Ba45  1  0.85142170  0.22062049  0.19080774  1
  Ba  Ba46  1  0.76420959  0.77789967  0.60282202  1
  Ba  Ba47  1  0.52308455  0.73709582  0.70636754  1
  Ba  Ba48  1  0.70439659  0.02590062  0.03339677  1
  Ba  Ba49  1  0.72664799  0.20082913  0.81283390  1
  Ba  Ba50  1  0.28982401  0.63862312  0.75277672  1
  Fe  Fe51  1  0.04741129  0.93277359  0.12894988  1
  Fe  Fe52  1  0.14119736  0.96365816  1.02119609  1
  Fe  Fe53  1  0.40183868  0.39199080  0.55664130  1
  Fe  Fe54  1  0.92410105  0.99429951  0.07655301  1
  Fe  Fe55  1  0.70736005  0.60647586  0.45243717  1
  Fe  Fe56  1  0.02154966  0.60742117  0.12811012  1
  Fe  Fe57  1  0.48802070  0.10517671  0.73129779  1
  Fe  Fe58  1  0.57201871  0.06663512  0.85438919  1
  Fe  Fe59  1  0.90345932  0.58902574  0.05127401  1
  Fe  Fe60  1  0.03632614  0.96541717  0.37662922  1
  Fe  Fe61  1  0.68414103  0.33229525  0.19489643  1
  Fe  Fe62  1  0.94512255  0.49860751  0.96301632  1
  Fe  Fe63  1  0.67815816  0.94769932  0.28803663  1
  Fe  Fe64  1  0.42701126  0.07706417  0.84354275  1
  Fe  Fe65  1  0.98495146  0.09345143  0.15833628  1
  Fe  Fe66  1  0.96513592  0.10072544  0.54272263  1
  Fe  Fe67  1  0.80907518  0.59148647  0.52425808  1
  Fe  Fe68  1  0.17248254  0.59068492  0.57085143  1
  Fe  Fe69  1  0.62244038  0.04922233  0.35561208  1
  Fe  Fe70  1  0.69879824  0.00105839  0.82660439  1
  Fe  Fe71  1  1.04022213  0.22577679  0.51081869  1
  Fe  Fe72  1  0.14741561  0.65486011  0.46084881  1
  Fe  Fe73  1  0.38361739  0.75771572  0.56942073  1
  Fe  Fe74  1  1.02089244  0.91974764  0.98863399  1
  Fe  Fe75  1  0.62949131  0.90641415  0.73469013  1
  Fe  Fe76  1  0.49807845  -0.04932702  0.77940182  1
  Fe  Fe77  1  1.09433947  0.08395203  0.28544819  1
  Fe  Fe78  1  0.04960036  0.09811248  0.43607418  1
  Fe  Fe79  1  0.31680034  0.85077176  0.51029608  1
  Fe  Fe80  1  0.94152262  0.47107851  0.11371192  1
  Fe  Fe81  1  0.98242038  0.97417549  0.24209173  1
  Fe  Fe82  1  0.60401265  0.91997379  0.86777034  1
  Fe  Fe83  1  0.25577270  0.70849692  0.54481572  1
  Fe  Fe84  1  -0.03157486  0.11127778  0.30998403  1
  Fe  Fe85  1  0.03083069  0.62908175  0.98916093  1
  Fe  Fe86  1  0.06429945  0.22477661  0.35797819  1
  Fe  Fe87  1  0.64250686  0.45963443  0.17897309  1
  Fe  Fe88  1  0.37547862  1.00502901  0.74739265  1
  Fe  Fe89  1  0.41083012  0.33657120  0.43067826  1
  Fe  Fe90  1  0.94008912  0.21030705  0.41538947  1
  Fe  Fe91  1  0.97474147  0.97979508  0.63002078  1
  Fe  Fe92  1  0.06349730  0.49771802  1.04130637  1
  Fe  Fe93  1  0.33497545  0.55458650  0.96149794  1
  Fe  Fe94  1  0.70334195  0.08128654  0.24957821  1
  Fe  Fe95  1  0.61175598  0.04405187  0.72613530  1
  Fe  Fe96  1  0.32394964  0.28526381  0.51211639  1
  Fe  Fe97  1  0.02803133  0.06512525  1.01925947  1
  Fe  Fe98  1  0.11453736  0.05869862  0.13995798  1
  Fe  Fe99  1  0.62539727  0.39425009  0.29588800  1
  Fe  Fe100  1  0.32868156  0.43550301  0.02900489  1
  Fe  Fe101  1  0.05129250  0.96861375  0.52330161  1
  Bi  Bi102  1  0.16585914  -0.06454900  0.26053508  1
  Bi  Bi103  1  0.16711321  0.32202417  0.45871620  1
  Bi  Bi104  1  0.07877741  0.22876951  0.18846165  1
  Bi  Bi105  1  0.08946635  0.77633426  0.07434371  1
  Bi  Bi106  1  0.56058353  0.01967141  0.18651237  1
  Bi  Bi107  1  -0.14671274  0.22602572  0.55364032  1
  Bi  Bi108  1  0.17737217  0.59714766  -0.07228827  1
  Bi  Bi109  1  0.82027408  -0.03196062  0.20525306  1
  Bi  Bi110  1  0.15434802  0.84248803  0.47545642  1
  Bi  Bi111  1  -0.07665116  -0.13537394  0.49799018  1
  Bi  Bi112  1  -0.12331303  0.14639510  -0.01827907  1
  Bi  Bi113  1  -0.10815292  0.61223583  0.22178425  1
  Bi  Bi114  1  0.28353328  0.02395186  -0.10443242  1
  Bi  Bi115  1  0.39564339  0.57862147  0.58258189  1
  Bi  Bi116  1  0.41633245  0.62692735  0.09363807  1
  Bi  Bi117  1  0.18893798  0.39592059  0.10269341  1
  Bi  Bi118  1  0.41624664  0.15847882  0.44043995  1
  Bi  Bi119  1  0.64697136  0.90324361  0.45420520  1
  Bi  Bi120  1  0.63015344  0.58347448  0.88518761  1
  Bi  Bi121  1  0.35179370  0.41716818  0.85070523  1
  Bi  Bi122  1  0.39904385  0.28546108  0.09738451  1
  Bi  Bi123  1  0.63156996  0.59315419  0.29468749  1
  Bi  Bi124  1  0.11805590  0.09744711  0.62296944  1
  Bi  Bi125  1  0.89491889  0.65752154  0.89260168  1
  Bi  Bi126  1  0.65679134  0.59417726  0.61492529  1
  Bi  Bi127  1  0.36783486  0.84074585  0.15180912  1
