# generated using pymatgen
data_Ba51Fe51Bi26
_symmetry_space_group_name_H-M   'P 1'
_cell_length_a   16.48479541
_cell_length_b   16.03420251
_cell_length_c   16.34554976
_cell_angle_alpha   91.74802942
_cell_angle_beta   90.36582499
_cell_angle_gamma   92.41418763
_symmetry_Int_Tables_number   1
_chemical_formula_structural   Ba51Fe51Bi26
_chemical_formula_sum   'Ba51 Fe51 Bi26'
_cell_volume   4314.49392260
_cell_formula_units_Z   1
loop_
 _symmetry_equiv_pos_site_id
 _symmetry_equiv_pos_as_xyz
  1  'x, y, z'
loop_
 _atom_site_type_symbol
 _atom_site_label
 _atom_site_symmetry_multiplicity
 _atom_site_fract_x
 _atom_site_fract_y
 _atom_site_fract_z
 _atom_site_occupancy
  Ba  Ba0  1  0.00049701  0.55108217  0.54701479  1
  Ba  Ba1  1  0.27365846  0.46964469  0.08519609  1
  Ba  Ba2  1  -0.01451009  0.46401751  -0.04453871  1
  Ba  Ba3  1  0.22827669  0.67420603  0.50595275  1
  Ba  Ba4  1  0.53336705  0.12971479  0.15954209  1
  Ba  Ba5  1  0.03273940  -0.08041748  0.26638519  1
  Ba  Ba6  1  0.75445121  0.74279934  -0.18901724  1
  Ba  Ba7  1  0.00488339  0.21271601  0.01960687  1
  Ba  Ba8  1  0.18188752  0.66660606  0.00105087  1
  Ba  Ba9  1  0.21212562  -0.08472126  -0.06971991  1
  Ba  Ba10  1  0.48598149  0.72870786  0.68700188  1
  Ba  Ba11  1  0.07625561  0.43405190  0.21415908  1
  Ba  Ba12  1  0.22299981  0.18754720  0.10358993  1
  Ba  Ba13  1  0.26094600  -0.02115591  0.19721180  1
  Ba  Ba14  1  0.79090992  0.74290956  0.18676643  1
  Ba  Ba15  1  0.53027856  0.68920739  0.20808072  1
  Ba  Ba16  1  0.09718991  -0.09200471  0.55845543  1
  Ba  Ba17  1  -0.00916475  0.13758465  0.52318950  1
  Ba  Ba18  1  0.57326676  0.35499911  0.29102211  1
  Ba  Ba19  1  0.07299036  0.23326508  0.73708145  1
  Ba  Ba20  1  -0.07468631  0.73089851  0.40481745  1
  Ba  Ba21  1  0.50648230  0.02294767  0.74066295  1
  Ba  Ba22  1  -0.04374006  0.80185200  -0.03036463  1
  Ba  Ba23  1  0.33436170  0.50030660  0.31320724  1
  Ba  Ba24  1  0.74693576  0.31472135  0.48859051  1
  Ba  Ba25  1  0.03357604  0.01415420  0.83451400  1
  Ba  Ba26  1  0.56127294  0.23733338  0.65380293  1
  Ba  Ba27  1  0.41010867  0.23933487  0.91959070  1
  Ba  Ba28  1  0.44715855  0.00107246  0.35707813  1
  Ba  Ba29  1  0.43969195  0.72012578  -0.02469773  1
  Ba  Ba30  1  0.53973116  0.47014503  0.04276857  1
  Ba  Ba31  1  0.77624421  0.19776529  0.23635858  1
  Ba  Ba32  1  0.75672618  0.51755470  -0.03896281  1
  Ba  Ba33  1  0.00713196  0.65352232  0.17224815  1
  Ba  Ba34  1  0.66497003  -0.07583994  0.05877478  1
  Ba  Ba35  1  0.22794050  0.40676592  0.80641452  1
  Ba  Ba36  1  0.45742524  0.77172363  0.43111890  1
  Ba  Ba37  1  -0.03787477  0.34112827  0.38606734  1
  Ba  Ba38  1  0.74236270  0.55297194  0.43176000  1
  Ba  Ba39  1  0.75827496  0.82939180  0.55640689  1
  Ba  Ba40  1  0.43114996  -0.02610560  -0.03786735  1
  Ba  Ba41  1  0.48055659  0.45697811  0.75993714  1
  Ba  Ba42  1  0.24913781  0.07718324  0.47895306  1
  Ba  Ba43  1  0.75007816  0.06956003  0.57491248  1
  Ba  Ba44  1  0.79681302  0.30896226  0.76746312  1
  Ba  Ba45  1  0.29587197  0.34327869  0.56816886  1
  Ba  Ba46  1  0.76448455  0.01314620  0.84737774  1
  Ba  Ba47  1  0.76435164  0.24349718  0.00439454  1
  Ba  Ba48  1  0.22104732  0.27047872  0.33239922  1
  Ba  Ba49  1  -0.00306744  0.75342770  0.71777421  1
  Ba  Ba50  1  0.24342780  0.72050312  0.76006995  1
  Fe  Fe51  1  0.89287871  0.50338349  0.26968210  1
  Fe  Fe52  1  -0.09666948  0.59044854  0.79393292  1
  Fe  Fe53  1  -0.02419819  0.22192797  0.21960836  1
  Fe  Fe54  1  0.31998861  0.02338729  0.64848659  1
  Fe  Fe55  1  0.04903168  0.16544681  0.33127198  1
  Fe  Fe56  1  0.77867921  0.38974214  0.13672717  1
  Fe  Fe57  1  0.42608864  0.51904529  0.52289671  1
  Fe  Fe58  1  0.78545657  1.05534600  0.37680048  1
  Fe  Fe59  1  0.27277396  0.69247300  0.31157085  1
  Fe  Fe60  1  0.37750044  0.17712143  0.27224035  1
  Fe  Fe61  1  0.37847670  0.45543744  0.92955934  1
  Fe  Fe62  1  0.55535095  0.54383584  0.56087940  1
  Fe  Fe63  1  0.41677564  -0.03311296  0.55765141  1
  Fe  Fe64  1  0.06092354  0.42560690  0.69180769  1
  Fe  Fe65  1  0.93199259  0.08102914  0.15286246  1
  Fe  Fe66  1  0.89371869  0.94247216  0.08376556  1
  Fe  Fe67  1  0.20074424  1.07084409  0.71644417  1
  Fe  Fe68  1  0.30056461  0.04148463  0.80037192  1
  Fe  Fe69  1  0.34006878  0.90983899  0.74884987  1
  Fe  Fe70  1  0.16597019  0.48930710  0.62568970  1
  Fe  Fe71  1  0.87311360  0.49006609  0.13752453  1
  Fe  Fe72  1  0.34846908  0.80116628  0.25082998  1
  Fe  Fe73  1  0.53827815  0.06274481  0.51991779  1
  Fe  Fe74  1  0.83701048  0.47202593  0.63505537  1
  Fe  Fe75  1  0.91120084  1.03614493  0.99184865  1
  Fe  Fe76  1  0.13279524  0.73003474  0.31556895  1
  Fe  Fe77  1  0.19195806  0.62383503  0.20879228  1
  Fe  Fe78  1  0.14312827  0.59757925  0.33450783  1
  Fe  Fe79  1  0.62040052  0.89051552  0.29749317  1
  Fe  Fe80  1  0.90610487  0.11460667  0.70767236  1
  Fe  Fe81  1  0.31933794  0.80198738  0.11409197  1
  Fe  Fe82  1  0.49844436  0.39517159  0.57183657  1
  Fe  Fe83  1  0.09883012  0.36765501  0.57109017  1
  Fe  Fe84  1  0.42159694  0.11042051  0.56594294  1
  Fe  Fe85  1  0.06384859  0.11426803  0.21084141  1
  Fe  Fe86  1  0.21058880  0.93011373  0.72044538  1
  Fe  Fe87  1  0.58749036  0.43564168  0.48044718  1
  Fe  Fe88  1  0.92747840  0.09787701  0.30706894  1
  Fe  Fe89  1  0.63810311  0.98335602  0.42687670  1
  Fe  Fe90  1  0.90457240  0.35174643  0.17734187  1
  Fe  Fe91  1  0.32236122  0.56237804  0.90608522  1
  Fe  Fe92  1  0.44976023  0.39954425  0.44404725  1
  Fe  Fe93  1  0.20470574  0.77533818  0.19795146  1
  Fe  Fe94  1  0.79983799  0.40254877  0.27102719  1
  Fe  Fe95  1  0.31280682  0.88017125  0.61962348  1
  Fe  Fe96  1  0.79254515  0.52561115  0.75067947  1
  Fe  Fe97  1  0.74900819  0.91148370  0.36911689  1
  Fe  Fe98  1  0.81105214  0.06545418  1.07020338  1
  Fe  Fe99  1  0.66781266  0.02236876  0.29067250  1
  Fe  Fe100  1  -0.06684460  0.46349551  0.74296255  1
  Fe  Fe101  1  0.31983282  0.67486016  0.16438986  1
  Bi  Bi102  1  0.07767723  0.57042400  0.79248446  1
  Bi  Bi103  1  0.70947895  0.52893176  0.20009696  1
  Bi  Bi104  1  0.52437007  0.56075727  0.38789882  1
  Bi  Bi105  1  0.06721775  -0.00240420  0.06686953  1
  Bi  Bi106  1  0.90661480  0.95328873  0.43743523  1
  Bi  Bi107  1  0.15661743  0.45758570  0.43486650  1
  Bi  Bi108  1  0.41847167  0.22353601  0.43297717  1
  Bi  Bi109  1  0.56921359  -0.09485605  0.56833772  1
  Bi  Bi110  1  0.24145796  0.86105485  0.37734229  1
  Bi  Bi111  1  0.66711223  0.44417670  0.64162320  1
  Bi  Bi112  1  0.81199072  -0.03146620  0.22237081  1
  Bi  Bi113  1  0.46553642  0.89476449  0.16157840  1
  Bi  Bi114  1  0.34627323  0.18847435  0.70541156  1
  Bi  Bi115  1  0.58752010  0.61898390  0.85960377  1
  Bi  Bi116  1  0.61338589  0.32781126  0.88004693  1
  Bi  Bi117  1  0.68110917  0.75052725  0.36805946  1
  Bi  Bi118  1  0.39301126  0.31199283  0.17154091  1
  Bi  Bi119  1  0.82961598  0.64361677  0.62651240  1
  Bi  Bi120  1  0.62729485  0.15427724  0.39633778  1
  Bi  Bi121  1  0.58036335  0.85633463  0.85558171  1
  Bi  Bi122  1  0.93288037  0.33539218  0.60462318  1
  Bi  Bi123  1  0.65458331  0.69889136  0.02431808  1
  Bi  Bi124  1  0.20033901  0.15044736  0.88977412  1
  Bi  Bi125  1  0.90240473  0.94649055  0.68164982  1
  Bi  Bi126  1  0.32379415  0.55415172  0.65385914  1
  Bi  Bi127  1  0.59294625  0.12199431  0.93397707  1
