# generated using pymatgen
data_Ba51Fe51Bi26
_symmetry_space_group_name_H-M   'P 1'
_cell_length_a   16.15500544
_cell_length_b   16.81742419
_cell_length_c   16.26870505
_cell_angle_alpha   89.67552019
_cell_angle_beta   92.71365130
_cell_angle_gamma   89.55809316
_symmetry_Int_Tables_number   1
_chemical_formula_structural   Ba51Fe51Bi26
_chemical_formula_sum   'Ba51 Fe51 Bi26'
_cell_volume   4414.80437829
_cell_formula_units_Z   1
loop_
 _symmetry_equiv_pos_site_id
 _symmetry_equiv_pos_as_xyz
  1  'x, y, z'
loop_
 _atom_site_type_symbol
 _atom_site_label
 _atom_site_symmetry_multiplicity
 _atom_site_fract_x
 _atom_site_fract_y
 _atom_site_fract_z
 _atom_site_occupancy
  Ba  Ba0  1  0.79752922  0.56138944  0.78504608  1
  Ba  Ba1  1  0.83394947  -0.07021303  0.21872368  1
  Ba  Ba2  1  0.64458617  0.08496807  -0.03673489  1
  Ba  Ba3  1  0.28294571  0.19102184  0.49579330  1
  Ba  Ba4  1  0.40139317  0.30102403  0.22976832  1
  Ba  Ba5  1  0.46656755  0.52762152  0.53083271  1
  Ba  Ba6  1  0.52240708  0.74131465  0.16378338  1
  Ba  Ba7  1  0.66413820  0.59416496  0.28830082  1
  Ba  Ba8  1  0.05617237  0.52711588  0.77538617  1
  Ba  Ba9  1  0.50579572  0.80722214  0.40928873  1
  Ba  Ba10  1  -0.15300481  0.31802795  0.19470661  1
  Ba  Ba11  1  0.23690353  0.12890497  0.05845274  1
  Ba  Ba12  1  -0.08048136  0.15063036  -0.04424902  1
  Ba  Ba13  1  0.48890301  0.39706906  0.75717465  1
  Ba  Ba14  1  0.28110987  0.49529432  0.20789187  1
  Ba  Ba15  1  0.16752933  -0.00832904  0.45909810  1
  Ba  Ba16  1  0.08605498  0.29345868  0.85575098  1
  Ba  Ba17  1  0.73107010  0.36584390  0.41846377  1
  Ba  Ba18  1  0.76821426  -0.03575920  0.70542879  1
  Ba  Ba19  1  0.10323438  0.31322923  0.35785149  1
  Ba  Ba20  1  0.01667424  0.76469494  0.80016381  1
  Ba  Ba21  1  0.27517355  0.77335490  0.51012429  1
  Ba  Ba22  1  0.29891626  0.73037395  0.24754301  1
  Ba  Ba23  1  0.73796724  -0.02926883  0.45273932  1
  Ba  Ba24  1  0.25614416  0.41304664  0.63130202  1
  Ba  Ba25  1  -0.13316431  0.50343932  0.56824655  1
  Ba  Ba26  1  0.33344483  0.21285843  0.87390042  1
  Ba  Ba27  1  -0.04569965  0.73104116  0.11730006  1
  Ba  Ba28  1  0.07295108  0.48349880  0.08288003  1
  Ba  Ba29  1  0.26819623  0.51319797  -0.09473138  1
  Ba  Ba30  1  0.31566381  0.80175107  -0.00894484  1
  Ba  Ba31  1  0.02584298  0.11831607  0.21934697  1
  Ba  Ba32  1  0.63483219  0.18257400  0.23321176  1
  Ba  Ba33  1  0.70697910  0.28967410  0.77846928  1
  Ba  Ba34  1  0.45850136  -0.01195360  0.11681648  1
  Ba  Ba35  1  0.52869730  0.80147227  0.67888550  1
  Ba  Ba36  1  -0.00709284  0.02809581  0.63183315  1
  Ba  Ba37  1  -0.08873223  0.58844073  0.32226122  1
  Ba  Ba38  1  0.53824080  0.06545498  0.67927551  1
  Ba  Ba39  1  0.58254286  0.71702784  -0.07066590  1
  Ba  Ba40  1  0.45428215  0.06873089  0.37489381  1
  Ba  Ba41  1  0.68822338  0.65892637  0.53596541  1
  Ba  Ba42  1  0.29878971  0.73741253  0.76309905  1
  Ba  Ba43  1  -0.07518623  0.27428373  0.57636237  1
  Ba  Ba44  1  0.20155589  0.55436158  0.41772326  1
  Ba  Ba45  1  0.21605877  -0.05578099  0.22435537  1
  Ba  Ba46  1  0.80508812  0.82386574  -0.06701753  1
  Ba  Ba47  1  0.09073417  -0.08279176  -0.01245005  1
  Ba  Ba48  1  0.27969661  0.00322709  0.72958648  1
  Ba  Ba49  1  0.04122532  0.78771421  0.34123007  1
  Ba  Ba50  1  0.77249845  0.48949476  0.03913718  1
  Fe  Fe51  1  1.00135821  0.65221635  0.62238914  1
  Fe  Fe52  1  0.48861633  0.49398543  0.18270039  1
  Fe  Fe53  1  0.05462487  0.75301395  0.53593401  1
  Fe  Fe54  1  0.44443867  0.87082833  0.83656891  1
  Fe  Fe55  1  0.04067064  0.30507406  0.15898798  1
  Fe  Fe56  1  0.86426261  0.11706477  0.47702076  1
  Fe  Fe57  1  0.48865329  0.19820528  0.53109049  1
  Fe  Fe58  1  0.90977640  0.70154588  0.50121244  1
  Fe  Fe59  1  -0.02351153  0.15136041  0.41277410  1
  Fe  Fe60  1  0.39675217  0.57498852  0.73147994  1
  Fe  Fe61  1  0.59515634  0.39478369  0.96228184  1
  Fe  Fe62  1  0.81300556  0.77812706  0.41236922  1
  Fe  Fe63  1  0.33425350  0.90909114  0.38564642  1
  Fe  Fe64  1  0.92872870  0.84763803  0.49049223  1
  Fe  Fe65  1  0.95960172  0.80790767  0.61967990  1
  Fe  Fe66  1  0.96711958  0.33157916  0.02448047  1
  Fe  Fe67  1  0.56244821  0.50239534  0.06997006  1
  Fe  Fe68  1  0.07596941  0.39341874  0.53613329  1
  Fe  Fe69  1  0.69185813  0.81274399  0.20254073  1
  Fe  Fe70  1  0.52945133  0.36169453  0.08334807  1
  Fe  Fe71  1  0.40675979  0.44244031  0.07220624  1
  Fe  Fe72  1  0.94570041  0.44171426  0.92365990  1
  Fe  Fe73  1  0.01863827  0.47150908  0.44781408  1
  Fe  Fe74  1  0.03333561  0.61438673  0.48705025  1
  Fe  Fe75  1  0.52048655  0.61357740  0.74487339  1
  Fe  Fe76  1  0.81477070  0.80625346  0.56741598  1
  Fe  Fe77  1  0.58413853  0.27401287  0.59984877  1
  Fe  Fe78  1  0.47399827  0.47691617  -0.04703563  1
  Fe  Fe79  1  0.09685855  0.26692272  1.05111481  1
  Fe  Fe80  1  0.43320940  0.34337670  0.97175647  1
  Fe  Fe81  1  0.61215890  0.21173415  0.46046705  1
  Fe  Fe82  1  0.23080407  0.64039254  0.07284890  1
  Fe  Fe83  1  0.06211578  0.51443344  0.57961272  1
  Fe  Fe84  1  0.55220962  0.27219143  0.95039589  1
  Fe  Fe85  1  0.47464922  0.27178167  0.41552766  1
  Fe  Fe86  1  0.75136762  0.17673294  0.41427902  1
  Fe  Fe87  1  0.58070740  0.91833301  0.86312697  1
  Fe  Fe88  1  -0.12108256  0.23781875  0.38018069  1
  Fe  Fe89  1  0.11481822  0.67790289  1.00628007  1
  Fe  Fe90  1  0.84724035  0.12135894  0.31935120  1
  Fe  Fe91  1  0.80088552  0.74519500  0.27110785  1
  Fe  Fe92  1  0.43618724  0.32649130  0.55243024  1
  Fe  Fe93  1  0.68969158  0.79501976  0.33528618  1
  Fe  Fe94  1  0.87293059  0.69886459  0.64136705  1
  Fe  Fe95  1  0.49809977  0.88488505  -0.03938060  1
  Fe  Fe96  1  0.55591586  0.35186127  0.48961665  1
  Fe  Fe97  1  0.17680856  0.27954997  0.17602440  1
  Fe  Fe98  1  0.13371073  0.65201758  0.16565673  1
  Fe  Fe99  1  0.44227008  0.59080337  0.86006834  1
  Fe  Fe100  1  0.86173678  0.34268854  0.92650011  1
  Fe  Fe101  1  0.15475812  0.76647105  1.10438235  1
  Bi  Bi102  1  0.74439606  0.68578227  0.11312293  1
  Bi  Bi103  1  0.74487380  0.76072526  0.72631899  1
  Bi  Bi104  1  0.46805920  0.19152975  0.06459367  1
  Bi  Bi105  1  0.17347635  0.62819981  0.62284229  1
  Bi  Bi106  1  -0.04521204  -0.01294811  0.40006656  1
  Bi  Bi107  1  0.33156744  0.38176899  0.42034759  1
  Bi  Bi108  1  0.39778444  0.22207163  0.67586922  1
  Bi  Bi109  1  0.72329777  0.28074165  0.00034920  1
  Bi  Bi110  1  0.63431558  0.40170455  0.21465375  1
  Bi  Bi111  1  0.64602559  -0.10617471  0.05157919  1
  Bi  Bi112  1  0.25413265  0.34645526  0.03820988  1
  Bi  Bi113  1  0.61339156  0.52715579  -0.12863905  1
  Bi  Bi114  1  0.73172822  0.15751442  0.58740707  1
  Bi  Bi115  1  0.60702587  -0.06035776  0.27829819  1
  Bi  Bi116  1  0.43777513  0.02719815  0.88606862  1
  Bi  Bi117  1  0.38953305  0.95112351  0.54226402  1
  Bi  Bi118  1  0.81526200  0.11822631  0.14382351  1
  Bi  Bi119  1  0.65705070  0.43398775  0.61098513  1
  Bi  Bi120  1  0.11656189  0.08215171  0.85373077  1
  Bi  Bi121  1  0.90403889  0.37668655  0.76414004  1
  Bi  Bi122  1  0.44948803  0.59715548  0.32106552  1
  Bi  Bi123  1  0.24092408  0.14912452  0.28088686  1
  Bi  Bi124  1  0.95267957  0.61105076  0.94258661  1
  Bi  Bi125  1  0.13172566  0.86464455  0.64177021  1
  Bi  Bi126  1  0.40336060  0.60900218  0.04508590  1
  Bi  Bi127  1  0.94356113  0.96964611  0.83803825  1
