# generated using pymatgen
data_Ba51Fe51Bi26
_symmetry_space_group_name_H-M   'P 1'
_cell_length_a   16.38662453
_cell_length_b   16.22745279
_cell_length_c   16.45335091
_cell_angle_alpha   90.01161018
_cell_angle_beta   89.07368416
_cell_angle_gamma   90.01398271
_symmetry_Int_Tables_number   1
_chemical_formula_structural   Ba51Fe51Bi26
_chemical_formula_sum   'Ba51 Fe51 Bi26'
_cell_volume   4374.59080036
_cell_formula_units_Z   1
loop_
 _symmetry_equiv_pos_site_id
 _symmetry_equiv_pos_as_xyz
  1  'x, y, z'
loop_
 _atom_site_type_symbol
 _atom_site_label
 _atom_site_symmetry_multiplicity
 _atom_site_fract_x
 _atom_site_fract_y
 _atom_site_fract_z
 _atom_site_occupancy
  Ba  Ba0  1  0.02597090  0.17236249  0.06432861  1
  Ba  Ba1  1  -0.05017226  0.20805193  0.33459023  1
  Ba  Ba2  1  0.66989530  0.21064985  0.75322619  1
  Ba  Ba3  1  0.27496747  0.52319736  0.00463018  1
  Ba  Ba4  1  0.83410292  0.56719061  -0.07597899  1
  Ba  Ba5  1  0.07134492  0.02132854  0.46230416  1
  Ba  Ba6  1  0.13618283  0.69351543  0.51275929  1
  Ba  Ba7  1  0.01448628  0.21991268  0.70557545  1
  Ba  Ba8  1  0.24670540  0.32406921  0.73639171  1
  Ba  Ba9  1  0.19951887  0.50890849  0.24964815  1
  Ba  Ba10  1  -0.06394274  0.82872898  0.51740422  1
  Ba  Ba11  1  0.73329115  -0.15769550  0.39203652  1
  Ba  Ba12  1  0.16114443  -0.00801597  0.70513813  1
  Ba  Ba13  1  -0.07313511  0.64186374  0.32206804  1
  Ba  Ba14  1  0.75895369  0.25830571  0.01521236  1
  Ba  Ba15  1  0.49474084  -0.01034278  -0.00406353  1
  Ba  Ba16  1  0.38661040  0.75731190  0.02653825  1
  Ba  Ba17  1  0.33456440  0.27101432  -0.04281352  1
  Ba  Ba18  1  0.42786437  0.82168284  0.42081048  1
  Ba  Ba19  1  0.50560219  0.79968663  0.80292791  1
  Ba  Ba20  1  0.31813899  0.54366685  0.64030831  1
  Ba  Ba21  1  0.07623768  0.39945849  -0.04646739  1
  Ba  Ba22  1  0.59973241  0.80063441  0.59758747  1
  Ba  Ba23  1  -0.12954481  0.68925564  0.71563854  1
  Ba  Ba24  1  0.84318263  0.79824041  -0.00111664  1
  Ba  Ba25  1  0.74412670  -0.07604362  0.17061690  1
  Ba  Ba26  1  0.49592167  0.26867718  0.11939645  1
  Ba  Ba27  1  0.71513912  0.59648384  0.50622114  1
  Ba  Ba28  1  0.21515753  0.26143578  0.37168697  1
  Ba  Ba29  1  0.54768606  0.04959610  0.26919835  1
  Ba  Ba30  1  0.71828656  0.01083407  -0.06235078  1
  Ba  Ba31  1  0.46920754  0.33275750  0.34986046  1
  Ba  Ba32  1  0.03963803  0.47617910  0.66740006  1
  Ba  Ba33  1  0.25120017  0.75821033  0.74927366  1
  Ba  Ba34  1  0.73290245  0.66255025  0.18003091  1
  Ba  Ba35  1  0.01624091  0.43109901  0.37989471  1
  Ba  Ba36  1  -0.08672104  0.43397025  0.15267727  1
  Ba  Ba37  1  0.11687929  0.86826740  -0.05822541  1
  Ba  Ba38  1  0.24726689  0.75090870  0.23207157  1
  Ba  Ba39  1  0.49121600  0.53760920  0.48293681  1
  Ba  Ba40  1  0.66827161  0.41294457  0.20794615  1
  Ba  Ba41  1  0.78369750  0.11856149  0.51003809  1
  Ba  Ba42  1  0.01116538  -0.05924722  0.18035773  1
  Ba  Ba43  1  -0.04726612  0.03216042  -0.15146764  1
  Ba  Ba44  1  0.51783049  0.17785930  0.55992837  1
  Ba  Ba45  1  0.79190823  0.43643729  0.67207985  1
  Ba  Ba46  1  0.58102187  0.56951174  -0.05630897  1
  Ba  Ba47  1  0.25548020  -0.00927905  0.32555776  1
  Ba  Ba48  1  0.38018464  0.08003310  0.76487962  1
  Ba  Ba49  1  0.44374647  0.56405788  0.22874900  1
  Ba  Ba50  1  0.26251923  0.04758711  0.05486112  1
  Fe  Fe51  1  0.88389388  0.88540093  0.70777029  1
  Fe  Fe52  1  0.51320219  0.98405517  0.62081421  1
  Fe  Fe53  1  0.05865112  0.71543257  0.18814015  1
  Fe  Fe54  1  0.58447203  0.41864965  0.76345251  1
  Fe  Fe55  1  0.81041302  0.34829603  0.33053586  1
  Fe  Fe56  1  0.14434089  0.65890648  0.07059047  1
  Fe  Fe57  1  0.09294057  0.32911909  0.53459165  1
  Fe  Fe58  1  0.21841310  0.35522100  0.55087882  1
  Fe  Fe59  1  0.02103548  0.58645341  0.85131917  1
  Fe  Fe60  1  0.15993983  0.46694474  0.50158666  1
  Fe  Fe61  1  0.06311464  0.71608202  0.78957327  1
  Fe  Fe62  1  0.98304157  0.70687222  0.90664713  1
  Fe  Fe63  1  0.53855744  0.35634414  0.88716405  1
  Fe  Fe64  1  0.23991236  0.21821286  0.15224611  1
  Fe  Fe65  1  0.76985077  0.33054996  0.46892047  1
  Fe  Fe66  1  0.66185721  0.20886633  0.20640309  1
  Fe  Fe67  1  0.44607286  0.44737586  0.81436898  1
  Fe  Fe68  1  -0.04023177  0.82994550  0.82382631  1
  Fe  Fe69  1  0.46677442  0.76646520  0.23022662  1
  Fe  Fe70  1  0.58661821  0.82525238  0.25501789  1
  Fe  Fe71  1  0.12373937  0.66711194  0.92547501  1
  Fe  Fe72  1  0.38164817  0.94610489  0.61225318  1
  Fe  Fe73  1  0.66533457  -0.00791564  0.62869086  1
  Fe  Fe74  1  0.71254631  0.78081552  0.83819831  1
  Fe  Fe75  1  0.05293101  0.58418661  0.13845026  1
  Fe  Fe76  1  0.02602007  0.83185164  0.71104448  1
  Fe  Fe77  1  0.55731896  0.72085461  0.14092590  1
  Fe  Fe78  1  0.79549537  0.48664942  0.33297117  1
  Fe  Fe79  1  0.78716231  -0.07291231  0.60440565  1
  Fe  Fe80  1  0.84079533  0.44987043  0.45485802  1
  Fe  Fe81  1  0.28012995  0.44694273  0.44682961  1
  Fe  Fe82  1  0.81592082  0.88115199  0.82606248  1
  Fe  Fe83  1  0.93225797  0.64147847  0.11110467  1
  Fe  Fe84  1  0.75057154  0.11413116  0.28251227  1
  Fe  Fe85  1  0.93530632  0.76279486  0.16969234  1
  Fe  Fe86  1  1.02699215  0.73033055  0.04833736  1
  Fe  Fe87  1  0.79381948  0.24477701  0.21745873  1
  Fe  Fe88  1  0.84857570  0.10947950  0.18711498  1
  Fe  Fe89  1  0.34644085  0.19016181  0.22616737  1
  Fe  Fe90  1  0.48163336  0.42463474  0.66616547  1
  Fe  Fe91  1  0.54936309  0.85962892  0.13283803  1
  Fe  Fe92  1  0.30730996  0.32629473  0.18411254  1
  Fe  Fe93  1  0.78269746  0.00385144  0.72672676  1
  Fe  Fe94  1  0.30970856  0.05740018  0.53599783  1
  Fe  Fe95  1  1.02220566  0.58559471  0.99877262  1
  Fe  Fe96  1  0.72323559  0.11602222  0.13532867  1
  Fe  Fe97  1  0.69260443  0.42335667  0.40318835  1
  Fe  Fe98  1  0.42849901  1.00556780  0.49776981  1
  Fe  Fe99  1  0.59593986  0.51268371  0.65237910  1
  Fe  Fe100  1  0.50665260  0.55943243  0.73993949  1
  Fe  Fe101  1  0.71746395  0.87542731  0.72913654  1
  Bi  Bi102  1  0.17847399  0.54675593  0.81146060  1
  Bi  Bi103  1  0.66358569  0.63930859  0.74672106  1
  Bi  Bi104  1  0.62433821  0.37530069  0.55716290  1
  Bi  Bi105  1  0.59747427  -0.01560434  0.47169704  1
  Bi  Bi106  1  0.58469844  0.68021085  0.34199087  1
  Bi  Bi107  1  0.24442554  -0.10653717  0.52868228  1
  Bi  Bi108  1  -0.07754776  0.31085401  0.53758160  1
  Bi  Bi109  1  0.38259200  0.35449465  0.54547680  1
  Bi  Bi110  1  -0.06191845  0.02590126  0.63181919  1
  Bi  Bi111  1  0.66661564  0.23862127  0.36747538  1
  Bi  Bi112  1  0.62317757  0.79647097  -0.00846250  1
  Bi  Bi113  1  0.45721310  0.28087663  0.75859879  1
  Bi  Bi114  1  0.58690795  -0.00180547  0.77333094  1
  Bi  Bi115  1  0.55637167  0.18902303  0.93723160  1
  Bi  Bi116  1  0.39501822  0.91443076  0.18247968  1
  Bi  Bi117  1  0.10800444  0.32836897  0.18041667  1
  Bi  Bi118  1  0.70619970  0.40095709  0.87385132  1
  Bi  Bi119  1  0.18448725  0.17946941  0.57585259  1
  Bi  Bi120  1  0.92835530  0.58830987  0.52768016  1
  Bi  Bi121  1  0.38906380  0.13529570  0.39012114  1
  Bi  Bi122  1  0.06760624  0.81009000  0.33507562  1
  Bi  Bi123  1  0.30553339  0.61269204  0.40539292  1
  Bi  Bi124  1  0.39294084  0.61707054  0.85082612  1
  Bi  Bi125  1  0.15098960  0.15570197  0.88087203  1
  Bi  Bi126  1  0.87206558  0.00362464  0.33615499  1
  Bi  Bi127  1  0.32098754  0.91176854  0.88553431  1
