# generated using pymatgen
data_Ba51Fe51Bi26
_symmetry_space_group_name_H-M   'P 1'
_cell_length_a   16.45457577
_cell_length_b   16.06158936
_cell_length_c   16.45906175
_cell_angle_alpha   88.56005327
_cell_angle_beta   91.15892760
_cell_angle_gamma   89.98734601
_symmetry_Int_Tables_number   1
_chemical_formula_structural   Ba51Fe51Bi26
_chemical_formula_sum   'Ba51 Fe51 Bi26'
_cell_volume   4347.64576851
_cell_formula_units_Z   1
loop_
 _symmetry_equiv_pos_site_id
 _symmetry_equiv_pos_as_xyz
  1  'x, y, z'
loop_
 _atom_site_type_symbol
 _atom_site_label
 _atom_site_symmetry_multiplicity
 _atom_site_fract_x
 _atom_site_fract_y
 _atom_site_fract_z
 _atom_site_occupancy
  Ba  Ba0  1  0.52961401  -0.02965876  0.23734531  1
  Ba  Ba1  1  0.53072966  -0.03625765  -0.06338632  1
  Ba  Ba2  1  0.24609014  0.48138514  0.20813400  1
  Ba  Ba3  1  0.79219478  -0.07788782  -0.00027636  1
  Ba  Ba4  1  0.75545219  0.15272287  0.31484535  1
  Ba  Ba5  1  -0.05737620  0.73390230  0.57601026  1
  Ba  Ba6  1  0.28799420  0.40833116  0.69625294  1
  Ba  Ba7  1  0.39970949  0.73823756  0.26732932  1
  Ba  Ba8  1  0.50839794  0.48806554  0.21509042  1
  Ba  Ba9  1  0.70083642  0.70335306  0.19047481  1
  Ba  Ba10  1  0.02447662  0.84970817  0.37769782  1
  Ba  Ba11  1  -0.04236494  0.27351475  0.40495024  1
  Ba  Ba12  1  0.45690931  0.31867602  -0.12525799  1
  Ba  Ba13  1  -0.04206806  0.73332725  0.00763209  1
  Ba  Ba14  1  -0.03497770  0.09980989  0.76953581  1
  Ba  Ba15  1  0.05894298  0.34609494  0.60776710  1
  Ba  Ba16  1  0.08267630  -0.04385531  -0.00113252  1
  Ba  Ba17  1  0.79544214  -0.09010311  0.32273151  1
  Ba  Ba18  1  -0.09371312  0.10501437  0.11824200  1
  Ba  Ba19  1  0.11910858  0.72570548  0.18832810  1
  Ba  Ba20  1  0.31330084  -0.02086885  0.55538102  1
  Ba  Ba21  1  0.49508592  0.18307807  0.43142919  1
  Ba  Ba22  1  0.01173146  0.55400523  0.41632981  1
  Ba  Ba23  1  -0.08826498  0.35999593  0.77893510  1
  Ba  Ba24  1  0.20802894  0.45039671  -0.05931850  1
  Ba  Ba25  1  0.76936316  0.47569662  0.28358391  1
  Ba  Ba26  1  -0.00373511  0.32434460  -0.00584529  1
  Ba  Ba27  1  0.72775864  0.58744619  0.50276202  1
  Ba  Ba28  1  0.52918588  0.21547434  0.11095549  1
  Ba  Ba29  1  0.05564572  0.03689564  0.54986964  1
  Ba  Ba30  1  0.21452836  0.00306625  0.79835444  1
  Ba  Ba31  1  0.11628104  0.18993957  0.21729121  1
  Ba  Ba32  1  0.74330981  0.29542716  0.52484866  1
  Ba  Ba33  1  0.23915488  0.43822497  0.45697518  1
  Ba  Ba34  1  0.31198534  -0.04264845  0.07347994  1
  Ba  Ba35  1  0.23833487  0.17089697  0.41676178  1
  Ba  Ba36  1  0.51312270  0.42598509  0.46604819  1
  Ba  Ba37  1  0.35382485  0.64189237  0.02415073  1
  Ba  Ba38  1  0.74852700  0.30849023  0.08346719  1
  Ba  Ba39  1  0.56089082  0.50781130  0.71311927  1
  Ba  Ba40  1  0.73685100  0.02110961  0.78753934  1
  Ba  Ba41  1  0.55572322  -0.05034782  0.49096834  1
  Ba  Ba42  1  0.26743021  0.21869781  0.04752461  1
  Ba  Ba43  1  0.46924338  0.07498214  0.70725475  1
  Ba  Ba44  1  0.81692947  0.54418346  0.00556078  1
  Ba  Ba45  1  0.51022739  0.71901968  -0.15957420  1
  Ba  Ba46  1  0.66626328  0.25498241  0.78423124  1
  Ba  Ba47  1  0.06724079  0.72068063  0.79721283  1
  Ba  Ba48  1  0.52074040  0.72163607  0.54645947  1
  Ba  Ba49  1  0.25601385  0.73571222  0.48171708  1
  Ba  Ba50  1  0.27856051  0.66561875  0.72400601  1
  Fe  Fe51  1  0.07731497  0.47123522  0.76408210  1
  Fe  Fe52  1  0.63515239  0.56438617  0.91816003  1
  Fe  Fe53  1  0.31473860  0.20174459  0.72760157  1
  Fe  Fe54  1  0.43030514  0.84558603  0.65932761  1
  Fe  Fe55  1  0.05879355  0.51654561  0.22220609  1
  Fe  Fe56  1  0.50726807  0.51254503  -0.03006958  1
  Fe  Fe57  1  0.07812980  0.39209215  0.15509753  1
  Fe  Fe58  1  0.84573870  0.92755583  0.52668009  1
  Fe  Fe59  1  0.15789533  0.21174525  0.73038061  1
  Fe  Fe60  1  0.64388015  0.50177185  0.06701015  1
  Fe  Fe61  1  0.22400599  0.25277325  0.60010893  1
  Fe  Fe62  1  0.12293297  0.32906344  0.80306386  1
  Fe  Fe63  1  0.85229535  0.71192189  0.73842808  1
  Fe  Fe64  1  0.95850069  0.43332453  0.27300767  1
  Fe  Fe65  1  0.72873787  0.95923564  0.60229456  1
  Fe  Fe66  1  0.96292069  0.31738243  0.20498834  1
  Fe  Fe67  1  0.20123427  0.89515662  0.25794739  1
  Fe  Fe68  1  0.24272255  0.92358341  0.38486025  1
  Fe  Fe69  1  0.34142066  0.92598653  0.26483893  1
  Fe  Fe70  1  0.87187629  0.05881312  0.47211676  1
  Fe  Fe71  1  0.73997272  0.03793721  0.48109724  1
  Fe  Fe72  1  0.24732088  0.24452224  0.83657504  1
  Fe  Fe73  1  0.17196998  0.75311065  0.98168512  1
  Fe  Fe74  1  0.23824376  0.03119113  0.26098778  1
  Fe  Fe75  1  0.68165885  0.12857425  0.97164284  1
  Fe  Fe76  1  0.08274726  0.37799937  0.29109994  1
  Fe  Fe77  1  0.41574368  0.89152351  0.78120339  1
  Fe  Fe78  1  0.35745295  0.02002141  0.36328488  1
  Fe  Fe79  1  0.87364282  0.59198880  0.82250902  1
  Fe  Fe80  1  0.72589759  0.79587099  0.79551732  1
  Fe  Fe81  1  0.05072173  0.53246824  0.08074582  1
  Fe  Fe82  1  1.09584055  -0.01823212  0.22110470  1
  Fe  Fe83  1  0.80767378  0.57410558  0.69781128  1
  Fe  Fe84  1  0.62999578  0.42288170  0.94113294  1
  Fe  Fe85  1  0.40918254  0.58670908  0.39883692  1
  Fe  Fe86  1  0.72445077  0.63798663  0.81320050  1
  Fe  Fe87  1  0.30641638  0.85343872  0.71178844  1
  Fe  Fe88  1  0.13076960  0.62935007  1.00462020  1
  Fe  Fe89  1  -0.03920346  0.55496899  0.71553459  1
  Fe  Fe90  1  0.87970180  0.95916700  0.65394756  1
  Fe  Fe91  1  0.57582878  0.61422250  0.03570243  1
  Fe  Fe92  1  0.34955644  0.20831160  0.58694874  1
  Fe  Fe93  1  0.79213523  0.84064293  0.66966824  1
  Fe  Fe94  1  0.94038068  0.44865075  0.13678335  1
  Fe  Fe95  1  0.82300421  0.72918140  0.87006680  1
  Fe  Fe96  1  0.71724361  0.70519811  0.67854702  1
  Fe  Fe97  1  0.38553579  0.88874993  0.39218678  1
  Fe  Fe98  1  0.13498057  0.00976631  0.34884270  1
  Fe  Fe99  1  0.22996116  0.12708172  0.64065181  1
  Fe  Fe100  1  0.55177461  0.40457018  0.04583389  1
  Fe  Fe101  1  0.82528477  0.08002050  0.59678323  1
  Bi  Bi102  1  0.37319667  0.12679257  0.22869943  1
  Bi  Bi103  1  0.11027760  0.17379596  -0.09771551  1
  Bi  Bi104  1  0.01206768  0.53407293  0.90694231  1
  Bi  Bi105  1  0.68717964  0.73294162  -0.03211267  1
  Bi  Bi106  1  -0.02698815  0.06707431  0.33535630  1
  Bi  Bi107  1  0.73824962  0.46221576  0.82120589  1
  Bi  Bi108  1  -0.07856468  0.61023899  0.18970903  1
  Bi  Bi109  1  0.39289758  0.52930134  -0.15473066  1
  Bi  Bi110  1  0.30474528  0.82131842  0.89661903  1
  Bi  Bi111  1  0.72381238  0.80634296  0.51731875  1
  Bi  Bi112  1  0.59224648  0.87601712  0.71013835  1
  Bi  Bi113  1  0.65105052  0.11993049  0.59796435  1
  Bi  Bi114  1  0.90511029  0.87474634  0.81127540  1
  Bi  Bi115  1  0.38565158  0.40321731  0.06487185  1
  Bi  Bi116  1  0.68873545  0.06307590  0.12641735  1
  Bi  Bi117  1  0.62152662  0.31702330  0.30867872  1
  Bi  Bi118  1  0.56738073  0.62903798  0.35762594  1
  Bi  Bi119  1  0.37947150  0.56247396  0.56000998  1
  Bi  Bi120  1  0.37023481  0.12096163  -0.10622964  1
  Bi  Bi121  1  0.85322101  0.69645148  0.36195122  1
  Bi  Bi122  1  0.95980518  0.88975261  0.16113849  1
  Bi  Bi123  1  0.48077575  0.29831869  0.65031873  1
  Bi  Bi124  1  0.15072809  0.84723679  0.63333696  1
  Bi  Bi125  1  0.82958933  0.18344813  0.91812471  1
  Bi  Bi126  1  0.88155432  0.46431924  0.58131478  1
  Bi  Bi127  1  0.11293633  0.56355543  0.61950613  1
