# generated using pymatgen
data_Ba51Fe51Bi26
_symmetry_space_group_name_H-M   'P 1'
_cell_length_a   16.68494401
_cell_length_b   16.18857312
_cell_length_c   16.40406346
_cell_angle_alpha   91.50146539
_cell_angle_beta   90.35088551
_cell_angle_gamma   89.31022481
_symmetry_Int_Tables_number   1
_chemical_formula_structural   Ba51Fe51Bi26
_chemical_formula_sum   'Ba51 Fe51 Bi26'
_cell_volume   4428.90966042
_cell_formula_units_Z   1
loop_
 _symmetry_equiv_pos_site_id
 _symmetry_equiv_pos_as_xyz
  1  'x, y, z'
loop_
 _atom_site_type_symbol
 _atom_site_label
 _atom_site_symmetry_multiplicity
 _atom_site_fract_x
 _atom_site_fract_y
 _atom_site_fract_z
 _atom_site_occupancy
  Ba  Ba0  1  0.00242674  0.29450137  0.19912626  1
  Ba  Ba1  1  0.56698457  0.74173346  0.59727901  1
  Ba  Ba2  1  0.42553147  0.89374146  0.78575989  1
  Ba  Ba3  1  0.51685370  0.68382416  0.28784536  1
  Ba  Ba4  1  0.77427152  -0.08480779  0.51598418  1
  Ba  Ba5  1  0.26066886  -0.09527855  -0.02444468  1
  Ba  Ba6  1  0.72461708  -0.01692851  0.29289305  1
  Ba  Ba7  1  0.75706614  0.81801571  0.75608414  1
  Ba  Ba8  1  0.05569719  0.05307124  -0.03751163  1
  Ba  Ba9  1  0.59062682  0.02810993  0.08973963  1
  Ba  Ba10  1  0.26807934  -0.02931772  0.53092321  1
  Ba  Ba11  1  -0.06163984  0.22559798  0.46068807  1
  Ba  Ba12  1  0.24774177  0.27258338  0.24362266  1
  Ba  Ba13  1  0.22098363  -0.01654779  0.23166805  1
  Ba  Ba14  1  0.76542234  0.44838442  0.53720957  1
  Ba  Ba15  1  -0.05362535  0.43951037  0.82246625  1
  Ba  Ba16  1  0.21621166  0.71469512  0.74707822  1
  Ba  Ba17  1  0.54682912  0.51537343  0.70227497  1
  Ba  Ba18  1  0.70102806  0.27407071  0.80031657  1
  Ba  Ba19  1  0.28666095  0.48296113  0.61306894  1
  Ba  Ba20  1  0.45704901  -0.04094445  0.26783975  1
  Ba  Ba21  1  0.05106963  -0.02916321  0.42129487  1
  Ba  Ba22  1  0.42302400  0.22790947  0.42661512  1
  Ba  Ba23  1  0.00061461  0.49754813  0.06105330  1
  Ba  Ba24  1  0.42420753  0.37523814  0.08232543  1
  Ba  Ba25  1  0.13917393  -0.04148185  0.72037853  1
  Ba  Ba26  1  -0.04081206  0.67350194  0.45053250  1
  Ba  Ba27  1  0.46840733  0.29030668  0.67600303  1
  Ba  Ba28  1  0.00303371  0.17148772  0.76324767  1
  Ba  Ba29  1  0.25851015  0.66558325  0.46279481  1
  Ba  Ba30  1  0.76923710  0.48619581  -0.01472452  1
  Ba  Ba31  1  0.03253990  0.73856073  0.22530963  1
  Ba  Ba32  1  0.75840806  0.56939215  0.26925124  1
  Ba  Ba33  1  0.23111266  0.25877400  0.74794979  1
  Ba  Ba34  1  0.82451836  -0.02107076  -0.01778727  1
  Ba  Ba35  1  0.49033849  0.12615710  0.87179804  1
  Ba  Ba36  1  0.49934773  0.01128607  0.50003458  1
  Ba  Ba37  1  0.54908418  0.55801139  0.01226295  1
  Ba  Ba38  1  0.15282315  0.69715733  0.00167809  1
  Ba  Ba39  1  0.73102402  0.75702310  -0.02098806  1
  Ba  Ba40  1  0.19155251  0.51121594  0.24461600  1
  Ba  Ba41  1  0.18351538  0.28738258  0.47429094  1
  Ba  Ba42  1  0.36257733  0.53915089  0.86796383  1
  Ba  Ba43  1  0.52880067  0.39882598  0.31402552  1
  Ba  Ba44  1  0.78085220  0.06407446  0.72971324  1
  Ba  Ba45  1  -0.03293052  -0.00626145  0.18370066  1
  Ba  Ba46  1  0.28970232  0.74858989  0.21409387  1
  Ba  Ba47  1  -0.01748949  0.71338822  0.71773610  1
  Ba  Ba48  1  0.03303096  0.45533123  0.60432381  1
  Ba  Ba49  1  0.75683299  0.23713980  0.20570162  1
  Ba  Ba50  1  0.24901013  0.19586755  0.02897518  1
  Fe  Fe51  1  0.14132073  0.36550211  0.04723471  1
  Fe  Fe52  1  0.40754211  0.74184447  0.96582264  1
  Fe  Fe53  1  0.71136418  0.62746511  0.70012714  1
  Fe  Fe54  1  0.74653355  0.17932498  0.40212050  1
  Fe  Fe55  1  0.58540965  0.23442371  0.52794419  1
  Fe  Fe56  1  0.69285344  0.69559006  0.43151396  1
  Fe  Fe57  1  0.96139955  0.44397778  0.42210402  1
  Fe  Fe58  1  0.09815356  0.55531307  0.87298211  1
  Fe  Fe59  1  0.12857273  0.54351807  0.74749055  1
  Fe  Fe60  1  0.83703476  0.58563933  0.69136105  1
  Fe  Fe61  1  0.40237612  0.84809474  0.07973228  1
  Fe  Fe62  1  0.04585415  0.87067073  0.02650207  1
  Fe  Fe63  1  0.06607806  0.39094368  0.36220568  1
  Fe  Fe64  1  0.57364071  0.37008462  0.51368386  1
  Fe  Fe65  1  0.11411380  0.12881418  0.16536478  1
  Fe  Fe66  1  0.67874856  0.62423437  0.83011655  1
  Fe  Fe67  1  0.97007758  0.88758340  0.62171733  1
  Fe  Fe68  1  0.19248658  0.83482060  0.38518967  1
  Fe  Fe69  1  0.86811431  0.15511149  0.90278854  1
  Fe  Fe70  1  0.06589011  0.83978514  0.89349479  1
  Fe  Fe71  1  0.10129206  0.13824930  0.29031978  1
  Fe  Fe72  1  0.89485059  0.17987295  0.03506294  1
  Fe  Fe73  1  0.44443528  0.58304083  0.54634957  1
  Fe  Fe74  1  0.58035320  0.26446862  1.02217585  1
  Fe  Fe75  1  0.49563263  0.86389707  0.97768854  1
  Fe  Fe76  1  0.24872716  0.42516368  0.07267665  1
  Fe  Fe77  1  0.64314678  0.12716800  0.45474936  1
  Fe  Fe78  1  0.85691508  0.28643803  0.92534117  1
  Fe  Fe79  1  0.46408176  0.18132614  0.06710020  1
  Fe  Fe80  1  0.81134023  0.62656284  0.81979625  1
  Fe  Fe81  1  0.46682228  1.08498841  0.67533687  1
  Fe  Fe82  1  0.86370944  0.31415249  0.05361980  1
  Fe  Fe83  1  0.54648583  0.75064431  0.03108173  1
  Fe  Fe84  1  0.09000274  0.50828376  0.42211516  1
  Fe  Fe85  1  0.19849811  0.45929743  0.81969050  1
  Fe  Fe86  1  0.65223523  0.27929105  0.41913789  1
  Fe  Fe87  1  0.31328285  0.86156568  0.37284994  1
  Fe  Fe88  1  0.95443997  0.77721103  0.04274043  1
  Fe  Fe89  1  0.42501773  0.56322483  0.42130851  1
  Fe  Fe90  1  0.11518702  0.40035030  0.90772709  1
  Fe  Fe91  1  0.56178028  0.24288951  0.15530708  1
  Fe  Fe92  1  0.18960911  0.50543377  -0.02377607  1
  Fe  Fe93  1  0.43247984  0.70988472  0.09529612  1
  Fe  Fe94  1  0.93994173  0.82764584  0.92191750  1
  Fe  Fe95  1  0.34102983  0.06720852  0.70725770  1
  Fe  Fe96  1  0.44260444  0.18506638  0.19619639  1
  Fe  Fe97  1  0.45860806  0.44819031  0.51026679  1
  Fe  Fe98  1  0.35955481  0.13900865  0.60247574  1
  Fe  Fe99  1  0.24765828  0.37238450  0.93745523  1
  Fe  Fe100  1  0.73995368  0.77034760  0.33680953  1
  Fe  Fe101  1  0.51796003  0.83281004  0.13418060  1
  Bi  Bi102  1  0.02182982  0.27411670  -0.03059030  1
  Bi  Bi103  1  0.58082611  0.15024451  0.29832025  1
  Bi  Bi104  1  0.53143079  0.70577409  -0.14973090  1
  Bi  Bi105  1  0.66641765  0.79629314  0.18279312  1
  Bi  Bi106  1  0.32561169  0.57899132  0.07611825  1
  Bi  Bi107  1  0.74090954  0.47469551  0.76749509  1
  Bi  Bi108  1  -0.05295646  0.65384420  -0.08253634  1
  Bi  Bi109  1  -0.05441613  -0.06965272  0.79316651  1
  Bi  Bi110  1  -0.02035764  0.52359257  0.27716682  1
  Bi  Bi111  1  0.59324136  0.55456510  0.46289325  1
  Bi  Bi112  1  0.79046590  0.69510333  0.57153829  1
  Bi  Bi113  1  0.73676290  0.21619215  0.57345528  1
  Bi  Bi114  1  0.72827776  0.18076307  -0.00689002  1
  Bi  Bi115  1  0.26384003  0.07380307  0.85450602  1
  Bi  Bi116  1  0.88815303  0.84943518  0.33651131  1
  Bi  Bi117  1  0.32413310  0.42961412  0.39881637  1
  Bi  Bi118  1  0.11162828  0.80576598  0.55778312  1
  Bi  Bi119  1  0.86297819  0.66058698  0.11294926  1
  Bi  Bi120  1  0.11726535  0.12641184  0.58282585  1
  Bi  Bi121  1  0.62205321  0.93905993  0.89219684  1
  Bi  Bi122  1  0.93648110  0.04580070  0.58283418  1
  Bi  Bi123  1  0.59595992  0.96585875  0.68057086  1
  Bi  Bi124  1  0.60066595  0.84245900  0.40767223  1
  Bi  Bi125  1  0.63734517  0.39728443  0.13101685  1
  Bi  Bi126  1  0.52136423  0.36212713  0.88690427  1
  Bi  Bi127  1  0.88428716  0.30899038  0.65838035  1
