# generated using pymatgen
data_Ba51Fe51Bi26
_symmetry_space_group_name_H-M   'P 1'
_cell_length_a   16.42707667
_cell_length_b   16.22800267
_cell_length_c   16.28690511
_cell_angle_alpha   89.62463611
_cell_angle_beta   89.00262636
_cell_angle_gamma   87.95016986
_symmetry_Int_Tables_number   1
_chemical_formula_structural   Ba51Fe51Bi26
_chemical_formula_sum   'Ba51 Fe51 Bi26'
_cell_volume   4338.22904358
_cell_formula_units_Z   1
loop_
 _symmetry_equiv_pos_site_id
 _symmetry_equiv_pos_as_xyz
  1  'x, y, z'
loop_
 _atom_site_type_symbol
 _atom_site_label
 _atom_site_symmetry_multiplicity
 _atom_site_fract_x
 _atom_site_fract_y
 _atom_site_fract_z
 _atom_site_occupancy
  Ba  Ba0  1  0.76619185  0.50146873  0.08478507  1
  Ba  Ba1  1  0.75343063  -0.08474593  0.51572911  1
  Ba  Ba2  1  0.52334917  0.25471538  0.78272271  1
  Ba  Ba3  1  0.29875611  0.16166989  -0.09139757  1
  Ba  Ba4  1  0.23336041  0.73435920  -0.08844271  1
  Ba  Ba5  1  0.76452437  0.08566991  0.00418147  1
  Ba  Ba6  1  0.04502404  0.21209865  0.23544794  1
  Ba  Ba7  1  0.48006379  0.76657220  -0.07222755  1
  Ba  Ba8  1  0.45088011  0.55304797  0.03230861  1
  Ba  Ba9  1  -0.04843744  0.00573221  0.78678312  1
  Ba  Ba10  1  0.81478293  0.24603491  0.18968143  1
  Ba  Ba11  1  0.70903937  0.79008972  0.74810356  1
  Ba  Ba12  1  0.48734412  0.52214107  0.49938731  1
  Ba  Ba13  1  0.76601129  0.24154662  0.61334953  1
  Ba  Ba14  1  -0.00630078  0.28911279  0.65807839  1
  Ba  Ba15  1  0.43692702  -0.02715389  0.54798567  1
  Ba  Ba16  1  0.81860845  0.77640209  0.02246439  1
  Ba  Ba17  1  0.48800898  -0.03398164  0.78390293  1
  Ba  Ba18  1  0.31204245  0.63848108  0.67799811  1
  Ba  Ba19  1  0.05779754  0.76042969  0.08374825  1
  Ba  Ba20  1  0.08222105  0.57486638  0.27833064  1
  Ba  Ba21  1  0.86116891  0.51300987  0.84214985  1
  Ba  Ba22  1  0.50658196  0.27881536  0.29995992  1
  Ba  Ba23  1  0.22063017  0.15880765  0.56155912  1
  Ba  Ba24  1  0.19982212  -0.07345324  0.22360991  1
  Ba  Ba25  1  0.32375690  0.53007319  0.27750403  1
  Ba  Ba26  1  0.58093163  0.30264199  0.02367080  1
  Ba  Ba27  1  -0.00577706  0.50946598  0.49944735  1
  Ba  Ba28  1  0.71222619  0.72023622  0.28866059  1
  Ba  Ba29  1  -0.00077279  0.20984908  -0.03158548  1
  Ba  Ba30  1  0.69374453  -0.05509895  0.22739063  1
  Ba  Ba31  1  0.80963215  0.51096155  0.35147237  1
  Ba  Ba32  1  0.09949948  0.53545155  0.71629987  1
  Ba  Ba33  1  0.58181920  0.51526760  0.26921904  1
  Ba  Ba34  1  0.25674996  0.36787859  0.02484803  1
  Ba  Ba35  1  0.14662682  0.00774195  0.00275964  1
  Ba  Ba36  1  0.26113255  0.33440128  0.73320959  1
  Ba  Ba37  1  0.75918560  0.51141015  0.60027103  1
  Ba  Ba38  1  0.03218535  0.74934999  0.53504642  1
  Ba  Ba39  1  0.72516454  0.17677028  0.39631665  1
  Ba  Ba40  1  0.45219215  0.77884499  0.22667324  1
  Ba  Ba41  1  0.50159907  0.02247794  0.05421950  1
  Ba  Ba42  1  0.20177287  -0.03571612  0.72392651  1
  Ba  Ba43  1  0.25570924  0.28713818  0.30329635  1
  Ba  Ba44  1  0.43206688  0.74459689  0.49950831  1
  Ba  Ba45  1  0.03741720  0.50960698  0.01663912  1
  Ba  Ba46  1  0.71283269  0.05778674  0.76664275  1
  Ba  Ba47  1  0.60073779  0.55750539  0.77931662  1
  Ba  Ba48  1  0.40706090  0.03579900  0.29608724  1
  Ba  Ba49  1  0.46193949  0.27590713  0.54961825  1
  Ba  Ba50  1  -0.05011286  0.00866935  0.36046744  1
  Fe  Fe51  1  0.69395441  0.38565073  -0.12886357  1
  Fe  Fe52  1  0.92026517  0.33696577  0.35479185  1
  Fe  Fe53  1  0.92133716  0.22014443  0.44923266  1
  Fe  Fe54  1  0.60385372  0.66199332  0.59791571  1
  Fe  Fe55  1  0.15755436  0.38565051  0.55996896  1
  Fe  Fe56  1  0.10202630  1.00492990  0.51610089  1
  Fe  Fe57  1  0.34902409  0.83133292  0.69464154  1
  Fe  Fe58  1  0.89064370  0.85065149  0.21776645  1
  Fe  Fe59  1  0.23457678  0.11631053  0.20642712  1
  Fe  Fe60  1  0.70551264  0.25125483  0.83989488  1
  Fe  Fe61  1  0.14295872  0.89851839  0.42207180  1
  Fe  Fe62  1  0.00986688  0.67886381  0.87989806  1
  Fe  Fe63  1  0.27046439  0.33016589  0.50099695  1
  Fe  Fe64  1  0.60988975  0.78899708  0.55884551  1
  Fe  Fe65  1  0.51781952  0.12851971  0.43498319  1
  Fe  Fe66  1  0.21164223  0.18052285  0.09177181  1
  Fe  Fe67  1  0.86248250  0.68876639  0.66749609  1
  Fe  Fe68  1  0.85773541  0.34761916  0.46918790  1
  Fe  Fe69  1  0.41151385  0.55182506  0.83505768  1
  Fe  Fe70  1  0.29199343  0.85151636  0.38913677  1
  Fe  Fe71  1  0.32158299  0.72207440  0.08546420  1
  Fe  Fe72  1  0.32165187  0.43852483  0.44842409  1
  Fe  Fe73  1  0.30064300  0.70617235  0.37580126  1
  Fe  Fe74  1  0.18315055  0.43945198  0.43221947  1
  Fe  Fe75  1  0.62042682  0.79364348  0.06674602  1
  Fe  Fe76  1  0.40825027  0.42631300  0.86673818  1
  Fe  Fe77  1  0.92396405  0.67867321  0.36398859  1
  Fe  Fe78  1  0.61461132  0.67467974  0.11999118  1
  Fe  Fe79  1  0.04464959  0.14272209  0.48102064  1
  Fe  Fe80  1  0.67607386  0.37034754  0.73698527  1
  Fe  Fe81  1  0.25008493  0.96991170  0.45771911  1
  Fe  Fe82  1  0.90364430  0.70873200  0.23543628  1
  Fe  Fe83  1  0.87162265  0.71572146  0.82198745  1
  Fe  Fe84  1  0.26157123  0.46876463  0.57009584  1
  Fe  Fe85  1  0.59694053  0.02852625  0.41423306  1
  Fe  Fe86  1  0.64364978  0.67859880  0.47208619  1
  Fe  Fe87  1  0.92721610  0.81309176  0.71584696  1
  Fe  Fe88  1  0.93466592  0.10872839  0.55298569  1
  Fe  Fe89  1  0.86717841  -0.02263865  0.14773146  1
  Fe  Fe90  1  0.00507085  0.93888055  0.16698522  1
  Fe  Fe91  1  0.17812716  0.75823082  0.38958740  1
  Fe  Fe92  1  0.34692572  0.18202284  0.12608192  1
  Fe  Fe93  1  0.86946482  0.80282545  0.35726646  1
  Fe  Fe94  1  0.97233782  0.67772226  0.74005632  1
  Fe  Fe95  1  0.30831475  0.05612679  1.10529163  1
  Fe  Fe96  1  0.83473260  0.21085316  0.82795035  1
  Fe  Fe97  1  0.81106165  0.33606921  0.78490913  1
  Fe  Fe98  1  -0.02489548  0.80629343  0.85754310  1
  Fe  Fe99  1  0.59941476  0.39366552  0.62504954  1
  Fe  Fe100  1  0.04734130  0.08374531  0.62491404  1
  Fe  Fe101  1  -0.03659496  0.06295135  0.13027775  1
  Bi  Bi102  1  0.81657749  0.69693791  0.49714354  1
  Bi  Bi103  1  0.07273136  0.30893038  0.43821901  1
  Bi  Bi104  1  -0.04514149  -0.05779448  0.58663010  1
  Bi  Bi105  1  0.80330633  0.31134866  -0.02298377  1
  Bi  Bi106  1  0.10475491  0.76968515  0.74918171  1
  Bi  Bi107  1  0.23472306  0.72177868  0.22798089  1
  Bi  Bi108  1  -0.05291319  -0.05501896  -0.00466158  1
  Bi  Bi109  1  0.03254303  0.80732650  0.30978961  1
  Bi  Bi110  1  0.50231740  0.76142042  0.70434537  1
  Bi  Bi111  1  0.20486769  0.60183263  0.47240320  1
  Bi  Bi112  1  0.16642588  0.08495582  0.36413424  1
  Bi  Bi113  1  0.24435000  0.83590185  0.56015256  1
  Bi  Bi114  1  0.25298364  0.51818553  0.86541090  1
  Bi  Bi115  1  0.08379154  0.36945082  0.86144901  1
  Bi  Bi116  1  0.65140450  0.38028311  0.45595570  1
  Bi  Bi117  1  0.33712999  0.89020913  0.05145988  1
  Bi  Bi118  1  0.11159406  0.15053653  0.78044608  1
  Bi  Bi119  1  0.62378706  0.14641211  0.17646251  1
  Bi  Bi120  1  0.65076761  0.91119175  0.93445491  1
  Bi  Bi121  1  0.23024903  0.57971174  0.08102778  1
  Bi  Bi122  1  0.61157039  0.09624796  0.57894648  1
  Bi  Bi123  1  0.66069715  0.64544633  0.96133017  1
  Bi  Bi124  1  0.94671251  0.41602087  0.20128992  1
  Bi  Bi125  1  0.44586252  0.44423590  0.69690773  1
  Bi  Bi126  1  0.57756284  0.85948281  0.39696231  1
  Bi  Bi127  1  0.37220135  0.12890239  0.70570038  1
