# generated using pymatgen
data_Ba51Fe51Bi26
_symmetry_space_group_name_H-M   'P 1'
_cell_length_a   16.18445378
_cell_length_b   16.42718607
_cell_length_c   16.67775824
_cell_angle_alpha   90.65703992
_cell_angle_beta   89.22569990
_cell_angle_gamma   88.68247162
_symmetry_Int_Tables_number   1
_chemical_formula_structural   Ba51Fe51Bi26
_chemical_formula_sum   'Ba51 Fe51 Bi26'
_cell_volume   4432.14804570
_cell_formula_units_Z   1
loop_
 _symmetry_equiv_pos_site_id
 _symmetry_equiv_pos_as_xyz
  1  'x, y, z'
loop_
 _atom_site_type_symbol
 _atom_site_label
 _atom_site_symmetry_multiplicity
 _atom_site_fract_x
 _atom_site_fract_y
 _atom_site_fract_z
 _atom_site_occupancy
  Ba  Ba0  1  0.29694801  -0.02916731  0.27842227  1
  Ba  Ba1  1  0.39255711  0.23882004  0.55021783  1
  Ba  Ba2  1  0.80652475  0.67873217  0.72521773  1
  Ba  Ba3  1  0.25488567  -0.06841394  0.69537760  1
  Ba  Ba4  1  0.04642955  0.63158997  0.04671224  1
  Ba  Ba5  1  0.71773901  0.18626551  0.18234053  1
  Ba  Ba6  1  0.29960831  0.24907331  0.02577317  1
  Ba  Ba7  1  0.51344384  0.51820775  0.82672038  1
  Ba  Ba8  1  0.26457727  0.05024948  0.50768160  1
  Ba  Ba9  1  0.70786707  0.17938146  0.77335220  1
  Ba  Ba10  1  0.72666454  0.49537710  0.48472300  1
  Ba  Ba11  1  0.45147759  0.76554168  0.01279635  1
  Ba  Ba12  1  0.49473988  0.76998708  0.26741075  1
  Ba  Ba13  1  0.56606815  0.55715500  0.07577668  1
  Ba  Ba14  1  -0.03838669  0.74213648  0.29304144  1
  Ba  Ba15  1  0.77410470  0.41252931  0.18209035  1
  Ba  Ba16  1  0.05824954  -0.01848818  0.22303174  1
  Ba  Ba17  1  0.46712493  0.40618769  0.21747830  1
  Ba  Ba18  1  0.25016905  0.56912713  0.80753003  1
  Ba  Ba19  1  0.18642226  0.50884734  0.23616213  1
  Ba  Ba20  1  0.51949399  0.02755866  0.73088553  1
  Ba  Ba21  1  0.76299932  0.66080322  0.20248499  1
  Ba  Ba22  1  0.76953610  0.42747560  0.75813512  1
  Ba  Ba23  1  0.56790142  0.01245329  0.27190009  1
  Ba  Ba24  1  0.02703990  0.28698388  0.20904020  1
  Ba  Ba25  1  -0.02885065  0.02118603  0.74834116  1
  Ba  Ba26  1  0.56172558  0.00339621  -0.00321082  1
  Ba  Ba27  1  0.07523375  0.15595359  -0.03451963  1
  Ba  Ba28  1  0.70888392  0.80293657  0.44249168  1
  Ba  Ba29  1  0.24256672  0.62363891  0.52034707  1
  Ba  Ba30  1  0.76684499  -0.05496444  0.63504064  1
  Ba  Ba31  1  0.22718813  0.74766757  0.32466041  1
  Ba  Ba32  1  0.20850515  0.37944572  0.67821577  1
  Ba  Ba33  1  0.01457873  0.87117172  0.02119393  1
  Ba  Ba34  1  0.33337745  0.22512917  0.29571095  1
  Ba  Ba35  1  0.54490835  0.76119174  0.74303504  1
  Ba  Ba36  1  0.03025835  0.75888931  0.55286604  1
  Ba  Ba37  1  0.03586154  0.18864596  0.51778075  1
  Ba  Ba38  1  0.47873897  0.67549225  0.49859233  1
  Ba  Ba39  1  0.30845368  0.54124621  0.03121631  1
  Ba  Ba40  1  0.00426485  0.49349490  0.84858842  1
  Ba  Ba41  1  0.78365512  0.21025197  0.42163961  1
  Ba  Ba42  1  0.76001551  0.74534068  -0.03443045  1
  Ba  Ba43  1  0.11551061  0.40311595  0.45966836  1
  Ba  Ba44  1  -0.01468888  0.26969414  0.75247806  1
  Ba  Ba45  1  0.41443277  0.28156212  0.79664324  1
  Ba  Ba46  1  0.61248165  0.29615898  0.56397106  1
  Ba  Ba47  1  0.07597556  0.75467193  0.80050750  1
  Ba  Ba48  1  0.27816832  -0.03604162  0.02493047  1
  Ba  Ba49  1  0.82982021  -0.03367923  0.26132441  1
  Ba  Ba50  1  0.80845854  -0.00362998  -0.01382340  1
  Fe  Fe51  1  0.29109166  0.80848431  0.54784656  1
  Fe  Fe52  1  0.88225315  0.54481749  0.05781762  1
  Fe  Fe53  1  0.21724630  0.25909631  0.83148785  1
  Fe  Fe54  1  -0.04148348  0.41939430  0.07406720  1
  Fe  Fe55  1  -0.01279222  0.33702793  0.96313194  1
  Fe  Fe56  1  0.83571598  0.56588284  0.91774610  1
  Fe  Fe57  1  0.46594984  0.05721964  0.54381557  1
  Fe  Fe58  1  0.46517217  0.37257019  0.41520857  1
  Fe  Fe59  1  0.70390223  0.56530116  0.89764604  1
  Fe  Fe60  1  0.24758336  0.38167884  0.88482966  1
  Fe  Fe61  1  0.97643390  0.04543512  0.39631696  1
  Fe  Fe62  1  0.25533296  0.83650837  0.85864105  1
  Fe  Fe63  1  -0.00294177  0.42545478  0.62726779  1
  Fe  Fe64  1  0.10587761  -0.01018466  0.40907111  1
  Fe  Fe65  1  0.61406729  0.09001253  0.56843747  1
  Fe  Fe66  1  0.30822293  0.79808002  0.14277543  1
  Fe  Fe67  1  0.89144573  0.39002726  0.56045550  1
  Fe  Fe68  1  0.59333607  0.39419852  0.39036309  1
  Fe  Fe69  1  0.34769777  0.74308177  0.84390559  1
  Fe  Fe70  1  0.56439166  0.50534843  0.64111041  1
  Fe  Fe71  1  0.55043607  0.16852146  0.89744965  1
  Fe  Fe72  1  0.19375616  0.87655827  0.47127591  1
  Fe  Fe73  1  0.52439035  0.22600672  0.15859484  1
  Fe  Fe74  1  0.90366899  0.52700453  0.63087919  1
  Fe  Fe75  1  0.91291585  0.54784459  0.37462587  1
  Fe  Fe76  1  0.59395902  0.31063942  0.06141995  1
  Fe  Fe77  1  0.12003381  0.33829442  0.88443206  1
  Fe  Fe78  1  0.50314447  0.21018383  0.02261930  1
  Fe  Fe79  1  0.07790047  0.86669498  0.38898191  1
  Fe  Fe80  1  0.43796119  0.09598039  0.41235057  1
  Fe  Fe81  1  0.52411110  0.50873704  0.37782397  1
  Fe  Fe82  1  0.41721489  0.54464252  0.63315381  1
  Fe  Fe83  1  0.85457519  0.42656804  -0.02323093  1
  Fe  Fe84  1  0.34709414  0.67171266  0.17048188  1
  Fe  Fe85  1  0.89038221  1.03153215  0.50020234  1
  Fe  Fe86  1  0.34651612  0.86050483  0.44154832  1
  Fe  Fe87  1  0.21420578  0.68358638  0.14022865  1
  Fe  Fe88  1  0.51131073  0.46797450  0.51514892  1
  Fe  Fe89  1  0.75251835  0.54548949  0.02651799  1
  Fe  Fe90  1  0.95568624  0.91703691  0.43063781  1
  Fe  Fe91  1  0.89121245  0.28327791  1.05458166  1
  Fe  Fe92  1  0.45464895  0.96053970  0.42691638  1
  Fe  Fe93  1  0.57657308  0.29447144  0.91564659  1
  Fe  Fe94  1  0.46145094  0.41992023  0.64802525  1
  Fe  Fe95  1  -0.04621265  0.51177771  0.50023979  1
  Fe  Fe96  1  0.57494634  0.96719050  0.51152628  1
  Fe  Fe97  1  0.84714260  0.28936098  0.92970988  1
  Fe  Fe98  1  0.17298276  0.81124992  0.13832923  1
  Fe  Fe99  1  0.56772549  0.10583225  0.44582315  1
  Fe  Fe100  1  0.84971319  0.82294027  0.12466933  1
  Fe  Fe101  1  0.85913618  0.85780390  0.82309070  1
  Bi  Bi102  1  0.22392295  0.73522645  -0.02010201  1
  Bi  Bi103  1  0.55224315  0.23391912  0.33978711  1
  Bi  Bi104  1  0.69829298  0.18794513  -0.02201053  1
  Bi  Bi105  1  -0.04392316  0.52865494  0.20914842  1
  Bi  Bi106  1  0.71877996  0.01376266  0.43879022  1
  Bi  Bi107  1  0.45471689  0.38822314  -0.01031419  1
  Bi  Bi108  1  0.34710939  0.70251831  0.68084953  1
  Bi  Bi109  1  -0.14652025  0.65619449  0.50621900  1
  Bi  Bi110  1  0.68819143  0.41035759  -0.04266990  1
  Bi  Bi111  1  0.34082040  0.43865728  0.51684640  1
  Bi  Bi112  1  0.13064506  0.41361955  0.03556362  1
  Bi  Bi113  1  0.44533572  -0.11539455  0.58248626  1
  Bi  Bi114  1  0.05552862  -0.02932411  0.56111425  1
  Bi  Bi115  1  0.38543753  0.58981173  0.31060337  1
  Bi  Bi116  1  0.07712004  0.57069582  0.66284240  1
  Bi  Bi117  1  0.41313267  0.90075964  0.85910093  1
  Bi  Bi118  1  0.18937178  0.13247866  0.16137630  1
  Bi  Bi119  1  0.84863004  0.15009002  0.61823742  1
  Bi  Bi120  1  0.42194632  0.09755575  0.13647034  1
  Bi  Bi121  1  0.90752632  0.37615463  0.38992357  1
  Bi  Bi122  1  0.18326064  0.16498679  0.69122084  1
  Bi  Bi123  1  0.07313915  0.59994132  0.39928502  1
  Bi  Bi124  1  0.68106770  0.85693278  0.13554497  1
  Bi  Bi125  1  0.69429521  0.90259724  0.82864053  1
  Bi  Bi126  1  0.92052494  0.11961089  0.11771930  1
  Bi  Bi127  1  0.12924673  0.95433164  0.87012388  1
