# generated using pymatgen
data_Ba51Fe51Bi26
_symmetry_space_group_name_H-M   'P 1'
_cell_length_a   16.38937056
_cell_length_b   16.22566135
_cell_length_c   16.60814742
_cell_angle_alpha   87.63317746
_cell_angle_beta   90.13839683
_cell_angle_gamma   89.57401566
_symmetry_Int_Tables_number   1
_chemical_formula_structural   Ba51Fe51Bi26
_chemical_formula_sum   'Ba51 Fe51 Bi26'
_cell_volume   4412.67159914
_cell_formula_units_Z   1
loop_
 _symmetry_equiv_pos_site_id
 _symmetry_equiv_pos_as_xyz
  1  'x, y, z'
loop_
 _atom_site_type_symbol
 _atom_site_label
 _atom_site_symmetry_multiplicity
 _atom_site_fract_x
 _atom_site_fract_y
 _atom_site_fract_z
 _atom_site_occupancy
  Ba  Ba0  1  0.41788528  0.71271189  -0.01903677  1
  Ba  Ba1  1  0.18382783  0.52805867  -0.03199185  1
  Ba  Ba2  1  0.76982979  0.74888734  0.71497520  1
  Ba  Ba3  1  0.46659481  0.24077952  -0.00458983  1
  Ba  Ba4  1  0.25585582  0.67617881  0.15754408  1
  Ba  Ba5  1  0.37617089  0.47092921  0.75175929  1
  Ba  Ba6  1  0.79473478  0.24561207  0.47559933  1
  Ba  Ba7  1  0.21547351  0.74630920  0.38654390  1
  Ba  Ba8  1  0.10039000  0.48057394  0.71829595  1
  Ba  Ba9  1  0.47118706  0.76632590  0.31438830  1
  Ba  Ba10  1  0.08015078  -0.03359412  0.46766594  1
  Ba  Ba11  1  -0.02770930  0.68895317  -0.11802777  1
  Ba  Ba12  1  0.50481130  0.80723441  0.54214864  1
  Ba  Ba13  1  0.82179592  -0.02322110  0.39874497  1
  Ba  Ba14  1  0.48617754  0.45945131  0.03577685  1
  Ba  Ba15  1  0.80776219  -0.01892333  0.80944832  1
  Ba  Ba16  1  0.53105546  -0.01563068  0.00713886  1
  Ba  Ba17  1  0.27018601  -0.03001104  0.76102696  1
  Ba  Ba18  1  0.28091549  0.12442062  0.48778968  1
  Ba  Ba19  1  0.24540751  -0.03986446  0.24190811  1
  Ba  Ba20  1  0.56810708  0.20835401  0.77092935  1
  Ba  Ba21  1  0.91914458  0.08744003  0.61590001  1
  Ba  Ba22  1  0.20632678  0.18962476  0.00855791  1
  Ba  Ba23  1  0.72324782  0.46645752  -0.00856471  1
  Ba  Ba24  1  -0.03877807  0.11943232  0.18642962  1
  Ba  Ba25  1  0.54703444  -0.03903566  0.74580260  1
  Ba  Ba26  1  0.74846627  -0.04869544  0.11098842  1
  Ba  Ba27  1  0.71459426  0.72845605  0.33731239  1
  Ba  Ba28  1  0.48094254  0.54695767  0.53171987  1
  Ba  Ba29  1  0.53775781  0.01298606  0.26007867  1
  Ba  Ba30  1  0.82826592  0.35696021  0.75499917  1
  Ba  Ba31  1  0.24985240  0.82470924  0.60174216  1
  Ba  Ba32  1  0.23515961  0.26051686  0.26364935  1
  Ba  Ba33  1  -0.10274006  0.75329699  0.16411450  1
  Ba  Ba34  1  0.26916387  -0.05485035  -0.00295020  1
  Ba  Ba35  1  -0.10015535  0.66602299  0.47587778  1
  Ba  Ba36  1  -0.09465852  0.29995057  -0.00005818  1
  Ba  Ba37  1  0.56613392  0.05069813  0.49068485  1
  Ba  Ba38  1  0.68846088  0.21642683  0.08398674  1
  Ba  Ba39  1  0.51061445  0.29437545  0.53617226  1
  Ba  Ba40  1  0.66500637  0.50944822  0.70805163  1
  Ba  Ba41  1  -0.04540290  0.51541763  0.08259981  1
  Ba  Ba42  1  -0.00145031  0.38336817  0.40765549  1
  Ba  Ba43  1  0.67819581  0.70307814  -0.03083077  1
  Ba  Ba44  1  0.07764481  0.57435040  0.28256648  1
  Ba  Ba45  1  0.43730278  0.71433304  0.74217793  1
  Ba  Ba46  1  0.05571332  0.71698103  0.64190498  1
  Ba  Ba47  1  0.01157853  0.17166170  0.81053348  1
  Ba  Ba48  1  0.01105458  -0.08674486  -0.02666314  1
  Ba  Ba49  1  0.45991024  0.38815754  0.26761021  1
  Ba  Ba50  1  0.26872759  0.23080844  0.76004560  1
  Fe  Fe51  1  0.25305354  0.63595714  0.69814035  1
  Fe  Fe52  1  0.77872608  0.54269959  0.55938781  1
  Fe  Fe53  1  0.60165786  0.64811776  0.16028180  1
  Fe  Fe54  1  0.14209087  0.25751018  0.61525692  1
  Fe  Fe55  1  0.25129814  0.76766978  0.79178950  1
  Fe  Fe56  1  0.85027568  0.53265991  0.85382102  1
  Fe  Fe57  1  0.50094562  0.20410996  0.20278716  1
  Fe  Fe58  1  0.07078204  0.91994333  0.66732383  1
  Fe  Fe59  1  0.68214618  0.53329463  0.45055172  1
  Fe  Fe60  1  0.68325193  0.35591254  0.23096790  1
  Fe  Fe61  1  1.07454316  0.20516609  0.51517466  1
  Fe  Fe62  1  0.11545224  0.83007824  0.79191131  1
  Fe  Fe63  1  0.68844975  0.13220728  0.91264289  1
  Fe  Fe64  1  0.15496957  0.43416219  0.15809378  1
  Fe  Fe65  1  0.11719882  0.35342746  0.06835823  1
  Fe  Fe66  1  0.15283926  0.67502246  0.80158585  1
  Fe  Fe67  1  0.59036823  0.38719327  0.87249765  1
  Fe  Fe68  1  0.71204434  0.50388384  0.30093835  1
  Fe  Fe69  1  0.86206985  0.43729969  0.56190746  1
  Fe  Fe70  1  0.13872274  0.39062613  0.55808920  1
  Fe  Fe71  1  0.76338487  0.81608504  0.52330119  1
  Fe  Fe72  1  0.66337124  0.87869224  0.46661532  1
  Fe  Fe73  1  0.79127773  0.19390051  0.86687587  1
  Fe  Fe74  1  0.73895852  0.60275742  0.16983162  1
  Fe  Fe75  1  0.28025094  0.57147239  0.43116901  1
  Fe  Fe76  1  0.08758395  0.76512115  0.21403743  1
  Fe  Fe77  1  0.71462026  0.92273527  0.58758077  1
  Fe  Fe78  1  0.28035655  0.63160476  0.83224184  1
  Fe  Fe79  1  0.68234817  0.28948441  0.89939849  1
  Fe  Fe80  1  0.28134468  0.63002068  0.56368186  1
  Fe  Fe81  1  0.88085963  0.25915921  0.29468880  1
  Fe  Fe82  1  0.07049716  0.70847289  0.08744806  1
  Fe  Fe83  1  0.82604490  0.31374554  0.18476666  1
  Fe  Fe84  1  0.57328081  0.79551639  0.13164753  1
  Fe  Fe85  1  0.34639998  0.44452619  0.43724809  1
  Fe  Fe86  1  0.77958325  0.45866589  0.17431978  1
  Fe  Fe87  1  0.62813230  0.50094400  0.18197591  1
  Fe  Fe88  1  0.20431654  0.43405179  0.43389527  1
  Fe  Fe89  1  0.96990120  0.86826286  0.76030830  1
  Fe  Fe90  1  0.81086599  0.38803306  0.30947824  1
  Fe  Fe91  1  0.17656326  0.29351197  0.46844185  1
  Fe  Fe92  1  0.71431408  0.41851257  0.54085308  1
  Fe  Fe93  1  0.25582597  0.49671789  0.56249775  1
  Fe  Fe94  1  0.12927636  0.82930717  0.10873955  1
  Fe  Fe95  1  0.60031213  0.23509886  0.28342982  1
  Fe  Fe96  1  0.05380790  -0.02937535  0.78632216  1
  Fe  Fe97  1  0.69521390  0.75140282  1.14895568  1
  Fe  Fe98  1  0.39065130  0.56423878  0.34595755  1
  Fe  Fe99  1  0.39589241  0.96028220  0.58920804  1
  Fe  Fe100  1  0.95987168  0.46765079  0.87434473  1
  Fe  Fe101  1  0.80662332  0.46999756  0.42734032  1
  Bi  Bi102  1  -0.10840938  0.56587114  0.68917332  1
  Bi  Bi103  1  0.67045610  0.67371873  0.54451346  1
  Bi  Bi104  1  0.56404293  0.57329144  0.33461102  1
  Bi  Bi105  1  0.13092750  0.08349750  0.64396715  1
  Bi  Bi106  1  0.86874897  0.56463790  0.28329987  1
  Bi  Bi107  1  0.01591261  0.33223809  0.20004758  1
  Bi  Bi108  1  0.64397268  0.37121736  0.39335958  1
  Bi  Bi109  1  0.26146507  0.47995088  0.28233784  1
  Bi  Bi110  1  0.17900993  0.75422857  -0.04877163  1
  Bi  Bi111  1  0.30830193  0.33827825  0.57633245  1
  Bi  Bi112  1  0.75058765  0.14888649  0.27301819  1
  Bi  Bi113  1  -0.02054873  0.31265300  0.61502340  1
  Bi  Bi114  1  0.11061346  0.56766988  0.49881490  1
  Bi  Bi115  1  0.90577719  0.87482741  0.59391793  1
  Bi  Bi116  1  0.41086727  0.85878506  0.13539609  1
  Bi  Bi117  1  0.39872833  0.08875552  0.87405069  1
  Bi  Bi118  1  0.86296260  0.08461127  0.98475783  1
  Bi  Bi119  1  0.37162437  0.10772946  0.13986571  1
  Bi  Bi120  1  0.29303933  0.36910111  0.07959191  1
  Bi  Bi121  1  0.44624678  0.59632324  0.17973007  1
  Bi  Bi122  1  0.44811162  0.18692516  0.36153545  1
  Bi  Bi123  1  0.97064353  0.14430245  0.39969383  1
  Bi  Bi124  1  0.08680725  0.35065765  0.89756937  1
  Bi  Bi125  1  0.42580229  0.11186452  0.64460606  1
  Bi  Bi126  1  0.35682060  0.92407575  0.42897571  1
  Bi  Bi127  1  0.54714699  0.56223874  0.86634191  1
