# generated using pymatgen
data_Ba51Fe51Bi26
_symmetry_space_group_name_H-M   'P 1'
_cell_length_a   16.76331927
_cell_length_b   16.51247985
_cell_length_c   15.85531387
_cell_angle_alpha   91.05098192
_cell_angle_beta   88.93493531
_cell_angle_gamma   90.07866436
_symmetry_Int_Tables_number   1
_chemical_formula_structural   Ba51Fe51Bi26
_chemical_formula_sum   'Ba51 Fe51 Bi26'
_cell_volume   4387.31506287
_cell_formula_units_Z   1
loop_
 _symmetry_equiv_pos_site_id
 _symmetry_equiv_pos_as_xyz
  1  'x, y, z'
loop_
 _atom_site_type_symbol
 _atom_site_label
 _atom_site_symmetry_multiplicity
 _atom_site_fract_x
 _atom_site_fract_y
 _atom_site_fract_z
 _atom_site_occupancy
  Ba  Ba0  1  0.22031110  -0.06294745  0.46212294  1
  Ba  Ba1  1  0.44911913  -0.00080693  0.45556470  1
  Ba  Ba2  1  0.56316620  0.77332884  0.43244103  1
  Ba  Ba3  1  -0.02443704  0.29396663  0.69016686  1
  Ba  Ba4  1  0.19546695  0.73675707  0.59213491  1
  Ba  Ba5  1  0.30455606  0.07102122  0.26409218  1
  Ba  Ba6  1  0.79698707  0.43897143  -0.03235403  1
  Ba  Ba7  1  0.23398209  0.19509829  -0.00524734  1
  Ba  Ba8  1  -0.02062053  0.11508053  -0.03597306  1
  Ba  Ba9  1  0.38647304  0.46564358  0.22599712  1
  Ba  Ba10  1  0.83274460  -0.07767594  0.28741991  1
  Ba  Ba11  1  0.18383410  0.43481579  0.83322550  1
  Ba  Ba12  1  0.51592683  0.67750950  0.20593260  1
  Ba  Ba13  1  0.69985843  0.01919581  0.52844495  1
  Ba  Ba14  1  0.47949915  0.53381416  0.49262822  1
  Ba  Ba15  1  0.79729149  0.73894225  0.75782090  1
  Ba  Ba16  1  -0.01326686  0.69496991  0.61457400  1
  Ba  Ba17  1  0.71726245  0.21029190  0.32759596  1
  Ba  Ba18  1  0.06478732  0.78831320  0.24088632  1
  Ba  Ba19  1  0.72546143  0.26715849  0.58620322  1
  Ba  Ba20  1  0.48231914  0.06058007  0.72895587  1
  Ba  Ba21  1  0.05964094  0.04551390  0.70951737  1
  Ba  Ba22  1  -0.04288734  0.51265873  0.76447294  1
  Ba  Ba23  1  0.84074739  0.69723482  -0.00165448  1
  Ba  Ba24  1  0.75618999  -0.05880990  0.03680040  1
  Ba  Ba25  1  0.56667981  0.78359028  0.73289994  1
  Ba  Ba26  1  0.28939494  0.31041829  0.61238253  1
  Ba  Ba27  1  0.71276622  0.47122993  0.46229123  1
  Ba  Ba28  1  0.56211690  0.80070885  0.00985045  1
  Ba  Ba29  1  0.27420056  -0.04677487  0.78740421  1
  Ba  Ba30  1  0.04130647  0.54398354  0.02662274  1
  Ba  Ba31  1  0.68867182  0.46441312  0.75198563  1
  Ba  Ba32  1  0.53592073  0.50541972  0.01068283  1
  Ba  Ba33  1  -0.05995718  0.20683504  0.40985661  1
  Ba  Ba34  1  0.13095759  0.76932130  -0.01435081  1
  Ba  Ba35  1  0.49187031  0.55709769  0.76810765  1
  Ba  Ba36  1  0.38044107  -0.02881511  0.03575878  1
  Ba  Ba37  1  -0.01207085  -0.02643638  0.46822886  1
  Ba  Ba38  1  -0.03365607  0.29780617  0.14441755  1
  Ba  Ba39  1  0.74930940  0.19388766  -0.00403567  1
  Ba  Ba40  1  0.30292640  0.79233414  0.25882447  1
  Ba  Ba41  1  0.23126886  0.59948022  0.36551176  1
  Ba  Ba42  1  0.45346219  0.30645666  0.81770552  1
  Ba  Ba43  1  0.31921371  0.72383045  0.81903728  1
  Ba  Ba44  1  0.00132301  0.52252653  0.31026426  1
  Ba  Ba45  1  0.65220447  0.41818001  0.20727510  1
  Ba  Ba46  1  0.60008425  0.04964086  0.20853539  1
  Ba  Ba47  1  0.80682009  0.70125789  0.45525267  1
  Ba  Ba48  1  0.76410592  -0.00062823  0.76720476  1
  Ba  Ba49  1  0.47439157  0.26264845  0.26809339  1
  Ba  Ba50  1  0.19163842  0.30747135  0.29061243  1
  Fe  Fe51  1  0.83288302  0.43425404  0.63193597  1
  Fe  Fe52  1  0.07450711  0.91308621  0.85843851  1
  Fe  Fe53  1  0.11667124  0.11302772  0.36508723  1
  Fe  Fe54  1  0.41340502  0.72829342  0.61669640  1
  Fe  Fe55  1  0.48510891  0.91809240  0.86527254  1
  Fe  Fe56  1  0.98429908  0.86826105  0.72699036  1
  Fe  Fe57  1  1.00434439  0.77356233  0.82204060  1
  Fe  Fe58  1  0.60772167  0.92698876  0.86001429  1
  Fe  Fe59  1  0.12913039  0.11157700  0.51587442  1
  Fe  Fe60  1  0.44681604  0.16875010  0.96721964  1
  Fe  Fe61  1  0.57210027  0.19471087  0.92069607  1
  Fe  Fe62  1  0.11715412  0.81818852  0.76035829  1
  Fe  Fe63  1  0.09951802  0.55704061  0.51684181  1
  Fe  Fe64  1  0.41484495  0.16182023  0.10018115  1
  Fe  Fe65  1  0.88207480  0.56854141  0.14636836  1
  Fe  Fe66  1  0.54304091  0.19470278  0.07812442  1
  Fe  Fe67  1  0.74505681  0.57658246  0.14422848  1
  Fe  Fe68  1  0.37082370  0.60020990  0.96962839  1
  Fe  Fe69  1  0.10399364  0.99790479  0.27718185  1
  Fe  Fe70  1  0.77485370  0.29676753  0.81001933  1
  Fe  Fe71  1  0.81157338  0.55859294  0.61870308  1
  Fe  Fe72  1  0.10128766  0.43216700  0.59904736  1
  Fe  Fe73  1  1.01282419  0.99776539  0.15335007  1
  Fe  Fe74  1  0.23367218  0.49734168  0.54478337  1
  Fe  Fe75  1  0.21719087  0.53043823  0.14881680  1
  Fe  Fe76  1  0.34973562  0.48685847  0.90998298  1
  Fe  Fe77  1  0.37544511  0.80875716  0.48434167  1
  Fe  Fe78  1  0.56433693  0.16243921  0.45143722  1
  Fe  Fe79  1  0.34317011  0.85233017  0.62265717  1
  Fe  Fe80  1  0.83504201  0.45231182  0.16512948  1
  Fe  Fe81  1  0.15420663  0.54776382  0.65251179  1
  Fe  Fe82  1  0.57467144  0.31013539  0.00291177  1
  Fe  Fe83  1  0.23258855  0.15546618  0.45193509  1
  Fe  Fe84  1  0.69875269  0.77268126  0.26530833  1
  Fe  Fe85  1  0.15977129  -0.01804675  0.95379379  1
  Fe  Fe86  1  0.51790534  0.20425830  0.57399560  1
  Fe  Fe87  1  0.69723207  0.63640669  0.28078224  1
  Fe  Fe88  1  0.34470049  0.60049999  0.10942113  1
  Fe  Fe89  1  0.15057800  0.43444401  0.45749973  1
  Fe  Fe90  1  0.80412810  0.54105867  0.27908473  1
  Fe  Fe91  1  0.64832748  0.31675868  0.88300228  1
  Fe  Fe92  1  0.22477710  0.65756994  0.11493661  1
  Fe  Fe93  1  0.31565688  0.46752158  0.04395902  1
  Fe  Fe94  1  0.82782124  0.18476610  0.77206054  1
  Fe  Fe95  1  0.46388664  0.86353905  0.59203404  1
  Fe  Fe96  1  0.23640811  0.56830809  0.99270884  1
  Fe  Fe97  1  0.70455185  0.71310971  0.14811395  1
  Fe  Fe98  1  0.05024650  -0.05237945  0.01497655  1
  Fe  Fe99  1  0.99356504  0.07363607  0.27381707  1
  Fe  Fe100  1  0.55126780  0.29412396  0.46141538  1
  Fe  Fe101  1  0.35593058  0.68176961  0.50387649  1
  Bi  Bi102  1  0.57371540  0.03985518  -0.01792056  1
  Bi  Bi103  1  -0.05495123  0.49668532  0.52714626  1
  Bi  Bi104  1  0.41231490  0.32438134  0.04934902  1
  Bi  Bi105  1  -0.08853082  -0.09276800  -0.11550098  1
  Bi  Bi106  1  0.32659829  0.58003208  0.64991581  1
  Bi  Bi107  1  0.65312484  0.18421439  0.76866747  1
  Bi  Bi108  1  0.10960537  0.27677588  0.50412615  1
  Bi  Bi109  1  0.39322066  0.19920829  0.45086738  1
  Bi  Bi110  1  0.85932703  0.70383179  0.24228541  1
  Bi  Bi111  1  0.16981127  0.38785956  0.07182663  1
  Bi  Bi112  1  0.11363080  0.14378190  0.17641710  1
  Bi  Bi113  1  0.35293701  0.75288334  0.04174970  1
  Bi  Bi114  1  0.11827709  0.64745580  0.79721967  1
  Bi  Bi115  1  0.93643530  0.85945982  0.09639312  1
  Bi  Bi116  1  0.65733539  0.63342944  0.60039664  1
  Bi  Bi117  1  0.86004401  0.87344950  0.60248399  1
  Bi  Bi118  1  0.66094688  0.63519656  0.89160405  1
  Bi  Bi119  1  0.31960397  0.41366600  0.42208132  1
  Bi  Bi120  1  0.18415773  0.93617353  0.12779673  1
  Bi  Bi121  1  0.85128280  0.10571734  0.17700383  1
  Bi  Bi122  1  0.26997818  0.08351135  0.61183685  1
  Bi  Bi123  1  -0.00142461  0.34499501  0.92003767  1
  Bi  Bi124  1  0.87770621  0.11657193  0.61409980  1
  Bi  Bi125  1  0.84268164  0.37571346  0.31776511  1
  Bi  Bi126  1  0.47690119  0.89348273  0.23987392  1
  Bi  Bi127  1  0.53586727  0.37317198  0.62069704  1
