# generated using pymatgen
data_Ba51Fe51Bi26
_symmetry_space_group_name_H-M   'P 1'
_cell_length_a   16.70882474
_cell_length_b   16.27504628
_cell_length_c   16.11726945
_cell_angle_alpha   90.58109371
_cell_angle_beta   89.92180413
_cell_angle_gamma   89.02555379
_symmetry_Int_Tables_number   1
_chemical_formula_structural   Ba51Fe51Bi26
_chemical_formula_sum   'Ba51 Fe51 Bi26'
_cell_volume   4382.01581337
_cell_formula_units_Z   1
loop_
 _symmetry_equiv_pos_site_id
 _symmetry_equiv_pos_as_xyz
  1  'x, y, z'
loop_
 _atom_site_type_symbol
 _atom_site_label
 _atom_site_symmetry_multiplicity
 _atom_site_fract_x
 _atom_site_fract_y
 _atom_site_fract_z
 _atom_site_occupancy
  Ba  Ba0  1  0.27778557  0.19274597  0.24705396  1
  Ba  Ba1  1  0.55024698  0.26236072  -0.06318097  1
  Ba  Ba2  1  0.49950752  0.47805843  0.48074207  1
  Ba  Ba3  1  0.72992348  0.49566306  -0.00562765  1
  Ba  Ba4  1  0.45524734  0.43279941  0.75302453  1
  Ba  Ba5  1  -0.06307595  0.08913600  0.81375825  1
  Ba  Ba6  1  0.01047943  0.70359491  0.43428389  1
  Ba  Ba7  1  0.48615870  0.70958714  0.42231891  1
  Ba  Ba8  1  0.17217952  0.02010759  0.51954841  1
  Ba  Ba9  1  0.19381205  0.25481882  0.48176761  1
  Ba  Ba10  1  0.47698603  0.69073825  0.71858377  1
  Ba  Ba11  1  0.17020958  -0.02217512  0.20083984  1
  Ba  Ba12  1  0.01798041  0.52373202  0.25276863  1
  Ba  Ba13  1  0.04304733  0.28801128  -0.02955067  1
  Ba  Ba14  1  0.28655097  0.75562064  0.52843468  1
  Ba  Ba15  1  0.21329338  0.77091993  0.02649739  1
  Ba  Ba16  1  0.46310613  0.23663642  0.45515089  1
  Ba  Ba17  1  0.79811405  0.44925674  0.23415769  1
  Ba  Ba18  1  0.31546836  0.56539326  -0.10074667  1
  Ba  Ba19  1  0.82357760  0.02040894  0.25754294  1
  Ba  Ba20  1  0.34185185  0.80319925  0.24233996  1
  Ba  Ba21  1  0.70397815  0.46755359  0.71462276  1
  Ba  Ba22  1  0.49830699  -0.00288216  0.33561393  1
  Ba  Ba23  1  0.70687815  -0.00459013  0.50866337  1
  Ba  Ba24  1  0.47920545  0.45534763  0.05803055  1
  Ba  Ba25  1  -0.02795115  0.30535288  0.71534186  1
  Ba  Ba26  1  0.58422416  0.58408437  0.22589788  1
  Ba  Ba27  1  0.21814726  0.83040650  0.75698221  1
  Ba  Ba28  1  0.72565772  0.20819133  0.72273786  1
  Ba  Ba29  1  0.51335312  0.20555963  0.17986902  1
  Ba  Ba30  1  0.75705315  0.22389847  0.18803976  1
  Ba  Ba31  1  -0.03088424  0.77554824  0.75473744  1
  Ba  Ba32  1  0.27599124  0.00636117  -0.06050011  1
  Ba  Ba33  1  0.45449135  0.17510506  0.72011668  1
  Ba  Ba34  1  0.12831150  0.54668570  0.04715900  1
  Ba  Ba35  1  0.22832271  0.26308454  0.75138959  1
  Ba  Ba36  1  0.80830183  0.19786241  -0.03312844  1
  Ba  Ba37  1  0.52549122  -0.05598778  0.00198842  1
  Ba  Ba38  1  -0.03823913  0.23156633  0.48368376  1
  Ba  Ba39  1  -0.03341047  -0.05103386  0.56312321  1
  Ba  Ba40  1  0.32943251  0.43042439  0.25548897  1
  Ba  Ba41  1  0.47331792  -0.06207958  0.74645015  1
  Ba  Ba42  1  0.67682718  0.82166871  0.28688010  1
  Ba  Ba43  1  0.78400675  0.62193845  0.47285457  1
  Ba  Ba44  1  0.74848669  0.32389010  0.47578245  1
  Ba  Ba45  1  -0.05717140  0.52498691  0.85823131  1
  Ba  Ba46  1  0.18034152  0.50616175  0.44616276  1
  Ba  Ba47  1  0.15812412  0.52800849  0.68702575  1
  Ba  Ba48  1  -0.06442201  0.81487327  0.13400906  1
  Ba  Ba49  1  0.74673597  0.75283806  0.00501714  1
  Ba  Ba50  1  0.76212112  -0.04397037  0.77394852  1
  Fe  Fe51  1  0.61801016  0.38288745  0.18379058  1
  Fe  Fe52  1  0.12699240  0.08790031  0.83155090  1
  Fe  Fe53  1  0.53647527  0.73106231  0.93475761  1
  Fe  Fe54  1  0.07934893  0.95909413  0.86063230  1
  Fe  Fe55  1  0.07720966  0.19144507  0.16047435  1
  Fe  Fe56  1  0.97486019  0.30112822  0.17325293  1
  Fe  Fe57  1  0.03280589  0.41497443  0.55971727  1
  Fe  Fe58  1  0.36942734  0.35921651  0.92749391  1
  Fe  Fe59  1  0.51728806  0.58058804  0.90666301  1
  Fe  Fe60  1  0.44362760  0.67030225  0.01550247  1
  Fe  Fe61  1  0.67466333  0.66047625  0.70879205  1
  Fe  Fe62  1  0.06717599  0.28761920  0.29361719  1
  Fe  Fe63  1  0.34789831  0.96445033  0.58987379  1
  Fe  Fe64  1  0.27540642  0.39801958  0.05076844  1
  Fe  Fe65  1  0.64465280  0.10921258  0.02886653  1
  Fe  Fe66  1  1.00135379  1.05547998  0.19284731  1
  Fe  Fe67  1  0.24682247  0.32630353  0.94142741  1
  Fe  Fe68  1  0.09656175  0.11099251  0.69829840  1
  Fe  Fe69  1  0.09765843  0.98014350  0.72566410  1
  Fe  Fe70  1  0.21656648  0.60403043  0.25052449  1
  Fe  Fe71  1  0.35247526  0.21944384  0.91762101  1
  Fe  Fe72  1  0.37551866  0.92613946  0.46438448  1
  Fe  Fe73  1  0.93302610  0.31937072  0.30397215  1
  Fe  Fe74  1  0.62887652  0.32944302  0.31505237  1
  Fe  Fe75  1  0.65850133  0.77761386  0.51208149  1
  Fe  Fe76  1  0.77176448  0.75192698  0.74324511  1
  Fe  Fe77  1  0.91281247  0.02955247  1.06665857  1
  Fe  Fe78  1  0.94175852  0.16051800  0.11130823  1
  Fe  Fe79  1  0.84162419  0.35390192  0.85383859  1
  Fe  Fe80  1  0.64187080  0.08128910  0.90115779  1
  Fe  Fe81  1  0.36497002  0.28823382  0.05611936  1
  Fe  Fe82  1  0.01316422  0.90003388  0.30030742  1
  Fe  Fe83  1  0.95304567  0.18228839  0.26611364  1
  Fe  Fe84  1  0.58568763  0.62773788  0.01394573  1
  Fe  Fe85  1  0.72053919  0.34719166  0.86677316  1
  Fe  Fe86  1  0.77192084  0.64477699  0.82309876  1
  Fe  Fe87  1  0.34062810  0.10933960  0.57417387  1
  Fe  Fe88  1  0.61476646  0.66952566  0.57370221  1
  Fe  Fe89  1  -0.01034933  0.53909304  0.57822924  1
  Fe  Fe90  1  0.86411016  0.11418848  0.61735374  1
  Fe  Fe91  1  0.52486466  0.40128198  0.27717253  1
  Fe  Fe92  1  0.38469646  0.15019948  0.03147527  1
  Fe  Fe93  1  0.45730905  0.03697530  0.53930265  1
  Fe  Fe94  1  0.34678008  0.56372430  0.59406659  1
  Fe  Fe95  1  0.65356621  0.79721759  0.65011895  1
  Fe  Fe96  1  0.63858153  0.63523778  0.86138799  1
  Fe  Fe97  1  0.89810563  0.44912028  0.60079634  1
  Fe  Fe98  1  0.20730322  0.68968110  0.35514912  1
  Fe  Fe99  1  0.08923044  0.15133559  0.29272414  1
  Fe  Fe100  1  0.32632400  0.62082541  0.32512312  1
  Fe  Fe101  1  0.34239604  0.06155725  0.44660336  1
  Bi  Bi102  1  0.76084229  -0.01052416  -0.00157013  1
  Bi  Bi103  1  0.26812888  0.04726342  0.72207300  1
  Bi  Bi104  1  0.11048589  0.73112913  0.21715743  1
  Bi  Bi105  1  0.33528685  0.60683438  0.13093523  1
  Bi  Bi106  1  0.22487072  0.19374666  0.03933604  1
  Bi  Bi107  1  -0.07783249  0.44689192  0.42762735  1
  Bi  Bi108  1  0.54576738  0.76366828  0.12024571  1
  Bi  Bi109  1  0.06137928  0.06717859  0.00841670  1
  Bi  Bi110  1  0.52378792  -0.12409546  0.54712134  1
  Bi  Bi111  1  0.63191160  0.80632713  0.82346729  1
  Bi  Bi112  1  0.80735846  0.81776528  0.59067987  1
  Bi  Bi113  1  0.00093318  0.04891036  0.37769886  1
  Bi  Bi114  1  0.14312575  0.36099053  0.16164321  1
  Bi  Bi115  1  0.81351108  0.65879288  0.23784988  1
  Bi  Bi116  1  0.57932974  0.32079740  0.61577721  1
  Bi  Bi117  1  0.85866762  0.60319325  0.67816254  1
  Bi  Bi118  1  0.37361679  1.01970617  0.14598822  1
  Bi  Bi119  1  0.87077984  0.85035191  0.37480169  1
  Bi  Bi120  1  0.93374527  0.90376277  0.93151211  1
  Bi  Bi121  1  0.64954762  0.16150502  0.36650758  1
  Bi  Bi122  1  0.12059438  0.66081062  0.85807426  1
  Bi  Bi123  1  0.90647482  0.58854169  0.07115767  1
  Bi  Bi124  1  0.63477599  1.02600608  0.17394294  1
  Bi  Bi125  1  0.38133387  0.79386574  0.89637503  1
  Bi  Bi126  1  0.31943212  0.39805419  0.58447391  1
  Bi  Bi127  1  0.15399168  0.85296699  0.38704604  1
