# generated using pymatgen
data_Ba51Fe51Bi26
_symmetry_space_group_name_H-M   'P 1'
_cell_length_a   16.51152615
_cell_length_b   16.51089864
_cell_length_c   16.00088714
_cell_angle_alpha   92.18279405
_cell_angle_beta   87.24105445
_cell_angle_gamma   90.92341152
_symmetry_Int_Tables_number   1
_chemical_formula_structural   Ba51Fe51Bi26
_chemical_formula_sum   'Ba51 Fe51 Bi26'
_cell_volume   4353.50044457
_cell_formula_units_Z   1
loop_
 _symmetry_equiv_pos_site_id
 _symmetry_equiv_pos_as_xyz
  1  'x, y, z'
loop_
 _atom_site_type_symbol
 _atom_site_label
 _atom_site_symmetry_multiplicity
 _atom_site_fract_x
 _atom_site_fract_y
 _atom_site_fract_z
 _atom_site_occupancy
  Ba  Ba0  1  0.52837939  0.91036362  0.73605885  1
  Ba  Ba1  1  0.22867300  0.72847638  0.40501449  1
  Ba  Ba2  1  0.45365325  0.62535667  0.40517708  1
  Ba  Ba3  1  0.36698417  0.08444283  0.19595589  1
  Ba  Ba4  1  -0.03597547  0.16415566  0.00733464  1
  Ba  Ba5  1  0.44790661  0.11386666  0.57903042  1
  Ba  Ba6  1  0.49995568  0.80584018  0.29830633  1
  Ba  Ba7  1  0.01496748  0.25416729  0.51961530  1
  Ba  Ba8  1  0.24087525  0.55920176  0.57955667  1
  Ba  Ba9  1  0.87413415  0.46680250  0.32427275  1
  Ba  Ba10  1  0.62017406  0.30430730  0.01795814  1
  Ba  Ba11  1  0.31036775  0.43241974  0.80283967  1
  Ba  Ba12  1  0.21141367  0.69441729  0.80962259  1
  Ba  Ba13  1  0.71609920  0.25414286  0.25867741  1
  Ba  Ba14  1  0.48426291  0.51236614  0.59906521  1
  Ba  Ba15  1  -0.06378730  -0.02204380  0.77599026  1
  Ba  Ba16  1  0.69211351  0.68416589  0.45412098  1
  Ba  Ba17  1  -0.08698856  0.73760943  0.39719611  1
  Ba  Ba18  1  0.70526968  0.01136126  0.29759086  1
  Ba  Ba19  1  -0.04907556  0.20662459  0.26891635  1
  Ba  Ba20  1  0.49423456  0.11960464  -0.07252594  1
  Ba  Ba21  1  0.72977343  0.80143374  0.76488548  1
  Ba  Ba22  1  -0.08059011  0.01592194  0.50306630  1
  Ba  Ba23  1  0.30004174  0.39328066  0.41150043  1
  Ba  Ba24  1  0.28828226  0.78257995  0.03279400  1
  Ba  Ba25  1  0.69172608  0.03888460  0.59157860  1
  Ba  Ba26  1  0.74991230  0.20115682  0.78808885  1
  Ba  Ba27  1  0.05279720  0.45130508  0.11379193  1
  Ba  Ba28  1  0.11495539  -0.05634482  -0.05155665  1
  Ba  Ba29  1  0.00063234  0.52394213  0.53217249  1
  Ba  Ba30  1  -0.03629839  0.29399377  0.77968624  1
  Ba  Ba31  1  0.20726888  0.24803001  0.24930131  1
  Ba  Ba32  1  0.36939234  0.78228271  0.62740529  1
  Ba  Ba33  1  0.71312111  -0.01389188  -0.04342622  1
  Ba  Ba34  1  0.66891807  0.39542333  0.47959191  1
  Ba  Ba35  1  0.00103495  0.70376848  -0.00881272  1
  Ba  Ba36  1  -0.02114972  -0.03437199  0.22412851  1
  Ba  Ba37  1  0.25577198  0.01485805  0.73468579  1
  Ba  Ba38  1  0.78375681  0.52514745  0.07578927  1
  Ba  Ba39  1  0.24758138  0.20801393  -0.03588301  1
  Ba  Ba40  1  0.20598631  0.24921182  0.66982508  1
  Ba  Ba41  1  0.55317820  0.54042029  0.00477431  1
  Ba  Ba42  1  0.10929321  0.77306724  0.21460253  1
  Ba  Ba43  1  0.27344206  -0.02346852  0.43886546  1
  Ba  Ba44  1  -0.06280184  0.53149158  0.79403103  1
  Ba  Ba45  1  0.49008238  -0.08353874  0.10004497  1
  Ba  Ba46  1  0.50673159  0.43443352  0.24617259  1
  Ba  Ba47  1  0.04535293  0.79344131  0.63348518  1
  Ba  Ba48  1  0.76635115  0.78549482  0.10601614  1
  Ba  Ba49  1  0.30204558  0.48755997  0.08492650  1
  Ba  Ba50  1  0.70981774  0.55115185  0.72900811  1
  Fe  Fe51  1  0.64010583  0.70439375  0.94235113  1
  Fe  Fe52  1  0.51688150  0.92079700  0.52605329  1
  Fe  Fe53  1  0.88672058  0.82054020  0.88891660  1
  Fe  Fe54  1  0.61878521  0.89354000  0.43512572  1
  Fe  Fe55  1  0.90006339  0.37431614  0.96345043  1
  Fe  Fe56  1  0.17341931  0.54532043  0.37613759  1
  Fe  Fe57  1  0.62085997  0.35507435  0.80532905  1
  Fe  Fe58  1  0.67630076  0.33148017  0.67162853  1
  Fe  Fe59  1  0.49423822  0.32062612  0.83679527  1
  Fe  Fe60  1  0.80517919  0.16907656  0.44298310  1
  Fe  Fe61  1  0.75086749  0.23969408  0.56679317  1
  Fe  Fe62  1  0.83447846  0.29341290  0.45284184  1
  Fe  Fe63  1  0.53269033  0.79046929  0.50815836  1
  Fe  Fe64  1  0.19247760  0.47253191  0.25742244  1
  Fe  Fe65  1  0.53084988  0.27613804  0.35572888  1
  Fe  Fe66  1  0.47647993  0.73662769  0.96772405  1
  Fe  Fe67  1  0.41407722  0.26112315  0.27575896  1
  Fe  Fe68  1  0.41827495  0.59837469  0.20973187  1
  Fe  Fe69  1  0.12225974  0.53031527  0.73408833  1
  Fe  Fe70  1  0.30588703  0.56244006  0.29831969  1
  Fe  Fe71  1  0.91702850  0.73853697  0.78896995  1
  Fe  Fe72  1  0.14091703  0.09926290  0.54041950  1
  Fe  Fe73  1  0.11910782  0.40969815  0.78249236  1
  Fe  Fe74  1  0.77095162  0.17364548  0.06739315  1
  Fe  Fe75  1  0.80961120  0.06475764  0.11916676  1
  Fe  Fe76  1  0.33716296  0.87434335  0.84038040  1
  Fe  Fe77  1  0.54654936  0.68970171  0.83457135  1
  Fe  Fe78  1  0.41378646  0.75959828  0.83427536  1
  Fe  Fe79  1  0.44117125  0.63317564  0.76277307  1
  Fe  Fe80  1  0.81436554  0.27590182  0.97024842  1
  Fe  Fe81  1  0.64836389  0.84721768  0.56879128  1
  Fe  Fe82  1  0.09989208  0.97686323  0.57160506  1
  Fe  Fe83  1  1.07439043  0.57010845  0.29207255  1
  Fe  Fe84  1  0.11190778  0.41971288  0.64813929  1
  Fe  Fe85  1  0.20467969  0.60716518  0.22621767  1
  Fe  Fe86  1  0.17864089  0.99758094  0.24902818  1
  Fe  Fe87  1  0.06662658  0.08413785  0.65690886  1
  Fe  Fe88  1  0.42035110  0.18442081  0.38867124  1
  Fe  Fe89  1  0.52637854  0.23640741  0.19851133  1
  Fe  Fe90  1  0.79430656  0.83897027  0.57034473  1
  Fe  Fe91  1  0.57757201  0.74257405  0.06526828  1
  Fe  Fe92  1  0.57776894  0.82223650  -0.07382482  1
  Fe  Fe93  1  0.52252348  0.33925709  0.68400256  1
  Fe  Fe94  1  0.32524954  0.69177008  0.21647205  1
  Fe  Fe95  1  0.75130930  0.88154198  0.45826908  1
  Fe  Fe96  1  0.44799136  0.69258463  0.11492047  1
  Fe  Fe97  1  0.60215213  0.23762111  0.60274220  1
  Fe  Fe98  1  0.56465936  0.22275612  0.74691432  1
  Fe  Fe99  1  0.44501649  -0.12060287  0.91447056  1
  Fe  Fe100  1  0.21699009  -0.04308493  0.12558891  1
  Fe  Fe101  1  0.53454079  0.14584751  0.29707480  1
  Bi  Bi102  1  0.38352868  0.21127090  0.77554556  1
  Bi  Bi103  1  0.80562847  0.66956273  -0.08557091  1
  Bi  Bi104  1  0.09126196  0.09121154  0.37448611  1
  Bi  Bi105  1  0.59425431  0.63653347  0.20355154  1
  Bi  Bi106  1  0.51721798  0.48380625  0.80223535  1
  Bi  Bi107  1  0.76406453  0.40602457  0.87848293  1
  Bi  Bi108  1  0.37133128  0.61418473  -0.07830652  1
  Bi  Bi109  1  0.07053773  0.39629626  0.35165372  1
  Bi  Bi110  1  0.61454843  0.10474398  0.12353638  1
  Bi  Bi111  1  0.32424519  -0.00575121  -0.03055805  1
  Bi  Bi112  1  0.46754524  0.31472678  0.51750984  1
  Bi  Bi113  1  0.49098592  0.00570198  0.37801476  1
  Bi  Bi114  1  0.63612024  0.17345628  0.44367153  1
  Bi  Bi115  1  0.09261199  0.12591275  0.82564421  1
  Bi  Bi116  1  0.12406506  0.09544544  0.11969364  1
  Bi  Bi117  1  0.86506242  0.33679643  0.12802823  1
  Bi  Bi118  1  0.86128216  0.68764464  0.61910530  1
  Bi  Bi119  1  0.56849615  0.70545228  0.64954963  1
  Bi  Bi120  1  0.12385799  0.52679472  0.91581787  1
  Bi  Bi121  1  0.40120780  0.28744491  0.10154964  1
  Bi  Bi122  1  0.07142306  0.87373637  0.42782662  1
  Bi  Bi123  1  0.30233747  0.86824137  0.23885200  1
  Bi  Bi124  1  0.84359033  0.38002184  0.61611419  1
  Bi  Bi125  1  0.90554103  0.94028952  0.01638915  1
  Bi  Bi126  1  0.94304749  0.62805532  0.19733020  1
  Bi  Bi127  1  0.26330291  0.19006840  0.46131608  1
