# generated using pymatgen
data_Ba51Fe51Bi26
_symmetry_space_group_name_H-M   'P 1'
_cell_length_a   16.51605201
_cell_length_b   16.33224009
_cell_length_c   16.67436887
_cell_angle_alpha   90.55266105
_cell_angle_beta   89.39378453
_cell_angle_gamma   89.78027010
_symmetry_Int_Tables_number   1
_chemical_formula_structural   Ba51Fe51Bi26
_chemical_formula_sum   'Ba51 Fe51 Bi26'
_cell_volume   4497.31722830
_cell_formula_units_Z   1
loop_
 _symmetry_equiv_pos_site_id
 _symmetry_equiv_pos_as_xyz
  1  'x, y, z'
loop_
 _atom_site_type_symbol
 _atom_site_label
 _atom_site_symmetry_multiplicity
 _atom_site_fract_x
 _atom_site_fract_y
 _atom_site_fract_z
 _atom_site_occupancy
  Ba  Ba0  1  0.02334010  -0.00533862  0.48657278  1
  Ba  Ba1  1  0.24116965  0.75249091  0.58743375  1
  Ba  Ba2  1  0.51016768  0.35874793  0.67645625  1
  Ba  Ba3  1  0.25342464  0.75435851  0.32473994  1
  Ba  Ba4  1  0.47371732  0.49663742  0.47103833  1
  Ba  Ba5  1  0.54715131  -0.03875019  0.73269321  1
  Ba  Ba6  1  0.75331480  0.24795035  -0.03719630  1
  Ba  Ba7  1  0.51798960  -0.01743600  0.02917201  1
  Ba  Ba8  1  0.20311362  0.52913917  -0.02720178  1
  Ba  Ba9  1  0.76674168  0.24945769  0.43303613  1
  Ba  Ba10  1  0.66838806  0.22274714  0.21133440  1
  Ba  Ba11  1  0.06710175  -0.04477709  0.74690813  1
  Ba  Ba12  1  0.49032028  -0.05073218  0.29234254  1
  Ba  Ba13  1  0.56169003  -0.03800796  0.51075177  1
  Ba  Ba14  1  0.41122888  0.18301455  0.20651628  1
  Ba  Ba15  1  0.77255429  0.81284403  0.21461465  1
  Ba  Ba16  1  0.00717051  0.24800526  0.79341641  1
  Ba  Ba17  1  0.73942581  0.21910316  0.70224206  1
  Ba  Ba18  1  -0.00222249  0.76004499  0.42157708  1
  Ba  Ba19  1  0.79333204  -0.05991584  0.77023836  1
  Ba  Ba20  1  0.21149241  0.35653605  0.48118682  1
  Ba  Ba21  1  0.05454286  0.50760015  0.21694730  1
  Ba  Ba22  1  0.26895265  0.24653273  0.71023458  1
  Ba  Ba23  1  0.27995609  0.03628882  0.03932531  1
  Ba  Ba24  1  -0.07597970  0.23562870  0.20456984  1
  Ba  Ba25  1  0.01805228  0.52054898  0.80136382  1
  Ba  Ba26  1  0.52286172  0.71598590  0.60136296  1
  Ba  Ba27  1  0.34498699  0.04120484  0.81164581  1
  Ba  Ba28  1  0.68339959  0.52293418  0.75467655  1
  Ba  Ba29  1  0.21975716  0.27937759  0.02102423  1
  Ba  Ba30  1  0.52867407  0.78649096  0.88953148  1
  Ba  Ba31  1  0.03288652  0.53452316  0.49708944  1
  Ba  Ba32  1  0.72931544  0.65511437  0.40764180  1
  Ba  Ba33  1  0.19543636  0.76657754  0.06027994  1
  Ba  Ba34  1  -0.04038974  0.74327349  0.04273462  1
  Ba  Ba35  1  0.41373003  0.52166321  0.81861897  1
  Ba  Ba36  1  -0.03871604  0.00515258  0.25920282  1
  Ba  Ba37  1  0.49345196  0.21834262  -0.05315284  1
  Ba  Ba38  1  -0.02117544  0.12824598  -0.00333474  1
  Ba  Ba39  1  0.28637369  0.05805354  0.45612766  1
  Ba  Ba40  1  0.77186356  0.48142896  -0.03178493  1
  Ba  Ba41  1  0.16856361  0.27592066  0.26815588  1
  Ba  Ba42  1  0.55066857  0.59548618  0.03401657  1
  Ba  Ba43  1  -0.09514084  0.72539261  0.73193935  1
  Ba  Ba44  1  0.81469400  0.44053098  0.30017538  1
  Ba  Ba45  1  0.49758934  0.43190379  0.20465505  1
  Ba  Ba46  1  -0.05019370  0.28871014  0.56725565  1
  Ba  Ba47  1  0.48997691  0.69859150  0.27769769  1
  Ba  Ba48  1  0.27628583  0.81221325  0.81975796  1
  Ba  Ba49  1  0.77753746  0.03568093  0.54473021  1
  Ba  Ba50  1  0.51469776  0.22073738  0.47761956  1
  Fe  Fe51  1  0.77858662  0.06214323  0.32237057  1
  Fe  Fe52  1  0.69283315  0.81361972  0.98433395  1
  Fe  Fe53  1  0.92350965  0.33855808  0.99708864  1
  Fe  Fe54  1  0.33633821  0.43503190  0.60776607  1
  Fe  Fe55  1  0.34914064  0.57986274  0.21983153  1
  Fe  Fe56  1  0.66250536  0.44267880  0.43476976  1
  Fe  Fe57  1  0.69122617  0.96850798  0.35843041  1
  Fe  Fe58  1  0.33639265  0.48666696  0.32062076  1
  Fe  Fe59  1  0.64661032  0.09279241  0.36872929  1
  Fe  Fe60  1  0.20632776  0.52255457  0.61422364  1
  Fe  Fe61  1  0.14927223  0.93818881  0.32895833  1
  Fe  Fe62  1  0.73062909  0.65729041  0.60502282  1
  Fe  Fe63  1  0.67787603  0.08901260  0.04155482  1
  Fe  Fe64  1  0.40853420  0.06728563  0.62005241  1
  Fe  Fe65  1  0.22272239  0.55017585  0.30645255  1
  Fe  Fe66  1  0.33897838  0.56547750  0.63536647  1
  Fe  Fe67  1  0.27622729  -0.00717201  0.27596446  1
  Fe  Fe68  1  0.15406117  0.96943699  0.91120528  1
  Fe  Fe69  1  0.23705400  0.10319870  0.21135521  1
  Fe  Fe70  1  0.03048927  0.35453834  0.08978788  1
  Fe  Fe71  1  0.56540181  0.18682571  0.77050777  1
  Fe  Fe72  1  0.54880496  0.12914056  0.63976272  1
  Fe  Fe73  1  0.79051591  0.08202798  0.10964475  1
  Fe  Fe74  1  0.44775543  0.17073413  0.70669787  1
  Fe  Fe75  1  0.78656491  0.02943951  0.96695358  1
  Fe  Fe76  1  0.78205212  0.44448938  0.49390551  1
  Fe  Fe77  1  0.04641223  0.37178129  0.96257145  1
  Fe  Fe78  1  0.22865781  0.60289595  0.18219090  1
  Fe  Fe79  1  0.61831568  0.31729529  0.83110103  1
  Fe  Fe80  1  0.73457287  0.79710350  0.59009643  1
  Fe  Fe81  1  0.43206867  0.77373623  0.07709581  1
  Fe  Fe82  1  0.37271484  0.92570108  0.60908390  1
  Fe  Fe83  1  0.84675894  0.55370780  0.13950047  1
  Fe  Fe84  1  0.36741256  0.84769896  0.99762451  1
  Fe  Fe85  1  0.89499010  0.41577899  0.10832051  1
  Fe  Fe86  1  0.25970029  0.45237810  0.71695319  1
  Fe  Fe87  1  0.79778967  0.75449232  0.89331245  1
  Fe  Fe88  1  0.17174584  0.95536976  0.19383161  1
  Fe  Fe89  1  0.56820448  0.40567508  -0.08844158  1
  Fe  Fe90  1  0.95818889  0.10189841  0.64947860  1
  Fe  Fe91  1  0.85597433  0.83586398  0.56029554  1
  Fe  Fe92  1  0.84852280  0.70094536  0.55102060  1
  Fe  Fe93  1  0.64731512  0.37142455  0.54153562  1
  Fe  Fe94  1  0.80844429  0.88055093  0.95234215  1
  Fe  Fe95  1  0.14557150  0.07086177  0.30561037  1
  Fe  Fe96  1  0.71512481  0.94193989  0.05686471  1
  Fe  Fe97  1  0.67721965  0.52207189  0.55983294  1
  Fe  Fe98  1  0.69228280  0.68157199  0.89975381  1
  Fe  Fe99  1  0.27301902  1.00263981  0.63962163  1
  Fe  Fe100  1  0.11513725  0.08668743  0.16490074  1
  Fe  Fe101  1  0.75424018  0.39763200  0.61223235  1
  Bi  Bi102  1  0.85634543  0.53793579  0.61981175  1
  Bi  Bi103  1  0.07155840  0.82031190  0.23495301  1
  Bi  Bi104  1  0.65430344  0.08200925  -0.12770937  1
  Bi  Bi105  1  0.08230294  -0.04816800  0.05578358  1
  Bi  Bi106  1  0.66469602  0.01665787  0.20068777  1
  Bi  Bi107  1  0.34131706  -0.12209099  0.16746048  1
  Bi  Bi108  1  0.68445255  0.74945948  0.74565252  1
  Bi  Bi109  1  0.26593158  0.43668351  0.16630193  1
  Bi  Bi110  1  0.26917448  0.57143090  0.46766260  1
  Bi  Bi111  1  -0.01753298  0.52296534  0.01455531  1
  Bi  Bi112  1  0.76361336  0.67501461  0.04411350  1
  Bi  Bi113  1  0.21772882  0.61393020  0.75690486  1
  Bi  Bi114  1  0.58622424  0.80706274  0.11640175  1
  Bi  Bi115  1  0.68041513  0.56996840  0.20189020  1
  Bi  Bi116  1  0.39926042  0.83542871  0.46277188  1
  Bi  Bi117  1  0.16181965  0.13092398  0.87422030  1
  Bi  Bi118  1  -0.00199988  0.35505954  0.37527068  1
  Bi  Bi119  1  0.88328768  0.94696268  0.07877840  1
  Bi  Bi120  1  0.10869028  0.39060681  0.66303426  1
  Bi  Bi121  1  0.12107056  0.12165200  0.61941772  1
  Bi  Bi122  1  0.83568939  0.89652266  0.40291139  1
  Bi  Bi123  1  0.08238400  0.72953344  0.86043562  1
  Bi  Bi124  1  0.38103156  0.32702565  0.35583783  1
  Bi  Bi125  1  0.42166390  0.40963426  0.00055693  1
  Bi  Bi126  1  0.36365709  0.67662815  0.96294080  1
  Bi  Bi127  1  0.89884955  0.64038734  0.27328676  1
