# generated using pymatgen
data_Ba51Fe51Bi26
_symmetry_space_group_name_H-M   'P 1'
_cell_length_a   16.07948212
_cell_length_b   16.28770252
_cell_length_c   16.67970638
_cell_angle_alpha   89.53821533
_cell_angle_beta   90.96072998
_cell_angle_gamma   89.73628967
_symmetry_Int_Tables_number   1
_chemical_formula_structural   Ba51Fe51Bi26
_chemical_formula_sum   'Ba51 Fe51 Bi26'
_cell_volume   4367.57376955
_cell_formula_units_Z   1
loop_
 _symmetry_equiv_pos_site_id
 _symmetry_equiv_pos_as_xyz
  1  'x, y, z'
loop_
 _atom_site_type_symbol
 _atom_site_label
 _atom_site_symmetry_multiplicity
 _atom_site_fract_x
 _atom_site_fract_y
 _atom_site_fract_z
 _atom_site_occupancy
  Ba  Ba0  1  0.07096106  0.71102076  0.53321577  1
  Ba  Ba1  1  0.52002592  0.04110140  0.51978752  1
  Ba  Ba2  1  0.61281988  0.54807588  0.27317346  1
  Ba  Ba3  1  0.03126815  0.68773778  0.80990055  1
  Ba  Ba4  1  0.75740163  0.47791091  0.08614445  1
  Ba  Ba5  1  0.02704361  -0.05587970  0.21532404  1
  Ba  Ba6  1  0.00022621  0.48514709  0.65183099  1
  Ba  Ba7  1  0.17591772  0.09840334  0.39717080  1
  Ba  Ba8  1  0.60360166  0.62033761  -0.03497103  1
  Ba  Ba9  1  -0.07486688  0.10412315  0.69332792  1
  Ba  Ba10  1  0.70833485  -0.07654023  0.40618022  1
  Ba  Ba11  1  0.50377708  0.08869878  0.15290832  1
  Ba  Ba12  1  0.46004105  0.85300181  0.08229068  1
  Ba  Ba13  1  0.05096665  0.17869032  -0.07144418  1
  Ba  Ba14  1  0.27517114  -0.04084055  0.20686268  1
  Ba  Ba15  1  0.50650431  0.25814739  0.74177536  1
  Ba  Ba16  1  0.83038531  0.50482818  0.84643292  1
  Ba  Ba17  1  0.42229808  0.65435234  0.62122395  1
  Ba  Ba18  1  0.05904193  0.43471703  0.01882892  1
  Ba  Ba19  1  0.02664087  0.23342362  0.21068888  1
  Ba  Ba20  1  0.32489481  0.41144840  0.49753370  1
  Ba  Ba21  1  0.58937068  0.34719212  0.41288017  1
  Ba  Ba22  1  0.69285606  -0.07295744  -0.06187019  1
  Ba  Ba23  1  0.43491529  0.28974854  -0.04783538  1
  Ba  Ba24  1  -0.10256068  0.77918927  0.32391759  1
  Ba  Ba25  1  -0.01324821  -0.02711984  0.49558468  1
  Ba  Ba26  1  0.29012763  0.19845500  0.59164980  1
  Ba  Ba27  1  0.39839423  0.04298159  -0.06535697  1
  Ba  Ba28  1  -0.07198267  0.66485236  0.09423737  1
  Ba  Ba29  1  0.18434982  0.72773981  0.28737679  1
  Ba  Ba30  1  0.30459564  0.49776263  -0.01026968  1
  Ba  Ba31  1  0.76681676  0.82434811  0.72312959  1
  Ba  Ba32  1  0.37995869  0.00620451  0.70730866  1
  Ba  Ba33  1  0.05069082  0.50079917  0.27920354  1
  Ba  Ba34  1  0.76846366  0.25319978  0.81309542  1
  Ba  Ba35  1  0.17667633  0.71567666  0.04799754  1
  Ba  Ba36  1  0.51908468  0.82288143  0.80474740  1
  Ba  Ba37  1  0.73070653  0.01841860  0.15499871  1
  Ba  Ba38  1  0.16058114  -0.01344133  -0.15712058  1
  Ba  Ba39  1  0.39761842  0.22824778  0.32474420  1
  Ba  Ba40  1  0.87509602  0.39641884  0.41896981  1
  Ba  Ba41  1  0.25776909  0.22480399  0.11886861  1
  Ba  Ba42  1  -0.04399816  -0.09967502  -0.02541972  1
  Ba  Ba43  1  0.78525259  0.23666713  0.22460887  1
  Ba  Ba44  1  0.23316225  0.39729864  0.77285576  1
  Ba  Ba45  1  0.39758008  0.63917376  0.20790579  1
  Ba  Ba46  1  0.70845924  0.65004856  0.49569904  1
  Ba  Ba47  1  0.77139969  0.17257401  0.48757526  1
  Ba  Ba48  1  0.67190483  0.46203037  0.65177133  1
  Ba  Ba49  1  0.47744422  0.78013333  0.38599801  1
  Ba  Ba50  1  0.22755022  0.81858981  0.68377420  1
  Fe  Fe51  1  0.12476047  0.22173805  0.71657627  1
  Fe  Fe52  1  0.24671955  0.63968427  0.84882140  1
  Fe  Fe53  1  0.33791731  0.58651869  0.39934564  1
  Fe  Fe54  1  0.61879408  0.36982163  0.17801905  1
  Fe  Fe55  1  0.40781848  0.47664687  0.32867154  1
  Fe  Fe56  1  0.60006732  0.72833035  0.17638468  1
  Fe  Fe57  1  0.20486257  0.40763239  0.17811843  1
  Fe  Fe58  1  0.34028184  0.85274134  0.87156573  1
  Fe  Fe59  1  0.57174015  0.25544977  0.23025772  1
  Fe  Fe60  1  0.23012039  0.78002252  0.88085429  1
  Fe  Fe61  1  0.65800515  0.82944966  0.10729042  1
  Fe  Fe62  1  0.74394608  0.69721640  0.17358337  1
  Fe  Fe63  1  0.59289930  0.36306544  1.04470157  1
  Fe  Fe64  1  0.62847043  0.23649312  0.09967841  1
  Fe  Fe65  1  0.12342188  0.28722356  0.47068619  1
  Fe  Fe66  1  0.34767394  0.55860699  0.78323487  1
  Fe  Fe67  1  0.59138955  0.85075430  0.23866851  1
  Fe  Fe68  1  0.34784384  0.71710868  0.80325490  1
  Fe  Fe69  1  0.23453201  0.53222549  0.16653886  1
  Fe  Fe70  1  1.00676503  0.28220555  0.68093901  1
  Fe  Fe71  1  0.48948075  0.38927368  0.24839987  1
  Fe  Fe72  1  0.23966433  0.58814859  0.52021465  1
  Fe  Fe73  1  0.76353189  0.17712316  0.02106179  1
  Fe  Fe74  1  0.19803983  0.57158266  0.39830505  1
  Fe  Fe75  1  0.26783601  0.88500075  -0.01550876  1
  Fe  Fe76  1  0.31283372  0.92055700  0.40804391  1
  Fe  Fe77  1  0.57048734  1.06599967  0.80869550  1
  Fe  Fe78  1  0.14767066  0.91922356  0.05320463  1
  Fe  Fe79  1  0.17912078  0.89461821  0.38976312  1
  Fe  Fe80  1  0.49634094  0.50926762  0.74884282  1
  Fe  Fe81  1  0.13596430  0.32589582  0.60589692  1
  Fe  Fe82  1  0.73081019  0.83319037  0.22786512  1
  Fe  Fe83  1  0.59575368  0.98455940  0.70873506  1
  Fe  Fe84  1  0.20230634  0.90663890  0.51674976  1
  Fe  Fe85  1  0.44596903  0.46707867  0.85692731  1
  Fe  Fe86  1  0.70268834  0.29675377  0.99141165  1
  Fe  Fe87  1  0.30030741  0.00719220  0.52242706  1
  Fe  Fe88  1  0.81220600  0.82600862  0.11667500  1
  Fe  Fe89  1  0.63926225  0.11582703  0.68548315  1
  Fe  Fe90  1  1.00061141  0.30606444  0.54550153  1
  Fe  Fe91  1  0.22211560  0.02632788  0.02785836  1
  Fe  Fe92  1  0.35152137  0.42004228  0.19430824  1
  Fe  Fe93  1  0.74003141  0.74104963  1.04470191  1
  Fe  Fe94  1  0.71983207  0.04692924  0.77400241  1
  Fe  Fe95  1  0.35793979  0.88635002  0.53871913  1
  Fe  Fe96  1  0.10143646  0.05641880  0.07815186  1
  Fe  Fe97  1  0.08029742  0.18700927  0.57813579  1
  Fe  Fe98  1  0.45852610  0.62179222  0.83373325  1
  Fe  Fe99  1  0.47926470  0.30815479  0.13582988  1
  Fe  Fe100  1  0.26324163  0.48742040  0.29942222  1
  Fe  Fe101  1  0.67482355  0.73407630  0.29966723  1
  Bi  Bi102  1  0.60469749  0.14130879  -0.04315663  1
  Bi  Bi103  1  0.01999811  0.35881043  0.82423932  1
  Bi  Bi104  1  0.73701323  0.00178484  0.60507563  1
  Bi  Bi105  1  0.10884556  0.45584749  0.48227214  1
  Bi  Bi106  1  0.50350718  0.55091917  0.45390678  1
  Bi  Bi107  1  0.19996572  0.31813401  0.32101340  1
  Bi  Bi108  1  0.20513236  0.60020180  0.68745969  1
  Bi  Bi109  1  0.49396513  0.48144038  0.10015080  1
  Bi  Bi110  1  -0.01859932  0.19635482  0.42273303  1
  Bi  Bi111  1  0.61649284  0.40693916  0.87742604  1
  Bi  Bi112  1  0.82825350  0.57866496  0.27010854  1
  Bi  Bi113  1  0.28217658  0.74691900  0.47229206  1
  Bi  Bi114  1  0.15537820  0.03385530  0.62439873  1
  Bi  Bi115  1  0.84503033  0.07096046  0.89309417  1
  Bi  Bi116  1  0.86436205  0.79692465  0.53359856  1
  Bi  Bi117  1  0.84505241  0.32314261  0.62366823  1
  Bi  Bi118  1  0.60829060  0.13093011  0.33977545  1
  Bi  Bi119  1  0.61192991  0.63975960  0.74746251  1
  Bi  Bi120  1  0.85786633  0.63885552  0.66191430  1
  Bi  Bi121  1  0.83132434  0.72326402  0.91094210  1
  Bi  Bi122  1  0.91666926  0.59684516  0.44592331  1
  Bi  Bi123  1  0.37940709  0.70192980  0.96631669  1
  Bi  Bi124  1  0.27931620  0.18341986  0.80877473  1
  Bi  Bi125  1  0.92580965  0.09066604  0.08537005  1
  Bi  Bi126  1  0.87592692  0.31064096  1.02254309  1
  Bi  Bi127  1  0.87275377  0.04282371  0.32306957  1
