# generated using pymatgen
data_Ba51Fe51Bi26
_symmetry_space_group_name_H-M   'P 1'
_cell_length_a   16.52456252
_cell_length_b   16.34898651
_cell_length_c   16.28693525
_cell_angle_alpha   90.67815326
_cell_angle_beta   86.67313814
_cell_angle_gamma   89.89861295
_symmetry_Int_Tables_number   1
_chemical_formula_structural   Ba51Fe51Bi26
_chemical_formula_sum   'Ba51 Fe51 Bi26'
_cell_volume   4392.33963617
_cell_formula_units_Z   1
loop_
 _symmetry_equiv_pos_site_id
 _symmetry_equiv_pos_as_xyz
  1  'x, y, z'
loop_
 _atom_site_type_symbol
 _atom_site_label
 _atom_site_symmetry_multiplicity
 _atom_site_fract_x
 _atom_site_fract_y
 _atom_site_fract_z
 _atom_site_occupancy
  Ba  Ba0  1  0.22627288  0.71886028  0.77927039  1
  Ba  Ba1  1  0.93224021  0.00508651  -0.01805293  1
  Ba  Ba2  1  0.25896894  0.08935875  0.24797862  1
  Ba  Ba3  1  0.50264995  0.76742426  0.73785155  1
  Ba  Ba4  1  0.69320108  0.78086423  0.54417102  1
  Ba  Ba5  1  0.29756291  0.47155482  -0.12937154  1
  Ba  Ba6  1  0.76624159  0.27735999  0.60707310  1
  Ba  Ba7  1  -0.06977524  0.43779017  0.25374107  1
  Ba  Ba8  1  0.72070790  0.57151383  0.26560912  1
  Ba  Ba9  1  0.01166886  0.30399965  0.43103688  1
  Ba  Ba10  1  0.19500811  0.81628060  0.47743693  1
  Ba  Ba11  1  0.40861936  0.47693950  0.08245955  1
  Ba  Ba12  1  -0.06586921  0.66723182  0.44215019  1
  Ba  Ba13  1  0.90388913  0.27217827  -0.10436627  1
  Ba  Ba14  1  0.33193180  0.71235407  0.21134331  1
  Ba  Ba15  1  -0.10453496  0.74588070  0.76375347  1
  Ba  Ba16  1  0.09167191  0.68336442  0.21860243  1
  Ba  Ba17  1  0.55556891  0.48071892  0.81513839  1
  Ba  Ba18  1  0.73182850  0.01510892  0.30359888  1
  Ba  Ba19  1  -0.02273813  0.87515251  0.57887618  1
  Ba  Ba20  1  0.47280572  0.82859008  0.04183909  1
  Ba  Ba21  1  0.71084934  0.03604240  0.58090886  1
  Ba  Ba22  1  0.28212118  0.27107639  0.43455967  1
  Ba  Ba23  1  0.03190368  0.24630902  0.07743440  1
  Ba  Ba24  1  0.74940772  0.48094011  0.02134570  1
  Ba  Ba25  1  -0.09750513  0.04699387  0.75396464  1
  Ba  Ba26  1  0.18235018  0.41327379  0.21906935  1
  Ba  Ba27  1  0.27794051  0.23042846  0.75627023  1
  Ba  Ba28  1  0.84283509  0.50791537  0.78940797  1
  Ba  Ba29  1  0.70926142  0.28724278  0.22136704  1
  Ba  Ba30  1  0.51371198  0.42916089  0.57342329  1
  Ba  Ba31  1  0.24381695  0.50575133  0.56920687  1
  Ba  Ba32  1  0.60424944  0.27534040  -0.00548563  1
  Ba  Ba33  1  0.78998073  0.81698319  0.11064043  1
  Ba  Ba34  1  0.44771873  0.02303393  0.62762618  1
  Ba  Ba35  1  0.04911544  0.26563905  0.67313632  1
  Ba  Ba36  1  0.47680243  0.46386234  0.31704903  1
  Ba  Ba37  1  0.05268219  0.72023682  -0.02539060  1
  Ba  Ba38  1  0.49866266  0.12497488  0.17956413  1
  Ba  Ba39  1  -0.08332801  0.08100677  0.44736761  1
  Ba  Ba40  1  0.17678463  0.00431139  0.67883123  1
  Ba  Ba41  1  0.40567806  0.69669722  0.49521926  1
  Ba  Ba42  1  0.02622525  0.05344921  0.23118898  1
  Ba  Ba43  1  0.27140648  -0.03765729  -0.10961070  1
  Ba  Ba44  1  0.75526993  0.51101205  0.52784530  1
  Ba  Ba45  1  0.53961755  0.05263178  -0.06842047  1
  Ba  Ba46  1  0.57393387  0.76126408  0.27945700  1
  Ba  Ba47  1  0.07019835  0.50928027  0.74386300  1
  Ba  Ba48  1  0.66641382  0.70244898  0.92639312  1
  Ba  Ba49  1  0.30180106  0.23845545  0.01470119  1
  Ba  Ba50  1  0.55034233  0.15950220  0.42455448  1
  Fe  Fe51  1  0.13972708  0.16142593  0.52778063  1
  Fe  Fe52  1  0.64097988  0.88851335  0.85817313  1
  Fe  Fe53  1  0.89569084  0.91413112  0.27331807  1
  Fe  Fe54  1  0.46601177  0.16117808  0.77414227  1
  Fe  Fe55  1  0.37337890  0.74609892  0.90756747  1
  Fe  Fe56  1  0.03349785  0.54161543  1.07629044  1
  Fe  Fe57  1  0.43742259  0.86012869  0.35941452  1
  Fe  Fe58  1  0.52385876  0.33982627  0.16638640  1
  Fe  Fe59  1  0.94527516  0.55878940  0.96155008  1
  Fe  Fe60  1  0.69859937  0.80164790  0.75724397  1
  Fe  Fe61  1  0.11786051  0.12176301  0.40433262  1
  Fe  Fe62  1  1.01326637  0.87473269  0.36459061  1
  Fe  Fe63  1  0.59248625  0.44370329  0.14410347  1
  Fe  Fe64  1  0.41429720  0.01548882  0.36615808  1
  Fe  Fe65  1  0.07025640  0.53383623  0.34974550  1
  Fe  Fe66  1  0.72634489  0.04955928  0.07735303  1
  Fe  Fe67  1  0.17011042  0.92046501  0.11593994  1
  Fe  Fe68  1  0.33378647  0.64996142  -0.00784173  1
  Fe  Fe69  1  0.70228950  0.16543383  0.76993116  1
  Fe  Fe70  1  0.37371929  -0.08209649  0.47059263  1
  Fe  Fe71  1  0.13713453  0.61197509  0.43438442  1
  Fe  Fe72  1  0.14591236  0.45464323  0.41681276  1
  Fe  Fe73  1  0.05260804  0.51585554  0.50484709  1
  Fe  Fe74  1  0.71248194  0.96291403  -0.02962748  1
  Fe  Fe75  1  0.76756559  0.90884925  0.72208939  1
  Fe  Fe76  1  0.93387161  0.78918152  0.28236942  1
  Fe  Fe77  1  0.58710086  0.23522472  0.80787429  1
  Fe  Fe78  1  0.10020902  0.98257661  0.40664238  1
  Fe  Fe79  1  0.47539015  0.30743291  0.73933136  1
  Fe  Fe80  1  0.99300251  0.43720854  0.92411077  1
  Fe  Fe81  1  0.59453126  0.08167944  0.74455894  1
  Fe  Fe82  1  0.81745211  0.31448528  0.38665606  1
  Fe  Fe83  1  0.57583782  0.20809341  0.67078036  1
  Fe  Fe84  1  0.07885398  1.04386696  0.52791929  1
  Fe  Fe85  1  0.76301958  0.19720857  0.40611054  1
  Fe  Fe86  1  0.42443000  -0.06813563  0.22205869  1
  Fe  Fe87  1  0.09533034  0.42482323  0.03151179  1
  Fe  Fe88  1  0.31963667  0.91492333  0.32420240  1
  Fe  Fe89  1  0.41179586  0.62744506  0.85581864  1
  Fe  Fe90  1  0.88175058  0.88191497  0.40511870  1
  Fe  Fe91  1  0.09544356  0.52871989  0.93801659  1
  Fe  Fe92  1  0.46966749  0.64202393  0.97263351  1
  Fe  Fe93  1  0.52647116  -0.03533214  0.30066476  1
  Fe  Fe94  1  0.10901995  -0.08832871  1.00018982  1
  Fe  Fe95  1  0.29859168  0.90541957  0.16842228  1
  Fe  Fe96  1  0.86871407  0.21565717  0.30449813  1
  Fe  Fe97  1  0.70848506  0.01656716  0.81366136  1
  Fe  Fe98  1  0.94273222  0.44150195  0.05542987  1
  Fe  Fe99  1  0.77679514  0.88575054  0.85948623  1
  Fe  Fe100  1  0.62728606  0.93245072  0.73072351  1
  Fe  Fe101  1  0.44946945  0.26793517  0.86395965  1
  Bi  Bi102  1  0.55894746  -0.06970494  0.45839164  1
  Bi  Bi103  1  0.26119564  0.04582359  0.46723513  1
  Bi  Bi104  1  0.72057694  0.33891781  0.81576410  1
  Bi  Bi105  1  0.60972457  -0.05613860  0.14185877  1
  Bi  Bi106  1  0.42587231  0.23342637  0.59390362  1
  Bi  Bi107  1  0.16639811  -0.12104697  0.27991974  1
  Bi  Bi108  1  0.25123845  0.79799533  0.02726514  1
  Bi  Bi109  1  0.27859651  0.55058959  0.35398134  1
  Bi  Bi110  1  -0.00300447  -0.13666733  0.13308103  1
  Bi  Bi111  1  -0.11233326  0.61254059  0.12124252  1
  Bi  Bi112  1  0.77167452  0.78446078  0.33120219  1
  Bi  Bi113  1  0.75393700  0.12623632  0.92891372  1
  Bi  Bi114  1  0.12839686  0.33990750  -0.11638065  1
  Bi  Bi115  1  1.08281145  0.13475912  0.84156707  1
  Bi  Bi116  1  0.32982260  0.85112836  0.63549120  1
  Bi  Bi117  1  0.36595328  0.29441257  0.22331639  1
  Bi  Bi118  1  0.69434645  0.63665541  0.71185399  1
  Bi  Bi119  1  0.06264285  0.88168548  0.82676196  1
  Bi  Bi120  1  0.39774913  0.57558473  0.69416517  1
  Bi  Bi121  1  0.07965428  0.67006171  0.59853413  1
  Bi  Bi122  1  0.20528203  0.56065990  0.06365352  1
  Bi  Bi123  1  0.57221811  0.61574590  0.11086385  1
  Bi  Bi124  1  0.84876421  0.14174983  0.14665277  1
  Bi  Bi125  1  0.16050060  0.07401007  0.04749052  1
  Bi  Bi126  1  0.93312775  0.43233091  0.59689905  1
  Bi  Bi127  1  0.58828843  0.59892316  0.44271701  1
