# generated using pymatgen
data_Ba51Fe51Bi26
_symmetry_space_group_name_H-M   'P 1'
_cell_length_a   16.03561552
_cell_length_b   16.23565296
_cell_length_c   16.84889640
_cell_angle_alpha   90.49251242
_cell_angle_beta   86.95351040
_cell_angle_gamma   89.59608119
_symmetry_Int_Tables_number   1
_chemical_formula_structural   Ba51Fe51Bi26
_chemical_formula_sum   'Ba51 Fe51 Bi26'
_cell_volume   4380.10309672
_cell_formula_units_Z   1
loop_
 _symmetry_equiv_pos_site_id
 _symmetry_equiv_pos_as_xyz
  1  'x, y, z'
loop_
 _atom_site_type_symbol
 _atom_site_label
 _atom_site_symmetry_multiplicity
 _atom_site_fract_x
 _atom_site_fract_y
 _atom_site_fract_z
 _atom_site_occupancy
  Ba  Ba0  1  -0.00436495  0.38877969  0.54151923  1
  Ba  Ba1  1  0.24903443  0.77571430  0.00003509  1
  Ba  Ba2  1  -0.00025183  0.03963363  0.49168990  1
  Ba  Ba3  1  0.21563486  0.54297110  -0.12456422  1
  Ba  Ba4  1  0.72697867  -0.00663186  0.59886266  1
  Ba  Ba5  1  0.49883340  -0.07618438  0.50133141  1
  Ba  Ba6  1  0.23359573  0.28243349  0.77656665  1
  Ba  Ba7  1  -0.01229280  0.56187647  -0.01698702  1
  Ba  Ba8  1  0.04267891  0.76249867  0.17224710  1
  Ba  Ba9  1  0.01330985  0.33918652  0.10622400  1
  Ba  Ba10  1  0.53006223  0.01156508  0.79580776  1
  Ba  Ba11  1  0.55279419  0.34578165  -0.01498689  1
  Ba  Ba12  1  0.13105587  0.64936913  0.35128396  1
  Ba  Ba13  1  0.21067854  -0.07394238  0.53375258  1
  Ba  Ba14  1  0.79701631  0.40787993  0.26999909  1
  Ba  Ba15  1  0.77556349  0.71412898  0.00630624  1
  Ba  Ba16  1  0.80742006  -0.07461142  0.88398735  1
  Ba  Ba17  1  0.55905952  0.45857682  0.21336040  1
  Ba  Ba18  1  0.75474943  0.47372327  0.04519145  1
  Ba  Ba19  1  -0.14071693  0.57524343  0.41294334  1
  Ba  Ba20  1  0.47905841  0.51126222  0.53617692  1
  Ba  Ba21  1  0.39595174  -0.05344824  0.24947672  1
  Ba  Ba22  1  0.24816654  0.74996849  0.73985803  1
  Ba  Ba23  1  0.27002000  0.29735232  0.01992651  1
  Ba  Ba24  1  0.01320568  0.21356162  0.72123907  1
  Ba  Ba25  1  0.43266224  0.36584412  0.74371699  1
  Ba  Ba26  1  0.69318376  -0.01797700  0.24751391  1
  Ba  Ba27  1  -0.10256578  0.48141533  0.79261200  1
  Ba  Ba28  1  0.61390598  0.08543959  0.02140133  1
  Ba  Ba29  1  0.22473709  0.46828766  0.46783738  1
  Ba  Ba30  1  0.34286510  0.50661723  0.23716998  1
  Ba  Ba31  1  0.53521029  0.20538445  0.27487738  1
  Ba  Ba32  1  0.50468635  0.71153173  0.33985492  1
  Ba  Ba33  1  0.23268551  0.25383607  0.28742718  1
  Ba  Ba34  1  0.84342918  0.17774610  0.29140259  1
  Ba  Ba35  1  0.64422266  0.50616979  0.75320803  1
  Ba  Ba36  1  0.80760786  0.22941481  0.51250480  1
  Ba  Ba37  1  0.03075663  0.81360866  -0.08511784  1
  Ba  Ba38  1  0.24730071  0.21235876  0.52371194  1
  Ba  Ba39  1  0.62183766  0.22767444  0.74823946  1
  Ba  Ba40  1  0.88398668  0.83003180  0.52808064  1
  Ba  Ba41  1  0.78308877  0.75879186  0.28731324  1
  Ba  Ba42  1  0.78497658  0.74388799  0.73523694  1
  Ba  Ba43  1  0.30465110  0.04305440  0.01380784  1
  Ba  Ba44  1  0.53291216  0.74247326  0.80655357  1
  Ba  Ba45  1  0.48188951  0.75764557  0.05471776  1
  Ba  Ba46  1  -0.04024709  0.61726291  0.61337641  1
  Ba  Ba47  1  0.01884688  0.02661971  0.25552460  1
  Ba  Ba48  1  0.23892279  0.02779391  0.77579729  1
  Ba  Ba49  1  -0.07289449  0.08518598  0.03471840  1
  Ba  Ba50  1  0.52510212  0.24486885  0.51457992  1
  Fe  Fe51  1  0.15403107  0.60749510  0.05644377  1
  Fe  Fe52  1  0.71297089  0.18569040  0.15796087  1
  Fe  Fe53  1  0.89580821  0.35000590  -0.06165172  1
  Fe  Fe54  1  0.87948252  0.11763910  0.84187050  1
  Fe  Fe55  1  0.09109513  0.88568499  0.73402811  1
  Fe  Fe56  1  0.15182046  0.56623837  0.65608605  1
  Fe  Fe57  1  0.71047838  0.41571988  0.47148500  1
  Fe  Fe58  1  0.19166642  0.60292589  0.17644489  1
  Fe  Fe59  1  0.94512320  0.66828011  0.82248380  1
  Fe  Fe60  1  0.22699586  0.87562796  0.16781515  1
  Fe  Fe61  1  0.64224860  0.79079830  0.60001090  1
  Fe  Fe62  1  0.65300012  0.82788094  0.12878525  1
  Fe  Fe63  1  0.16816075  0.41056961  0.64183494  1
  Fe  Fe64  1  0.31616242  0.64763086  0.46795283  1
  Fe  Fe65  1  0.34007787  0.47603166  1.00304108  1
  Fe  Fe66  1  0.05122946  0.83314681  0.62222636  1
  Fe  Fe67  1  0.15587675  0.45864050  0.21253155  1
  Fe  Fe68  1  0.44576827  0.49634743  0.89906454  1
  Fe  Fe69  1  0.87936847  0.92333024  0.35162731  1
  Fe  Fe70  1  0.20715645  0.00501960  0.19737221  1
  Fe  Fe71  1  0.19160217  0.88628267  0.29711270  1
  Fe  Fe72  1  0.29849433  0.60717073  0.60507298  1
  Fe  Fe73  1  0.74284673  0.91331190  0.07101923  1
  Fe  Fe74  1  0.02419374  -0.01974847  0.66574420  1
  Fe  Fe75  1  0.61448455  0.67454680  0.49656996  1
  Fe  Fe76  1  0.69677034  0.78087498  0.48015924  1
  Fe  Fe77  1  0.82625500  0.26620720  0.84235829  1
  Fe  Fe78  1  0.39557237  0.61480313  0.94162805  1
  Fe  Fe79  1  0.75154896  0.67543815  0.56144505  1
  Fe  Fe80  1  0.62924099  0.65847059  0.63211086  1
  Fe  Fe81  1  1.06394300  0.53912975  0.16105766  1
  Fe  Fe82  1  0.26659404  0.49011559  0.68836041  1
  Fe  Fe83  1  0.20289662  0.48151297  0.08123695  1
  Fe  Fe84  1  0.32154011  0.74875177  0.54809913  1
  Fe  Fe85  1  0.81643956  0.01950568  0.41205254  1
  Fe  Fe86  1  1.00949551  0.75591237  0.73700524  1
  Fe  Fe87  1  0.93291007  0.88627403  0.71533509  1
  Fe  Fe88  1  0.63980454  0.88173605  1.00108716  1
  Fe  Fe89  1  0.79367940  0.47166692  0.58380964  1
  Fe  Fe90  1  0.06306360  0.61836034  0.77429284  1
  Fe  Fe91  1  0.74563239  0.15093408  0.87927197  1
  Fe  Fe92  1  0.30620546  0.60140652  0.06846401  1
  Fe  Fe93  1  0.95457243  0.23323192  -0.09214593  1
  Fe  Fe94  1  0.67170042  0.30515145  0.14731927  1
  Fe  Fe95  1  0.67388593  0.39308936  0.59317314  1
  Fe  Fe96  1  0.44914124  0.53819615  0.04666782  1
  Fe  Fe97  1  0.81420874  0.16748462  0.72919001  1
  Fe  Fe98  1  0.09935996  0.46832490  0.74225055  1
  Fe  Fe99  1  0.68286005  0.54449374  0.54664311  1
  Fe  Fe100  1  0.88429081  0.03128976  0.71557183  1
  Fe  Fe101  1  0.74403594  0.06457771  0.77963626  1
  Bi  Bi102  1  0.77299696  0.25205851  0.01402237  1
  Bi  Bi103  1  0.15517980  0.69997284  0.55285847  1
  Bi  Bi104  1  0.40058148  0.57695539  0.75433841  1
  Bi  Bi105  1  0.80851713  0.33557159  0.68704406  1
  Bi  Bi106  1  0.20817536  0.04824080  0.36049513  1
  Bi  Bi107  1  0.58849685  0.58200442  -0.05032704  1
  Bi  Bi108  1  0.47687192  0.72841809  0.59548656  1
  Bi  Bi109  1  0.30404432  0.72641389  0.19990318  1
  Bi  Bi110  1  0.11116411  -0.05997132  0.06793010  1
  Bi  Bi111  1  -0.10682465  0.58911794  0.17987964  1
  Bi  Bi112  1  0.01172343  0.00693112  0.82902444  1
  Bi  Bi113  1  0.64617963  0.54622426  0.38189543  1
  Bi  Bi114  1  0.06193183  0.37684101  -0.11245364  1
  Bi  Bi115  1  0.40806081  0.36233323  0.38024065  1
  Bi  Bi116  1  0.11990325  0.16882367  0.92527330  1
  Bi  Bi117  1  1.02561754  0.43498490  0.32177346  1
  Bi  Bi118  1  0.02822012  0.23043205  0.39999686  1
  Bi  Bi119  1  0.03277631  0.84608504  0.36998351  1
  Bi  Bi120  1  0.14035350  0.15502178  0.12947049  1
  Bi  Bi121  1  0.66222824  0.09572078  0.42189732  1
  Bi  Bi122  1  0.39373274  0.09092102  0.40892779  1
  Bi  Bi123  1  0.63937013  0.65891350  0.16772501  1
  Bi  Bi124  1  0.40424586  0.15274059  0.67689522  1
  Bi  Bi125  1  0.31400167  0.80338018  0.39322545  1
  Bi  Bi126  1  0.37549855  0.88440665  0.86963886  1
  Bi  Bi127  1  0.43016127  0.19259444  0.88852826  1
