# generated using pymatgen
data_Ba51Fe51Bi26
_symmetry_space_group_name_H-M   'P 1'
_cell_length_a   16.59851440
_cell_length_b   16.71838668
_cell_length_c   16.03670203
_cell_angle_alpha   88.76988114
_cell_angle_beta   90.48011752
_cell_angle_gamma   91.55975858
_symmetry_Int_Tables_number   1
_chemical_formula_structural   Ba51Fe51Bi26
_chemical_formula_sum   'Ba51 Fe51 Bi26'
_cell_volume   4447.38153183
_cell_formula_units_Z   1
loop_
 _symmetry_equiv_pos_site_id
 _symmetry_equiv_pos_as_xyz
  1  'x, y, z'
loop_
 _atom_site_type_symbol
 _atom_site_label
 _atom_site_symmetry_multiplicity
 _atom_site_fract_x
 _atom_site_fract_y
 _atom_site_fract_z
 _atom_site_occupancy
  Ba  Ba0  1  0.69182649  0.66253954  -0.09820192  1
  Ba  Ba1  1  0.12616366  0.22261306  0.24930975  1
  Ba  Ba2  1  0.50077518  0.50146259  0.78742376  1
  Ba  Ba3  1  0.02744697  0.60754002  0.46279955  1
  Ba  Ba4  1  0.21586124  0.61663617  0.00504461  1
  Ba  Ba5  1  0.27603836  0.87783413  -0.03986362  1
  Ba  Ba6  1  0.50687039  0.59731380  0.32149450  1
  Ba  Ba7  1  0.48889819  0.82087984  0.45866242  1
  Ba  Ba8  1  0.49555288  0.45811909  0.03744224  1
  Ba  Ba9  1  0.30215544  0.46266677  0.24644246  1
  Ba  Ba10  1  0.34084938  0.82624626  0.20807154  1
  Ba  Ba11  1  0.17607506  0.08469060  0.86359943  1
  Ba  Ba12  1  0.41926032  0.26315278  0.54498195  1
  Ba  Ba13  1  0.24967843  0.49001198  0.78772332  1
  Ba  Ba14  1  0.71415167  0.13914224  0.33826660  1
  Ba  Ba15  1  0.08457906  0.26833721  0.70883220  1
  Ba  Ba16  1  0.06367451  0.37392109  -0.08480690  1
  Ba  Ba17  1  0.49907435  0.04045809  0.55683594  1
  Ba  Ba18  1  -0.06019301  0.69240996  0.05177925  1
  Ba  Ba19  1  0.81588458  0.76502374  0.69622844  1
  Ba  Ba20  1  0.28033964  0.70978845  0.49729329  1
  Ba  Ba21  1  0.77134344  0.55926910  0.32098240  1
  Ba  Ba22  1  0.16164932  0.21859337  0.48024249  1
  Ba  Ba23  1  0.51516223  0.26231681  0.77244691  1
  Ba  Ba24  1  -0.02142842  0.41977092  0.29441303  1
  Ba  Ba25  1  0.55256366  0.33316499  0.30540099  1
  Ba  Ba26  1  0.59971502  0.09338955  0.00478159  1
  Ba  Ba27  1  0.06695025  -0.13780270  0.29181950  1
  Ba  Ba28  1  0.23826374  -0.07494979  0.56352702  1
  Ba  Ba29  1  0.21479285  0.02607702  0.14589581  1
  Ba  Ba30  1  -0.03366358  0.51347605  0.69905668  1
  Ba  Ba31  1  -0.07510507  0.01489560  0.74002363  1
  Ba  Ba32  1  -0.01344118  -0.03186367  0.51007827  1
  Ba  Ba33  1  0.84409422  0.45023249  0.01138039  1
  Ba  Ba34  1  0.57442735  0.76597891  0.68332955  1
  Ba  Ba35  1  -0.09153546  0.20270517  0.50920497  1
  Ba  Ba36  1  0.38743132  0.02585962  0.77027765  1
  Ba  Ba37  1  -0.02343427  -0.05430047  -0.01035029  1
  Ba  Ba38  1  0.57905741  -0.05356642  0.26245107  1
  Ba  Ba39  1  0.52080180  0.87842474  -0.07031018  1
  Ba  Ba40  1  0.70012564  0.48782247  0.66212917  1
  Ba  Ba41  1  0.14306549  0.63111260  0.23473760  1
  Ba  Ba42  1  0.60124063  0.73648333  0.11442241  1
  Ba  Ba43  1  0.68131622  0.00412066  0.72163279  1
  Ba  Ba44  1  0.81656027  0.86664467  0.21658906  1
  Ba  Ba45  1  0.81460915  0.09571887  0.11580508  1
  Ba  Ba46  1  0.35533235  0.23775673  0.12792266  1
  Ba  Ba47  1  0.67335906  0.26065424  0.55547288  1
  Ba  Ba48  1  0.84342811  0.78541620  0.44397073  1
  Ba  Ba49  1  0.08334274  0.75689532  0.81939520  1
  Ba  Ba50  1  0.77719192  0.23409288  0.85396038  1
  Fe  Fe51  1  0.52393839  0.43285657  0.58463575  1
  Fe  Fe52  1  0.67015881  0.64154606  0.49145054  1
  Fe  Fe53  1  0.83642320  0.85536555  0.87853734  1
  Fe  Fe54  1  0.27850604  0.72060762  0.84095791  1
  Fe  Fe55  1  0.67893436  0.02673582  0.49882799  1
  Fe  Fe56  1  0.14705901  0.37968792  0.11302117  1
  Fe  Fe57  1  0.38009774  0.62711472  0.86802600  1
  Fe  Fe58  1  0.36893443  0.54712146  0.45389482  1
  Fe  Fe59  1  0.89095819  0.27968845  0.14025386  1
  Fe  Fe60  1  0.37426950  0.82494552  0.66698568  1
  Fe  Fe61  1  0.32922383  0.08537054  0.46156213  1
  Fe  Fe62  1  0.57945548  0.30408726  0.95783009  1
  Fe  Fe63  1  0.64598052  0.90439665  0.55681337  1
  Fe  Fe64  1  0.31382926  0.97046414  0.35164961  1
  Fe  Fe65  1  0.22292512  0.53739372  0.42336826  1
  Fe  Fe66  1  0.79726252  0.04924371  0.55073289  1
  Fe  Fe67  1  0.02164739  0.32496253  0.10111988  1
  Fe  Fe68  1  0.55545913  0.26812864  0.08391974  1
  Fe  Fe69  1  0.49090753  0.63994969  -0.02463214  1
  Fe  Fe70  1  0.16839082  0.41911365  0.44451631  1
  Fe  Fe71  1  0.70735394  0.85670497  0.87572841  1
  Fe  Fe72  1  0.26782973  0.53082808  0.56470255  1
  Fe  Fe73  1  0.46369259  0.44461178  0.45894798  1
  Fe  Fe74  1  0.43533948  0.14579278  0.35555660  1
  Fe  Fe75  1  0.90328165  0.26609976  1.00625219  1
  Fe  Fe76  1  0.01298049  0.08609594  0.34775570  1
  Fe  Fe77  1  0.25580233  0.29204351  0.89436982  1
  Fe  Fe78  1  0.99521248  0.18598851  0.06996397  1
  Fe  Fe79  1  0.30481365  0.11077853  0.31754918  1
  Fe  Fe80  1  0.28339212  0.11335500  0.60217114  1
  Fe  Fe81  1  1.03020520  0.56519203  0.92561267  1
  Fe  Fe82  1  0.14104774  0.48782338  0.56020157  1
  Fe  Fe83  1  0.78809513  0.80394966  -0.00195741  1
  Fe  Fe84  1  0.50015571  0.69456100  0.85236488  1
  Fe  Fe85  1  0.46423277  0.22937736  0.96560966  1
  Fe  Fe86  1  0.34008519  0.19249832  0.90962186  1
  Fe  Fe87  1  0.39304055  0.46794929  0.59128631  1
  Fe  Fe88  1  0.39624889  0.78336219  0.80722382  1
  Fe  Fe89  1  0.80449173  0.98440232  0.42388681  1
  Fe  Fe90  1  0.40175511  1.04125007  0.24535985  1
  Fe  Fe91  1  0.25459246  0.74989675  0.70087768  1
  Fe  Fe92  1  0.27763982  0.85966865  0.76530985  1
  Fe  Fe93  1  0.77791271  0.91873272  0.56252788  1
  Fe  Fe94  1  0.38793661  0.33447867  0.90323290  1
  Fe  Fe95  1  0.39146877  0.72773257  -0.04055508  1
  Fe  Fe96  1  0.84989607  0.43940928  0.50246086  1
  Fe  Fe97  1  0.70614691  0.89977646  0.00919846  1
  Fe  Fe98  1  0.31297182  0.41799917  0.45634922  1
  Fe  Fe99  1  0.68982943  0.90420193  0.42814564  1
  Fe  Fe100  1  0.89549719  0.03610890  0.32589213  1
  Fe  Fe101  1  0.43389667  1.01227253  0.37954952  1
  Bi  Bi102  1  0.16489933  0.03044076  0.38094422  1
  Bi  Bi103  1  0.00833641  0.39085498  0.52057352  1
  Bi  Bi104  1  0.63107663  0.46517817  0.45841909  1
  Bi  Bi105  1  0.28148825  0.41721641  0.00977014  1
  Bi  Bi106  1  0.38028960  0.65429294  0.69940860  1
  Bi  Bi107  1  0.16083258  0.22451314  0.03303778  1
  Bi  Bi108  1  0.30667879  0.22102587  0.74240110  1
  Bi  Bi109  1  0.24689122  0.37121373  0.60873991  1
  Bi  Bi110  1  0.72614089  0.28087741  0.06256221  1
  Bi  Bi111  1  -0.08369972  0.20521413  0.29233355  1
  Bi  Bi112  1  0.33131010  0.27491549  0.34834590  1
  Bi  Bi113  1  0.51224495  0.60600313  0.54686250  1
  Bi  Bi114  1  0.78368045  0.01591744  -0.08918209  1
  Bi  Bi115  1  0.77895394  0.34488870  0.38282457  1
  Bi  Bi116  1  0.39960933  0.64106283  0.12441147  1
  Bi  Bi117  1  0.82888358  0.60026660  0.54524628  1
  Bi  Bi118  1  0.38739872  0.05817626  0.99316571  1
  Bi  Bi119  1  0.65772164  0.75021946  0.34516589  1
  Bi  Bi120  1  0.12794650  0.80010434  0.08816304  1
  Bi  Bi121  1  0.12099605  0.07365114  0.64664039  1
  Bi  Bi122  1  0.00258972  0.03394960  0.18363328  1
  Bi  Bi123  1  1.03695855  0.50449662  0.08735521  1
  Bi  Bi124  1  0.97675245  0.16537997  0.89157733  1
  Bi  Bi125  1  0.93955421  0.68415560  0.27408391  1
  Bi  Bi126  1  0.14334988  0.62880873  0.65311434  1
  Bi  Bi127  1  0.53573075  0.14627765  0.21168603  1
