# generated using pymatgen
data_Ba51Fe51Bi26
_symmetry_space_group_name_H-M   'P 1'
_cell_length_a   16.09232112
_cell_length_b   17.11256631
_cell_length_c   15.79900298
_cell_angle_alpha   90.55363945
_cell_angle_beta   90.31181011
_cell_angle_gamma   91.30506750
_symmetry_Int_Tables_number   1
_chemical_formula_structural   Ba51Fe51Bi26
_chemical_formula_sum   'Ba51 Fe51 Bi26'
_cell_volume   4349.34243831
_cell_formula_units_Z   1
loop_
 _symmetry_equiv_pos_site_id
 _symmetry_equiv_pos_as_xyz
  1  'x, y, z'
loop_
 _atom_site_type_symbol
 _atom_site_label
 _atom_site_symmetry_multiplicity
 _atom_site_fract_x
 _atom_site_fract_y
 _atom_site_fract_z
 _atom_site_occupancy
  Ba  Ba0  1  0.75641769  0.01907600  0.27643092  1
  Ba  Ba1  1  0.22168047  0.47946151  -0.01149445  1
  Ba  Ba2  1  0.81388876  0.71893551  0.52802491  1
  Ba  Ba3  1  0.21252256  0.13840933  0.77501703  1
  Ba  Ba4  1  0.76015861  0.45685000  0.58000558  1
  Ba  Ba5  1  0.20453819  0.28449451  0.28198763  1
  Ba  Ba6  1  0.74502019  0.68101387  0.24193499  1
  Ba  Ba7  1  0.29814662  0.24175288  0.02837265  1
  Ba  Ba8  1  0.21210597  0.72170638  0.11880506  1
  Ba  Ba9  1  0.82926213  0.29329988  0.73612710  1
  Ba  Ba10  1  0.48205295  0.75056081  0.19542613  1
  Ba  Ba11  1  0.00258376  -0.04264521  0.28022449  1
  Ba  Ba12  1  0.25283066  0.07339983  0.22985865  1
  Ba  Ba13  1  0.00742966  0.26659912  0.01946900  1
  Ba  Ba14  1  0.26600966  0.50910505  0.44956734  1
  Ba  Ba15  1  -0.06090557  0.47599742  0.19616859  1
  Ba  Ba16  1  0.02145272  0.31265760  0.45409604  1
  Ba  Ba17  1  0.76864066  0.26541039  0.20501902  1
  Ba  Ba18  1  0.28816723  -0.07472162  0.75541503  1
  Ba  Ba19  1  0.50965670  -0.02624931  0.28611799  1
  Ba  Ba20  1  0.00043544  0.72016283  0.22730595  1
  Ba  Ba21  1  -0.03841909  0.54149160  0.42316647  1
  Ba  Ba22  1  -0.02216769  0.51009614  -0.06780365  1
  Ba  Ba23  1  0.25765413  0.87983795  0.34937983  1
  Ba  Ba24  1  0.76053826  -0.05936223  0.55767620  1
  Ba  Ba25  1  0.02033704  -0.02837597  0.79922533  1
  Ba  Ba26  1  0.26382164  0.21789967  0.54103191  1
  Ba  Ba27  1  0.01476992  0.77245784  0.73263334  1
  Ba  Ba28  1  0.50380379  0.06541867  0.71894299  1
  Ba  Ba29  1  0.77742388  0.23897167  0.45361121  1
  Ba  Ba30  1  0.17970646  -0.00300503  0.00458968  1
  Ba  Ba31  1  0.49573955  0.74977731  0.48821117  1
  Ba  Ba32  1  0.49870416  0.42799018  0.56786689  1
  Ba  Ba33  1  0.23856939  0.69481083  0.70998332  1
  Ba  Ba34  1  0.34657246  0.76532583  -0.06460010  1
  Ba  Ba35  1  0.50629069  0.20228665  0.52410562  1
  Ba  Ba36  1  -0.04778347  0.09344037  0.54859999  1
  Ba  Ba37  1  0.61623088  0.54176411  0.00390369  1
  Ba  Ba38  1  0.23610406  0.46853165  0.70167856  1
  Ba  Ba39  1  0.46574557  0.26867198  0.83845707  1
  Ba  Ba40  1  0.53849085  -0.04667136  -0.00712116  1
  Ba  Ba41  1  0.63230576  0.59953671  0.71000820  1
  Ba  Ba42  1  0.42944485  0.51601544  0.84698402  1
  Ba  Ba43  1  0.06695538  0.29710366  0.74609212  1
  Ba  Ba44  1  0.76110599  0.03923691  0.79995282  1
  Ba  Ba45  1  -0.11682524  0.02019268  0.02935468  1
  Ba  Ba46  1  0.53153979  0.31325853  0.18887905  1
  Ba  Ba47  1  0.11343736  0.72001981  0.47297365  1
  Ba  Ba48  1  0.68619215  0.25283877  -0.06815702  1
  Ba  Ba49  1  0.49625982  0.52473931  0.29925889  1
  Ba  Ba50  1  0.73440389  0.81008394  0.87942789  1
  Fe  Fe51  1  0.58369308  0.78217152  0.68619152  1
  Fe  Fe52  1  0.15069689  0.60729334  0.29611630  1
  Fe  Fe53  1  0.91612740  0.15095816  0.33233033  1
  Fe  Fe54  1  0.04329010  0.47228417  0.71757467  1
  Fe  Fe55  1  0.12185642  0.01398154  0.61110876  1
  Fe  Fe56  1  0.99978038  0.91964955  0.60123021  1
  Fe  Fe57  1  0.40051692  0.06297911  1.08880888  1
  Fe  Fe58  1  0.89877969  0.71159240  0.92691065  1
  Fe  Fe59  1  0.23957129  -0.01601890  0.53824018  1
  Fe  Fe60  1  0.04610249  0.14342532  0.29990758  1
  Fe  Fe61  1  0.27050072  0.32546891  0.83532776  1
  Fe  Fe62  1  0.48135145  0.15430263  1.03566548  1
  Fe  Fe63  1  0.94919674  0.56900452  0.62293866  1
  Fe  Fe64  1  0.80271243  0.40940872  0.34857443  1
  Fe  Fe65  1  0.61418464  0.39236678  0.76575953  1
  Fe  Fe66  1  1.02409368  0.72078948  0.00813720  1
  Fe  Fe67  1  0.08917621  0.58924047  0.62523861  1
  Fe  Fe68  1  0.37979921  0.96809778  0.56514278  1
  Fe  Fe69  1  0.45558853  0.87260289  0.64616177  1
  Fe  Fe70  1  0.90352179  0.49438093  0.73897155  1
  Fe  Fe71  1  0.02275467  0.14064694  0.87482203  1
  Fe  Fe72  1  0.41917428  0.18206774  0.31599293  1
  Fe  Fe73  1  0.44865224  0.74832091  0.71767476  1
  Fe  Fe74  1  0.05680145  0.13223654  0.16179299  1
  Fe  Fe75  1  0.11150740  0.81367243  0.93189874  1
  Fe  Fe76  1  0.80335151  0.60314373  0.92645024  1
  Fe  Fe77  1  0.98287237  0.86316891  0.48357103  1
  Fe  Fe78  1  0.50346929  0.85867009  0.79400760  1
  Fe  Fe79  1  0.12570955  0.48064223  0.30331137  1
  Fe  Fe80  1  0.64942012  0.08156959  0.47267187  1
  Fe  Fe81  1  0.62582678  0.29272677  0.68566542  1
  Fe  Fe82  1  0.11400360  0.55941714  0.16886395  1
  Fe  Fe83  1  0.26131722  0.54452374  0.22210724  1
  Fe  Fe84  1  0.46656755  0.13817772  0.18920292  1
  Fe  Fe85  1  0.17119522  0.44480215  0.17878541  1
  Fe  Fe86  1  0.74289944  0.51610143  0.36868801  1
  Fe  Fe87  1  0.13725132  0.87826372  0.59932098  1
  Fe  Fe88  1  0.77714306  0.68539281  0.03185125  1
  Fe  Fe89  1  0.59592370  0.90649985  0.69905026  1
  Fe  Fe90  1  0.95086867  0.42672111  0.61650994  1
  Fe  Fe91  1  0.09727132  0.93653752  0.47590686  1
  Fe  Fe92  1  0.92577287  0.12542691  0.19666124  1
  Fe  Fe93  1  0.88913901  0.16696453  0.88437622  1
  Fe  Fe94  1  0.80381562  0.54775938  0.06490563  1
  Fe  Fe95  1  0.04341714  0.85615059  0.04763614  1
  Fe  Fe96  1  0.07077655  0.47294705  0.57275258  1
  Fe  Fe97  1  0.96300180  0.84006324  0.93514053  1
  Fe  Fe98  1  0.90556281  0.64302464  0.06062628  1
  Fe  Fe99  1  0.94375830  0.13961100  0.76103974  1
  Fe  Fe100  1  0.02685209  0.59417138  0.75475670  1
  Fe  Fe101  1  0.31677727  0.29970363  0.71741272  1
  Bi  Bi102  1  0.54190781  0.71306405  0.86635803  1
  Bi  Bi103  1  0.37733504  0.07925041  -0.09114031  1
  Bi  Bi104  1  0.54715043  -0.04063746  0.52567150  1
  Bi  Bi105  1  0.30746910  0.67657713  0.32687500  1
  Bi  Bi106  1  0.75659013  0.46257282  -0.16423479  1
  Bi  Bi107  1  0.59862806  0.15954645  0.32841286  1
  Bi  Bi108  1  0.87318877  0.81725118  0.08514314  1
  Bi  Bi109  1  0.33997298  0.41190754  0.16302382  1
  Bi  Bi110  1  0.13660572  0.08755207  0.42946988  1
  Bi  Bi111  1  -0.01332924  0.27764858  0.23713111  1
  Bi  Bi112  1  0.13894746  0.65372347  -0.10367442  1
  Bi  Bi113  1  0.70962700  0.47797619  0.19986980  1
  Bi  Bi114  1  -0.15236287  0.64769690  0.75713567  1
  Bi  Bi115  1  0.63416208  0.11838601  0.09959658  1
  Bi  Bi116  1  0.63897402  0.38039212  0.39964827  1
  Bi  Bi117  1  0.69648288  0.14733566  0.63076157  1
  Bi  Bi118  1  0.38995713  0.33048892  0.39029352  1
  Bi  Bi119  1  0.39273087  0.59176121  0.07341730  1
  Bi  Bi120  1  0.29903415  0.82538769  0.55695011  1
  Bi  Bi121  1  0.82223792  0.38841712  0.02568133  1
  Bi  Bi122  1  0.67890741  0.83847499  0.36280626  1
  Bi  Bi123  1  0.64177867  0.59892469  0.47072316  1
  Bi  Bi124  1  0.41239377  0.59995099  0.64050389  1
  Bi  Bi125  1  0.34558369  0.90570988  0.12319671  1
  Bi  Bi126  1  0.66331594  0.86443622  0.15427347  1
  Bi  Bi127  1  0.36026951  0.06344004  0.42612382  1
