# generated using pymatgen
data_Ba51Fe51Bi26
_symmetry_space_group_name_H-M   'P 1'
_cell_length_a   16.52465974
_cell_length_b   16.49316633
_cell_length_c   16.31397503
_cell_angle_alpha   90.69330987
_cell_angle_beta   89.16015087
_cell_angle_gamma   92.99116899
_symmetry_Int_Tables_number   1
_chemical_formula_structural   Ba51Fe51Bi26
_chemical_formula_sum   'Ba51 Fe51 Bi26'
_cell_volume   4439.45464276
_cell_formula_units_Z   1
loop_
 _symmetry_equiv_pos_site_id
 _symmetry_equiv_pos_as_xyz
  1  'x, y, z'
loop_
 _atom_site_type_symbol
 _atom_site_label
 _atom_site_symmetry_multiplicity
 _atom_site_fract_x
 _atom_site_fract_y
 _atom_site_fract_z
 _atom_site_occupancy
  Ba  Ba0  1  0.47881452  0.24784510  0.84102145  1
  Ba  Ba1  1  0.48658614  0.50625560  -0.00842657  1
  Ba  Ba2  1  0.23256926  0.53594703  0.08549438  1
  Ba  Ba3  1  -0.01827178  0.51528671  0.02432933  1
  Ba  Ba4  1  0.68809799  0.44860282  0.47306367  1
  Ba  Ba5  1  0.49982562  0.73714380  0.25480983  1
  Ba  Ba6  1  0.47474548  0.53035281  0.56869422  1
  Ba  Ba7  1  0.49439508  0.12716411  0.09314361  1
  Ba  Ba8  1  0.21415023  0.23510177  0.47116454  1
  Ba  Ba9  1  0.75540436  0.46359057  -0.03717385  1
  Ba  Ba10  1  0.65981462  -0.00188149  -0.13086978  1
  Ba  Ba11  1  0.00336991  0.72697749  0.25804809  1
  Ba  Ba12  1  0.53506850  0.66919955  0.79910385  1
  Ba  Ba13  1  0.26424089  0.01402156  0.39502511  1
  Ba  Ba14  1  0.74625530  0.22260088  -0.04273140  1
  Ba  Ba15  1  0.18722540  0.45263841  0.31727564  1
  Ba  Ba16  1  0.71191853  0.74092103  0.03585156  1
  Ba  Ba17  1  0.79906667  0.79854669  0.75827851  1
  Ba  Ba18  1  -0.05232553  0.05010965  0.17080612  1
  Ba  Ba19  1  0.53770162  0.03029449  0.49162400  1
  Ba  Ba20  1  -0.01154666  0.80656485  -0.03439737  1
  Ba  Ba21  1  0.06522820  0.80812409  0.54273296  1
  Ba  Ba22  1  -0.03814601  0.25049235  0.30878822  1
  Ba  Ba23  1  0.28206853  0.49386219  0.80670931  1
  Ba  Ba24  1  0.15051502  -0.04932551  0.19245472  1
  Ba  Ba25  1  0.56702836  0.76862846  0.51839665  1
  Ba  Ba26  1  0.00070020  0.49160265  0.53266396  1
  Ba  Ba27  1  0.73138215  0.22289565  0.67856663  1
  Ba  Ba28  1  0.21578108  0.76043202  0.05791198  1
  Ba  Ba29  1  0.31117829  0.78746606  0.46349612  1
  Ba  Ba30  1  0.44405792  0.50514738  0.31640886  1
  Ba  Ba31  1  0.20609246  0.22860574  0.14712015  1
  Ba  Ba32  1  -0.01102833  0.24075325  0.00398700  1
  Ba  Ba33  1  0.80588904  0.67620065  0.50779421  1
  Ba  Ba34  1  0.76940614  0.16480133  0.44759378  1
  Ba  Ba35  1  0.69521209  -0.01663221  0.14020266  1
  Ba  Ba36  1  0.67061450  0.23685891  0.23478719  1
  Ba  Ba37  1  0.47262998  0.26603351  0.55338852  1
  Ba  Ba38  1  0.65821062  0.46964564  0.19908032  1
  Ba  Ba39  1  0.82312119  0.47615112  0.71637434  1
  Ba  Ba40  1  0.01988390  -0.00553290  0.72196255  1
  Ba  Ba41  1  0.04501990  0.44040676  0.78363217  1
  Ba  Ba42  1  -0.01621226  0.24095613  0.59087022  1
  Ba  Ba43  1  0.20946796  0.60092865  0.60535885  1
  Ba  Ba44  1  0.82437246  -0.07226226  0.36687576  1
  Ba  Ba45  1  -0.09344774  0.48233135  0.29442924  1
  Ba  Ba46  1  0.22873214  0.78447249  0.79134449  1
  Ba  Ba47  1  0.43934834  0.85194106  0.04252954  1
  Ba  Ba48  1  0.45050637  -0.09037871  0.72494003  1
  Ba  Ba49  1  0.41597285  0.26096227  0.29255126  1
  Ba  Ba50  1  0.14253994  0.19236200  0.80433359  1
  Fe  Fe51  1  0.56261607  0.05058356  0.29253568  1
  Fe  Fe52  1  0.37848980  0.10595522  0.65168554  1
  Fe  Fe53  1  0.33497939  0.38724713  0.45462095  1
  Fe  Fe54  1  0.29334252  0.93157651  0.92377223  1
  Fe  Fe55  1  0.84927677  0.34797406  0.43054766  1
  Fe  Fe56  1  0.75729952  0.00350947  0.55720055  1
  Fe  Fe57  1  0.67628238  0.66290435  0.22420257  1
  Fe  Fe58  1  0.59076963  0.38023174  0.66497668  1
  Fe  Fe59  1  0.63661993  0.50422439  0.68670591  1
  Fe  Fe60  1  0.28973574  0.61487647  0.37158186  1
  Fe  Fe61  1  0.40968692  0.29453355  0.06623387  1
  Fe  Fe62  1  0.33644756  0.38871558  0.15793190  1
  Fe  Fe63  1  0.24841415  0.10365006  0.61193647  1
  Fe  Fe64  1  0.19690787  0.41979055  0.51694710  1
  Fe  Fe65  1  0.37777735  0.97003960  0.21127291  1
  Fe  Fe66  1  0.83440815  0.93134396  -0.00590767  1
  Fe  Fe67  1  0.32264334  0.37806050  1.02083816  1
  Fe  Fe68  1  0.63569894  0.51015732  0.82041730  1
  Fe  Fe69  1  0.20689334  0.67922457  0.27078577  1
  Fe  Fe70  1  0.51143236  -0.04371605  0.20842223  1
  Fe  Fe71  1  0.86556742  0.96913795  0.86819422  1
  Fe  Fe72  1  0.81080158  0.72943637  0.26885379  1
  Fe  Fe73  1  0.63384688  0.61920121  0.36105408  1
  Fe  Fe74  1  0.70689932  0.80093577  0.23065041  1
  Fe  Fe75  1  0.15676776  0.98527190  0.87372222  1
  Fe  Fe76  1  0.06435167  0.62901409  0.72946237  1
  Fe  Fe77  1  0.07153483  0.09213684  0.36044997  1
  Fe  Fe78  1  0.34430575  0.99312328  0.57777861  1
  Fe  Fe79  1  0.76069227  0.60965229  0.32140765  1
  Fe  Fe80  1  0.88423102  0.10895958  0.85626085  1
  Fe  Fe81  1  0.83576464  0.35521534  0.55397484  1
  Fe  Fe82  1  0.44918436  0.93067271  0.33184364  1
  Fe  Fe83  1  0.65079650  0.98257880  0.66117676  1
  Fe  Fe84  1  0.16946890  0.08891046  -0.00906184  1
  Fe  Fe85  1  0.31123688  0.40883774  0.58882259  1
  Fe  Fe86  1  0.95628522  0.63071186  0.81758335  1
  Fe  Fe87  1  0.94709879  0.64094630  0.67639276  1
  Fe  Fe88  1  0.32466170  0.64339024  0.24215451  1
  Fe  Fe89  1  0.96309466  0.07302110  0.43492793  1
  Fe  Fe90  1  0.70486239  0.88385405  0.60084966  1
  Fe  Fe91  1  0.28252644  0.06516668  0.90794841  1
  Fe  Fe92  1  0.84741243  0.06353533  -0.01509171  1
  Fe  Fe93  1  0.30488838  0.51046111  0.46946675  1
  Fe  Fe94  1  0.88876278  0.04662239  0.55416584  1
  Fe  Fe95  1  0.17751643  0.94812312  -0.00071307  1
  Fe  Fe96  1  0.69433695  0.74307773  0.36126699  1
  Fe  Fe97  1  0.65014978  0.38512041  0.78392123  1
  Fe  Fe98  1  0.43407344  0.06916648  0.28889367  1
  Fe  Fe99  1  0.21393012  0.96583882  0.58970240  1
  Fe  Fe100  1  0.18459188  0.37021241  0.64001476  1
  Fe  Fe101  1  0.46629540  0.38551993  0.14892057  1
  Bi  Bi102  1  0.48404697  0.45217463  0.77399866  1
  Bi  Bi103  1  0.09630910  0.06820894  0.53771976  1
  Bi  Bi104  1  0.30440489  0.26040584  0.68010836  1
  Bi  Bi105  1  0.80927776  0.03131709  0.71877160  1
  Bi  Bi106  1  0.29939874  0.22327161  -0.04484543  1
  Bi  Bi107  1  0.30459221  0.03002724  0.07987318  1
  Bi  Bi108  1  0.86111945  0.85252179  0.15046855  1
  Bi  Bi109  1  0.01232379  0.02413519  -0.04448657  1
  Bi  Bi110  1  0.30697621  0.82073906  0.24877539  1
  Bi  Bi111  1  0.61675312  -0.10228785  0.34083376  1
  Bi  Bi112  1  0.25988955  0.00245245  0.74515565  1
  Bi  Bi113  1  0.58265447  0.32560662  0.04295872  1
  Bi  Bi114  1  0.01194239  0.78476707  0.75319776  1
  Bi  Bi115  1  0.03608250  0.92753278  0.36190957  1
  Bi  Bi116  1  0.82515041  0.60622442  0.14598173  1
  Bi  Bi117  1  0.11452353  0.62648754  0.89705773  1
  Bi  Bi118  1  0.44665466  0.02126511  0.90999919  1
  Bi  Bi119  1  0.54546834  0.10626439  0.69345928  1
  Bi  Bi120  1  0.90157698  0.27525460  0.80791220  1
  Bi  Bi121  1  0.12022461  0.64045996  0.41324192  1
  Bi  Bi122  1  0.83472907  0.34029506  0.13234129  1
  Bi  Bi123  1  0.36344759  0.66621441  0.93660197  1
  Bi  Bi124  1  0.16328271  0.37291104  0.95415516  1
  Bi  Bi125  1  0.39283160  0.71049903  0.65013658  1
  Bi  Bi126  1  0.05732775  0.38221822  0.16409757  1
  Bi  Bi127  1  0.87012186  0.87708538  0.56745429  1
