# generated using pymatgen
data_Ba51Fe51Bi26
_symmetry_space_group_name_H-M   'P 1'
_cell_length_a   16.02446248
_cell_length_b   16.57475132
_cell_length_c   16.39409396
_cell_angle_alpha   89.48475606
_cell_angle_beta   89.26153052
_cell_angle_gamma   91.11066659
_symmetry_Int_Tables_number   1
_chemical_formula_structural   Ba51Fe51Bi26
_chemical_formula_sum   'Ba51 Fe51 Bi26'
_cell_volume   4352.92992074
_cell_formula_units_Z   1
loop_
 _symmetry_equiv_pos_site_id
 _symmetry_equiv_pos_as_xyz
  1  'x, y, z'
loop_
 _atom_site_type_symbol
 _atom_site_label
 _atom_site_symmetry_multiplicity
 _atom_site_fract_x
 _atom_site_fract_y
 _atom_site_fract_z
 _atom_site_occupancy
  Ba  Ba0  1  0.06687192  -0.02420465  0.24393252  1
  Ba  Ba1  1  0.66757052  0.33655716  0.27487636  1
  Ba  Ba2  1  0.05978848  0.47404261  0.30560102  1
  Ba  Ba3  1  0.04329792  0.54938141  -0.03149435  1
  Ba  Ba4  1  0.56224846  0.48311646  0.48449465  1
  Ba  Ba5  1  0.33281769  0.32447782  0.16675802  1
  Ba  Ba6  1  0.88206194  0.39993465  0.46916782  1
  Ba  Ba7  1  0.04144151  0.23475949  0.23331179  1
  Ba  Ba8  1  0.47524329  0.04459810  0.57467155  1
  Ba  Ba9  1  0.56621504  0.22476434  -0.00146612  1
  Ba  Ba10  1  0.25432087  0.92118917  0.41208985  1
  Ba  Ba11  1  0.37969320  0.69375522  0.75438080  1
  Ba  Ba12  1  0.52488880  0.46523697  0.73187970  1
  Ba  Ba13  1  0.78329687  0.59473123  0.15423954  1
  Ba  Ba14  1  0.81399247  0.19145036  0.59465153  1
  Ba  Ba15  1  0.82205621  0.27581614  0.08070577  1
  Ba  Ba16  1  0.28282315  0.45958286  0.44361421  1
  Ba  Ba17  1  0.57175169  -0.18086280  0.60284538  1
  Ba  Ba18  1  0.38305322  -0.08754620  0.79314486  1
  Ba  Ba19  1  0.52327742  0.55663725  0.21074527  1
  Ba  Ba20  1  0.73841018  -0.00938023  0.05116810  1
  Ba  Ba21  1  0.47016870  0.25050881  0.77485511  1
  Ba  Ba22  1  0.71998616  0.69832093  0.44748671  1
  Ba  Ba23  1  0.73214398  0.27521456  0.80958208  1
  Ba  Ba24  1  0.25943250  0.62488808  0.18869650  1
  Ba  Ba25  1  0.53054711  -0.03485916  0.17617110  1
  Ba  Ba26  1  0.24150413  0.27991963  -0.05196511  1
  Ba  Ba27  1  0.15678500  0.70437489  0.58954905  1
  Ba  Ba28  1  -0.06354837  0.41373977  0.71128786  1
  Ba  Ba29  1  0.44082482  0.78560886  0.02252890  1
  Ba  Ba30  1  0.19934331  0.22233515  0.67610163  1
  Ba  Ba31  1  0.38970732  0.70726660  0.41569719  1
  Ba  Ba32  1  -0.04299175  0.71116922  0.79662576  1
  Ba  Ba33  1  -0.01531591  0.74194342  0.37518135  1
  Ba  Ba34  1  0.76786684  0.84078163  0.72810812  1
  Ba  Ba35  1  0.76758010  0.50354273  -0.09743726  1
  Ba  Ba36  1  0.27641870  -0.04799544  0.01082862  1
  Ba  Ba37  1  0.77568788  0.58284189  0.65619319  1
  Ba  Ba38  1  -0.07461862  0.03561123  0.44145966  1
  Ba  Ba39  1  -0.01704849  0.75215193  0.08815106  1
  Ba  Ba40  1  0.85676789  0.08211032  0.86903442  1
  Ba  Ba41  1  0.29029671  0.53042094  -0.03786506  1
  Ba  Ba42  1  0.69507689  0.07761971  0.37228181  1
  Ba  Ba43  1  0.54963862  0.59478282  -0.05517970  1
  Ba  Ba44  1  0.03654142  -0.03518440  -0.00538746  1
  Ba  Ba45  1  0.76758551  0.86635796  0.26487137  1
  Ba  Ba46  1  0.00616720  -0.02497220  0.70846772  1
  Ba  Ba47  1  0.33272177  0.07210242  0.25065763  1
  Ba  Ba48  1  0.32495333  0.20520989  0.44836927  1
  Ba  Ba49  1  0.57603313  0.24767011  0.51437521  1
  Ba  Ba50  1  0.23728787  0.46447695  0.70994872  1
  Fe  Fe51  1  0.50928365  0.14069224  0.34166346  1
  Fe  Fe52  1  0.56492259  0.40220685  0.92049902  1
  Fe  Fe53  1  0.45167678  0.87084466  0.32209347  1
  Fe  Fe54  1  0.14948545  1.03556120  0.57331848  1
  Fe  Fe55  1  0.19527653  0.90401852  0.62040524  1
  Fe  Fe56  1  0.47664440  0.42297162  0.03369091  1
  Fe  Fe57  1  0.62628112  0.65617104  0.75726930  1
  Fe  Fe58  1  0.06345800  0.35318779  0.84482090  1
  Fe  Fe59  1  0.72624356  0.03482386  0.74199043  1
  Fe  Fe60  1  0.10790579  0.79853200  0.88605202  1
  Fe  Fe61  1  0.16285764  0.92241526  0.84524040  1
  Fe  Fe62  1  0.62072453  0.12219351  0.70442215  1
  Fe  Fe63  1  0.16250175  0.82723509  0.15636307  1
  Fe  Fe64  1  0.33792577  0.08657240  0.74871108  1
  Fe  Fe65  1  0.93093040  0.26683311  0.88560134  1
  Fe  Fe66  1  0.28777712  0.02471630  0.61498872  1
  Fe  Fe67  1  0.59261959  0.89267670  0.39274696  1
  Fe  Fe68  1  0.47004861  0.75888312  0.23076098  1
  Fe  Fe69  1  0.49966227  0.06596356  0.79395207  1
  Fe  Fe70  1  0.79591302  1.00285959  0.62448278  1
  Fe  Fe71  1  0.93796277  0.39278770  0.91609754  1
  Fe  Fe72  1  0.42909264  0.38847113  0.91643827  1
  Fe  Fe73  1  0.78316384  0.78947959  0.06019176  1
  Fe  Fe74  1  0.56654604  0.63215464  0.64342043  1
  Fe  Fe75  1  0.72599695  0.70344742  0.86405874  1
  Fe  Fe76  1  0.67153391  0.03216665  0.59679408  1
  Fe  Fe77  1  0.05007766  0.56547530  0.47466078  1
  Fe  Fe78  1  0.56375647  0.77911004  0.32431171  1
  Fe  Fe79  1  0.17920794  0.83279509  0.74684293  1
  Fe  Fe80  1  0.05711426  0.14791240  0.55752279  1
  Fe  Fe81  1  0.37841207  0.10222146  0.87898591  1
  Fe  Fe82  1  0.91521126  0.59095022  0.48917514  1
  Fe  Fe83  1  0.06364502  0.22195179  0.87610784  1
  Fe  Fe84  1  0.24265836  0.79398239  0.87148072  1
  Fe  Fe85  1  0.49263318  0.21628443  0.23834260  1
  Fe  Fe86  1  0.20621934  0.99576683  0.72382051  1
  Fe  Fe87  1  0.16857034  0.78191230  0.27595605  1
  Fe  Fe88  1  0.63368496  0.08526175  -0.15337322  1
  Fe  Fe89  1  0.83564383  0.67774319  -0.03156308  1
  Fe  Fe90  1  0.70327987  0.69642554  0.00365900  1
  Fe  Fe91  1  0.99193606  0.57366048  0.59768793  1
  Fe  Fe92  1  0.48862263  0.00333233  0.37966407  1
  Fe  Fe93  1  0.98915301  0.22531521  0.44664037  1
  Fe  Fe94  1  0.59677718  0.97756795  0.72395292  1
  Fe  Fe95  1  0.82504013  0.80528174  0.93047971  1
  Fe  Fe96  1  0.64419600  0.94929839  0.85730459  1
  Fe  Fe97  1  0.46698522  0.88652385  0.45442364  1
  Fe  Fe98  1  0.11333026  0.27353021  0.47074565  1
  Fe  Fe99  1  0.68439632  0.82913924  -0.05476463  1
  Fe  Fe100  1  1.03593747  0.32955641  -0.01284912  1
  Fe  Fe101  1  1.00736387  0.27460147  0.57645043  1
  Bi  Bi102  1  0.62254622  0.75357596  0.14355737  1
  Bi  Bi103  1  0.56613157  0.79434448  -0.17100909  1
  Bi  Bi104  1  0.19039586  0.09019294  0.85752074  1
  Bi  Bi105  1  0.63894020  0.15177997  0.18313278  1
  Bi  Bi106  1  -0.01850843  0.20261738  0.72938023  1
  Bi  Bi107  1  0.51524930  0.00447232  -0.04341222  1
  Bi  Bi108  1  -0.00661286  0.16926897  0.02033083  1
  Bi  Bi109  1  0.16681492  0.64967267  0.80411135  1
  Bi  Bi110  1  0.19374457  0.72897458  0.02059698  1
  Bi  Bi111  1  0.06407497  -0.10651980  0.51370150  1
  Bi  Bi112  1  0.09157454  0.42332285  0.55152220  1
  Bi  Bi113  1  -0.08474950  0.73115101  0.58462681  1
  Bi  Bi114  1  0.35408507  -0.14693030  0.58702859  1
  Bi  Bi115  1  0.14105571  0.41454722  0.10400070  1
  Bi  Bi116  1  0.32569952  0.84851182  0.20957460  1
  Bi  Bi117  1  0.17917777  0.12200833  0.11086342  1
  Bi  Bi118  1  0.13269776  0.11711852  0.40038388  1
  Bi  Bi119  1  0.37475344  0.14232789  0.04772519  1
  Bi  Bi120  1  0.71104502  0.38239903  0.62297572  1
  Bi  Bi121  1  0.17731386  0.64646349  0.38176692  1
  Bi  Bi122  1  0.40535906  0.58103844  0.58733876  1
  Bi  Bi123  1  0.87046253  0.06867998  0.21837923  1
  Bi  Bi124  1  0.74171570  0.90884178  0.49228477  1
  Bi  Bi125  1  0.39055401  0.34254354  0.59884533  1
  Bi  Bi126  1  0.65051987  0.43125024  0.07677777  1
  Bi  Bi127  1  0.46300714  0.34888458  0.33826317  1
