# generated using pymatgen
data_Ba51Fe51Bi26
_symmetry_space_group_name_H-M   'P 1'
_cell_length_a   16.55408250
_cell_length_b   16.13072395
_cell_length_c   16.51810161
_cell_angle_alpha   89.89777177
_cell_angle_beta   88.66757909
_cell_angle_gamma   92.79496283
_symmetry_Int_Tables_number   1
_chemical_formula_structural   Ba51Fe51Bi26
_chemical_formula_sum   'Ba51 Fe51 Bi26'
_cell_volume   4404.36068161
_cell_formula_units_Z   1
loop_
 _symmetry_equiv_pos_site_id
 _symmetry_equiv_pos_as_xyz
  1  'x, y, z'
loop_
 _atom_site_type_symbol
 _atom_site_label
 _atom_site_symmetry_multiplicity
 _atom_site_fract_x
 _atom_site_fract_y
 _atom_site_fract_z
 _atom_site_occupancy
  Ba  Ba0  1  0.84868277  0.47727754  0.10462594  1
  Ba  Ba1  1  0.18347125  0.60705690  0.51532595  1
  Ba  Ba2  1  0.82016097  0.08710278  0.02982452  1
  Ba  Ba3  1  0.28384013  -0.02680515  0.03106483  1
  Ba  Ba4  1  -0.05182529  -0.03459100  0.47079422  1
  Ba  Ba5  1  0.04275849  0.61456273  0.00995178  1
  Ba  Ba6  1  0.60199880  0.14101396  -0.21606422  1
  Ba  Ba7  1  0.25565171  0.46533660  0.09657676  1
  Ba  Ba8  1  0.02809523  0.18000940  0.33433791  1
  Ba  Ba9  1  0.16901750  0.34070199  0.50598745  1
  Ba  Ba10  1  0.61840855  0.83781369  0.36065469  1
  Ba  Ba11  1  0.73069440  0.60531461  0.49885957  1
  Ba  Ba12  1  0.82926190  0.27558440  -0.12247626  1
  Ba  Ba13  1  0.45451262  -0.10609407  0.72489599  1
  Ba  Ba14  1  0.04801549  0.28046612  0.07072452  1
  Ba  Ba15  1  0.02879413  0.45368873  0.69344741  1
  Ba  Ba16  1  0.82354751  0.51872349  0.82705300  1
  Ba  Ba17  1  0.59292881  0.70901329  0.11016748  1
  Ba  Ba18  1  0.51578218  0.50321017  -0.04860330  1
  Ba  Ba19  1  0.84514506  0.26834707  0.21539010  1
  Ba  Ba20  1  0.81355599  0.72341184  0.19325609  1
  Ba  Ba21  1  0.23974732  0.01508200  0.31551003  1
  Ba  Ba22  1  0.48711853  0.01963093  0.50933491  1
  Ba  Ba23  1  0.15133532  -0.08545979  0.57629645  1
  Ba  Ba24  1  0.53888635  0.24221713  -0.01385721  1
  Ba  Ba25  1  0.16154082  0.63762045  0.79697537  1
  Ba  Ba26  1  0.27771357  0.21570746  0.05161052  1
  Ba  Ba27  1  -0.03372225  0.82674070  0.81250039  1
  Ba  Ba28  1  -0.02952279  0.17817197  0.58166575  1
  Ba  Ba29  1  0.65841115  0.38225244  0.34771747  1
  Ba  Ba30  1  0.71940133  0.75147982  0.85756408  1
  Ba  Ba31  1  0.30823633  0.42200480  0.70975905  1
  Ba  Ba32  1  0.44711668  0.50334761  0.24783507  1
  Ba  Ba33  1  0.29208458  0.14220824  0.65786013  1
  Ba  Ba34  1  0.23593291  -0.08991405  0.79415174  1
  Ba  Ba35  1  0.50830115  0.00125929  0.20604012  1
  Ba  Ba36  1  0.54707659  0.55322548  0.70580352  1
  Ba  Ba37  1  0.54013043  0.28831561  0.61373504  1
  Ba  Ba38  1  0.77631294  0.33257154  0.62535034  1
  Ba  Ba39  1  0.45388061  0.60563690  0.46847244  1
  Ba  Ba40  1  0.04233336  0.01748792  -0.03767912  1
  Ba  Ba41  1  0.69617782  0.11159886  0.37180437  1
  Ba  Ba42  1  0.05922777  0.84662638  0.14887876  1
  Ba  Ba43  1  0.44469266  0.25343721  0.22485112  1
  Ba  Ba44  1  -0.03246821  0.71203896  0.54397286  1
  Ba  Ba45  1  0.32514344  0.71170888  0.00126341  1
  Ba  Ba46  1  0.16586740  0.66436918  0.26361524  1
  Ba  Ba47  1  0.33752517  0.80236346  0.45722006  1
  Ba  Ba48  1  0.72496446  -0.09257637  0.58335276  1
  Ba  Ba49  1  0.51631301  0.90912136  -0.02978773  1
  Ba  Ba50  1  0.09836364  0.24346760  0.81922655  1
  Fe  Fe51  1  -0.04066093  0.70920674  0.34049345  1
  Fe  Fe52  1  0.12305163  0.36028328  0.29673224  1
  Fe  Fe53  1  0.42054800  0.83505844  0.28730664  1
  Fe  Fe54  1  0.37474174  0.60181498  0.79287761  1
  Fe  Fe55  1  0.46517673  0.38454245  0.43019854  1
  Fe  Fe56  1  0.48183577  0.71685404  0.28300480  1
  Fe  Fe57  1  0.80038598  0.08253850  0.68835777  1
  Fe  Fe58  1  0.87470599  0.44410398  0.43737650  1
  Fe  Fe59  1  0.43476058  0.42821647  0.55415720  1
  Fe  Fe60  1  0.33447141  0.44308155  0.47904700  1
  Fe  Fe61  1  0.29044522  0.52717618  0.89152169  1
  Fe  Fe62  1  0.71621124  0.30000959  0.05919169  1
  Fe  Fe63  1  0.17706323  0.24393897  0.21798478  1
  Fe  Fe64  1  0.29267959  0.75479634  0.65506244  1
  Fe  Fe65  1  0.98789032  0.97958775  0.27218168  1
  Fe  Fe66  1  0.67935755  1.01494130  0.92959943  1
  Fe  Fe67  1  0.94171598  0.07322270  0.17692618  1
  Fe  Fe68  1  0.69659887  0.40118063  -0.02015971  1
  Fe  Fe69  1  0.40557238  0.06897377  0.86812612  1
  Fe  Fe70  1  0.88117631  0.93693156  0.17952722  1
  Fe  Fe71  1  0.81509631  0.94071872  0.75091368  1
  Fe  Fe72  1  0.79975738  0.93691657  0.89488271  1
  Fe  Fe73  1  0.18875210  0.43823339  0.90053544  1
  Fe  Fe74  1  -0.09578132  0.13639763  0.75975451  1
  Fe  Fe75  1  0.81851176  0.92589457  0.30426212  1
  Fe  Fe76  1  0.95346932  0.43992708  0.30624361  1
  Fe  Fe77  1  0.33929677  0.73214522  0.78099859  1
  Fe  Fe78  1  1.00563551  0.36517885  0.40581736  1
  Fe  Fe79  1  0.91040456  0.51411776  0.55117525  1
  Fe  Fe80  1  0.34016411  0.33397126  0.37571926  1
  Fe  Fe81  1  0.07876945  0.49492982  0.34876140  1
  Fe  Fe82  1  0.44266262  0.80733082  0.16029895  1
  Fe  Fe83  1  0.79162770  0.04783635  0.21244198  1
  Fe  Fe84  1  -0.08776792  1.00384198  0.67637253  1
  Fe  Fe85  1  0.88097736  0.05489978  0.30712583  1
  Fe  Fe86  1  0.37007138  0.69930206  0.21747773  1
  Fe  Fe87  1  -0.06298143  0.84586296  0.30283289  1
  Fe  Fe88  1  0.91288943  0.02049066  0.82370258  1
  Fe  Fe89  1  0.02759256  0.48157024  0.49108034  1
  Fe  Fe90  1  0.31576791  0.62271137  0.66644705  1
  Fe  Fe91  1  0.98009953  0.58825580  0.26818022  1
  Fe  Fe92  1  0.32303054  0.19230083  0.43822457  1
  Fe  Fe93  1  0.26489401  0.34183517  0.24955129  1
  Fe  Fe94  1  0.22491078  0.23237145  0.34636636  1
  Fe  Fe95  1  -0.05290679  0.37218858  0.53334856  1
  Fe  Fe96  1  -0.04208104  0.56819260  0.41051128  1
  Fe  Fe97  1  0.42935664  0.70056971  0.67544013  1
  Fe  Fe98  1  0.86034831  0.68131363  0.98508959  1
  Fe  Fe99  1  0.70977638  0.90353691  -0.00213390  1
  Fe  Fe100  1  0.36873562  0.29712812  0.51846136  1
  Fe  Fe101  1  0.77692027  0.06984414  0.82996867  1
  Bi  Bi102  1  0.05576039  0.47101485  0.17264522  1
  Bi  Bi103  1  0.25285025  0.48656901  0.34209528  1
  Bi  Bi104  1  0.65240528  -0.06407731  0.78757770  1
  Bi  Bi105  1  0.69861473  -0.09032139  0.16601656  1
  Bi  Bi106  1  -0.15130389  0.27362772  0.42774575  1
  Bi  Bi107  1  -0.18073498  0.79011515  0.41641443  1
  Bi  Bi108  1  0.60661839  0.40085774  0.13370951  1
  Bi  Bi109  1  0.49493397  0.71386522  0.85532335  1
  Bi  Bi110  1  0.06538357  0.03627897  0.73387583  1
  Bi  Bi111  1  0.49327679  0.21352454  0.41893578  1
  Bi  Bi112  1  0.27928632  0.84288599  0.19338357  1
  Bi  Bi113  1  0.87555609  0.85072749  0.01613901  1
  Bi  Bi114  1  0.11631249  0.08293838  0.15526878  1
  Bi  Bi115  1  0.09088313  0.82533273  0.38672344  1
  Bi  Bi116  1  0.65609752  0.16961762  0.16465909  1
  Bi  Bi117  1  0.61612112  0.62170706  0.31466623  1
  Bi  Bi118  1  0.34402734  0.36844254  0.91479029  1
  Bi  Bi119  1  0.13570676  0.80683797  0.95053008  1
  Bi  Bi120  1  1.01214425  0.42653304  0.90535591  1
  Bi  Bi121  1  0.25194643  0.11277179  0.86994283  1
  Bi  Bi122  1  0.64451311  0.36937150  0.81350066  1
  Bi  Bi123  1  0.67978967  0.12610885  0.58416617  1
  Bi  Bi124  1  0.71899739  0.58661574  0.99353166  1
  Bi  Bi125  1  0.81895996  0.53762595  0.31054629  1
  Bi  Bi126  1  0.16704641  0.11887770  0.48431599  1
  Bi  Bi127  1  0.53846008  0.78299086  0.56193727  1
