# generated using pymatgen
data_Ba51Fe51Bi26
_symmetry_space_group_name_H-M   'P 1'
_cell_length_a   16.42162999
_cell_length_b   16.48728041
_cell_length_c   16.20204602
_cell_angle_alpha   87.38336504
_cell_angle_beta   90.26161671
_cell_angle_gamma   90.05920974
_symmetry_Int_Tables_number   1
_chemical_formula_structural   Ba51Fe51Bi26
_chemical_formula_sum   'Ba51 Fe51 Bi26'
_cell_volume   4382.05094542
_cell_formula_units_Z   1
loop_
 _symmetry_equiv_pos_site_id
 _symmetry_equiv_pos_as_xyz
  1  'x, y, z'
loop_
 _atom_site_type_symbol
 _atom_site_label
 _atom_site_symmetry_multiplicity
 _atom_site_fract_x
 _atom_site_fract_y
 _atom_site_fract_z
 _atom_site_occupancy
  Ba  Ba0  1  0.02070202  0.62944918  0.64293178  1
  Ba  Ba1  1  0.31323727  0.04589024  0.27092877  1
  Ba  Ba2  1  0.31196254  -0.06350496  -0.05706701  1
  Ba  Ba3  1  0.13439886  0.30325291  0.49972509  1
  Ba  Ba4  1  0.52011396  0.28739331  0.24861742  1
  Ba  Ba5  1  0.05091483  0.51309805  0.45170268  1
  Ba  Ba6  1  0.35937708  0.80474322  0.46728781  1
  Ba  Ba7  1  0.84924188  0.76028608  -0.01851334  1
  Ba  Ba8  1  0.65660678  0.30155398  0.50054306  1
  Ba  Ba9  1  0.52730446  0.09820294  0.41871208  1
  Ba  Ba10  1  -0.01562251  0.81522184  0.42203736  1
  Ba  Ba11  1  0.29732516  0.19039714  -0.02707397  1
  Ba  Ba12  1  -0.00623118  -0.03538583  0.04242938  1
  Ba  Ba13  1  0.70621774  -0.03539314  0.04792574  1
  Ba  Ba14  1  0.81055253  0.69140184  0.73403811  1
  Ba  Ba15  1  0.40751175  0.47195454  0.73436041  1
  Ba  Ba16  1  0.42980473  -0.04037284  0.63873973  1
  Ba  Ba17  1  0.56332294  0.60158983  0.23422758  1
  Ba  Ba18  1  0.79770245  0.50329446  -0.06007724  1
  Ba  Ba19  1  0.28877392  0.54816784  0.52896616  1
  Ba  Ba20  1  0.77096953  0.03018061  0.43207845  1
  Ba  Ba21  1  -0.10712038  0.29747928  0.51244780  1
  Ba  Ba22  1  0.23217155  0.26629253  0.73984294  1
  Ba  Ba23  1  0.39913852  0.77725782  0.17411841  1
  Ba  Ba24  1  0.24375031  0.69662592  -0.04694546  1
  Ba  Ba25  1  0.78430863  0.71213044  0.21786400  1
  Ba  Ba26  1  0.52748971  0.28032638  0.81906611  1
  Ba  Ba27  1  0.01151366  0.03101737  0.52428907  1
  Ba  Ba28  1  0.13102145  -0.11246897  0.23927250  1
  Ba  Ba29  1  0.49732853  0.07393950  0.06572305  1
  Ba  Ba30  1  -0.05296900  0.54581290  0.19350943  1
  Ba  Ba31  1  0.71226878  0.24067397  0.04971294  1
  Ba  Ba32  1  0.05207524  0.36280425  -0.04087439  1
  Ba  Ba33  1  0.27675656  0.45618909  -0.05776680  1
  Ba  Ba34  1  0.81996782  0.23624370  0.27838877  1
  Ba  Ba35  1  0.56957711  0.52925229  0.47964108  1
  Ba  Ba36  1  0.19794302  0.01178445  0.73364009  1
  Ba  Ba37  1  0.73224264  0.74184901  0.48306912  1
  Ba  Ba38  1  0.41237890  0.30796196  0.53402584  1
  Ba  Ba39  1  0.73536020  -0.07731530  0.66924805  1
  Ba  Ba40  1  0.27879827  0.11280265  0.52079714  1
  Ba  Ba41  1  0.54692528  0.69024434  0.70186388  1
  Ba  Ba42  1  0.62066660  -0.10664653  0.27763485  1
  Ba  Ba43  1  0.76375003  0.29725760  0.77147050  1
  Ba  Ba44  1  0.05962470  0.17488132  0.18580015  1
  Ba  Ba45  1  -0.00414239  0.25647886  0.74316718  1
  Ba  Ba46  1  0.18841154  0.65203534  0.26113197  1
  Ba  Ba47  1  0.33059257  0.44539273  0.24463057  1
  Ba  Ba48  1  0.56286069  -0.07145244  0.84146148  1
  Ba  Ba49  1  0.71339953  0.45198622  0.15816964  1
  Ba  Ba50  1  -0.04862288  0.00229914  0.78185539  1
  Fe  Fe51  1  0.51448339  0.85323039  0.03636233  1
  Fe  Fe52  1  0.96913382  0.64097544  0.84575375  1
  Fe  Fe53  1  0.66516373  0.66789352  0.06113002  1
  Fe  Fe54  1  0.55470626  0.09935051  0.74603075  1
  Fe  Fe55  1  0.83678873  0.89558587  0.16616071  1
  Fe  Fe56  1  0.19270786  0.72502041  0.65165023  1
  Fe  Fe57  1  0.57746534  0.55832929  1.01342623  1
  Fe  Fe58  1  0.68847395  0.09115551  0.73298459  1
  Fe  Fe59  1  0.36764968  0.21290045  0.36013210  1
  Fe  Fe60  1  0.85280066  0.44917652  0.35083677  1
  Fe  Fe61  1  0.72370812  0.41587010  0.35511979  1
  Fe  Fe62  1  0.64399294  0.18832286  0.65062172  1
  Fe  Fe63  1  0.60891752  1.05877273  0.60451698  1
  Fe  Fe64  1  0.51863929  0.69235791  0.03884861  1
  Fe  Fe65  1  0.11329852  0.71047861  0.79313804  1
  Fe  Fe66  1  0.51743304  0.44490238  0.09134439  1
  Fe  Fe67  1  0.82872915  0.88357874  0.30337718  1
  Fe  Fe68  1  0.09252203  0.57281426  0.86205750  1
  Fe  Fe69  1  0.60939736  0.77456471  0.11879069  1
  Fe  Fe70  1  0.16747049  0.32126830  0.28099381  1
  Fe  Fe71  1  0.47282846  0.45745717  0.95608080  1
  Fe  Fe72  1  0.79965976  0.50336946  0.70978303  1
  Fe  Fe73  1  1.02378393  0.59774758  -0.01292355  1
  Fe  Fe74  1  0.93391324  -0.02926447  0.26127334  1
  Fe  Fe75  1  0.04164328  0.42441865  0.64640486  1
  Fe  Fe76  1  0.81217716  0.01676951  0.22313370  1
  Fe  Fe77  1  0.84570826  0.57410831  0.57140193  1
  Fe  Fe78  1  -0.05625717  0.83480573  0.21728777  1
  Fe  Fe79  1  0.06601148  0.37848198  0.17002109  1
  Fe  Fe80  1  0.62317947  0.79165568  0.98318730  1
  Fe  Fe81  1  0.75610316  0.42852853  0.60745703  1
  Fe  Fe82  1  0.12528085  0.45529370  0.25879788  1
  Fe  Fe83  1  0.08327173  0.83165005  0.69689199  1
  Fe  Fe84  1  0.60721096  0.41089596  -0.02137534  1
  Fe  Fe85  1  0.71687207  0.56311621  0.60363023  1
  Fe  Fe86  1  0.47342598  0.77607362  0.93377420  1
  Fe  Fe87  1  0.21861099  0.81391876  0.74847786  1
  Fe  Fe88  1  1.04473827  0.71996543  0.92708066  1
  Fe  Fe89  1  0.78455288  0.48683092  0.47839739  1
  Fe  Fe90  1  0.73886371  0.54558293  0.34150667  1
  Fe  Fe91  1  0.29577673  0.24308280  0.24472580  1
  Fe  Fe92  1  0.11530775  0.45367395  0.77460233  1
  Fe  Fe93  1  0.21597517  0.19944002  0.34860276  1
  Fe  Fe94  1  0.50715922  0.15445371  0.62917545  1
  Fe  Fe95  1  0.17228349  0.44301751  0.65249172  1
  Fe  Fe96  1  0.58134766  0.50971074  0.87223062  1
  Fe  Fe97  1  0.10863282  0.15493610  0.62694807  1
  Fe  Fe98  1  0.89834505  0.45232087  0.61674880  1
  Fe  Fe99  1  0.28343184  0.30989886  0.38216838  1
  Fe  Fe100  1  0.18460584  0.84949182  0.59288366  1
  Fe  Fe101  1  0.98442909  0.78055341  0.79350912  1
  Bi  Bi102  1  0.22466547  0.58138291  0.74580622  1
  Bi  Bi103  1  -0.05327158  0.47224269  -0.20935376  1
  Bi  Bi104  1  0.03127526  0.74085026  0.10370575  1
  Bi  Bi105  1  0.48530985  0.29183369  0.03475844  1
  Bi  Bi106  1  0.40409479  0.57252426  0.08584601  1
  Bi  Bi107  1  0.87988395  0.61999020  0.39957062  1
  Bi  Bi108  1  0.21276479  0.31694539  0.11298471  1
  Bi  Bi109  1  0.16230296  0.71205364  0.48071792  1
  Bi  Bi110  1  -0.00247988  0.35091220  0.32685905  1
  Bi  Bi111  1  0.66156457  0.66406588  -0.11101473  1
  Bi  Bi112  1  -0.07281779  0.84728363  0.62883855  1
  Bi  Bi113  1  0.62116421  0.46483123  0.70820760  1
  Bi  Bi114  1  0.38170365  0.81046376  0.78968645  1
  Bi  Bi115  1  0.10851480  0.87026191  0.87501018  1
  Bi  Bi116  1  0.14000892  0.52368275  0.09564200  1
  Bi  Bi117  1  0.18815756  0.93932999  0.44281432  1
  Bi  Bi118  1  0.65181333  0.11632940  0.89486014  1
  Bi  Bi119  1  0.19541125  0.03527960  0.08871970  1
  Bi  Bi120  1  0.10012767  0.13049487  0.90482988  1
  Bi  Bi121  1  0.38943407  0.10911657  0.78362027  1
  Bi  Bi122  1  0.90107205  0.35048141  0.10678500  1
  Bi  Bi123  1  0.39210711  0.62961530  0.35397016  1
  Bi  Bi124  1  0.44430738  0.61517965  0.88498892  1
  Bi  Bi125  1  0.59234692  0.91027653  0.50630614  1
  Bi  Bi126  1  0.65593553  0.10228629  0.22631463  1
  Bi  Bi127  1  0.82059421  0.12919503  0.63309867  1
