# generated using pymatgen
data_Ba51Fe51Bi26
_symmetry_space_group_name_H-M   'P 1'
_cell_length_a   16.20610714
_cell_length_b   16.77928567
_cell_length_c   16.66106766
_cell_angle_alpha   92.22413391
_cell_angle_beta   89.14161810
_cell_angle_gamma   92.47260419
_symmetry_Int_Tables_number   1
_chemical_formula_structural   Ba51Fe51Bi26
_chemical_formula_sum   'Ba51 Fe51 Bi26'
_cell_volume   4522.56263919
_cell_formula_units_Z   1
loop_
 _symmetry_equiv_pos_site_id
 _symmetry_equiv_pos_as_xyz
  1  'x, y, z'
loop_
 _atom_site_type_symbol
 _atom_site_label
 _atom_site_symmetry_multiplicity
 _atom_site_fract_x
 _atom_site_fract_y
 _atom_site_fract_z
 _atom_site_occupancy
  Ba  Ba0  1  0.63348291  0.84990790  0.13582972  1
  Ba  Ba1  1  0.23619445  0.29408759  0.57288233  1
  Ba  Ba2  1  0.04041868  -0.04617188  0.14419752  1
  Ba  Ba3  1  -0.06316083  0.02507387  -0.04907494  1
  Ba  Ba4  1  0.76070686  0.33083855  -0.10523871  1
  Ba  Ba5  1  0.03512450  0.53781570  0.01759782  1
  Ba  Ba6  1  0.54972177  0.26903178  0.04079717  1
  Ba  Ba7  1  0.52745770  0.58684976  0.70189494  1
  Ba  Ba8  1  0.49855581  0.22538115  0.47601658  1
  Ba  Ba9  1  -0.04135432  0.57516842  0.31091019  1
  Ba  Ba10  1  0.67611591  0.07142997  0.03080116  1
  Ba  Ba11  1  0.20671680  0.79082423  0.05542515  1
  Ba  Ba12  1  0.72867480  0.75283169  -0.07233615  1
  Ba  Ba13  1  0.25559556  0.84046220  0.81772604  1
  Ba  Ba14  1  0.81844969  0.54865349  0.72994718  1
  Ba  Ba15  1  0.32597675  0.20064470  0.22432994  1
  Ba  Ba16  1  0.78410005  0.52789679  0.02694106  1
  Ba  Ba17  1  0.52624965  0.68905126  0.26770540  1
  Ba  Ba18  1  0.57477954  0.40520534  0.26806556  1
  Ba  Ba19  1  -0.00867330  0.27448417  0.69979020  1
  Ba  Ba20  1  0.51722096  0.55509509  0.07418838  1
  Ba  Ba21  1  0.44485192  0.24809876  0.75993028  1
  Ba  Ba22  1  0.71896155  -0.00103350  0.75397754  1
  Ba  Ba23  1  0.10394445  0.24676488  0.35797149  1
  Ba  Ba24  1  0.48272217  0.73067405  0.50374840  1
  Ba  Ba25  1  0.16903541  -0.05356518  0.59432505  1
  Ba  Ba26  1  0.69025478  0.76404735  0.63844219  1
  Ba  Ba27  1  0.77955832  0.21026327  0.25678630  1
  Ba  Ba28  1  0.41116119  -0.06261433  0.57858116  1
  Ba  Ba29  1  -0.05357335  0.73774045  0.11144375  1
  Ba  Ba30  1  0.75508125  0.41055178  0.48201733  1
  Ba  Ba31  1  0.27749861  0.52628553  0.04014486  1
  Ba  Ba32  1  0.45803134  0.00074729  0.81501898  1
  Ba  Ba33  1  0.33169257  0.46848519  0.79191069  1
  Ba  Ba34  1  0.70821909  -0.00021092  0.49798768  1
  Ba  Ba35  1  -0.03903910  0.05485117  0.66383756  1
  Ba  Ba36  1  0.05747410  0.36266254  0.17499322  1
  Ba  Ba37  1  -0.03923914  0.80602923  0.74723709  1
  Ba  Ba38  1  0.00729603  0.74956010  0.48723314  1
  Ba  Ba39  1  0.13140258  0.61626357  0.81805539  1
  Ba  Ba40  1  0.52899368  -0.06434455  0.36378498  1
  Ba  Ba41  1  0.31023771  0.71147911  0.23946892  1
  Ba  Ba42  1  0.46267755  0.75391651  -0.06686489  1
  Ba  Ba43  1  0.01514766  0.26468818  -0.05056524  1
  Ba  Ba44  1  -0.00270996  0.44933074  0.53985379  1
  Ba  Ba45  1  0.71238716  0.24471515  0.66787206  1
  Ba  Ba46  1  0.24654092  0.57745379  0.53908994  1
  Ba  Ba47  1  0.27154666  0.27459063  -0.02420334  1
  Ba  Ba48  1  0.24297827  -0.06660465  0.29934074  1
  Ba  Ba49  1  0.20101372  0.03972646  -0.00630681  1
  Ba  Ba50  1  -0.06847267  0.04567410  0.37684665  1
  Fe  Fe51  1  0.64289725  0.55946849  0.88284686  1
  Fe  Fe52  1  0.35499562  0.99966179  0.12836484  1
  Fe  Fe53  1  0.67111100  0.67647429  0.42061025  1
  Fe  Fe54  1  0.44554607  0.42621879  0.42879001  1
  Fe  Fe55  1  0.56724542  0.54996170  0.40786989  1
  Fe  Fe56  1  0.81832370  0.71407735  0.35473193  1
  Fe  Fe57  1  0.69358501  0.81526048  0.34665428  1
  Fe  Fe58  1  0.12748424  0.62624610  0.17052801  1
  Fe  Fe59  1  0.47589047  0.08775387  0.13365160  1
  Fe  Fe60  1  0.11643800  0.42782405  0.74855463  1
  Fe  Fe61  1  0.39235657  0.85626869  0.09115930  1
  Fe  Fe62  1  0.94956128  0.82996805  0.94821661  1
  Fe  Fe63  1  0.24971205  0.09642595  0.79425257  1
  Fe  Fe64  1  0.48503957  0.41074353  0.89995215  1
  Fe  Fe65  1  0.89805596  0.24769568  0.46264376  1
  Fe  Fe66  1  0.85544022  0.16492726  0.54657248  1
  Fe  Fe67  1  0.13454173  0.42222406  0.87366864  1
  Fe  Fe68  1  0.10788188  0.74756657  0.22599647  1
  Fe  Fe69  1  0.16743303  0.74454648  0.63686854  1
  Fe  Fe70  1  0.14693547  0.62939137  0.30789781  1
  Fe  Fe71  1  0.72947824  0.69161661  0.12382263  1
  Fe  Fe72  1  0.07601673  0.88640546  0.94021755  1
  Fe  Fe73  1  0.24458452  0.39013060  0.24873823  1
  Fe  Fe74  1  0.76567436  0.78646725  0.46555033  1
  Fe  Fe75  1  0.67592224  0.58582843  0.17787686  1
  Fe  Fe76  1  0.56576223  0.44320727  0.51041733  1
  Fe  Fe77  1  0.79553270  0.78833093  0.22953864  1
  Fe  Fe78  1  0.37436180  0.93971446  0.99854567  1
  Fe  Fe79  1  0.81234840  0.63929374  0.21294768  1
  Fe  Fe80  1  0.49767991  0.97000888  1.06117415  1
  Fe  Fe81  1  0.47974562  0.54240417  0.51897255  1
  Fe  Fe82  1  0.57370688  0.02615503  0.19697008  1
  Fe  Fe83  1  0.13613116  0.18364367  0.11731870  1
  Fe  Fe84  1  0.15815255  0.13535188  0.70768245  1
  Fe  Fe85  1  0.18533964  0.51873307  0.21743290  1
  Fe  Fe86  1  0.82972156  0.86787460  0.36276454  1
  Fe  Fe87  1  0.38645890  0.38323668  0.30083709  1
  Fe  Fe88  1  0.50838236  0.53908647  0.88606887  1
  Fe  Fe89  1  0.45560848  -0.07125979  0.19090211  1
  Fe  Fe90  1  0.32861671  0.49961044  0.24315257  1
  Fe  Fe91  1  0.29715737  0.76619428  0.63293724  1
  Fe  Fe92  1  0.63501239  0.57939259  0.52329713  1
  Fe  Fe93  1  0.29502703  0.41883032  0.38723279  1
  Fe  Fe94  1  0.14582366  0.75686507  0.34799275  1
  Fe  Fe95  1  0.05771095  0.75577589  0.93289994  1
  Fe  Fe96  1  0.60886870  0.44733190  0.94196635  1
  Fe  Fe97  1  0.70016439  0.68983025  0.27567086  1
  Fe  Fe98  1  0.43430025  0.05010875  0.25454066  1
  Fe  Fe99  1  0.11719914  0.14634621  0.83218990  1
  Fe  Fe100  1  0.13682647  0.11192465  0.21677673  1
  Fe  Fe101  1  0.86027333  -0.09207445  0.23593940  1
  Bi  Bi102  1  0.39316166  0.57073763  0.37839351  1
  Bi  Bi103  1  0.54933841  0.18543497  0.25276776  1
  Bi  Bi104  1  0.72509930  0.20220831  0.45706589  1
  Bi  Bi105  1  0.26300382  0.79193875  0.47033329  1
  Bi  Bi106  1  0.40600202  0.10778512  -0.00670754  1
  Bi  Bi107  1  0.73080711  0.54126065  0.32299695  1
  Bi  Bi108  1  0.10245125  -0.01669763  0.80007456  1
  Bi  Bi109  1  -0.00746776  0.83748108  0.30646703  1
  Bi  Bi110  1  0.72529858  -0.00908725  0.27665250  1
  Bi  Bi111  1  0.19793401  0.29016061  0.78399381  1
  Bi  Bi112  1  0.61601821  0.42173328  0.77553946  1
  Bi  Bi113  1  0.80994731  0.62636905  0.51365598  1
  Bi  Bi114  1  0.13583321  0.46682141  0.37102282  1
  Bi  Bi115  1  0.96429772  0.43534419  0.83796670  1
  Bi  Bi116  1  0.45045951  0.78585244  0.71787241  1
  Bi  Bi117  1  0.91329220  0.66284144  0.90094858  1
  Bi  Bi118  1  0.86700426  0.88965544  0.56262541  1
  Bi  Bi119  1  0.85092301  0.15679866  0.82549361  1
  Bi  Bi120  1  0.56065909  0.08655608  0.63901967  1
  Bi  Bi121  1  1.03898392  0.62986966  0.64307769  1
  Bi  Bi122  1  0.61899045  0.16117071  0.85397604  1
  Bi  Bi123  1  0.97652177  0.15412203  0.17378249  1
  Bi  Bi124  1  0.41772948  0.40776294  0.59993606  1
  Bi  Bi125  1  0.92216868  0.36039045  0.34852335  1
  Bi  Bi126  1  0.38950215  0.38225826  0.13279207  1
  Bi  Bi127  1  0.31594898  0.11137342  0.63916921  1
