# generated using pymatgen
data_Ba51Fe51Bi26
_symmetry_space_group_name_H-M   'P 1'
_cell_length_a   16.36253263
_cell_length_b   16.29965679
_cell_length_c   16.36365608
_cell_angle_alpha   90.26457506
_cell_angle_beta   88.59489502
_cell_angle_gamma   87.65507538
_symmetry_Int_Tables_number   1
_chemical_formula_structural   Ba51Fe51Bi26
_chemical_formula_sum   'Ba51 Fe51 Bi26'
_cell_volume   4359.21232407
_cell_formula_units_Z   1
loop_
 _symmetry_equiv_pos_site_id
 _symmetry_equiv_pos_as_xyz
  1  'x, y, z'
loop_
 _atom_site_type_symbol
 _atom_site_label
 _atom_site_symmetry_multiplicity
 _atom_site_fract_x
 _atom_site_fract_y
 _atom_site_fract_z
 _atom_site_occupancy
  Ba  Ba0  1  -0.06108853  -0.03609982  0.72906852  1
  Ba  Ba1  1  0.19308028  0.44952164  0.03163473  1
  Ba  Ba2  1  0.52011548  0.28497489  0.46447403  1
  Ba  Ba3  1  -0.00808317  0.56961876  -0.05749468  1
  Ba  Ba4  1  0.17929359  0.81681559  0.01231904  1
  Ba  Ba5  1  -0.04079132  0.78021911  0.12477411  1
  Ba  Ba6  1  0.46943324  0.31186474  0.71963197  1
  Ba  Ba7  1  0.25034670  0.62972472  0.52753081  1
  Ba  Ba8  1  -0.13577776  0.77561285  0.84926295  1
  Ba  Ba9  1  0.84227918  0.22245495  -0.02111526  1
  Ba  Ba10  1  0.24149266  0.54585641  0.28089107  1
  Ba  Ba11  1  0.25445805  0.21892642  0.71079891  1
  Ba  Ba12  1  0.74535161  0.20075087  0.58352860  1
  Ba  Ba13  1  0.30285032  0.95019090  0.63849101  1
  Ba  Ba14  1  0.64419818  -0.02612684  0.70713854  1
  Ba  Ba15  1  -0.02782317  0.02223877  0.49047282  1
  Ba  Ba16  1  0.51054363  0.60509972  0.13372133  1
  Ba  Ba17  1  0.62029288  0.30931915  0.18917802  1
  Ba  Ba18  1  0.82436246  0.46343378  0.26298344  1
  Ba  Ba19  1  -0.00618507  0.44532688  0.71482905  1
  Ba  Ba20  1  0.74767100  0.61114473  0.72539358  1
  Ba  Ba21  1  0.10686369  0.77433722  0.38689683  1
  Ba  Ba22  1  0.47607859  -0.02647127  0.44262041  1
  Ba  Ba23  1  0.53235580  0.52691659  0.38623387  1
  Ba  Ba24  1  0.56523634  -0.05083377  0.19265514  1
  Ba  Ba25  1  0.68358350  -0.04580037  -0.05415152  1
  Ba  Ba26  1  0.43398996  0.72088659  -0.09400653  1
  Ba  Ba27  1  0.01659993  0.01911490  0.23578156  1
  Ba  Ba28  1  0.10487232  0.25717734  0.53320516  1
  Ba  Ba29  1  0.38724077  0.34426057  0.21473170  1
  Ba  Ba30  1  0.31703756  0.08164007  0.23190399  1
  Ba  Ba31  1  0.08454922  0.22715918  0.02607425  1
  Ba  Ba32  1  -0.05956342  0.65043783  0.33050101  1
  Ba  Ba33  1  0.04991093  0.49276607  0.48309534  1
  Ba  Ba34  1  -0.03433136  -0.00324638  -0.01792869  1
  Ba  Ba35  1  0.83869160  0.79223570  0.52790336  1
  Ba  Ba36  1  0.72495685  0.36440036  0.79565480  1
  Ba  Ba37  1  0.51141697  0.55186611  0.73900553  1
  Ba  Ba38  1  0.14807741  0.74928870  0.76251342  1
  Ba  Ba39  1  0.73745984  0.05006310  0.32534747  1
  Ba  Ba40  1  0.33266429  0.79362198  0.22939704  1
  Ba  Ba41  1  0.60465107  0.20564122  -0.05868625  1
  Ba  Ba42  1  0.08755385  0.34637152  0.26875153  1
  Ba  Ba43  1  0.87628757  0.21933149  0.20489616  1
  Ba  Ba44  1  0.72719739  0.75570868  0.23149967  1
  Ba  Ba45  1  0.26595599  0.50188960  0.76208880  1
  Ba  Ba46  1  0.76730561  0.45520804  0.02957312  1
  Ba  Ba47  1  -0.02726333  0.21535729  0.76974844  1
  Ba  Ba48  1  0.40707679  -0.01721727  -0.01701249  1
  Ba  Ba49  1  0.31096149  0.21538810  -0.06009628  1
  Ba  Ba50  1  0.81517113  0.44814393  0.51464988  1
  Fe  Fe51  1  0.39371821  0.39882514  0.91056470  1
  Fe  Fe52  1  0.76524552  0.77199722  0.02417304  1
  Fe  Fe53  1  0.22796946  0.04510536  0.85307888  1
  Fe  Fe54  1  1.01591654  0.18438898  0.37721669  1
  Fe  Fe55  1  0.16910696  1.06510119  0.53322745  1
  Fe  Fe56  1  0.14013494  0.69489631  0.19436356  1
  Fe  Fe57  1  0.91889608  0.24443609  0.49318008  1
  Fe  Fe58  1  0.67697277  0.68858428  0.55488546  1
  Fe  Fe59  1  0.56296284  0.70683181  0.47029008  1
  Fe  Fe60  1  0.49172008  0.83050521  0.66933522  1
  Fe  Fe61  1  0.26912532  0.13889098  0.47792243  1
  Fe  Fe62  1  0.07201355  0.61279473  0.65283789  1
  Fe  Fe63  1  0.44400282  0.78565351  0.54580550  1
  Fe  Fe64  1  0.93055757  0.31011014  0.37939395  1
  Fe  Fe65  1  0.67654332  0.71897128  0.92620610  1
  Fe  Fe66  1  0.15845329  0.94869176  0.46183195  1
  Fe  Fe67  1  0.88199845  0.16772889  0.39175069  1
  Fe  Fe68  1  0.78578749  0.62857427  0.94078772  1
  Fe  Fe69  1  0.27421355  0.00936149  0.42099549  1
  Fe  Fe70  1  0.12346221  0.63150119  1.08047089  1
  Fe  Fe71  1  0.54828354  0.13644404  0.64983530  1
  Fe  Fe72  1  0.38955449  0.47079081  1.04877237  1
  Fe  Fe73  1  0.14912240  0.09208222  0.39017307  1
  Fe  Fe74  1  0.60705644  0.57897525  0.55289618  1
  Fe  Fe75  1  0.55519399  0.70995960  0.62994374  1
  Fe  Fe76  1  0.95967190  0.63344067  0.73287156  1
  Fe  Fe77  1  0.46197577  0.63254779  0.55033107  1
  Fe  Fe78  1  0.53415221  0.39422510  0.90055921  1
  Fe  Fe79  1  0.13023090  0.95668670  0.83358047  1
  Fe  Fe80  1  0.68442836  0.65118162  0.05380243  1
  Fe  Fe81  1  0.82195116  0.65106209  0.06742921  1
  Fe  Fe82  1  0.18743162  0.94955133  0.31571808  1
  Fe  Fe83  1  0.53985721  0.43299644  0.03018925  1
  Fe  Fe84  1  0.73716116  0.10269633  0.10292406  1
  Fe  Fe85  1  0.05897461  0.57468204  0.17904039  1
  Fe  Fe86  1  0.62265143  0.16974619  0.74542540  1
  Fe  Fe87  1  0.02804735  0.68823983  0.54865296  1
  Fe  Fe88  1  0.45093653  0.51744903  0.93690738  1
  Fe  Fe89  1  0.96910307  0.37027896  0.92527652  1
  Fe  Fe90  1  0.19786532  0.94467505  0.17099713  1
  Fe  Fe91  1  0.61558780  0.12454431  0.14439639  1
  Fe  Fe92  1  0.41899429  0.70577018  0.42974561  1
  Fe  Fe93  1  0.20992191  0.39231391  0.42990807  1
  Fe  Fe94  1  0.13648384  -0.15670121  0.21533073  1
  Fe  Fe95  1  0.33952275  0.40104852  0.42882660  1
  Fe  Fe96  1  0.24696949  0.40680138  0.55991713  1
  Fe  Fe97  1  0.30675394  0.28606193  0.51090961  1
  Fe  Fe98  1  0.92790349  0.61307377  0.60122812  1
  Fe  Fe99  1  0.44837976  0.33671146  0.01930405  1
  Fe  Fe100  1  0.10353319  0.09295887  0.87138804  1
  Fe  Fe101  1  0.97328033  0.74544905  0.66567640  1
  Bi  Bi102  1  0.80365879  -0.05268466  0.12757874  1
  Bi  Bi103  1  0.75296286  0.28501787  0.37713697  1
  Bi  Bi104  1  0.40163389  0.46735626  0.56986978  1
  Bi  Bi105  1  0.11557775  0.06783395  0.69701597  1
  Bi  Bi106  1  0.36645701  0.71156705  0.68731824  1
  Bi  Bi107  1  0.61921220  0.84924559  0.54026742  1
  Bi  Bi108  1  0.52481013  0.75549601  0.30855801  1
  Bi  Bi109  1  0.47582482  0.10363889  0.80557581  1
  Bi  Bi110  1  0.30296899  -0.15978270  0.44146239  1
  Bi  Bi111  1  0.61849565  0.55249771  -0.08018792  1
  Bi  Bi112  1  0.18598896  0.03898942  0.02823362  1
  Bi  Bi113  1  0.25983510  0.24975796  0.35444472  1
  Bi  Bi114  1  0.07738054  0.84962752  0.58386261  1
  Bi  Bi115  1  0.57929669  0.79467710  0.04907737  1
  Bi  Bi116  1  0.40315187  0.14609956  0.57066464  1
  Bi  Bi117  1  0.52867989  0.14117070  0.29823488  1
  Bi  Bi118  1  0.12495585  0.35255840  0.85224739  1
  Bi  Bi119  1  0.45731738  0.17401497  0.09041977  1
  Bi  Bi120  1  0.96827478  0.40403910  0.09351422  1
  Bi  Bi121  1  0.73115562  0.61798069  0.41043214  1
  Bi  Bi122  1  0.78049996  0.11949164  0.80330684  1
  Bi  Bi123  1  0.63155123  0.41496843  0.60760122  1
  Bi  Bi124  1  0.89684841  0.86867326  0.33359135  1
  Bi  Bi125  1  0.28974849  0.88373155  0.84167290  1
  Bi  Bi126  1  0.29502300  0.63062352  0.08389745  1
  Bi  Bi127  1  0.61030030  0.77820571  0.78356982  1
