# generated using pymatgen
data_Ba51Fe51Bi26
_symmetry_space_group_name_H-M   'P 1'
_cell_length_a   16.22550530
_cell_length_b   16.21824995
_cell_length_c   16.77712560
_cell_angle_alpha   89.18458512
_cell_angle_beta   90.84438899
_cell_angle_gamma   91.75391779
_symmetry_Int_Tables_number   1
_chemical_formula_structural   Ba51Fe51Bi26
_chemical_formula_sum   'Ba51 Fe51 Bi26'
_cell_volume   4411.92184889
_cell_formula_units_Z   1
loop_
 _symmetry_equiv_pos_site_id
 _symmetry_equiv_pos_as_xyz
  1  'x, y, z'
loop_
 _atom_site_type_symbol
 _atom_site_label
 _atom_site_symmetry_multiplicity
 _atom_site_fract_x
 _atom_site_fract_y
 _atom_site_fract_z
 _atom_site_occupancy
  Ba  Ba0  1  0.70796500  0.03166882  0.02439340  1
  Ba  Ba1  1  0.74823004  0.27984792  -0.02451916  1
  Ba  Ba2  1  0.43233420  0.68897209  0.03240566  1
  Ba  Ba3  1  0.05591027  0.00435617  0.73059506  1
  Ba  Ba4  1  0.48068277  0.46926754  0.49094132  1
  Ba  Ba5  1  0.73441844  0.21276112  0.74155843  1
  Ba  Ba6  1  0.24209865  0.47103352  0.30778726  1
  Ba  Ba7  1  -0.02291795  0.49802318  0.45251035  1
  Ba  Ba8  1  0.75851687  0.46263655  0.78734078  1
  Ba  Ba9  1  0.74579929  0.21989252  0.50226325  1
  Ba  Ba10  1  -0.05486003  -0.00945132  0.49373247  1
  Ba  Ba11  1  0.41773679  -0.05441553  0.24186858  1
  Ba  Ba12  1  0.44672323  0.70242231  0.47085641  1
  Ba  Ba13  1  0.53619007  0.84809730  0.69501664  1
  Ba  Ba14  1  0.56536858  0.47921266  -0.04229005  1
  Ba  Ba15  1  0.76514338  0.70677748  0.68565924  1
  Ba  Ba16  1  0.04095562  0.23514625  0.24724400  1
  Ba  Ba17  1  0.42761792  0.22057166  0.05503592  1
  Ba  Ba18  1  0.01538336  0.85179510  -0.07355749  1
  Ba  Ba19  1  0.05555178  0.57954666  -0.02468747  1
  Ba  Ba20  1  0.48050593  0.22205999  0.50782940  1
  Ba  Ba21  1  0.32719310  0.01974284  0.69805853  1
  Ba  Ba22  1  -0.01037907  0.26775239  0.78298878  1
  Ba  Ba23  1  0.73584490  -0.00976947  0.64017693  1
  Ba  Ba24  1  -0.01404303  0.33795733  0.01669310  1
  Ba  Ba25  1  0.73779155  0.48649511  0.51542429  1
  Ba  Ba26  1  0.72144286  0.78683327  -0.05451348  1
  Ba  Ba27  1  0.22574796  0.25445099  0.76539299  1
  Ba  Ba28  1  0.50570458  0.24134318  0.81473037  1
  Ba  Ba29  1  0.81671757  0.00461025  0.24953496  1
  Ba  Ba30  1  0.32685379  -0.09061172  -0.04716861  1
  Ba  Ba31  1  0.53224178  0.49994744  0.23834763  1
  Ba  Ba32  1  0.18553062  -0.02203086  0.46160665  1
  Ba  Ba33  1  0.75553542  0.80102111  0.44833256  1
  Ba  Ba34  1  0.77344987  0.74725788  0.21087130  1
  Ba  Ba35  1  0.53973598  0.75532059  0.23735314  1
  Ba  Ba36  1  0.18492579  0.75974294  0.07960251  1
  Ba  Ba37  1  0.72469730  0.22270599  0.24465237  1
  Ba  Ba38  1  0.21463997  0.06580690  0.20273395  1
  Ba  Ba39  1  0.24141592  0.38116202  0.56606533  1
  Ba  Ba40  1  0.48495320  0.53012628  0.72167891  1
  Ba  Ba41  1  -0.00065763  0.86510164  0.15799253  1
  Ba  Ba42  1  0.51206431  -0.02022880  0.46855221  1
  Ba  Ba43  1  0.05302476  0.75527895  0.72654239  1
  Ba  Ba44  1  0.79662488  0.48440574  0.25370248  1
  Ba  Ba45  1  -0.00772455  0.52945376  0.69200196  1
  Ba  Ba46  1  0.24667137  0.44686558  0.06752817  1
  Ba  Ba47  1  0.18347286  0.70552173  0.45960700  1
  Ba  Ba48  1  0.47640052  0.23419187  0.27390866  1
  Ba  Ba49  1  0.31476801  0.74988423  0.74310297  1
  Ba  Ba50  1  0.23992511  0.52069613  0.80524824  1
  Fe  Fe51  1  0.36782708  0.63078586  0.24770233  1
  Fe  Fe52  1  0.10677352  0.18056807  0.46455299  1
  Fe  Fe53  1  0.37878171  0.22480790  0.65859397  1
  Fe  Fe54  1  0.74798668  0.47214523  1.06473468  1
  Fe  Fe55  1  0.01901734  1.09051702  0.90374870  1
  Fe  Fe56  1  0.85826100  0.48785076  0.96423625  1
  Fe  Fe57  1  0.66698086  0.93949669  0.81930190  1
  Fe  Fe58  1  0.89140842  0.53693906  0.09324404  1
  Fe  Fe59  1  0.49209688  1.00263862  0.81275488  1
  Fe  Fe60  1  0.63047317  0.91818299  0.31728592  1
  Fe  Fe61  1  0.91723151  0.79394936  0.59161545  1
  Fe  Fe62  1  0.61669307  0.64244064  0.55122711  1
  Fe  Fe63  1  0.98071011  0.62713350  0.18358404  1
  Fe  Fe64  1  0.11828889  0.21423632  0.93049704  1
  Fe  Fe65  1  0.04108264  0.30172519  0.57291132  1
  Fe  Fe66  1  0.92991996  0.85757487  0.34138489  1
  Fe  Fe67  1  1.07910070  0.58916244  0.29685480  1
  Fe  Fe68  1  0.17756832  0.74810918  0.88248127  1
  Fe  Fe69  1  0.57191759  0.05799643  0.16887991  1
  Fe  Fe70  1  0.94953716  1.03022326  0.02905509  1
  Fe  Fe71  1  0.05929934  0.15167407  0.04127812  1
  Fe  Fe72  1  0.87940815  0.13163650  0.93294155  1
  Fe  Fe73  1  0.76900721  0.04333302  0.84552002  1
  Fe  Fe74  1  0.89011272  0.99226876  0.90669547  1
  Fe  Fe75  1  0.78262372  0.59116274  0.99731696  1
  Fe  Fe76  1  0.63504500  0.94011720  0.18972441  1
  Fe  Fe77  1  0.61482940  0.04982846  0.29260241  1
  Fe  Fe78  1  0.10288121  1.01871799  0.01370057  1
  Fe  Fe79  1  0.07941735  0.72431034  0.26314033  1
  Fe  Fe80  1  0.88418056  0.67560338  0.52944872  1
  Fe  Fe81  1  0.42352052  0.34578928  0.65955309  1
  Fe  Fe82  1  0.17141492  0.09420594  0.89489646  1
  Fe  Fe83  1  0.18062254  0.24414411  0.06573966  1
  Fe  Fe84  1  0.21953222  0.11788720  0.01763259  1
  Fe  Fe85  1  0.33809330  0.74140023  0.31926792  1
  Fe  Fe86  1  0.26448899  0.67116546  0.92751859  1
  Fe  Fe87  1  -0.01994734  0.79052571  0.46645602  1
  Fe  Fe88  1  0.12456949  0.60271965  0.17275214  1
  Fe  Fe89  1  0.01014882  0.68105848  0.55822922  1
  Fe  Fe90  1  0.07061514  0.16706816  0.59511996  1
  Fe  Fe91  1  0.96729813  0.22413615  0.48777656  1
  Fe  Fe92  1  0.22309327  0.21271000  0.38416825  1
  Fe  Fe93  1  0.89650705  0.08212944  0.80031424  1
  Fe  Fe94  1  0.22062989  0.66792328  0.25885686  1
  Fe  Fe95  1  0.05870539  0.83998323  0.35224568  1
  Fe  Fe96  1  0.56058468  0.92086065  0.89863885  1
  Fe  Fe97  1  0.61702291  0.06518894  0.83805850  1
  Fe  Fe98  1  1.02205441  0.05841694  0.14164606  1
  Fe  Fe99  1  0.25804166  0.24422210  -0.04917285  1
  Fe  Fe100  1  0.33883769  0.75595956  0.19331355  1
  Fe  Fe101  1  0.50673284  0.04469765  0.94206131  1
  Bi  Bi102  1  -0.09266385  0.13362526  0.63677960  1
  Bi  Bi103  1  0.54357275  0.08141255  0.67236581  1
  Bi  Bi104  1  0.02582597  0.01144507  0.30560123  1
  Bi  Bi105  1  0.90435520  0.70569984  0.05306084  1
  Bi  Bi106  1  0.26563810  0.27883709  0.21051846  1
  Bi  Bi107  1  0.52637352  -0.09584598  0.06006050  1
  Bi  Bi108  1  -0.07029966  0.68265160  0.34386844  1
  Bi  Bi109  1  0.03186367  0.46029765  0.18446726  1
  Bi  Bi110  1  -0.11916502  0.16338624  0.10563680  1
  Bi  Bi111  1  0.84771683  -0.10776646  0.78397802  1
  Bi  Bi112  1  0.24236122  0.16476594  0.56762801  1
  Bi  Bi113  1  0.21227329  0.84981897  0.27698602  1
  Bi  Bi114  1  0.34736312  0.10855347  -0.10940114  1
  Bi  Bi115  1  0.36711442  0.37960863  0.90485432  1
  Bi  Bi116  1  0.88122710  0.31464393  0.37052586  1
  Bi  Bi117  1  0.88275479  0.36186445  0.61903022  1
  Bi  Bi118  1  0.88371808  0.63170603  0.84994814  1
  Bi  Bi119  1  0.34817325  0.09690406  0.37806015  1
  Bi  Bi120  1  0.61909505  0.35344543  0.11673090  1
  Bi  Bi121  1  0.10393062  0.33861924  0.41641718  1
  Bi  Bi122  1  0.63364320  0.62857563  0.38898542  1
  Bi  Bi123  1  0.64300760  0.62327698  0.09092819  1
  Bi  Bi124  1  0.30972478  0.58545704  0.60555815  1
  Bi  Bi125  1  0.59819041  0.36495289  0.65076581  1
  Bi  Bi126  1  0.62259675  0.35451025  0.38065148  1
  Bi  Bi127  1  0.34665709  0.86096889  0.56117377  1
