# generated using pymatgen
data_Ba51Fe51Bi26
_symmetry_space_group_name_H-M   'P 1'
_cell_length_a   16.05584778
_cell_length_b   16.28451204
_cell_length_c   16.63655242
_cell_angle_alpha   89.90225703
_cell_angle_beta   89.13583317
_cell_angle_gamma   90.97754161
_symmetry_Int_Tables_number   1
_chemical_formula_structural   Ba51Fe51Bi26
_chemical_formula_sum   'Ba51 Fe51 Bi26'
_cell_volume   4348.68425162
_cell_formula_units_Z   1
loop_
 _symmetry_equiv_pos_site_id
 _symmetry_equiv_pos_as_xyz
  1  'x, y, z'
loop_
 _atom_site_type_symbol
 _atom_site_label
 _atom_site_symmetry_multiplicity
 _atom_site_fract_x
 _atom_site_fract_y
 _atom_site_fract_z
 _atom_site_occupancy
  Ba  Ba0  1  0.49065029  0.03640399  0.33360170  1
  Ba  Ba1  1  0.75370498  0.14911633  0.66423820  1
  Ba  Ba2  1  -0.13565422  0.02519424  -0.05007600  1
  Ba  Ba3  1  0.58656990  0.03939486  0.05433973  1
  Ba  Ba4  1  0.84540911  0.32023518  0.08631205  1
  Ba  Ba5  1  0.14736346  0.11047887  -0.03427285  1
  Ba  Ba6  1  0.57775957  0.66709876  0.38979133  1
  Ba  Ba7  1  0.58231174  -0.12462128  0.55524673  1
  Ba  Ba8  1  0.00975122  0.28472591  0.29218391  1
  Ba  Ba9  1  0.84845080  0.53966619  0.17948896  1
  Ba  Ba10  1  0.46554304  0.78046624  0.21994176  1
  Ba  Ba11  1  0.27692387  -0.04837521  0.80880569  1
  Ba  Ba12  1  -0.10164367  0.79861192  -0.11976672  1
  Ba  Ba13  1  0.58273126  0.74424983  0.01579617  1
  Ba  Ba14  1  0.78895588  0.33379715  0.39970258  1
  Ba  Ba15  1  0.55401995  0.41504784  0.75726381  1
  Ba  Ba16  1  0.34762403  0.28216440  0.31800318  1
  Ba  Ba17  1  0.18930184  0.57592514  -0.04542676  1
  Ba  Ba18  1  0.35006934  -0.13035971  0.03344060  1
  Ba  Ba19  1  0.00371260  0.09339459  0.67385013  1
  Ba  Ba20  1  0.25455066  -0.08475171  0.54654395  1
  Ba  Ba21  1  0.07027606  0.36806109  -0.00403123  1
  Ba  Ba22  1  0.01153342  0.52293516  0.34426522  1
  Ba  Ba23  1  0.06993059  0.75352270  0.42828466  1
  Ba  Ba24  1  0.31303354  0.40468391  0.06047588  1
  Ba  Ba25  1  0.80751424  0.78491890  0.40068965  1
  Ba  Ba26  1  0.75526482  -0.02825210  0.21653653  1
  Ba  Ba27  1  0.29499021  0.46357120  0.61406159  1
  Ba  Ba28  1  0.24484438  -0.05409376  0.29492512  1
  Ba  Ba29  1  0.50292892  0.51332782  -0.00801192  1
  Ba  Ba30  1  0.57759375  0.44541825  0.46977536  1
  Ba  Ba31  1  0.05350182  0.52194440  0.56867748  1
  Ba  Ba32  1  0.16770281  0.67385113  0.18479345  1
  Ba  Ba33  1  0.47978512  0.70134076  0.78076123  1
  Ba  Ba34  1  0.01850440  0.81874637  0.66822481  1
  Ba  Ba35  1  0.81635297  0.77513990  0.09622051  1
  Ba  Ba36  1  0.35992513  0.15166325  0.11137689  1
  Ba  Ba37  1  -0.01322856  0.08434981  0.16462980  1
  Ba  Ba38  1  0.14953078  0.25585439  0.48187052  1
  Ba  Ba39  1  0.35386058  0.69058086  0.56123976  1
  Ba  Ba40  1  0.36435338  0.52719756  0.28156386  1
  Ba  Ba41  1  -0.06466589  0.57354831  0.81365687  1
  Ba  Ba42  1  0.75179007  0.08626115  0.41803480  1
  Ba  Ba43  1  -0.07220989  0.34098953  0.66403856  1
  Ba  Ba44  1  0.34347355  0.28015719  0.85379037  1
  Ba  Ba45  1  0.71042330  0.21948475  -0.09575749  1
  Ba  Ba46  1  0.01651539  0.01543433  0.41132236  1
  Ba  Ba47  1  0.27939745  0.16047134  0.66479771  1
  Ba  Ba48  1  0.73775157  0.53313415  0.71691358  1
  Ba  Ba49  1  0.51289598  0.17704532  0.55957115  1
  Ba  Ba50  1  0.76329395  0.76446259  0.65434970  1
  Fe  Fe51  1  0.16665360  0.65982220  0.65498269  1
  Fe  Fe52  1  0.55377239  0.38236469  0.27659133  1
  Fe  Fe53  1  0.59949811  0.86754491  0.34940320  1
  Fe  Fe54  1  0.75826071  0.13422959  0.10917816  1
  Fe  Fe55  1  0.03217535  0.77134964  0.07842663  1
  Fe  Fe56  1  0.18556414  0.42735705  0.38314231  1
  Fe  Fe57  1  0.47244742  0.37563658  0.16768394  1
  Fe  Fe58  1  0.21387552  0.76394656  0.72556617  1
  Fe  Fe59  1  0.74404410  0.60898968  0.53025562  1
  Fe  Fe60  1  0.97234303  0.90451036  0.09881401  1
  Fe  Fe61  1  0.88100273  0.61393905  0.60317258  1
  Fe  Fe62  1  0.81747590  0.49044443  0.53706928  1
  Fe  Fe63  1  0.73695677  0.42472776  0.87727664  1
  Fe  Fe64  1  0.67517090  0.46359717  0.23673445  1
  Fe  Fe65  1  0.94205167  0.89001702  0.23685862  1
  Fe  Fe66  1  0.88864456  0.61445826  0.47675624  1
  Fe  Fe67  1  0.16442624  0.79385764  -0.00442752  1
  Fe  Fe68  1  0.70691042  0.88022840  0.88287213  1
  Fe  Fe69  1  0.68069253  0.53679165  0.92634151  1
  Fe  Fe70  1  0.06169560  0.84858964  0.20485247  1
  Fe  Fe71  1  0.70354736  0.96564465  0.67956515  1
  Fe  Fe72  1  0.69938569  0.01178127  0.82507368  1
  Fe  Fe73  1  0.13007367  0.53870546  0.74442087  1
  Fe  Fe74  1  0.81244630  0.47758780  -0.01764117  1
  Fe  Fe75  1  0.64969027  0.14987847  0.21947055  1
  Fe  Fe76  1  0.67571875  0.39198794  -0.00472761  1
  Fe  Fe77  1  0.48306977  0.16231768  0.91573261  1
  Fe  Fe78  1  0.54026405  0.25050676  0.19270941  1
  Fe  Fe79  1  0.68268095  0.30450855  0.23759657  1
  Fe  Fe80  1  0.79710650  0.92877239  0.76450134  1
  Fe  Fe81  1  0.44415361  0.07221411  0.79505658  1
  Fe  Fe82  1  0.66067592  0.80226717  0.25894239  1
  Fe  Fe83  1  0.11618600  0.68291904  0.79806438  1
  Fe  Fe84  1  0.77919414  0.61107799  0.98868535  1
  Fe  Fe85  1  0.16825544  0.25969160  0.14948406  1
  Fe  Fe86  1  0.57073429  0.06336269  0.86774536  1
  Fe  Fe87  1  0.55485240  0.50362166  0.18330796  1
  Fe  Fe88  1  0.63769043  0.87706102  0.76833505  1
  Fe  Fe89  1  0.25312563  0.61731890  0.75440159  1
  Fe  Fe90  1  0.78325750  0.19425619  0.22148011  1
  Fe  Fe91  1  0.61717015  0.38043171  0.12802216  1
  Fe  Fe92  1  0.20327873  0.43611977  0.81100741  1
  Fe  Fe93  1  0.05237593  0.88045320  0.97499346  1
  Fe  Fe94  1  0.05760404  0.41701942  0.80553337  1
  Fe  Fe95  1  0.12741916  0.81686793  0.85216191  1
  Fe  Fe96  1  0.68567249  0.51387327  0.07798811  1
  Fe  Fe97  1  0.13181662  0.38523048  0.69803660  1
  Fe  Fe98  1  0.41964363  0.04484314  0.92961244  1
  Fe  Fe99  1  0.57401333  0.01454787  0.73213168  1
  Fe  Fe100  1  0.66613463  0.23993803  0.10084639  1
  Fe  Fe101  1  0.06159462  0.72238336  -0.06242434  1
  Bi  Bi102  1  0.84646726  -0.04542558  0.57884731  1
  Bi  Bi103  1  0.54862366  0.20323172  0.76268225  1
  Bi  Bi104  1  -0.03960476  0.60901726  0.01646054  1
  Bi  Bi105  1  0.51414958  0.29099753  0.01648631  1
  Bi  Bi106  1  0.51072164  -0.09578421  0.88073204  1
  Bi  Bi107  1  0.76408552  0.54742640  0.37529640  1
  Bi  Bi108  1  0.64935075  0.64558438  0.18741457  1
  Bi  Bi109  1  0.58204686  0.23459241  0.36515145  1
  Bi  Bi110  1  0.70568092  0.69728966  0.85530017  1
  Bi  Bi111  1  0.36375862  0.50138606  0.82205136  1
  Bi  Bi112  1  0.12488443  0.25087530  0.80145582  1
  Bi  Bi113  1  0.15534905  0.94242828  0.09771548  1
  Bi  Bi114  1  -0.04268822  0.71902217  0.25041573  1
  Bi  Bi115  1  0.42422537  -0.00684530  0.64752695  1
  Bi  Bi116  1  0.21135605  0.58715149  0.42731386  1
  Bi  Bi117  1  0.16954617  0.41856968  0.21663786  1
  Bi  Bi118  1  0.71341005  0.35371512  0.60123303  1
  Bi  Bi119  1  0.89481985  0.36499602  0.87275170  1
  Bi  Bi120  1  0.28410758  0.74741467  0.87208774  1
  Bi  Bi121  1  0.04838613  0.96810765  0.83212636  1
  Bi  Bi122  1  0.42559330  0.84157567  0.41296396  1
  Bi  Bi123  1  0.36440192  0.64067293  0.09277927  1
  Bi  Bi124  1  0.57744529  0.63039146  0.59960392  1
  Bi  Bi125  1  0.17137045  0.14638402  0.26999414  1
  Bi  Bi126  1  0.31031921  0.10638080  0.45357198  1
  Bi  Bi127  1  0.93473029  0.19763882  0.49368114  1
