# generated using pymatgen
data_Ba51Fe51Bi26
_symmetry_space_group_name_H-M   'P 1'
_cell_length_a   15.97835216
_cell_length_b   16.87747576
_cell_length_c   16.19760902
_cell_angle_alpha   90.00057039
_cell_angle_beta   90.43357103
_cell_angle_gamma   88.99632163
_symmetry_Int_Tables_number   1
_chemical_formula_structural   Ba51Fe51Bi26
_chemical_formula_sum   'Ba51 Fe51 Bi26'
_cell_volume   4367.28282476
_cell_formula_units_Z   1
loop_
 _symmetry_equiv_pos_site_id
 _symmetry_equiv_pos_as_xyz
  1  'x, y, z'
loop_
 _atom_site_type_symbol
 _atom_site_label
 _atom_site_symmetry_multiplicity
 _atom_site_fract_x
 _atom_site_fract_y
 _atom_site_fract_z
 _atom_site_occupancy
  Ba  Ba0  1  -0.04073919  0.18790954  0.23125545  1
  Ba  Ba1  1  0.67124347  0.47469875  0.46439742  1
  Ba  Ba2  1  0.16044432  0.33211762  0.08463007  1
  Ba  Ba3  1  0.27081723  0.56395135  0.40290405  1
  Ba  Ba4  1  0.65640236  0.22650443  0.53165812  1
  Ba  Ba5  1  0.76581831  -0.16879227  0.31590175  1
  Ba  Ba6  1  0.49558626  0.03043831  0.20445412  1
  Ba  Ba7  1  0.78500957  0.29295639  0.04046647  1
  Ba  Ba8  1  -0.01751372  0.00077226  0.41348840  1
  Ba  Ba9  1  -0.17060183  0.32080847  0.36741496  1
  Ba  Ba10  1  0.49219248  0.04897558  0.76232100  1
  Ba  Ba11  1  0.39658026  0.73527036  0.25037963  1
  Ba  Ba12  1  0.69119300  0.50606852  0.12156767  1
  Ba  Ba13  1  0.08657431  -0.14433402  0.19663003  1
  Ba  Ba14  1  0.07897318  0.59198353  0.21068984  1
  Ba  Ba15  1  0.16317107  0.21427701  0.86705033  1
  Ba  Ba16  1  0.36072562  0.26829693  0.21881043  1
  Ba  Ba17  1  0.29550462  0.73074323  -0.02798284  1
  Ba  Ba18  1  0.50384335  0.30504049  0.78186681  1
  Ba  Ba19  1  0.22928560  0.39753493  0.69642892  1
  Ba  Ba20  1  -0.09207146  0.18862127  0.81822171  1
  Ba  Ba21  1  0.53912553  0.21427292  0.01077982  1
  Ba  Ba22  1  -0.03319247  0.31288066  0.62818403  1
  Ba  Ba23  1  0.76508871  0.56495955  -0.12142619  1
  Ba  Ba24  1  0.63156170  -0.06649114  -0.06712557  1
  Ba  Ba25  1  0.02028898  0.56592614  0.74270535  1
  Ba  Ba26  1  0.36667387  0.28110403  0.49802923  1
  Ba  Ba27  1  0.18711736  0.51108471  -0.05156846  1
  Ba  Ba28  1  0.52806540  0.70370124  0.02542755  1
  Ba  Ba29  1  0.84066531  0.60052798  0.25855046  1
  Ba  Ba30  1  0.03035791  0.74668797  -0.07038489  1
  Ba  Ba31  1  0.50937910  0.55729183  0.82819608  1
  Ba  Ba32  1  0.18416375  0.11285240  0.56158629  1
  Ba  Ba33  1  0.22521288  0.79544966  0.57153231  1
  Ba  Ba34  1  0.81705225  0.04816684  0.04954900  1
  Ba  Ba35  1  0.44653325  0.54427494  0.59260966  1
  Ba  Ba36  1  0.12346603  0.38207251  0.30874503  1
  Ba  Ba37  1  0.56712833  0.00262493  0.53135360  1
  Ba  Ba38  1  -0.01228465  -0.04078472  0.68112452  1
  Ba  Ba39  1  0.44751528  0.46469117  0.06785266  1
  Ba  Ba40  1  0.32663076  0.06990276  0.02533251  1
  Ba  Ba41  1  0.75185362  0.36789435  0.74265340  1
  Ba  Ba42  1  0.63139597  0.73674175  0.51014460  1
  Ba  Ba43  1  0.79760838  0.76762632  0.03550463  1
  Ba  Ba44  1  0.25063532  0.01991736  0.79796487  1
  Ba  Ba45  1  0.80679506  0.73418032  0.68659904  1
  Ba  Ba46  1  -0.00114021  0.73533275  0.48037843  1
  Ba  Ba47  1  0.48732295  0.44502662  0.31198311  1
  Ba  Ba48  1  0.76336057  0.01568383  0.72400997  1
  Ba  Ba49  1  0.33322415  -0.05117286  0.39405578  1
  Ba  Ba50  1  0.70802022  0.08283856  0.33352810  1
  Fe  Fe51  1  -0.01850142  0.37511470  0.99750191  1
  Fe  Fe52  1  0.16153660  0.08885046  0.35860300  1
  Fe  Fe53  1  1.01821223  0.04842456  0.09861106  1
  Fe  Fe54  1  0.86447048  0.44511854  0.51837728  1
  Fe  Fe55  1  0.44641789  0.82562301  0.64653980  1
  Fe  Fe56  1  0.53257614  0.71326807  0.71050072  1
  Fe  Fe57  1  0.05769757  0.52910733  0.42841140  1
  Fe  Fe58  1  0.14482619  0.13662735  0.11275702  1
  Fe  Fe59  1  0.11870125  0.05694598  0.98041442  1
  Fe  Fe60  1  0.92812331  0.49704027  0.40066616  1
  Fe  Fe61  1  0.09885320  1.05138305  0.23206150  1
  Fe  Fe62  1  0.92331427  0.58865153  0.04689966  1
  Fe  Fe63  1  0.20282024  0.22568206  0.39546067  1
  Fe  Fe64  1  1.06798800  0.95402895  0.87155733  1
  Fe  Fe65  1  0.37520068  0.71270431  0.66728120  1
  Fe  Fe66  1  0.51741128  0.63074627  0.37718422  1
  Fe  Fe67  1  0.69929858  0.24543941  0.22254221  1
  Fe  Fe68  1  0.66828471  0.36867381  0.25986310  1
  Fe  Fe69  1  0.58799410  0.73900333  0.30303673  1
  Fe  Fe70  1  0.02034965  0.48712159  0.06459690  1
  Fe  Fe71  1  0.60970489  0.28337678  0.34698049  1
  Fe  Fe72  1  0.39840485  0.71835179  0.80050745  1
  Fe  Fe73  1  0.59699695  0.33549218  0.14757932  1
  Fe  Fe74  1  0.36467106  0.19572113  0.86532671  1
  Fe  Fe75  1  0.29517075  0.13645876  0.34539934  1
  Fe  Fe76  1  0.11119401  0.44239811  0.53460489  1
  Fe  Fe77  1  1.02287925  0.93694532  0.01706535  1
  Fe  Fe78  1  0.54944715  0.61086002  0.22710403  1
  Fe  Fe79  1  0.55993158  0.23785018  0.23066884  1
  Fe  Fe80  1  0.97763900  0.52039823  0.55102516  1
  Fe  Fe81  1  0.00265028  0.39000280  0.46044417  1
  Fe  Fe82  1  0.82488416  0.16954777  0.61716591  1
  Fe  Fe83  1  0.86588560  0.16235373  0.46868907  1
  Fe  Fe84  1  0.14361567  0.32134324  0.49529090  1
  Fe  Fe85  1  0.24564475  0.06681490  0.22120547  1
  Fe  Fe86  1  0.88985845  0.42179405  0.90517871  1
  Fe  Fe87  1  0.17386687  0.18688835  0.25122533  1
  Fe  Fe88  1  0.34126329  0.84704112  0.75363434  1
  Fe  Fe89  1  0.49251039  0.81691800  0.79250971  1
  Fe  Fe90  1  0.44749063  0.87882304  0.07736963  1
  Fe  Fe91  1  0.24335749  0.74417509  0.76654731  1
  Fe  Fe92  1  0.97773503  0.51968194  0.93388900  1
  Fe  Fe93  1  0.83752176  0.52552173  0.62178966  1
  Fe  Fe94  1  0.98405296  0.04866989  0.93702796  1
  Fe  Fe95  1  0.17185577  0.85138820  0.80779755  1
  Fe  Fe96  1  0.80776955  1.06130020  0.53238465  1
  Fe  Fe97  1  -0.05320835  0.12246693  0.57451823  1
  Fe  Fe98  1  0.86916043  0.47091297  0.03992339  1
  Fe  Fe99  1  0.64633415  0.61234062  0.32509697  1
  Fe  Fe100  1  0.65539422  0.69127049  0.19412502  1
  Fe  Fe101  1  0.15937327  0.99754885  0.11021967  1
  Bi  Bi102  1  0.67036549  0.55853225  0.67003529  1
  Bi  Bi103  1  0.49039153  0.15827585  0.37745847  1
  Bi  Bi104  1  0.30701148  -0.08738015  0.17581672  1
  Bi  Bi105  1  0.41049983  0.71977027  0.48725358  1
  Bi  Bi106  1  0.02993932  0.21288448  0.43525516  1
  Bi  Bi107  1  0.61157578  0.84976617  0.14634600  1
  Bi  Bi108  1  0.03549297  0.37870295  -0.17248572  1
  Bi  Bi109  1  0.06113748  0.76659486  0.71097733  1
  Bi  Bi110  1  0.14329055  0.59466993  0.56869276  1
  Bi  Bi111  1  -0.00515913  0.19792756  0.01791262  1
  Bi  Bi112  1  0.35410938  0.96470651  0.61185273  1
  Bi  Bi113  1  0.18574159  -0.10211956  -0.02128866  1
  Bi  Bi114  1  0.64641555  0.73685153  0.85412890  1
  Bi  Bi115  1  0.83200178  0.61479079  0.47845802  1
  Bi  Bi116  1  0.33325705  0.33937826  0.93589889  1
  Bi  Bi117  1  0.88776131  0.91619709  0.89023000  1
  Bi  Bi118  1  0.69308872  0.15421455  0.87270240  1
  Bi  Bi119  1  0.61840467  0.40314981  0.94166131  1
  Bi  Bi120  1  -0.06504813  0.41007764  0.18599901  1
  Bi  Bi121  1  0.41684269  0.90252889  0.91224328  1
  Bi  Bi122  1  0.27875942  0.48927757  0.19674605  1
  Bi  Bi123  1  0.61342161  0.86916393  0.68917132  1
  Bi  Bi124  1  0.55352013  0.89143847  0.35778160  1
  Bi  Bi125  1  0.29357111  0.58630603  0.76779504  1
  Bi  Bi126  1  0.32762505  0.20627996  0.70097049  1
  Bi  Bi127  1  0.82528793  0.89469526  0.52279769  1
