# generated using pymatgen
data_Ba51Fe51Bi26
_symmetry_space_group_name_H-M   'P 1'
_cell_length_a   16.21924608
_cell_length_b   16.59239135
_cell_length_c   16.29622502
_cell_angle_alpha   90.00558728
_cell_angle_beta   88.72484336
_cell_angle_gamma   91.22882439
_symmetry_Int_Tables_number   1
_chemical_formula_structural   Ba51Fe51Bi26
_chemical_formula_sum   'Ba51 Fe51 Bi26'
_cell_volume   4383.48143868
_cell_formula_units_Z   1
loop_
 _symmetry_equiv_pos_site_id
 _symmetry_equiv_pos_as_xyz
  1  'x, y, z'
loop_
 _atom_site_type_symbol
 _atom_site_label
 _atom_site_symmetry_multiplicity
 _atom_site_fract_x
 _atom_site_fract_y
 _atom_site_fract_z
 _atom_site_occupancy
  Ba  Ba0  1  0.32463935  0.24544355  0.49240490  1
  Ba  Ba1  1  0.49827681  0.76339390  -0.01513221  1
  Ba  Ba2  1  0.04333921  0.32663976  0.28388489  1
  Ba  Ba3  1  0.32333475  -0.08089528  0.69827200  1
  Ba  Ba4  1  0.49566672  0.36183641  0.84305379  1
  Ba  Ba5  1  -0.10813664  0.52606384  0.31688678  1
  Ba  Ba6  1  0.49262186  0.10173821  0.77273730  1
  Ba  Ba7  1  0.25481224  0.68705517  -0.00076297  1
  Ba  Ba8  1  0.44525783  0.05955722  0.54168329  1
  Ba  Ba9  1  0.36733869  0.13437987  -0.00846933  1
  Ba  Ba10  1  0.25119636  0.38901697  -0.04157399  1
  Ba  Ba11  1  0.63790997  0.36524858  0.06339867  1
  Ba  Ba12  1  0.57378285  0.30790865  0.42025344  1
  Ba  Ba13  1  0.48526684  0.60660384  0.26779722  1
  Ba  Ba14  1  0.73769856  0.19634551  0.78683362  1
  Ba  Ba15  1  0.25325011  0.19590681  0.74464187  1
  Ba  Ba16  1  -0.01210584  -0.00056172  0.56120253  1
  Ba  Ba17  1  0.64438736  -0.06137595  0.83964311  1
  Ba  Ba18  1  0.00111980  0.19938988  0.69955182  1
  Ba  Ba19  1  0.70264841  0.51397942  0.47909994  1
  Ba  Ba20  1  0.80046459  0.54677279  0.08905979  1
  Ba  Ba21  1  0.20831451  -0.04834339  -0.07276057  1
  Ba  Ba22  1  0.29572275  0.45172397  0.72105730  1
  Ba  Ba23  1  0.43723454  -0.02078338  0.32776376  1
  Ba  Ba24  1  -0.05136819  0.79325976  0.23486303  1
  Ba  Ba25  1  0.01594009  0.75419122  -0.07169350  1
  Ba  Ba26  1  0.12984052  0.40730123  0.52550265  1
  Ba  Ba27  1  0.05735721  0.63197302  0.69813727  1
  Ba  Ba28  1  0.39077894  0.76128471  0.50725069  1
  Ba  Ba29  1  0.84887915  0.80509430  0.75699152  1
  Ba  Ba30  1  -0.03640440  0.39843533  0.86023826  1
  Ba  Ba31  1  0.04166430  0.52797017  0.05875772  1
  Ba  Ba32  1  0.75131447  0.75870717  -0.00060541  1
  Ba  Ba33  1  0.64701320  0.71078166  0.61675999  1
  Ba  Ba34  1  -0.03454933  0.75293007  0.50940559  1
  Ba  Ba35  1  0.42172392  0.69996493  0.74428811  1
  Ba  Ba36  1  0.40226454  0.48649023  0.46884306  1
  Ba  Ba37  1  0.05018628  0.06507264  0.30076862  1
  Ba  Ba38  1  0.73574657  -0.06959644  0.50569120  1
  Ba  Ba39  1  0.48319138  0.19562586  0.19977270  1
  Ba  Ba40  1  0.61154771  0.78741157  0.36702238  1
  Ba  Ba41  1  0.80961008  0.26138065  0.27754054  1
  Ba  Ba42  1  0.70858742  0.49798082  0.77193647  1
  Ba  Ba43  1  0.31229500  0.78249792  0.24561621  1
  Ba  Ba44  1  0.67187371  0.03561612  0.25759813  1
  Ba  Ba45  1  0.20234041  0.55916573  0.26162759  1
  Ba  Ba46  1  0.00246607  -0.01840117  0.06320259  1
  Ba  Ba47  1  0.80068858  0.19506637  0.55615852  1
  Ba  Ba48  1  0.80435400  0.18111338  0.00777008  1
  Ba  Ba49  1  0.23431606  0.28035898  0.14901172  1
  Ba  Ba50  1  0.19889972  -0.07248785  0.46321820  1
  Fe  Fe51  1  0.50840755  0.38583485  0.23717781  1
  Fe  Fe52  1  0.60562004  0.19333816  0.59431503  1
  Fe  Fe53  1  0.57800396  0.26670661  0.70411368  1
  Fe  Fe54  1  0.95831553  1.00366793  0.76022228  1
  Fe  Fe55  1  0.49278894  0.47737950  0.13778691  1
  Fe  Fe56  1  0.11531163  0.61456265  0.46446708  1
  Fe  Fe57  1  0.37964256  0.41885997  0.23403578  1
  Fe  Fe58  1  0.84863327  0.08992754  0.16465692  1
  Fe  Fe59  1  0.27492263  0.91996032  0.11999831  1
  Fe  Fe60  1  0.52917482  1.01486960  0.99438408  1
  Fe  Fe61  1  0.29445553  0.12650187  0.25091410  1
  Fe  Fe62  1  0.42579446  0.36153398  0.10686025  1
  Fe  Fe63  1  0.23840796  0.65990920  0.42802868  1
  Fe  Fe64  1  0.69069960  0.61216585  0.28032789  1
  Fe  Fe65  1  0.11133439  0.24028774  0.88314141  1
  Fe  Fe66  1  0.04622548  0.87555350  0.75159202  1
  Fe  Fe67  1  0.20865961  0.20645956  0.33686905  1
  Fe  Fe68  1  0.35949112  1.02795930  0.15958551  1
  Fe  Fe69  1  0.05629783  0.29633370  0.01433143  1
  Fe  Fe70  1  0.47253647  0.23705115  0.62130122  1
  Fe  Fe71  1  0.16200365  0.74087644  0.52444817  1
  Fe  Fe72  1  1.01489858  0.95493606  0.86815087  1
  Fe  Fe73  1  0.46405534  0.36188213  0.64447885  1
  Fe  Fe74  1  0.07246211  0.09308878  0.86397046  1
  Fe  Fe75  1  0.25737028  0.09197204  0.37791015  1
  Fe  Fe76  1  0.12419521  0.83369663  0.64372709  1
  Fe  Fe77  1  0.77788421  0.69559469  0.22273282  1
  Fe  Fe78  1  0.83063728  0.34852340  0.45522348  1
  Fe  Fe79  1  0.54217220  0.56620760  0.92463531  1
  Fe  Fe80  1  0.34833837  0.49153079  0.10726862  1
  Fe  Fe81  1  0.59802297  0.35181784  0.60647114  1
  Fe  Fe82  1  0.46631795  0.46336322  1.00079737  1
  Fe  Fe83  1  0.63982419  1.06767603  0.62839592  1
  Fe  Fe84  1  0.42370058  -0.07029511  1.06978901  1
  Fe  Fe85  1  0.24983194  0.98770537  0.26296534  1
  Fe  Fe86  1  0.64935102  0.71380879  0.18224246  1
  Fe  Fe87  1  0.96068454  0.26603037  0.46075042  1
  Fe  Fe88  1  0.16279399  0.90671952  0.19951975  1
  Fe  Fe89  1  0.86072700  0.97428155  0.20794789  1
  Fe  Fe90  1  0.64187124  0.06225033  0.06371156  1
  Fe  Fe91  1  0.51224363  0.00943129  0.13969952  1
  Fe  Fe92  1  0.98966568  0.19494377  0.93688176  1
  Fe  Fe93  1  0.92826717  0.08263487  0.87124791  1
  Fe  Fe94  1  0.12887941  0.16474246  -0.00900492  1
  Fe  Fe95  1  0.61969957  0.92722473  0.07650613  1
  Fe  Fe96  1  0.94386748  0.35016147  0.57589706  1
  Fe  Fe97  1  0.43484590  0.58666352  0.04710450  1
  Fe  Fe98  1  0.77074669  0.98745036  0.08455691  1
  Fe  Fe99  1  -0.04815383  0.39980732  0.44514747  1
  Fe  Fe100  1  0.23407118  0.75583650  0.63552535  1
  Fe  Fe101  1  0.83315793  0.41541236  0.57525122  1
  Bi  Bi102  1  0.19410495  0.77440285  0.79880392  1
  Bi  Bi103  1  0.51892286  -0.16552780  0.18543407  1
  Bi  Bi104  1  0.12227308  0.75254683  0.35037747  1
  Bi  Bi105  1  0.53185393  0.51557532  0.64414097  1
  Bi  Bi106  1  0.19337752  0.06804470  0.11664362  1
  Bi  Bi107  1  0.13269197  0.01863613  0.71615824  1
  Bi  Bi108  1  -0.04833562  0.53728118  0.53459675  1
  Bi  Bi109  1  0.59996277  0.59245006  0.07680759  1
  Bi  Bi110  1  0.74728990  0.85422917  0.19062006  1
  Bi  Bi111  1  0.67166806  0.44426474  0.26680429  1
  Bi  Bi112  1  0.11327057  0.17403990  0.48196397  1
  Bi  Bi113  1  0.84584292  -0.05432951  -0.07367665  1
  Bi  Bi114  1  -0.00433292  0.18308651  0.12599410  1
  Bi  Bi115  1  0.42162105  0.93462341  0.89149618  1
  Bi  Bi116  1  0.87975647  0.59792952  0.88257308  1
  Bi  Bi117  1  0.90701539  0.36498519  0.09009303  1
  Bi  Bi118  1  0.58383245  0.17994045  0.95768677  1
  Bi  Bi119  1  0.80256564  0.01945541  0.68652372  1
  Bi  Bi120  1  0.54708543  0.89987259  0.62820008  1
  Bi  Bi121  1  0.37940288  0.55265022  0.88921372  1
  Bi  Bi122  1  0.79523313  0.70010117  0.39658602  1
  Bi  Bi123  1  0.63415012  0.10724992  0.45018202  1
  Bi  Bi124  1  0.25337289  0.59829727  0.58398369  1
  Bi  Bi125  1  0.25335708  0.37514580  0.34484242  1
  Bi  Bi126  1  0.13891767  0.54378880  0.87095877  1
  Bi  Bi127  1  0.63134379  0.69018894  0.82873220  1
