# generated using pymatgen
data_Ba51Fe51Bi26
_symmetry_space_group_name_H-M   'P 1'
_cell_length_a   16.49398690
_cell_length_b   16.00618246
_cell_length_c   16.78244716
_cell_angle_alpha   90.91299540
_cell_angle_beta   91.51557089
_cell_angle_gamma   91.13452377
_symmetry_Int_Tables_number   1
_chemical_formula_structural   Ba51Fe51Bi26
_chemical_formula_sum   'Ba51 Fe51 Bi26'
_cell_volume   4427.64414091
_cell_formula_units_Z   1
loop_
 _symmetry_equiv_pos_site_id
 _symmetry_equiv_pos_as_xyz
  1  'x, y, z'
loop_
 _atom_site_type_symbol
 _atom_site_label
 _atom_site_symmetry_multiplicity
 _atom_site_fract_x
 _atom_site_fract_y
 _atom_site_fract_z
 _atom_site_occupancy
  Ba  Ba0  1  0.84168810  0.22508959  0.75100983  1
  Ba  Ba1  1  0.00004692  -0.06382363  0.26182692  1
  Ba  Ba2  1  0.74722380  0.16000288  0.43427780  1
  Ba  Ba3  1  -0.08563889  -0.04814465  0.49333604  1
  Ba  Ba4  1  0.05483752  0.01410285  0.77192593  1
  Ba  Ba5  1  -0.04248285  0.48169410  0.24804454  1
  Ba  Ba6  1  -0.07732415  0.82294876  -0.03339099  1
  Ba  Ba7  1  0.02704181  0.53639905  -0.02466431  1
  Ba  Ba8  1  0.77947782  0.70314567  0.28254303  1
  Ba  Ba9  1  0.47295310  0.15507058  0.52945069  1
  Ba  Ba10  1  0.69206797  0.01094787  0.00740975  1
  Ba  Ba11  1  0.35453404  0.05395111  0.01571471  1
  Ba  Ba12  1  0.49081353  0.50137577  0.45151109  1
  Ba  Ba13  1  0.27742586  0.82032969  0.70173747  1
  Ba  Ba14  1  0.02113195  0.45435699  0.71681187  1
  Ba  Ba15  1  0.02648206  0.36499908  0.47111251  1
  Ba  Ba16  1  0.18722408  0.28792518  0.25627321  1
  Ba  Ba17  1  0.49261892  0.55245565  0.69379388  1
  Ba  Ba18  1  0.80770898  0.62563119  0.85208778  1
  Ba  Ba19  1  0.47768706  0.06180674  0.76299779  1
  Ba  Ba20  1  0.23035679  0.09156271  0.65290293  1
  Ba  Ba21  1  0.25587371  0.55928739  0.56055120  1
  Ba  Ba22  1  0.41152340  0.45890354  -0.09794392  1
  Ba  Ba23  1  0.45376625  0.41057346  0.23706501  1
  Ba  Ba24  1  0.07240168  0.12062890  0.46462387  1
  Ba  Ba25  1  0.82272111  -0.05435962  0.72739515  1
  Ba  Ba26  1  0.65294310  0.30424730  0.59739740  1
  Ba  Ba27  1  0.74476425  0.45743658  0.40849144  1
  Ba  Ba28  1  0.19643235  0.58712897  0.29885515  1
  Ba  Ba29  1  0.65853059  -0.06923327  0.53315190  1
  Ba  Ba30  1  0.28255881  0.33008521  0.04936412  1
  Ba  Ba31  1  0.21932540  0.04532708  0.22501946  1
  Ba  Ba32  1  0.17180068  0.77939206  -0.09330334  1
  Ba  Ba33  1  0.48035004  0.03416824  0.30133379  1
  Ba  Ba34  1  0.50316361  0.61981565  0.08516858  1
  Ba  Ba35  1  0.50788184  0.78067686  0.84973879  1
  Ba  Ba36  1  0.04431461  0.72280180  0.17892124  1
  Ba  Ba37  1  -0.02070704  0.04716783  0.00903504  1
  Ba  Ba38  1  0.80904692  0.71307182  0.52890025  1
  Ba  Ba39  1  0.68232268  0.77074325  0.06817156  1
  Ba  Ba40  1  0.27229203  0.31110301  0.56334580  1
  Ba  Ba41  1  -0.01983096  0.73356381  0.69060470  1
  Ba  Ba42  1  0.75537061  -0.04591215  0.28600556  1
  Ba  Ba43  1  0.61798032  0.33733912  0.83180378  1
  Ba  Ba44  1  0.47942361  0.77416041  0.55871158  1
  Ba  Ba45  1  0.03751395  0.25891347  -0.10322903  1
  Ba  Ba46  1  0.56441002  0.26074503  0.08751883  1
  Ba  Ba47  1  0.72639881  0.48852613  0.02831656  1
  Ba  Ba48  1  0.82588506  0.24508068  0.03827951  1
  Ba  Ba49  1  0.32294643  0.78810187  0.12984445  1
  Ba  Ba50  1  0.28256854  -0.07957312  0.46866467  1
  Fe  Fe51  1  0.20145771  0.32268969  0.73867460  1
  Fe  Fe52  1  0.20501973  0.62288669  0.07246442  1
  Fe  Fe53  1  0.31531681  0.61075890  0.78392030  1
  Fe  Fe54  1  0.30780616  0.11582023  0.83459144  1
  Fe  Fe55  1  0.25906002  0.25657674  0.85077483  1
  Fe  Fe56  1  0.31069599  0.55092384  0.12310606  1
  Fe  Fe57  1  0.90897880  0.10429624  0.18199061  1
  Fe  Fe58  1  0.59142921  0.83076462  0.22994789  1
  Fe  Fe59  1  0.70443801  0.49455852  0.60604570  1
  Fe  Fe60  1  0.15328059  0.74753021  0.54891259  1
  Fe  Fe61  1  0.16747681  0.49461295  0.11738655  1
  Fe  Fe62  1  0.32757733  0.37131451  0.75726360  1
  Fe  Fe63  1  0.17042004  1.00417143  0.94647923  1
  Fe  Fe64  1  0.03387792  0.19052244  0.14947718  1
  Fe  Fe65  1  1.00935995  0.75492100  0.50861277  1
  Fe  Fe66  1  0.24674117  0.52416302  -0.00632712  1
  Fe  Fe67  1  0.98838144  0.66581032  0.37969851  1
  Fe  Fe68  1  0.69457763  0.26295617  0.28357055  1
  Fe  Fe69  1  0.62366479  0.87683342  0.72152694  1
  Fe  Fe70  1  0.46352285  0.81250883  0.26919684  1
  Fe  Fe71  1  0.79538378  0.19087226  0.22761463  1
  Fe  Fe72  1  0.24567526  0.48575574  0.74680216  1
  Fe  Fe73  1  0.64605248  -0.02422440  0.80060416  1
  Fe  Fe74  1  0.10480596  0.64798148  0.46244717  1
  Fe  Fe75  1  0.67218542  0.50902023  0.74935666  1
  Fe  Fe76  1  0.84590246  0.54001174  0.63373911  1
  Fe  Fe77  1  0.85139594  0.28972862  0.32147197  1
  Fe  Fe78  1  0.94675705  0.78905474  0.38616598  1
  Fe  Fe79  1  0.23284340  0.73020428  0.43621186  1
  Fe  Fe80  1  0.57255414  0.69966316  0.26963322  1
  Fe  Fe81  1  0.91163357  0.20837483  0.56653301  1
  Fe  Fe82  1  0.85549994  0.83553609  0.14049736  1
  Fe  Fe83  1  0.35790286  0.66522229  0.42967488  1
  Fe  Fe84  1  0.79004983  0.44933743  0.72356569  1
  Fe  Fe85  1  0.34389560  0.23061150  0.74554095  1
  Fe  Fe86  1  0.48085264  0.72466503  0.37876565  1
  Fe  Fe87  1  0.03216887  0.13131748  0.26563847  1
  Fe  Fe88  1  0.21981891  0.57638745  0.86813924  1
  Fe  Fe89  1  0.24262017  0.99167057  0.83828468  1
  Fe  Fe90  1  0.34690246  0.77037104  0.34846314  1
  Fe  Fe91  1  0.95203000  0.10041734  0.63089587  1
  Fe  Fe92  1  0.85141167  0.96510717  1.12321277  1
  Fe  Fe93  1  0.58846286  0.82881719  0.36101798  1
  Fe  Fe94  1  0.90659450  0.14719698  0.31774737  1
  Fe  Fe95  1  0.09476773  0.79116581  0.40956731  1
  Fe  Fe96  1  0.73720776  0.60501994  0.67814700  1
  Fe  Fe97  1  0.92536214  0.26180454  0.19862737  1
  Fe  Fe98  1  0.18392821  0.12733151  0.88239447  1
  Fe  Fe99  1  0.82354159  0.09657730  0.59920621  1
  Fe  Fe100  1  0.38708907  0.26411184  0.35964177  1
  Fe  Fe101  1  -0.00060090  0.25802084  0.30751914  1
  Bi  Bi102  1  0.46206973  0.33079368  0.66988999  1
  Bi  Bi103  1  0.04480488  0.35799614  0.09995703  1
  Bi  Bi104  1  0.65001094  0.11292622  0.19946534  1
  Bi  Bi105  1  0.34464262  0.66641222  -0.05225782  1
  Bi  Bi106  1  0.20077353  0.82990540  0.29223667  1
  Bi  Bi107  1  0.40348666  0.62407040  0.26354140  1
  Bi  Bi108  1  -0.03097042  0.57201673  0.52479009  1
  Bi  Bi109  1  0.16184500  0.15002308  0.04663777  1
  Bi  Bi110  1  0.06464943  0.23355338  0.66522944  1
  Bi  Bi111  1  0.84822093  0.37028612  0.58206797  1
  Bi  Bi112  1  0.15855108  0.63973422  0.72669036  1
  Bi  Bi113  1  0.77290606  0.37908578  0.19771693  1
  Bi  Bi114  1  0.42691012  0.22840457  0.90400108  1
  Bi  Bi115  1  0.59694667  0.57878473  0.88617147  1
  Bi  Bi116  1  0.71671744  0.83599091  0.86955213  1
  Bi  Bi117  1  0.66825522  0.09496998  0.67500029  1
  Bi  Bi118  1  0.10016038  0.90399867  0.58813913  1
  Bi  Bi119  1  0.12659767  0.90094463  0.07256749  1
  Bi  Bi120  1  0.86212280  0.65282387  0.08789827  1
  Bi  Bi121  1  0.62888543  0.67461477  0.43426525  1
  Bi  Bi122  1  0.85463647  0.40518514  0.87692163  1
  Bi  Bi123  1  0.38633963  0.20157509  0.19762214  1
  Bi  Bi124  1  0.28784896  0.13594794  0.42267755  1
  Bi  Bi125  1  0.30207808  0.41362835  0.38872168  1
  Bi  Bi126  1  0.18084703  0.41168807  0.88031923  1
  Bi  Bi127  1  0.56303847  0.29114964  0.38722107  1
