# generated using pymatgen
data_Ba51Fe51Bi26
_symmetry_space_group_name_H-M   'P 1'
_cell_length_a   16.23256752
_cell_length_b   16.44664293
_cell_length_c   16.44732054
_cell_angle_alpha   88.55354046
_cell_angle_beta   88.96908227
_cell_angle_gamma   91.28627218
_symmetry_Int_Tables_number   1
_chemical_formula_structural   Ba51Fe51Bi26
_chemical_formula_sum   'Ba51 Fe51 Bi26'
_cell_volume   4387.69964423
_cell_formula_units_Z   1
loop_
 _symmetry_equiv_pos_site_id
 _symmetry_equiv_pos_as_xyz
  1  'x, y, z'
loop_
 _atom_site_type_symbol
 _atom_site_label
 _atom_site_symmetry_multiplicity
 _atom_site_fract_x
 _atom_site_fract_y
 _atom_site_fract_z
 _atom_site_occupancy
  Ba  Ba0  1  0.80903531  0.25744443  -0.04947190  1
  Ba  Ba1  1  0.52690561  0.53711910  0.77838100  1
  Ba  Ba2  1  0.13522842  -0.00831589  0.50666818  1
  Ba  Ba3  1  0.45770021  0.73102944  0.28542123  1
  Ba  Ba4  1  0.37458190  0.26283344  0.28572590  1
  Ba  Ba5  1  0.16055410  0.29314150  0.68713347  1
  Ba  Ba6  1  0.70551478  0.47500772  0.33097299  1
  Ba  Ba7  1  0.36427577  -0.06023054  0.20691717  1
  Ba  Ba8  1  0.25338910  0.49752621  0.46379765  1
  Ba  Ba9  1  0.26480231  0.75207385  0.47475859  1
  Ba  Ba10  1  0.25628264  0.75695331  0.72072571  1
  Ba  Ba11  1  0.26450307  0.25204024  -0.04907323  1
  Ba  Ba12  1  0.69142676  0.77072285  0.85077119  1
  Ba  Ba13  1  -0.05690997  0.19559063  0.62168112  1
  Ba  Ba14  1  0.28468891  0.12883548  0.59028460  1
  Ba  Ba15  1  0.62461263  0.84913179  0.08798436  1
  Ba  Ba16  1  0.23383451  0.00232186  0.78867871  1
  Ba  Ba17  1  0.16988741  0.74022477  -0.04200867  1
  Ba  Ba18  1  0.46272634  0.49085478  0.29269146  1
  Ba  Ba19  1  -0.14665986  -0.11103644  0.66926801  1
  Ba  Ba20  1  0.24055875  -0.03460722  0.02197807  1
  Ba  Ba21  1  0.76314899  0.02918782  0.84545257  1
  Ba  Ba22  1  -0.04037307  0.63693339  0.06843024  1
  Ba  Ba23  1  0.18211798  0.74071978  0.23807633  1
  Ba  Ba24  1  0.68871790  -0.03131784  0.46796732  1
  Ba  Ba25  1  0.02334683  0.77496064  0.52586197  1
  Ba  Ba26  1  0.50968242  0.23901086  0.02324869  1
  Ba  Ba27  1  0.51404744  0.81760287  0.54562534  1
  Ba  Ba28  1  0.18294369  0.49338707  0.20330000  1
  Ba  Ba29  1  -0.00472281  0.70351926  0.79638322  1
  Ba  Ba30  1  0.34392826  0.57515153  -0.03980120  1
  Ba  Ba31  1  -0.00717673  0.44172557  0.46411423  1
  Ba  Ba32  1  -0.04050255  0.77190316  0.28291359  1
  Ba  Ba33  1  0.79219650  0.17537246  0.20876304  1
  Ba  Ba34  1  0.50797208  0.00469298  0.72451293  1
  Ba  Ba35  1  0.16065398  0.21768600  0.18960104  1
  Ba  Ba36  1  0.84670818  0.61600905  0.48369508  1
  Ba  Ba37  1  0.86385534  -0.02004437  0.06585261  1
  Ba  Ba38  1  0.27746165  0.49564174  0.72585977  1
  Ba  Ba39  1  -0.03865852  0.37236413  0.20002244  1
  Ba  Ba40  1  0.00135410  0.46064638  0.73225921  1
  Ba  Ba41  1  0.57061620  0.08613428  0.22778870  1
  Ba  Ba42  1  0.66080808  0.48774850  0.58559710  1
  Ba  Ba43  1  0.78372015  0.51434890  0.82824405  1
  Ba  Ba44  1  0.44103767  0.01514343  0.42916807  1
  Ba  Ba45  1  0.04109595  0.15901538  -0.11953803  1
  Ba  Ba46  1  0.68206630  0.44498088  0.09509918  1
  Ba  Ba47  1  0.65561899  0.25541015  0.71816630  1
  Ba  Ba48  1  0.72854162  0.75153843  0.29858361  1
  Ba  Ba49  1  -0.08407260  0.04659131  0.40486494  1
  Ba  Ba50  1  0.73330816  0.25304841  0.46402891  1
  Fe  Fe51  1  0.13638503  0.32264735  0.49492885  1
  Fe  Fe52  1  -0.01562331  -0.02837505  0.82959380  1
  Fe  Fe53  1  0.96063381  0.86028552  0.92259597  1
  Fe  Fe54  1  0.19158393  0.41444628  0.02708525  1
  Fe  Fe55  1  0.34402418  0.27903757  0.73835824  1
  Fe  Fe56  1  1.04583102  -0.01919234  0.97007722  1
  Fe  Fe57  1  0.48454490  0.73864285  0.95718701  1
  Fe  Fe58  1  0.18889477  0.91675758  0.32686678  1
  Fe  Fe59  1  1.01729601  0.51202338  0.91328227  1
  Fe  Fe60  1  0.45180296  0.87223390  0.01391403  1
  Fe  Fe61  1  1.10808912  1.04382211  0.28062558  1
  Fe  Fe62  1  1.04925618  0.58662284  0.32417720  1
  Fe  Fe63  1  0.68228338  0.70991726  0.56914759  1
  Fe  Fe64  1  0.49028838  0.52930850  0.08970403  1
  Fe  Fe65  1  0.48664521  0.66771340  0.07807575  1
  Fe  Fe66  1  0.52867720  0.25059844  0.41582187  1
  Fe  Fe67  1  0.46047913  0.35520551  0.69478282  1
  Fe  Fe68  1  0.05772659  0.92197798  0.34485953  1
  Fe  Fe69  1  1.00427675  0.36999632  0.92696273  1
  Fe  Fe70  1  0.46698049  0.01396887  0.02898929  1
  Fe  Fe71  1  1.08498157  0.31698666  0.02235362  1
  Fe  Fe72  1  0.55387947  0.37888531  0.42999819  1
  Fe  Fe73  1  0.27169344  0.28524195  0.46917320  1
  Fe  Fe74  1  0.40125793  0.64879594  0.62097775  1
  Fe  Fe75  1  0.54880004  0.98678166  -0.07228125  1
  Fe  Fe76  1  0.63601760  0.68748657  0.68898574  1
  Fe  Fe77  1  0.11286329  0.19665485  0.51474092  1
  Fe  Fe78  1  0.41616329  0.22459067  0.49632162  1
  Fe  Fe79  1  0.05981194  0.45777715  0.03996548  1
  Fe  Fe80  1  0.51772071  0.31653640  0.55844002  1
  Fe  Fe81  1  0.45662706  0.23432780  0.79317642  1
  Fe  Fe82  1  0.13512535  0.40313416  0.89567050  1
  Fe  Fe83  1  0.50423845  0.44790332  0.98745126  1
  Fe  Fe84  1  0.54105310  0.63799010  0.59813279  1
  Fe  Fe85  1  1.16634042  0.32829900  0.36361603  1
  Fe  Fe86  1  0.98375221  0.96160664  0.22981508  1
  Fe  Fe87  1  0.06135556  0.03274250  0.11373151  1
  Fe  Fe88  1  0.14513894  0.53224121  0.94400088  1
  Fe  Fe89  1  0.99202404  0.09599880  0.22044676  1
  Fe  Fe90  1  0.51917077  0.86033175  0.87784428  1
  Fe  Fe91  1  0.12643387  0.93147246  0.20199653  1
  Fe  Fe92  1  0.40281457  0.93917982  0.90272038  1
  Fe  Fe93  1  0.44838735  0.21463345  0.64989694  1
  Fe  Fe94  1  0.17493134  0.19547859  0.39744721  1
  Fe  Fe95  1  0.10311957  0.62975348  0.42893175  1
  Fe  Fe96  1  0.35439137  0.32478642  0.59184814  1
  Fe  Fe97  1  0.59228509  0.90311988  0.30339818  1
  Fe  Fe98  1  0.43381662  0.63357093  0.49435105  1
  Fe  Fe99  1  0.37220729  0.80391206  0.89701517  1
  Fe  Fe100  1  0.08502501  0.89349234  0.87237323  1
  Fe  Fe101  1  0.41270145  0.35766722  0.45267240  1
  Bi  Bi102  1  0.40626822  0.10295480  -0.10611192  1
  Bi  Bi103  1  0.00926720  0.24310705  0.38271841  1
  Bi  Bi104  1  0.47972661  0.74796999  0.75904569  1
  Bi  Bi105  1  0.59427307  0.60761563  -0.03709092  1
  Bi  Bi106  1  -0.11697882  0.45019997  0.00830014  1
  Bi  Bi107  1  0.44222439  0.48203155  0.57183998  1
  Bi  Bi108  1  0.74814934  -0.03815659  0.26201776  1
  Bi  Bi109  1  0.40571195  0.38149279  0.85996822  1
  Bi  Bi110  1  0.34361161  0.75928374  0.08723477  1
  Bi  Bi111  1  0.26468973  0.07265312  0.33738505  1
  Bi  Bi112  1  0.03767426  -0.15200063  0.08648201  1
  Bi  Bi113  1  0.55956832  0.13870865  0.54768106  1
  Bi  Bi114  1  0.60047390  0.29968372  0.26638506  1
  Bi  Bi115  1  0.35801262  0.40344136  0.10418088  1
  Bi  Bi116  1  0.60842088  0.62278603  0.18376710  1
  Bi  Bi117  1  0.06930836  0.88804862  0.70300911  1
  Bi  Bi118  1  0.11911105  0.60324912  0.60208105  1
  Bi  Bi119  1  0.33146662  0.92137490  0.59895116  1
  Bi  Bi120  1  0.60216051  0.64017044  0.43422012  1
  Bi  Bi121  1  0.81247981  0.67560109  0.68177857  1
  Bi  Bi122  1  0.63178007  0.37191225  0.89935268  1
  Bi  Bi123  1  0.97394530  0.18658016  0.07864795  1
  Bi  Bi124  1  0.65692368  0.07523883  0.02794143  1
  Bi  Bi125  1  0.83829655  0.38221780  0.62138674  1
  Bi  Bi126  1  0.76279181  0.08010100  0.63063825  1
  Bi  Bi127  1  0.89005779  0.56694395  0.26851519  1
