# generated using pymatgen
data_Ba51Fe51Bi26
_symmetry_space_group_name_H-M   'P 1'
_cell_length_a   16.58601314
_cell_length_b   16.35508130
_cell_length_c   16.51763111
_cell_angle_alpha   88.89692986
_cell_angle_beta   87.87662539
_cell_angle_gamma   88.48496777
_symmetry_Int_Tables_number   1
_chemical_formula_structural   Ba51Fe51Bi26
_chemical_formula_sum   'Ba51 Fe51 Bi26'
_cell_volume   4475.27438236
_cell_formula_units_Z   1
loop_
 _symmetry_equiv_pos_site_id
 _symmetry_equiv_pos_as_xyz
  1  'x, y, z'
loop_
 _atom_site_type_symbol
 _atom_site_label
 _atom_site_symmetry_multiplicity
 _atom_site_fract_x
 _atom_site_fract_y
 _atom_site_fract_z
 _atom_site_occupancy
  Ba  Ba0  1  0.21326051  0.00234802  -0.01041539  1
  Ba  Ba1  1  0.81945246  0.26813714  0.86051488  1
  Ba  Ba2  1  -0.08596495  0.71521653  -0.01749262  1
  Ba  Ba3  1  0.46716624  0.23783187  0.21855001  1
  Ba  Ba4  1  0.69191697  0.30655975  0.31077597  1
  Ba  Ba5  1  0.09155370  0.24176077  0.45890984  1
  Ba  Ba6  1  0.21182494  0.30054577  0.08777967  1
  Ba  Ba7  1  0.24552452  0.42943104  0.78611874  1
  Ba  Ba8  1  0.27486526  -0.03677664  0.66908512  1
  Ba  Ba9  1  0.74504905  0.26881918  0.59434517  1
  Ba  Ba10  1  0.88349296  0.02318552  0.24490631  1
  Ba  Ba11  1  0.05132232  -0.01470619  0.48439021  1
  Ba  Ba12  1  0.00702132  0.12711151  -0.03994554  1
  Ba  Ba13  1  0.14804928  0.78256377  0.83020018  1
  Ba  Ba14  1  0.28246867  0.71396688  0.58183048  1
  Ba  Ba15  1  -0.03543984  0.46137181  0.03264014  1
  Ba  Ba16  1  0.80691111  -0.01145356  0.01887942  1
  Ba  Ba17  1  0.09415926  0.59245466  0.68789280  1
  Ba  Ba18  1  0.65247532  0.78514250  0.00292707  1
  Ba  Ba19  1  0.14524307  0.75716622  0.06986910  1
  Ba  Ba20  1  0.55364486  0.42640811  0.48554068  1
  Ba  Ba21  1  0.29266684  0.08504668  0.20584116  1
  Ba  Ba22  1  0.71503717  0.58343874  0.59240549  1
  Ba  Ba23  1  0.57272014  -0.01532248  0.70347854  1
  Ba  Ba24  1  0.16882768  0.55610186  0.41186997  1
  Ba  Ba25  1  0.47501552  -0.07819924  0.49363078  1
  Ba  Ba26  1  -0.08414656  0.73311728  0.55017389  1
  Ba  Ba27  1  0.32466457  0.53524006  0.01837960  1
  Ba  Ba28  1  -0.04410263  0.68379229  0.25211602  1
  Ba  Ba29  1  -0.04145451  0.28165819  0.24391151  1
  Ba  Ba30  1  0.39723235  0.81319081  -0.06389058  1
  Ba  Ba31  1  0.66261285  0.60195777  0.19892598  1
  Ba  Ba32  1  0.56804547  0.14082736  0.45387159  1
  Ba  Ba33  1  0.32431769  0.34259374  0.45376602  1
  Ba  Ba34  1  0.65991023  0.21636888  0.06673131  1
  Ba  Ba35  1  0.49957573  0.20380756  0.78273702  1
  Ba  Ba36  1  0.13149833  -0.10096449  0.26813419  1
  Ba  Ba37  1  0.70097282  0.48537620  -0.01054141  1
  Ba  Ba38  1  0.02734844  0.29555957  0.71811156  1
  Ba  Ba39  1  0.41111506  0.51515319  0.23488051  1
  Ba  Ba40  1  0.35698397  0.76630186  0.32205814  1
  Ba  Ba41  1  0.25357929  0.18897037  0.82774063  1
  Ba  Ba42  1  0.73424636  0.77645623  0.36776256  1
  Ba  Ba43  1  0.77070021  -0.11303635  0.78089997  1
  Ba  Ba44  1  0.40772470  0.59842022  0.78505371  1
  Ba  Ba45  1  0.51137120  0.02371149  0.00323976  1
  Ba  Ba46  1  0.52422026  0.68704133  0.54636090  1
  Ba  Ba47  1  0.79911926  0.00009621  0.51115017  1
  Ba  Ba48  1  0.54351623  0.85336574  0.20078531  1
  Ba  Ba49  1  -0.06946304  0.44266852  0.54632800  1
  Ba  Ba50  1  0.72473024  0.64713904  0.81382797  1
  Fe  Fe51  1  0.77781021  0.10242577  0.73574596  1
  Fe  Fe52  1  0.60079207  0.77197465  0.71577294  1
  Fe  Fe53  1  0.83057185  0.42477504  0.35054879  1
  Fe  Fe54  1  0.08755690  -0.00416815  0.78178722  1
  Fe  Fe55  1  0.02531024  0.46616430  0.84527691  1
  Fe  Fe56  1  0.20837595  1.04945481  0.38329765  1
  Fe  Fe57  1  0.70606846  0.96259509  0.20432149  1
  Fe  Fe58  1  0.87605456  0.17865332  0.69674520  1
  Fe  Fe59  1  0.57089443  0.84558302  0.83562874  1
  Fe  Fe60  1  0.35930956  0.71227817  0.12901478  1
  Fe  Fe61  1  0.83499302  0.56470896  0.42183973  1
  Fe  Fe62  1  0.41854161  0.52984019  0.60439628  1
  Fe  Fe63  1  0.09594106  0.54127077  0.22856450  1
  Fe  Fe64  1  0.53421476  0.49025312  0.67029154  1
  Fe  Fe65  1  0.60674885  0.05225063  0.18533672  1
  Fe  Fe66  1  0.60689433  0.48883920  0.79777784  1
  Fe  Fe67  1  0.54257407  0.72112433  0.82568898  1
  Fe  Fe68  1  0.22153012  0.46563853  0.20162476  1
  Fe  Fe69  1  0.96006406  0.12542287  0.60823966  1
  Fe  Fe70  1  0.07827933  0.41939480  0.17828579  1
  Fe  Fe71  1  0.06800719  0.87430170  0.68988214  1
  Fe  Fe72  1  0.68787501  0.10267268  0.26954657  1
  Fe  Fe73  1  0.70669031  0.52621743  0.37845613  1
  Fe  Fe74  1  0.26324630  0.16991121  0.39454868  1
  Fe  Fe75  1  0.48213215  0.68178292  0.12259156  1
  Fe  Fe76  1  0.48679345  0.36830997  0.01832337  1
  Fe  Fe77  1  0.13929989  0.53309162  0.10092555  1
  Fe  Fe78  1  1.03029028  -0.03498354  0.10582451  1
  Fe  Fe79  1  -0.04688312  0.86543574  0.11595415  1
  Fe  Fe80  1  0.64552981  0.98730712  0.32560314  1
  Fe  Fe81  1  0.88870181  0.59020244  0.72594577  1
  Fe  Fe82  1  0.02165645  1.00553621  0.66320502  1
  Fe  Fe83  1  0.94145963  0.46862461  0.74137606  1
  Fe  Fe84  1  0.50769572  0.46848286  0.91070693  1
  Fe  Fe85  1  0.39368908  0.14973873  0.38017222  1
  Fe  Fe86  1  0.75617434  0.44045255  0.46394260  1
  Fe  Fe87  1  0.23123286  0.08016968  0.51022145  1
  Fe  Fe88  1  0.41171381  0.35657413  0.91061049  1
  Fe  Fe89  1  0.35655979  0.12647280  0.50784923  1
  Fe  Fe90  1  0.61495846  0.38168305  0.71430901  1
  Fe  Fe91  1  0.14137564  0.39980094  0.29100332  1
  Fe  Fe92  1  0.96174444  0.93932310  0.79292974  1
  Fe  Fe93  1  0.29542919  0.49700275  0.58984241  1
  Fe  Fe94  1  0.48107266  0.40810750  0.78830416  1
  Fe  Fe95  1  0.87967169  1.02274019  0.68376634  1
  Fe  Fe96  1  0.87170240  0.50079352  0.85602736  1
  Fe  Fe97  1  0.33796689  1.02639449  0.40231893  1
  Fe  Fe98  1  0.82316209  0.54551464  0.29082315  1
  Fe  Fe99  1  0.96930508  0.09473308  0.76439001  1
  Fe  Fe100  1  0.96833012  0.59438031  0.83919416  1
  Fe  Fe101  1  -0.05813738  0.89205350  0.66069076  1
  Bi  Bi102  1  0.77701383  0.43712848  0.73146628  1
  Bi  Bi103  1  0.01472294  -0.09206651  -0.04797273  1
  Bi  Bi104  1  0.13080565  0.12291762  0.64903952  1
  Bi  Bi105  1  -0.01173980  0.47454489  0.33941095  1
  Bi  Bi106  1  0.09269846  0.32233941  -0.08662463  1
  Bi  Bi107  1  0.69866048  0.81442042  0.58298574  1
  Bi  Bi108  1  -0.05386251  0.74985111  0.76171260  1
  Bi  Bi109  1  0.23052787  0.63779181  0.21585118  1
  Bi  Bi110  1  0.60921628  0.33327834  -0.11165932  1
  Bi  Bi111  1  0.52528203  0.62456469  -0.03110985  1
  Bi  Bi112  1  0.24968911  -0.10327265  0.46282663  1
  Bi  Bi113  1  0.47924503  0.02909436  0.30009971  1
  Bi  Bi114  1  0.41205575  0.36496838  0.64675523  1
  Bi  Bi115  1  0.15350488  0.41152837  0.57873274  1
  Bi  Bi116  1  0.67979547  0.08374184  0.87133160  1
  Bi  Bi117  1  0.11580201  0.58737624  0.92968901  1
  Bi  Bi118  1  0.40115121  0.21449421  0.01183149  1
  Bi  Bi119  1  0.43617005  0.80605585  0.70668930  1
  Bi  Bi120  1  0.92933238  0.85969123  0.37749249  1
  Bi  Bi121  1  0.32642450  0.88078771  0.13459041  1
  Bi  Bi122  1  0.80475250  0.42595952  0.17684083  1
  Bi  Bi123  1  0.08294975  0.11170943  0.16154984  1
  Bi  Bi124  1  0.79161059  0.81441928  0.15757560  1
  Bi  Bi125  1  0.37878873  0.56603727  0.44410724  1
  Bi  Bi126  1  0.57665443  0.40658592  0.15120541  1
  Bi  Bi127  1  0.38519419  0.01778213  0.83906985  1
