# generated using pymatgen
data_Ba51Fe51Bi26
_symmetry_space_group_name_H-M   'P 1'
_cell_length_a   17.18033724
_cell_length_b   15.82676729
_cell_length_c   16.05446122
_cell_angle_alpha   89.32338088
_cell_angle_beta   89.63362874
_cell_angle_gamma   89.18152066
_symmetry_Int_Tables_number   1
_chemical_formula_structural   Ba51Fe51Bi26
_chemical_formula_sum   'Ba51 Fe51 Bi26'
_cell_volume   4364.52132574
_cell_formula_units_Z   1
loop_
 _symmetry_equiv_pos_site_id
 _symmetry_equiv_pos_as_xyz
  1  'x, y, z'
loop_
 _atom_site_type_symbol
 _atom_site_label
 _atom_site_symmetry_multiplicity
 _atom_site_fract_x
 _atom_site_fract_y
 _atom_site_fract_z
 _atom_site_occupancy
  Ba  Ba0  1  0.45613513  0.01944175  0.46306716  1
  Ba  Ba1  1  0.49689641  -0.04472814  0.70721545  1
  Ba  Ba2  1  0.57115422  0.78669866  -0.08460409  1
  Ba  Ba3  1  0.44459263  0.32820471  -0.01680836  1
  Ba  Ba4  1  0.42558476  0.75078176  0.15459107  1
  Ba  Ba5  1  -0.04020906  -0.05716858  0.25087870  1
  Ba  Ba6  1  0.76150454  -0.09222663  -0.02012074  1
  Ba  Ba7  1  0.09738818  0.84517906  0.62091592  1
  Ba  Ba8  1  0.16860995  0.31336144  0.35998400  1
  Ba  Ba9  1  0.24712846  0.73414525  0.47492024  1
  Ba  Ba10  1  -0.01017945  0.10644762  0.04135097  1
  Ba  Ba11  1  0.48654148  0.27192680  0.52443953  1
  Ba  Ba12  1  0.72762785  0.30614293  0.05359318  1
  Ba  Ba13  1  0.29448954  0.17676512  0.60350165  1
  Ba  Ba14  1  0.15611938  -0.08054118  0.01065342  1
  Ba  Ba15  1  0.28175344  0.16743438  -0.06177562  1
  Ba  Ba16  1  -0.02285328  0.46057961  0.25087856  1
  Ba  Ba17  1  0.45975945  0.75644791  0.43702795  1
  Ba  Ba18  1  0.36447214  0.75458747  0.75033872  1
  Ba  Ba19  1  0.49109157  0.30806376  0.27802825  1
  Ba  Ba20  1  0.74808163  0.00147752  0.40086234  1
  Ba  Ba21  1  0.73231248  0.07104342  0.15100206  1
  Ba  Ba22  1  0.51310492  0.04040962  -0.03944505  1
  Ba  Ba23  1  0.24526675  -0.01946469  0.79177421  1
  Ba  Ba24  1  0.75515589  0.75617553  0.19865419  1
  Ba  Ba25  1  -0.08885407  0.54556634  -0.01179461  1
  Ba  Ba26  1  -0.02773516  0.70169368  0.20897185  1
  Ba  Ba27  1  0.30583026  0.49228018  0.16268646  1
  Ba  Ba28  1  0.55672028  0.51313104  0.49465581  1
  Ba  Ba29  1  0.13093025  0.35210828  0.04281387  1
  Ba  Ba30  1  0.69595683  0.74068007  0.46293375  1
  Ba  Ba31  1  0.78839077  0.47384236  0.76417140  1
  Ba  Ba32  1  0.04802073  0.56519732  0.50389975  1
  Ba  Ba33  1  0.45222235  0.57555110  -0.06110943  1
  Ba  Ba34  1  0.19134716  0.74387738  0.22916080  1
  Ba  Ba35  1  0.70308618  0.18171757  0.74943842  1
  Ba  Ba36  1  0.81722562  0.20794306  0.50751579  1
  Ba  Ba37  1  0.73080773  -0.11999718  0.69810081  1
  Ba  Ba38  1  0.03971107  0.21244819  0.59303508  1
  Ba  Ba39  1  0.45917347  0.03260430  0.21467886  1
  Ba  Ba40  1  0.67860788  0.56846135  -0.00227232  1
  Ba  Ba41  1  -0.05782097  0.28122066  0.85772782  1
  Ba  Ba42  1  0.24648440  0.69030029  -0.01612863  1
  Ba  Ba43  1  0.90571965  0.68285596  0.68706364  1
  Ba  Ba44  1  0.17198727  0.00469935  0.43688839  1
  Ba  Ba45  1  0.18060819  0.57393744  0.72090529  1
  Ba  Ba46  1  0.21148772  0.08631205  0.20747098  1
  Ba  Ba47  1  0.69391141  0.46109547  0.26284616  1
  Ba  Ba48  1  0.80206916  0.51738309  0.49246387  1
  Ba  Ba49  1  -0.05441622  0.00908642  0.79370024  1
  Ba  Ba50  1  0.17164936  0.31960443  0.77856938  1
  Fe  Fe51  1  -0.04898136  0.90751894  0.47395065  1
  Fe  Fe52  1  0.31235359  0.43429881  0.65191926  1
  Fe  Fe53  1  0.45024615  0.43089364  0.65444815  1
  Fe  Fe54  1  0.51219302  0.15261952  0.68620373  1
  Fe  Fe55  1  0.33000729  0.45322214  0.36823412  1
  Fe  Fe56  1  0.88954512  0.82658352  0.87267770  1
  Fe  Fe57  1  0.41956620  0.13629669  0.78047640  1
  Fe  Fe58  1  0.00670920  0.26360296  0.21405998  1
  Fe  Fe59  1  0.85549965  -0.00567830  0.57198058  1
  Fe  Fe60  1  0.71923758  0.66690783  0.68141868  1
  Fe  Fe61  1  0.99631113  0.56600164  0.81267282  1
  Fe  Fe62  1  0.97890360  0.71378559  0.86555155  1
  Fe  Fe63  1  0.87706159  0.13953243  0.30736281  1
  Fe  Fe64  1  0.89535283  0.74773856  -0.00855619  1
  Fe  Fe65  1  0.57989983  0.76292653  0.26248647  1
  Fe  Fe66  1  0.61301976  0.64238076  0.31559024  1
  Fe  Fe67  1  0.93302747  0.75884790  0.51071652  1
  Fe  Fe68  1  -0.00629122  0.22817425  0.36308395  1
  Fe  Fe69  1  0.58483927  0.63487416  0.18332185  1
  Fe  Fe70  1  0.35881920  0.42491760  0.51950123  1
  Fe  Fe71  1  0.64073633  0.56009180  0.66066015  1
  Fe  Fe72  1  0.51793562  0.20922916  0.82972647  1
  Fe  Fe73  1  0.83121964  0.85060749  0.51930393  1
  Fe  Fe74  1  0.48772160  0.42425893  0.80343255  1
  Fe  Fe75  1  0.50421019  0.56437360  0.72419424  1
  Fe  Fe76  1  0.25658286  0.52192131  0.48372094  1
  Fe  Fe77  1  0.09526808  0.48181489  0.89013109  1
  Fe  Fe78  1  0.31088753  0.91148163  0.13064414  1
  Fe  Fe79  1  0.58883475  0.42949844  0.69851191  1
  Fe  Fe80  1  0.00735433  0.85310365  0.91341210  1
  Fe  Fe81  1  0.65244175  0.32142291  0.42750101  1
  Fe  Fe82  1  0.11356964  0.13077874  0.84442346  1
  Fe  Fe83  1  0.37088571  0.49951156  0.76850988  1
  Fe  Fe84  1  0.38515863  0.56107429  0.44695965  1
  Fe  Fe85  1  0.62861097  0.65073284  0.78088416  1
  Fe  Fe86  1  0.63257952  0.18895343  0.42907164  1
  Fe  Fe87  1  0.88661400  0.20927244  0.18646228  1
  Fe  Fe88  1  0.03659920  0.73608831  0.00560923  1
  Fe  Fe89  1  0.94764214  0.86421201  0.03470762  1
  Fe  Fe90  1  -0.08591969  0.87281550  0.62405463  1
  Fe  Fe91  1  0.08230534  0.62484998  0.91225625  1
  Fe  Fe92  1  0.52729508  0.29825405  0.71804761  1
  Fe  Fe93  1  0.87435088  0.81794007  0.37915766  1
  Fe  Fe94  1  1.02594289  0.44252782  0.78001791  1
  Fe  Fe95  1  0.00503172  0.13396675  0.26037692  1
  Fe  Fe96  1  0.60219044  0.51763799  0.81479511  1
  Fe  Fe97  1  0.33212932  0.00664634  0.04365270  1
  Fe  Fe98  1  0.88699942  0.29110701  0.31020950  1
  Fe  Fe99  1  -0.02205234  -0.00036780  0.58924148  1
  Fe  Fe100  1  0.30998696  0.59838009  0.34368695  1
  Fe  Fe101  1  0.88717552  0.68638006  0.40623120  1
  Bi  Bi102  1  0.37140876  0.30072147  0.76801283  1
  Bi  Bi103  1  0.68997812  0.36008624  0.58964123  1
  Bi  Bi104  1  -0.02942366  0.07203566  0.43301401  1
  Bi  Bi105  1  0.05357405  0.78878236  0.39675953  1
  Bi  Bi106  1  0.37241976  0.59783562  0.60783446  1
  Bi  Bi107  1  0.46480775  0.56850562  0.30138382  1
  Bi  Bi108  1  0.77329780  0.70682457  -0.14504122  1
  Bi  Bi109  1  0.56751055  0.73740138  0.64376838  1
  Bi  Bi110  1  0.73154857  0.23676909  0.29707874  1
  Bi  Bi111  1  0.26396272  0.47302105  0.91341098  1
  Bi  Bi112  1  0.13319843  0.78163317  -0.17264932  1
  Bi  Bi113  1  -0.04305263  0.37053443  0.45327941  1
  Bi  Bi114  1  0.16425225  0.53836977  0.32701105  1
  Bi  Bi115  1  0.93176688  0.33368644  0.07231185  1
  Bi  Bi116  1  0.33301743  0.16985776  0.37226375  1
  Bi  Bi117  1  0.56034743  0.19041710  0.10735007  1
  Bi  Bi118  1  0.80965961  0.12140476  0.93471954  1
  Bi  Bi119  1  0.53366539  0.47643307  0.11875386  1
  Bi  Bi120  1  0.31472907  0.91922385  0.59386503  1
  Bi  Bi121  1  0.32100771  0.89449645  0.30700784  1
  Bi  Bi122  1  0.62517677  0.08137792  0.57223880  1
  Bi  Bi123  1  0.18640825  0.38251585  0.56594843  1
  Bi  Bi124  1  0.37165715  0.87068082  0.94486159  1
  Bi  Bi125  1  0.09660465  0.57592367  0.08151924  1
  Bi  Bi126  1  0.59553585  0.88044087  0.12352504  1
  Bi  Bi127  1  0.62468327  0.35222530  0.86611905  1
