# generated using pymatgen
data_Ba51Fe51Bi26
_symmetry_space_group_name_H-M   'P 1'
_cell_length_a   15.76209321
_cell_length_b   16.68992814
_cell_length_c   16.59479184
_cell_angle_alpha   92.94848182
_cell_angle_beta   89.26066020
_cell_angle_gamma   90.40914355
_symmetry_Int_Tables_number   1
_chemical_formula_structural   Ba51Fe51Bi26
_chemical_formula_sum   'Ba51 Fe51 Bi26'
_cell_volume   4359.32821829
_cell_formula_units_Z   1
loop_
 _symmetry_equiv_pos_site_id
 _symmetry_equiv_pos_as_xyz
  1  'x, y, z'
loop_
 _atom_site_type_symbol
 _atom_site_label
 _atom_site_symmetry_multiplicity
 _atom_site_fract_x
 _atom_site_fract_y
 _atom_site_fract_z
 _atom_site_occupancy
  Ba  Ba0  1  0.67075108  -0.06635612  0.67480497  1
  Ba  Ba1  1  0.26576899  0.44779477  0.34051920  1
  Ba  Ba2  1  0.21885045  0.81319158  0.31188695  1
  Ba  Ba3  1  0.26516449  0.23698736  0.73782602  1
  Ba  Ba4  1  0.49916965  0.33239470  0.00291893  1
  Ba  Ba5  1  0.52022538  0.45615322  0.44800774  1
  Ba  Ba6  1  0.43902360  0.73089147  0.33838542  1
  Ba  Ba7  1  0.06452120  0.24547596  0.57036938  1
  Ba  Ba8  1  0.38545005  0.58431815  -0.04158907  1
  Ba  Ba9  1  0.25905982  0.70379320  0.71332926  1
  Ba  Ba10  1  0.77741159  0.82338459  0.08503979  1
  Ba  Ba11  1  0.00840256  -0.03869928  0.83034006  1
  Ba  Ba12  1  0.69347728  0.24778831  0.40928063  1
  Ba  Ba13  1  -0.00120824  0.57051631  0.62711203  1
  Ba  Ba14  1  0.08131789  0.15574695  0.06626175  1
  Ba  Ba15  1  0.04025521  0.78233084  -0.03875077  1
  Ba  Ba16  1  0.77070319  0.40952901  0.80309720  1
  Ba  Ba17  1  0.23883610  0.31644278  -0.01308431  1
  Ba  Ba18  1  -0.03038454  0.16781210  0.30314299  1
  Ba  Ba19  1  0.35932888  -0.03669690  0.71690247  1
  Ba  Ba20  1  0.52607413  0.51763013  0.70714927  1
  Ba  Ba21  1  0.46381465  -0.00469750  0.00696789  1
  Ba  Ba22  1  0.76913630  0.02183818  0.43568792  1
  Ba  Ba23  1  0.23038513  0.03089843  -0.08470190  1
  Ba  Ba24  1  0.67213604  0.84457996  0.30189096  1
  Ba  Ba25  1  0.08390849  0.76498506  0.49894433  1
  Ba  Ba26  1  0.52633621  0.76977075  0.08831749  1
  Ba  Ba27  1  -0.07796910  0.71927035  0.24410578  1
  Ba  Ba28  1  0.81016498  0.73100307  0.75444521  1
  Ba  Ba29  1  0.53097627  0.76304079  0.83895631  1
  Ba  Ba30  1  0.55739227  0.27288309  0.75743152  1
  Ba  Ba31  1  0.82094075  0.21905186  0.62985956  1
  Ba  Ba32  1  0.23017907  0.17096723  0.27635781  1
  Ba  Ba33  1  0.13215375  0.51475382  0.09216053  1
  Ba  Ba34  1  0.76319205  0.05687281  0.17452190  1
  Ba  Ba35  1  0.49334110  -0.03966371  0.49371201  1
  Ba  Ba36  1  0.21467750  0.46908965  0.71925977  1
  Ba  Ba37  1  0.24825193  0.75442410  0.07957467  1
  Ba  Ba38  1  -0.00958277  0.42292315  0.34795287  1
  Ba  Ba39  1  0.72912358  -0.04782900  -0.09409537  1
  Ba  Ba40  1  0.57091012  0.54273970  0.16058727  1
  Ba  Ba41  1  -0.04145826  -0.04175917  0.60947619  1
  Ba  Ba42  1  0.59134565  0.21251543  0.16088613  1
  Ba  Ba43  1  0.75380053  0.56869126  0.57096463  1
  Ba  Ba44  1  0.82626462  0.45989299  0.08882206  1
  Ba  Ba45  1  0.49533748  0.72991534  0.57337420  1
  Ba  Ba46  1  0.44907223  0.19556758  0.49071963  1
  Ba  Ba47  1  0.75313551  0.48628707  0.33591408  1
  Ba  Ba48  1  -0.02349421  0.53691116  0.87926187  1
  Ba  Ba49  1  0.19142503  0.01337582  0.45897011  1
  Ba  Ba50  1  0.82599241  0.21880735  -0.01228277  1
  Fe  Fe51  1  0.65711625  0.59077313  0.85186034  1
  Fe  Fe52  1  0.87549799  0.40193335  0.59855909  1
  Fe  Fe53  1  0.59210653  0.61340979  0.96953157  1
  Fe  Fe54  1  0.52458357  0.08514591  0.71591816  1
  Fe  Fe55  1  0.05610608  0.27319239  0.84246864  1
  Fe  Fe56  1  0.95478605  0.88883506  0.14354116  1
  Fe  Fe57  1  0.66144314  0.10820616  0.78122831  1
  Fe  Fe58  1  0.38549165  0.89628693  0.18776949  1
  Fe  Fe59  1  0.96369345  0.31431132  0.14328818  1
  Fe  Fe60  1  0.29255041  0.68571080  0.49416079  1
  Fe  Fe61  1  0.17937222  0.86753799  0.78363008  1
  Fe  Fe62  1  0.72464744  0.63441513  0.03784031  1
  Fe  Fe63  1  0.78614919  0.73761173  0.43596670  1
  Fe  Fe64  1  0.39674833  0.30175734  0.20640393  1
  Fe  Fe65  1  0.38371292  0.62997583  0.16027974  1
  Fe  Fe66  1  0.79166598  0.86054897  0.53178770  1
  Fe  Fe67  1  0.39103002  0.05667247  0.34527250  1
  Fe  Fe68  1  -0.02049164  0.14531569  0.88558564  1
  Fe  Fe69  1  0.82163820  0.38163647  0.48629168  1
  Fe  Fe70  1  0.55829897  0.48626566  0.89105929  1
  Fe  Fe71  1  0.87415113  0.64030405  0.03547898  1
  Fe  Fe72  1  0.66070192  0.81863655  0.48382957  1
  Fe  Fe73  1  0.43424845  0.92886286  0.31030190  1
  Fe  Fe74  1  0.41673882  0.04637650  0.20276652  1
  Fe  Fe75  1  0.08922817  0.86917009  0.17562804  1
  Fe  Fe76  1  0.99246101  0.01507870  0.18586132  1
  Fe  Fe77  1  0.92076540  0.23859756  0.80690218  1
  Fe  Fe78  1  0.52136242  0.29423166  0.32130194  1
  Fe  Fe79  1  0.55640919  0.03583792  0.83051137  1
  Fe  Fe80  1  0.07996555  -0.04175194  0.08051971  1
  Fe  Fe81  1  0.28436306  0.61652371  0.24230795  1
  Fe  Fe82  1  0.86773615  0.75064327  0.54788167  1
  Fe  Fe83  1  0.10351839  0.57915744  0.43347175  1
  Fe  Fe84  1  0.52257984  0.94716622  0.20538542  1
  Fe  Fe85  1  0.20170968  0.58882337  0.52658988  1
  Fe  Fe86  1  0.02199081  0.92371576  0.29169302  1
  Fe  Fe87  1  1.00937627  0.15464581  0.73617483  1
  Fe  Fe88  1  0.83949348  0.70904872  0.93923646  1
  Fe  Fe89  1  0.66536109  0.49995449  0.97323953  1
  Fe  Fe90  1  0.16269960  0.89011452  0.65954004  1
  Fe  Fe91  1  0.23629973  0.63200859  0.38480423  1
  Fe  Fe92  1  0.77908791  0.57976217  0.92266636  1
  Fe  Fe93  1  0.29310247  0.98313657  0.27141362  1
  Fe  Fe94  1  0.11003097  0.14942971  0.83212500  1
  Fe  Fe95  1  0.43339979  0.17798975  0.27615181  1
  Fe  Fe96  1  0.13428487  -0.00419707  0.23065344  1
  Fe  Fe97  1  0.47304912  0.39908941  0.26069141  1
  Fe  Fe98  1  0.38825429  0.29960144  0.34369343  1
  Fe  Fe99  1  0.69579094  0.71176231  0.93326842  1
  Fe  Fe100  1  0.88662623  0.93323762  0.25999217  1
  Fe  Fe101  1  0.71308430  0.75140946  0.57780970  1
  Bi  Bi102  1  0.36118006  0.46283429  0.13913178  1
  Bi  Bi103  1  -0.08290746  0.00153367  0.02424222  1
  Bi  Bi104  1  0.36679560  0.55687609  0.56574385  1
  Bi  Bi105  1  0.62849089  0.11695358  0.58567722  1
  Bi  Bi106  1  0.29787194  0.84748199  0.53603758  1
  Bi  Bi107  1  0.00173570  0.35506156  -0.01321233  1
  Bi  Bi108  1  0.36531624  0.17242547  0.10169888  1
  Bi  Bi109  1  0.91337309  0.86644995  0.40829611  1
  Bi  Bi110  1  -0.07923659  0.61863239  0.43510282  1
  Bi  Bi111  1  0.15037783  0.06033185  0.67981145  1
  Bi  Bi112  1  -0.01491497  0.37312935  0.72644476  1
  Bi  Bi113  1  0.25108425  -0.03260707  0.11155995  1
  Bi  Bi114  1  0.57383544  0.06685529  0.32273648  1
  Bi  Bi115  1  0.67717221  0.37757500  0.59273074  1
  Bi  Bi116  1  0.03824760  0.77716442  0.71665523  1
  Bi  Bi117  1  0.17676576  0.61473704  0.90251738  1
  Bi  Bi118  1  0.39584427  0.40664296  0.83599592  1
  Bi  Bi119  1  0.10951538  0.61952929  0.27324942  1
  Bi  Bi120  1  0.83999497  0.08308146  0.77815123  1
  Bi  Bi121  1  0.13146101  0.43605149  0.51426856  1
  Bi  Bi122  1  0.41285572  0.13567638  0.84652314  1
  Bi  Bi123  1  0.12346139  0.32934647  0.19916741  1
  Bi  Bi124  1  0.31931393  0.83298421  0.88801646  1
  Bi  Bi125  1  0.62636072  0.14184558  -0.04853219  1
  Bi  Bi126  1  0.80834899  0.28929050  0.21947013  1
  Bi  Bi127  1  0.63055011  0.65467178  0.41318830  1
