# generated using pymatgen
data_Ba51Fe51Bi26
_symmetry_space_group_name_H-M   'P 1'
_cell_length_a   16.70392907
_cell_length_b   16.11591930
_cell_length_c   16.37241756
_cell_angle_alpha   90.89016942
_cell_angle_beta   88.90724267
_cell_angle_gamma   88.61350862
_symmetry_Int_Tables_number   1
_chemical_formula_structural   Ba51Fe51Bi26
_chemical_formula_sum   'Ba51 Fe51 Bi26'
_cell_volume   4404.78525926
_cell_formula_units_Z   1
loop_
 _symmetry_equiv_pos_site_id
 _symmetry_equiv_pos_as_xyz
  1  'x, y, z'
loop_
 _atom_site_type_symbol
 _atom_site_label
 _atom_site_symmetry_multiplicity
 _atom_site_fract_x
 _atom_site_fract_y
 _atom_site_fract_z
 _atom_site_occupancy
  Ba  Ba0  1  0.52314186  0.81557011  0.13995119  1
  Ba  Ba1  1  0.56970407  0.74594255  0.41430489  1
  Ba  Ba2  1  0.57631912  0.55700974  0.07407322  1
  Ba  Ba3  1  0.24368666  0.55252128  -0.00147300  1
  Ba  Ba4  1  0.17350333  0.14803156  0.81050725  1
  Ba  Ba5  1  0.68985856  0.19514107  0.27102060  1
  Ba  Ba6  1  0.60829752  0.00686654  0.42884626  1
  Ba  Ba7  1  0.74161363  0.04060673  0.62746952  1
  Ba  Ba8  1  0.30554837  0.78894274  0.30165041  1
  Ba  Ba9  1  0.01350011  -0.09120322  0.18465781  1
  Ba  Ba10  1  0.72617032  0.49896039  0.50239504  1
  Ba  Ba11  1  0.25585522  0.55860680  0.25457042  1
  Ba  Ba12  1  0.53801364  0.47491265  0.32164515  1
  Ba  Ba13  1  -0.00560868  0.38153621  0.52035331  1
  Ba  Ba14  1  0.77604840  0.25463225  0.50712559  1
  Ba  Ba15  1  -0.02705716  0.24741508  0.87936284  1
  Ba  Ba16  1  0.46076821  0.48776050  0.57055277  1
  Ba  Ba17  1  0.21218289  0.02284138  0.21513831  1
  Ba  Ba18  1  0.70521942  0.56437188  0.83609871  1
  Ba  Ba19  1  0.76306515  0.75123501  0.52812753  1
  Ba  Ba20  1  0.82294455  0.05346983  0.13610074  1
  Ba  Ba21  1  0.68031272  0.31380759  0.73484425  1
  Ba  Ba22  1  0.44566175  0.05201713  0.26359575  1
  Ba  Ba23  1  0.26189704  -0.06482030  0.85542814  1
  Ba  Ba24  1  0.38730994  0.74638008  0.58359081  1
  Ba  Ba25  1  0.75696543  0.34189548  0.00319386  1
  Ba  Ba26  1  -0.04122271  -0.08316706  0.63847885  1
  Ba  Ba27  1  0.20930678  0.49603464  0.68391498  1
  Ba  Ba28  1  0.02246715  0.23442944  0.11081465  1
  Ba  Ba29  1  0.77963555  0.43938352  0.23453651  1
  Ba  Ba30  1  0.51800018  0.20333851  0.00434842  1
  Ba  Ba31  1  0.70613759  0.80586050  0.76154946  1
  Ba  Ba32  1  0.41479352  0.28607154  0.79346430  1
  Ba  Ba33  1  0.25646108  0.27026422  0.56066919  1
  Ba  Ba34  1  -0.06605432  0.57584091  0.73069916  1
  Ba  Ba35  1  0.38833035  0.29951909  0.23501238  1
  Ba  Ba36  1  0.78294533  0.04858813  -0.11538535  1
  Ba  Ba37  1  0.39799999  0.04508459  0.60761253  1
  Ba  Ba38  1  -0.01145965  0.75393732  0.41982667  1
  Ba  Ba39  1  0.15389146  0.31533592  0.31138563  1
  Ba  Ba40  1  0.03349519  0.13834538  0.57987906  1
  Ba  Ba41  1  -0.03108289  0.64858788  0.13960119  1
  Ba  Ba42  1  0.46666715  0.57263536  0.81816811  1
  Ba  Ba43  1  0.14922042  0.75245563  0.67796632  1
  Ba  Ba44  1  0.57077071  -0.04168714  -0.05080379  1
  Ba  Ba45  1  0.78396214  0.77679529  0.01449930  1
  Ba  Ba46  1  0.46932175  0.83289385  0.78399400  1
  Ba  Ba47  1  -0.02069320  0.52045182  0.34136450  1
  Ba  Ba48  1  -0.03720889  0.16082458  0.33496682  1
  Ba  Ba49  1  0.07310518  0.79675393  -0.06002319  1
  Ba  Ba50  1  0.76617535  0.83588799  0.27327203  1
  Fe  Fe51  1  0.26173283  0.97170099  0.40597888  1
  Fe  Fe52  1  0.31226601  0.28277021  1.01737895  1
  Fe  Fe53  1  0.94892126  0.07694025  -0.01613746  1
  Fe  Fe54  1  0.19471975  0.34521699  0.07534553  1
  Fe  Fe55  1  0.70055229  0.61954218  0.32213973  1
  Fe  Fe56  1  0.43709658  0.17764966  0.44592278  1
  Fe  Fe57  1  0.93286985  0.94508914  -0.00958278  1
  Fe  Fe58  1  0.99003820  0.00589243  0.87226583  1
  Fe  Fe59  1  0.87911299  0.05689324  0.48323317  1
  Fe  Fe60  1  0.33609648  0.16685080  0.09201570  1
  Fe  Fe61  1  0.21753161  0.21105448  0.12842038  1
  Fe  Fe62  1  0.34929840  0.71870852  0.09230419  1
  Fe  Fe63  1  0.21851172  0.05858039  0.52536682  1
  Fe  Fe64  1  0.14253424  0.61393169  0.41285011  1
  Fe  Fe65  1  0.23997368  0.08293465  1.02879601  1
  Fe  Fe66  1  0.58683478  0.11539132  0.80902662  1
  Fe  Fe67  1  0.94953882  0.44401516  0.06633466  1
  Fe  Fe68  1  0.60950341  0.32662305  0.42307090  1
  Fe  Fe69  1  0.26758778  0.91059817  0.53035669  1
  Fe  Fe70  1  0.25563271  0.59631071  0.48180491  1
  Fe  Fe71  1  0.38336943  0.84963118  0.99079893  1
  Fe  Fe72  1  0.57695259  0.19621815  0.48516647  1
  Fe  Fe73  1  0.82298822  0.93677855  0.45369696  1
  Fe  Fe74  1  0.85695341  0.99868637  0.33633987  1
  Fe  Fe75  1  0.32589850  0.85471478  0.12152900  1
  Fe  Fe76  1  0.57803062  0.32549952  0.55143446  1
  Fe  Fe77  1  0.14421435  0.05506596  0.41373625  1
  Fe  Fe78  1  0.77824099  0.08087835  0.40601189  1
  Fe  Fe79  1  0.07489819  0.38679714  0.99529279  1
  Fe  Fe80  1  0.16627258  0.48681016  0.45597075  1
  Fe  Fe81  1  0.61244420  0.05436416  0.12339433  1
  Fe  Fe82  1  0.82437352  0.64695506  0.32615493  1
  Fe  Fe83  1  0.62867978  0.97557118  0.22826559  1
  Fe  Fe84  1  0.26721686  0.77573336  -0.00716249  1
  Fe  Fe85  1  0.18750079  0.21692380  -0.00716668  1
  Fe  Fe86  1  0.93683194  0.46867271  0.93680151  1
  Fe  Fe87  1  0.89421204  0.34236694  0.35826922  1
  Fe  Fe88  1  1.06027984  0.43924868  0.86176214  1
  Fe  Fe89  1  0.46523070  0.32763964  0.44854950  1
  Fe  Fe90  1  0.32446131  0.15017099  0.94694956  1
  Fe  Fe91  1  1.04496551  0.53348502  -0.01417485  1
  Fe  Fe92  1  0.45941590  0.25411730  0.56353892  1
  Fe  Fe93  1  0.13651666  0.93282816  0.49967301  1
  Fe  Fe94  1  0.75596095  0.64042709  0.20075830  1
  Fe  Fe95  1  0.23982105  0.91635904  1.04314040  1
  Fe  Fe96  1  0.40973996  0.71380481  0.96724660  1
  Fe  Fe97  1  0.83474241  0.41506344  0.64742969  1
  Fe  Fe98  1  0.67841496  0.93517228  0.10866703  1
  Fe  Fe99  1  0.52826427  0.23227841  0.36460651  1
  Fe  Fe100  1  0.90567140  0.31234954  0.68007945  1
  Fe  Fe101  1  0.57269217  1.00710506  0.73678312  1
  Bi  Bi102  1  0.09775018  0.00843920  0.00985363  1
  Bi  Bi103  1  0.21483641  0.35612376  -0.10738760  1
  Bi  Bi104  1  0.42653113  0.06918446  0.82697685  1
  Bi  Bi105  1  0.09044293  0.46053833  0.15746544  1
  Bi  Bi106  1  0.28332532  0.14800787  0.38298650  1
  Bi  Bi107  1  0.30064713  0.71068570  -0.16532736  1
  Bi  Bi108  1  0.39288890  0.00613150  0.06158649  1
  Bi  Bi109  1  0.80384563  0.55314063  0.04842328  1
  Bi  Bi110  1  -0.15391939  0.40427610  0.81422119  1
  Bi  Bi111  1  0.32015229  0.42073567  0.41809424  1
  Bi  Bi112  1  0.19177806  0.76775265  0.47358111  1
  Bi  Bi113  1  0.56859880  0.16457345  0.64911389  1
  Bi  Bi114  1  0.00314278  -0.03588434  0.40924225  1
  Bi  Bi115  1  0.58054511  0.72731329  0.93751390  1
  Bi  Bi116  1  0.17553688  0.75051768  0.13423531  1
  Bi  Bi117  1  0.05298707  0.58491617  0.55225856  1
  Bi  Bi118  1  0.59446255  0.34929427  0.15095019  1
  Bi  Bi119  1  0.41566328  0.91000083  0.43371387  1
  Bi  Bi120  1  0.40267279  0.62218772  0.40403576  1
  Bi  Bi121  1  0.89445605  0.86308916  0.84132272  1
  Bi  Bi122  1  0.16481475  -0.02352895  0.66576509  1
  Bi  Bi123  1  0.07394602  0.32881286  0.70723054  1
  Bi  Bi124  1  0.10332995  0.60312487  0.84224701  1
  Bi  Bi125  1  0.56956780  0.40131848  0.90335690  1
  Bi  Bi126  1  0.60040366  0.64285123  0.63773663  1
  Bi  Bi127  1  0.58609815  0.88906956  0.60742577  1
