# generated using pymatgen
data_Ba51Fe51Bi26
_symmetry_space_group_name_H-M   'P 1'
_cell_length_a   16.67189223
_cell_length_b   16.55251558
_cell_length_c   16.19540793
_cell_angle_alpha   89.37578176
_cell_angle_beta   89.20510252
_cell_angle_gamma   90.00597533
_symmetry_Int_Tables_number   1
_chemical_formula_structural   Ba51Fe51Bi26
_chemical_formula_sum   'Ba51 Fe51 Bi26'
_cell_volume   4468.61774131
_cell_formula_units_Z   1
loop_
 _symmetry_equiv_pos_site_id
 _symmetry_equiv_pos_as_xyz
  1  'x, y, z'
loop_
 _atom_site_type_symbol
 _atom_site_label
 _atom_site_symmetry_multiplicity
 _atom_site_fract_x
 _atom_site_fract_y
 _atom_site_fract_z
 _atom_site_occupancy
  Ba  Ba0  1  0.75354510  0.45464990  0.52622219  1
  Ba  Ba1  1  0.21083017  0.76700295  0.10280170  1
  Ba  Ba2  1  0.46401994  0.64237727  0.00129600  1
  Ba  Ba3  1  0.51001020  -0.12046912  -0.00123464  1
  Ba  Ba4  1  0.09272422  -0.03651114  0.50042734  1
  Ba  Ba5  1  0.48931397  0.21800064  0.77054667  1
  Ba  Ba6  1  -0.00931590  0.76565754  0.70696520  1
  Ba  Ba7  1  -0.03143198  0.52064396  0.72810299  1
  Ba  Ba8  1  0.81133273  -0.09647200  0.80028052  1
  Ba  Ba9  1  0.21680197  0.26577783  0.66545616  1
  Ba  Ba10  1  0.02747605  0.03108737  0.74032024  1
  Ba  Ba11  1  0.79252359  0.14213703  0.77090155  1
  Ba  Ba12  1  0.24652263  0.48710387  0.60011893  1
  Ba  Ba13  1  0.01038145  0.42206743  0.48791053  1
  Ba  Ba14  1  0.66541260  0.21150956  -0.02852965  1
  Ba  Ba15  1  0.69798755  0.68445656  0.33092449  1
  Ba  Ba16  1  0.50344541  0.52547566  0.69970329  1
  Ba  Ba17  1  -0.00378916  0.04134485  0.27688665  1
  Ba  Ba18  1  -0.04700303  0.66124924  0.45499487  1
  Ba  Ba19  1  0.55030065  0.49525433  0.17445302  1
  Ba  Ba20  1  0.47335011  0.78572753  0.25423928  1
  Ba  Ba21  1  0.76366571  0.17002198  0.50891099  1
  Ba  Ba22  1  0.27854612  0.04030729  0.68724010  1
  Ba  Ba23  1  0.27872343  0.19544884  0.18997793  1
  Ba  Ba24  1  0.64492168  0.71384943  0.82658426  1
  Ba  Ba25  1  0.55234253  0.28070751  0.43427701  1
  Ba  Ba26  1  0.17902842  0.72445403  0.51602489  1
  Ba  Ba27  1  0.24498713  0.85473485  0.31934057  1
  Ba  Ba28  1  0.77426253  0.42334319  0.04006899  1
  Ba  Ba29  1  0.24310484  0.35129769  -0.04164529  1
  Ba  Ba30  1  -0.05254669  0.57752636  -0.02910467  1
  Ba  Ba31  1  0.73882691  0.42408248  0.78155583  1
  Ba  Ba32  1  0.45721878  0.75741352  0.50131078  1
  Ba  Ba33  1  0.73350051  0.78178010  0.56849194  1
  Ba  Ba34  1  0.03728618  0.02596848  -0.02044790  1
  Ba  Ba35  1  -0.00039379  0.18658466  0.53606786  1
  Ba  Ba36  1  0.72563757  -0.06719830  0.20845468  1
  Ba  Ba37  1  0.02486306  0.27044691  0.20547893  1
  Ba  Ba38  1  0.00041415  0.28733379  0.86596907  1
  Ba  Ba39  1  0.78992805  0.76739823  0.02437496  1
  Ba  Ba40  1  0.27474670  0.00244050  -0.04314777  1
  Ba  Ba41  1  0.44830424  0.81035874  0.74623281  1
  Ba  Ba42  1  0.27584134  0.52368550  0.21894630  1
  Ba  Ba43  1  0.52955219  0.20420945  0.19137933  1
  Ba  Ba44  1  0.51468913  0.02246369  0.54000549  1
  Ba  Ba45  1  0.77602764  0.19038386  0.22528644  1
  Ba  Ba46  1  0.28199055  0.32688795  0.40618236  1
  Ba  Ba47  1  -0.05656338  0.78552518  0.24903131  1
  Ba  Ba48  1  0.01416784  0.79299936  -0.02518925  1
  Ba  Ba49  1  0.81799598  0.46964747  0.28504942  1
  Ba  Ba50  1  0.25197224  0.58749475  0.84018120  1
  Fe  Fe51  1  0.61883339  0.92435716  0.83831329  1
  Fe  Fe52  1  0.90726350  0.61372387  0.16565903  1
  Fe  Fe53  1  0.42220309  0.43232682  0.50624342  1
  Fe  Fe54  1  0.08800994  0.45104881  0.12139954  1
  Fe  Fe55  1  0.41614840  0.47676317  0.92236830  1
  Fe  Fe56  1  0.50785720  0.59658253  0.37014363  1
  Fe  Fe57  1  0.18530830  0.75143191  0.73009131  1
  Fe  Fe58  1  0.25568179  0.87052648  0.79319221  1
  Fe  Fe59  1  0.89523595  0.02694341  0.60425749  1
  Fe  Fe60  1  0.95759182  0.48073361  0.15260148  1
  Fe  Fe61  1  0.46164468  0.46167553  0.38054622  1
  Fe  Fe62  1  0.89698306  0.89543684  0.59001803  1
  Fe  Fe63  1  0.55423738  0.45529006  0.51253382  1
  Fe  Fe64  1  0.85067073  0.69080320  0.83578681  1
  Fe  Fe65  1  0.79766466  0.61597309  0.74903738  1
  Fe  Fe66  1  0.68722940  0.59901895  0.00290051  1
  Fe  Fe67  1  0.41504794  0.39729123  0.05349104  1
  Fe  Fe68  1  0.15161022  0.88028034  0.67881768  1
  Fe  Fe69  1  0.17535955  0.77555040  0.86877250  1
  Fe  Fe70  1  0.05675224  0.59414010  0.15253321  1
  Fe  Fe71  1  0.76955489  0.58535413  0.89269588  1
  Fe  Fe72  1  0.60428130  0.59481640  0.48964300  1
  Fe  Fe73  1  0.86449404  0.94284109  0.99638264  1
  Fe  Fe74  1  0.87741867  -0.00648862  0.47452413  1
  Fe  Fe75  1  0.46376984  0.07913757  0.94195355  1
  Fe  Fe76  1  0.27268666  1.04328791  0.35911556  1
  Fe  Fe77  1  0.54204325  0.36712379  0.01605289  1
  Fe  Fe78  1  0.61434028  0.91341506  0.70597467  1
  Fe  Fe79  1  0.90692489  0.86699747  0.45638465  1
  Fe  Fe80  1  0.36146646  1.02724865  0.24060132  1
  Fe  Fe81  1  0.47117629  0.35792661  0.90711153  1
  Fe  Fe82  1  0.04743185  0.35184250  0.66900294  1
  Fe  Fe83  1  0.55143822  0.06953768  0.04018155  1
  Fe  Fe84  1  0.27426784  0.83610196  0.65172389  1
  Fe  Fe85  1  0.84996347  0.05383334  0.08883178  1
  Fe  Fe86  1  0.06696095  0.43915208  0.99186275  1
  Fe  Fe87  1  0.35541071  0.94128312  0.14101224  1
  Fe  Fe88  1  0.96963687  0.38041892  1.05327854  1
  Fe  Fe89  1  0.41482500  0.06281786  0.08821354  1
  Fe  Fe90  1  0.11712532  0.87845268  0.81279077  1
  Fe  Fe91  1  0.05465690  0.90427394  0.13822058  1
  Fe  Fe92  1  0.33851105  0.50430430  0.02893724  1
  Fe  Fe93  1  0.62676433  0.04115071  0.74279690  1
  Fe  Fe94  1  0.59106188  0.05472221  0.88577997  1
  Fe  Fe95  1  0.84541609  0.06986372  0.95463017  1
  Fe  Fe96  1  0.16106940  0.55166854  0.40290324  1
  Fe  Fe97  1  0.47312284  0.56260447  0.49965130  1
  Fe  Fe98  1  0.28635364  0.10336527  0.47823743  1
  Fe  Fe99  1  0.60073729  0.50014387  0.38982099  1
  Fe  Fe100  1  0.98320625  0.58044890  0.26928261  1
  Fe  Fe101  1  0.92716005  0.93186847  0.11859871  1
  Bi  Bi102  1  0.19422267  -0.00953030  0.16816663  1
  Bi  Bi103  1  0.08581969  0.45221911  0.29239681  1
  Bi  Bi104  1  0.73501101  -0.01028938  0.61407038  1
  Bi  Bi105  1  0.33018761  0.57522204  0.41764699  1
  Bi  Bi106  1  0.51758110  -0.01699716  0.18953308  1
  Bi  Bi107  1  0.59375839  0.49555814  -0.08612045  1
  Bi  Bi108  1  0.70322754  -0.01556455  -0.01184960  1
  Bi  Bi109  1  0.17553939  0.56645877  0.03293626  1
  Bi  Bi110  1  0.46516573  0.00749924  0.78831166  1
  Bi  Bi111  1  -0.12245085  0.21954077  0.03221887  1
  Bi  Bi112  1  0.42551013  0.22552223  0.00506311  1
  Bi  Bi113  1  0.32839178  0.78694320  0.92524840  1
  Bi  Bi114  1  0.30948339  -0.07273370  0.50731200  1
  Bi  Bi115  1  0.88493117  0.32722707  0.65878835  1
  Bi  Bi116  1  0.32566101  0.67250459  0.65829367  1
  Bi  Bi117  1  0.88191610  0.29071352  0.37999823  1
  Bi  Bi118  1  0.64025523  0.07611254  0.35713485  1
  Bi  Bi119  1  0.14003803  0.18753914  0.03455519  1
  Bi  Bi120  1  0.14763602  0.15594955  0.38401035  1
  Bi  Bi121  1  0.39077832  0.20338682  0.56770522  1
  Bi  Bi122  1  0.62190509  0.69864187  0.12579758  1
  Bi  Bi123  1  0.11943676  0.68047368  0.30026574  1
  Bi  Bi124  1  0.17119720  0.15708872  0.84548240  1
  Bi  Bi125  1  0.40628923  0.14413120  0.36060011  1
  Bi  Bi126  1  0.35839796  0.39479931  0.77868958  1
  Bi  Bi127  1  0.61802077  0.87850265  0.39916485  1
