# generated using pymatgen
data_Ba51Fe51Bi26
_symmetry_space_group_name_H-M   'P 1'
_cell_length_a   16.31901631
_cell_length_b   16.65532601
_cell_length_c   16.28293198
_cell_angle_alpha   89.63227126
_cell_angle_beta   90.12609467
_cell_angle_gamma   90.23119356
_symmetry_Int_Tables_number   1
_chemical_formula_structural   Ba51Fe51Bi26
_chemical_formula_sum   'Ba51 Fe51 Bi26'
_cell_volume   4425.53944176
_cell_formula_units_Z   1
loop_
 _symmetry_equiv_pos_site_id
 _symmetry_equiv_pos_as_xyz
  1  'x, y, z'
loop_
 _atom_site_type_symbol
 _atom_site_label
 _atom_site_symmetry_multiplicity
 _atom_site_fract_x
 _atom_site_fract_y
 _atom_site_fract_z
 _atom_site_occupancy
  Ba  Ba0  1  0.73697414  0.05376892  0.54112733  1
  Ba  Ba1  1  0.02330048  0.22918342  0.57443526  1
  Ba  Ba2  1  -0.07574022  0.17040263  0.83066987  1
  Ba  Ba3  1  -0.09699419  0.27124598  0.09144344  1
  Ba  Ba4  1  0.38842034  0.40760419  -0.02235561  1
  Ba  Ba5  1  0.67311062  0.30440842  0.22226865  1
  Ba  Ba6  1  0.21065479  0.22890374  -0.04351763  1
  Ba  Ba7  1  0.26862132  -0.02085752  0.21363068  1
  Ba  Ba8  1  0.44290823  0.01641775  0.44430180  1
  Ba  Ba9  1  0.37329940  0.27278919  0.40242179  1
  Ba  Ba10  1  0.20031081  0.69069937  0.21668595  1
  Ba  Ba11  1  0.03248240  0.76832892  0.73311082  1
  Ba  Ba12  1  0.59161317  0.33351376  0.49026789  1
  Ba  Ba13  1  0.47755257  0.70053611  0.82677000  1
  Ba  Ba14  1  0.05959926  0.03950998  0.02835594  1
  Ba  Ba15  1  0.26859485  -0.16924351  0.77226426  1
  Ba  Ba16  1  0.63570372  0.27982141  -0.08807718  1
  Ba  Ba17  1  0.04810606  -0.01616001  0.64919922  1
  Ba  Ba18  1  0.20194390  0.60127172  0.69730835  1
  Ba  Ba19  1  -0.04393192  0.74196400  0.21273352  1
  Ba  Ba20  1  0.82276611  0.22367907  0.40925591  1
  Ba  Ba21  1  0.30609526  0.52280774  0.48855373  1
  Ba  Ba22  1  0.49742532  0.80159202  0.23037063  1
  Ba  Ba23  1  0.53230011  0.73742577  0.49002440  1
  Ba  Ba24  1  0.44218708  0.56808115  0.15187417  1
  Ba  Ba25  1  0.54726099  0.04552672  -0.08731631  1
  Ba  Ba26  1  -0.05257915  0.50618647  0.13183013  1
  Ba  Ba27  1  0.71016457  0.58865299  -0.04904536  1
  Ba  Ba28  1  0.17335121  0.37242088  0.74943138  1
  Ba  Ba29  1  -0.06726337  -0.00400153  0.26034991  1
  Ba  Ba30  1  0.06285077  0.51630474  0.34571475  1
  Ba  Ba31  1  0.26398467  0.18202757  0.59985604  1
  Ba  Ba32  1  0.47271366  0.50303723  0.71154067  1
  Ba  Ba33  1  -0.05969291  0.43773503  0.52849862  1
  Ba  Ba34  1  0.83541832  0.72661473  0.58255992  1
  Ba  Ba35  1  0.66375657  0.02198630  0.22656134  1
  Ba  Ba36  1  0.92132657  0.79545091  -0.01949267  1
  Ba  Ba37  1  0.69493024  0.56596715  0.19456131  1
  Ba  Ba38  1  0.32334661  0.75734634  0.01044684  1
  Ba  Ba39  1  0.51306304  0.17550447  0.68477061  1
  Ba  Ba40  1  0.17508175  0.04295557  0.42243447  1
  Ba  Ba41  1  0.25593536  0.39317612  0.21922069  1
  Ba  Ba42  1  0.31285125  0.00257722  -0.01016454  1
  Ba  Ba43  1  0.51373448  -0.10948524  0.68617705  1
  Ba  Ba44  1  0.74058952  0.54539847  0.43690086  1
  Ba  Ba45  1  0.76571312  -0.09876639  0.74849386  1
  Ba  Ba46  1  0.78064900  0.50952294  0.72923007  1
  Ba  Ba47  1  0.22303505  0.78244920  0.48065266  1
  Ba  Ba48  1  0.10990035  0.66598623  -0.04328840  1
  Ba  Ba49  1  0.77517219  -0.00738476  -0.02499187  1
  Ba  Ba50  1  0.74570088  0.78379129  0.31817082  1
  Fe  Fe51  1  0.24411250  0.01807277  0.70401754  1
  Fe  Fe52  1  0.78885460  0.72324489  0.10430282  1
  Fe  Fe53  1  0.93510757  0.68496693  0.41902515  1
  Fe  Fe54  1  0.16126077  0.47358787  0.96048600  1
  Fe  Fe55  1  0.70906148  0.22722367  0.63235378  1
  Fe  Fe56  1  0.89042355  0.33533623  0.70820987  1
  Fe  Fe57  1  0.47847722  0.21564547  0.24607112  1
  Fe  Fe58  1  0.44611553  0.50697047  0.35253576  1
  Fe  Fe59  1  0.37209757  1.03352430  0.67719453  1
  Fe  Fe60  1  0.20467547  0.01481033  0.83451201  1
  Fe  Fe61  1  0.84112764  0.20551482  0.64641017  1
  Fe  Fe62  1  0.61925062  0.87744328  0.05909210  1
  Fe  Fe63  1  0.07569344  0.51847901  0.83622455  1
  Fe  Fe64  1  -0.03185489  0.43297907  0.78586511  1
  Fe  Fe65  1  1.02553516  0.89498744  0.44439004  1
  Fe  Fe66  1  0.10753648  0.10627487  0.23819313  1
  Fe  Fe67  1  0.59475587  0.85118917  0.90404335  1
  Fe  Fe68  1  0.36466091  -0.00809486  0.80461634  1
  Fe  Fe69  1  0.68188255  0.76086272  0.84862468  1
  Fe  Fe70  1  0.38592926  0.12023819  0.13413762  1
  Fe  Fe71  1  1.05035889  0.18099697  0.36386626  1
  Fe  Fe72  1  0.57654633  0.48015281  0.33634361  1
  Fe  Fe73  1  0.98707683  0.30812413  0.34172325  1
  Fe  Fe74  1  0.05431524  0.74206683  0.39410275  1
  Fe  Fe75  1  0.54586923  0.61047267  0.33808394  1
  Fe  Fe76  1  0.08269421  0.30065435  0.24746269  1
  Fe  Fe77  1  0.71329594  0.79005919  0.98791710  1
  Fe  Fe78  1  0.44424444  0.88717072  0.87112994  1
  Fe  Fe79  1  0.48582885  0.86899102  -0.00333063  1
  Fe  Fe80  1  0.45487776  1.08566122  0.25655936  1
  Fe  Fe81  1  0.18428119  0.20412498  0.29123570  1
  Fe  Fe82  1  0.51128152  0.28906705  0.10538280  1
  Fe  Fe83  1  0.30769319  0.11933113  0.79033579  1
  Fe  Fe84  1  0.66618013  0.75929871  0.13553822  1
  Fe  Fe85  1  0.96520053  0.59159487  0.77536876  1
  Fe  Fe86  1  0.52370338  0.15205320  0.12491656  1
  Fe  Fe87  1  1.02304690  0.51863356  0.68656682  1
  Fe  Fe88  1  0.25608361  0.55161458  0.04791233  1
  Fe  Fe89  1  0.75960296  0.85743909  0.12251227  1
  Fe  Fe90  1  0.76890903  0.27946631  0.75373191  1
  Fe  Fe91  1  0.12078923  0.90457307  0.89257598  1
  Fe  Fe92  1  0.32116119  1.16306178  0.25245900  1
  Fe  Fe93  1  0.92557952  0.81897991  0.39241237  1
  Fe  Fe94  1  0.78271945  0.33918036  0.60668298  1
  Fe  Fe95  1  0.03178312  0.41154328  0.92464569  1
  Fe  Fe96  1  0.00871266  0.78402268  0.51846993  1
  Fe  Fe97  1  0.99529682  0.18909868  0.23899756  1
  Fe  Fe98  1  0.12155262  0.20377986  0.14900290  1
  Fe  Fe99  1  0.38091904  0.25388908  0.14535780  1
  Fe  Fe100  1  0.14791947  0.86101005  0.01130044  1
  Fe  Fe101  1  0.14391401  0.52338069  0.10174782  1
  Bi  Bi102  1  0.42700724  0.19824137  -0.01208766  1
  Bi  Bi103  1  0.13049422  0.15122328  0.76570936  1
  Bi  Bi104  1  0.48289876  -0.02082242  0.12342266  1
  Bi  Bi105  1  0.54572882  0.71479614  0.03000479  1
  Bi  Bi106  1  0.63003204  0.35939224  0.70234505  1
  Bi  Bi107  1  0.83834406  0.70543950  0.80344546  1
  Bi  Bi108  1  0.05133308  0.62500563  0.54356856  1
  Bi  Bi109  1  0.53438687  0.53152667  0.49784593  1
  Bi  Bi110  1  0.15010976  0.32247517  0.41772217  1
  Bi  Bi111  1  -0.07168405  0.54811691  0.93036816  1
  Bi  Bi112  1  0.47265549  0.38128881  0.24441249  1
  Bi  Bi113  1  -0.04126214  0.05580200  0.46314671  1
  Bi  Bi114  1  0.09451364  0.35988237  0.07906062  1
  Bi  Bi115  1  0.58674269  0.15304420  0.37433819  1
  Bi  Bi116  1  0.10764166  0.86939985  0.29806497  1
  Bi  Bi117  1  0.85742635  0.41454519  0.30736454  1
  Bi  Bi118  1  0.64428898  0.70836239  0.68885476  1
  Bi  Bi119  1  0.71674137  0.11104971  0.76458127  1
  Bi  Bi120  1  0.29804743  0.57536270  0.88415943  1
  Bi  Bi121  1  0.95982893  0.95571603  0.84757123  1
  Bi  Bi122  1  0.36332058  0.28348208  0.79240598  1
  Bi  Bi123  1  0.37499057  0.66354081  0.34107931  1
  Bi  Bi124  1  0.37281808  0.70857523  0.62819481  1
  Bi  Bi125  1  0.84965296  0.35860656  0.88597237  1
  Bi  Bi126  1  0.37409300  0.35451569  0.60462576  1
  Bi  Bi127  1  0.59541061  0.43000757  1.05627937  1
