# generated using pymatgen
data_Ba51Fe51Bi26
_symmetry_space_group_name_H-M   'P 1'
_cell_length_a   16.49843213
_cell_length_b   16.42136728
_cell_length_c   16.01648664
_cell_angle_alpha   87.56889308
_cell_angle_beta   91.78005570
_cell_angle_gamma   93.19268866
_symmetry_Int_Tables_number   1
_chemical_formula_structural   Ba51Fe51Bi26
_chemical_formula_sum   'Ba51 Fe51 Bi26'
_cell_volume   4326.86911720
_cell_formula_units_Z   1
loop_
 _symmetry_equiv_pos_site_id
 _symmetry_equiv_pos_as_xyz
  1  'x, y, z'
loop_
 _atom_site_type_symbol
 _atom_site_label
 _atom_site_symmetry_multiplicity
 _atom_site_fract_x
 _atom_site_fract_y
 _atom_site_fract_z
 _atom_site_occupancy
  Ba  Ba0  1  0.00443673  0.36185599  0.36701609  1
  Ba  Ba1  1  0.46714735  0.48239363  -0.04400930  1
  Ba  Ba2  1  0.03076509  -0.08644701  0.43631970  1
  Ba  Ba3  1  0.43483960  0.32146645  0.75948824  1
  Ba  Ba4  1  0.07219294  0.83034362  0.12820570  1
  Ba  Ba5  1  0.24077666  0.54422335  0.21274639  1
  Ba  Ba6  1  0.52579912  0.19103736  -0.00720526  1
  Ba  Ba7  1  0.21992800  0.45245798  -0.01669440  1
  Ba  Ba8  1  0.19128204  0.28000824  0.79252919  1
  Ba  Ba9  1  0.51071684  0.01293471  0.43568023  1
  Ba  Ba10  1  0.79679688  0.78348564  0.04471666  1
  Ba  Ba11  1  0.59117218  -0.04255131  -0.06940745  1
  Ba  Ba12  1  0.72569657  0.52915039  0.11018494  1
  Ba  Ba13  1  0.69675305  0.60038848  0.57999721  1
  Ba  Ba14  1  0.23709898  0.03859927  0.57238019  1
  Ba  Ba15  1  0.30228274  0.70993754  0.70029573  1
  Ba  Ba16  1  0.26061074  0.69377400  0.46037240  1
  Ba  Ba17  1  0.00547901  0.60541178  0.03182418  1
  Ba  Ba18  1  0.89194336  0.58410191  0.40601128  1
  Ba  Ba19  1  0.49291048  0.37938555  0.34805713  1
  Ba  Ba20  1  0.47716562  0.06713378  0.72906565  1
  Ba  Ba21  1  0.72505188  0.38176756  0.77099082  1
  Ba  Ba22  1  0.68946926  0.09246006  0.24062085  1
  Ba  Ba23  1  0.05162900  0.05988470  -0.01577829  1
  Ba  Ba24  1  0.82406937  0.12328957  0.46982946  1
  Ba  Ba25  1  -0.05380522  0.26827656  0.65566305  1
  Ba  Ba26  1  -0.04291151  0.21868413  0.16503759  1
  Ba  Ba27  1  0.73365859  0.33697179  0.26713677  1
  Ba  Ba28  1  0.43671189  0.23170319  0.53520858  1
  Ba  Ba29  1  0.28155605  0.10651594  0.07531967  1
  Ba  Ba30  1  0.72366058  0.62470220  0.84534919  1
  Ba  Ba31  1  0.21252653  0.26436480  0.24057702  1
  Ba  Ba32  1  0.05193544  0.66265662  0.57300942  1
  Ba  Ba33  1  0.09959269  0.73327574  0.82625610  1
  Ba  Ba34  1  0.48784544  0.56264863  0.68444090  1
  Ba  Ba35  1  0.02139144  0.48349213  0.79348142  1
  Ba  Ba36  1  0.81983047  0.02438226  -0.07617642  1
  Ba  Ba37  1  0.46657088  0.18028945  0.22720651  1
  Ba  Ba38  1  0.79103290  0.82145392  0.59705222  1
  Ba  Ba39  1  0.50518768  0.57678124  0.22009689  1
  Ba  Ba40  1  0.23767843  -0.03578150  0.82499720  1
  Ba  Ba41  1  -0.01151724  -0.01715495  0.71477598  1
  Ba  Ba42  1  0.24737138  -0.07649627  0.32633718  1
  Ba  Ba43  1  0.70622894  0.73731430  0.30611254  1
  Ba  Ba44  1  0.68384016  0.02283105  0.63948887  1
  Ba  Ba45  1  0.75393519  0.28652803  0.00844588  1
  Ba  Ba46  1  0.50631964  0.77508682  0.43460529  1
  Ba  Ba47  1  0.73218259  0.36182918  0.52157296  1
  Ba  Ba48  1  -0.12144485  -0.02984229  0.24805194  1
  Ba  Ba49  1  0.30950152  -0.14555588  0.07977578  1
  Ba  Ba50  1  0.18336127  0.27783604  0.51506863  1
  Fe  Fe51  1  0.03857139  0.65592210  0.23486828  1
  Fe  Fe52  1  0.42859953  0.55319767  0.47372104  1
  Fe  Fe53  1  0.50161281  0.79979155  0.23231088  1
  Fe  Fe54  1  0.55915796  0.36941281  0.61415064  1
  Fe  Fe55  1  0.33219604  0.75419846  0.91104910  1
  Fe  Fe56  1  1.02209506  0.13219682  0.35147307  1
  Fe  Fe57  1  0.60090441  0.78045795  0.13201422  1
  Fe  Fe58  1  0.18308622  0.48933420  0.51279254  1
  Fe  Fe59  1  0.50769498  0.87956216  0.09488276  1
  Fe  Fe60  1  -0.05235831  0.16837318  0.82785800  1
  Fe  Fe61  1  0.44837148  0.01113145  0.06309046  1
  Fe  Fe62  1  0.57387186  0.77093955  0.85491497  1
  Fe  Fe63  1  0.91414142  0.43992231  0.11377208  1
  Fe  Fe64  1  0.58176389  0.81848412  0.61728739  1
  Fe  Fe65  1  0.17330347  0.71886447  0.26898771  1
  Fe  Fe66  1  -0.02985826  0.35711929  -0.00025059  1
  Fe  Fe67  1  0.61858005  0.24813427  0.66065880  1
  Fe  Fe68  1  0.30870402  0.15094668  0.72161567  1
  Fe  Fe69  1  0.90071174  0.32791670  0.86095652  1
  Fe  Fe70  1  0.42078056  0.42475546  0.55686041  1
  Fe  Fe71  1  0.45201506  0.68383248  0.86415281  1
  Fe  Fe72  1  0.82160728  0.21145152  0.83282612  1
  Fe  Fe73  1  0.63401022  0.74055814  0.71607717  1
  Fe  Fe74  1  0.75421838  0.20601998  0.68783667  1
  Fe  Fe75  1  0.55298568  0.47285381  0.51222620  1
  Fe  Fe76  1  0.56428438  0.01130385  0.12513749  1
  Fe  Fe77  1  0.59962390  0.90415813  0.24019694  1
  Fe  Fe78  1  0.28748374  0.41237434  0.61609352  1
  Fe  Fe79  1  0.89252682  0.80881946  0.78347536  1
  Fe  Fe80  1  0.88126940  0.50466241  0.62896436  1
  Fe  Fe81  1  0.31713631  0.53799681  0.56889472  1
  Fe  Fe82  1  0.14276899  0.10542413  0.38372709  1
  Fe  Fe83  1  0.87551862  0.46949445  0.23946345  1
  Fe  Fe84  1  0.92643177  0.21382018  -0.04046865  1
  Fe  Fe85  1  0.34048018  0.15428953  0.84806052  1
  Fe  Fe86  1  0.66322490  0.90856740  0.12097086  1
  Fe  Fe87  1  0.18566527  0.50942748  0.64501555  1
  Fe  Fe88  1  0.49764089  0.74933877  0.72721108  1
  Fe  Fe89  1  0.89997675  0.71985766  0.87927087  1
  Fe  Fe90  1  0.45384909  0.73051441  0.11457568  1
  Fe  Fe91  1  0.47374441  0.78506579  0.97390968  1
  Fe  Fe92  1  0.02211585  0.28239252  0.88332454  1
  Fe  Fe93  1  0.89810384  0.60000442  0.19388277  1
  Fe  Fe94  1  0.55082472  0.58789217  0.43401785  1
  Fe  Fe95  1  0.57917105  0.87660463  0.73930231  1
  Fe  Fe96  1  0.07518794  0.74100522  0.34796963  1
  Fe  Fe97  1  0.31522165  0.62058655  0.88789784  1
  Fe  Fe98  1  0.38959880  0.65318662  0.01065395  1
  Fe  Fe99  1  0.00379790  0.51794550  0.22884149  1
  Fe  Fe100  1  0.39129106  0.34846836  0.11855176  1
  Fe  Fe101  1  0.83864785  0.11500667  0.73626187  1
  Bi  Bi102  1  0.21204525  0.67031059  0.01266191  1
  Bi  Bi103  1  0.34917273  0.72686541  0.26466616  1
  Bi  Bi104  1  0.73457442  0.85120656  0.81498725  1
  Bi  Bi105  1  0.29743942  0.49049774  0.77716105  1
  Bi  Bi106  1  0.43646666  -0.03404125  0.23384209  1
  Bi  Bi107  1  0.58475701  0.66510651  0.00773367  1
  Bi  Bi108  1  0.02388067  0.44872473  0.57183102  1
  Bi  Bi109  1  -0.08343438  0.76393500  0.26630614  1
  Bi  Bi110  1  0.30547423  0.43785339  0.41513225  1
  Bi  Bi111  1  0.67676674  0.51703024  0.36575711  1
  Bi  Bi112  1  0.07648978  0.40712465  0.14462535  1
  Bi  Bi113  1  0.42209368  0.86901239  0.81492102  1
  Bi  Bi114  1  0.11947086  0.25344419  0.01937378  1
  Bi  Bi115  1  0.97879662  0.86823805  0.92539898  1
  Bi  Bi116  1  0.10251242  0.57006005  0.37286319  1
  Bi  Bi117  1  0.70485018  0.93236195  0.40124178  1
  Bi  Bi118  1  0.65667613  0.15852892  0.82422514  1
  Bi  Bi119  1  0.62002577  0.20326599  0.40826761  1
  Bi  Bi120  1  0.09106440  0.04323191  0.22124605  1
  Bi  Bi121  1  0.56182580  0.36949457  0.12910265  1
  Bi  Bi122  1  0.85465758  0.47067083  -0.05886197  1
  Bi  Bi123  1  0.14572117  0.85167371  0.63700298  1
  Bi  Bi124  1  0.31234773  0.13324897  0.38471012  1
  Bi  Bi125  1  0.03457728  0.11264481  0.52609453  1
  Bi  Bi126  1  0.89199481  0.64944722  0.71295031  1
  Bi  Bi127  1  0.34914555  0.28719188  0.96329589  1
