# generated using pymatgen
data_Ba51Fe51Bi26
_symmetry_space_group_name_H-M   'P 1'
_cell_length_a   16.38491016
_cell_length_b   16.27718259
_cell_length_c   16.11161485
_cell_angle_alpha   91.21237018
_cell_angle_beta   90.03093024
_cell_angle_gamma   88.19168195
_symmetry_Int_Tables_number   1
_chemical_formula_structural   Ba51Fe51Bi26
_chemical_formula_sum   'Ba51 Fe51 Bi26'
_cell_volume   4293.86907111
_cell_formula_units_Z   1
loop_
 _symmetry_equiv_pos_site_id
 _symmetry_equiv_pos_as_xyz
  1  'x, y, z'
loop_
 _atom_site_type_symbol
 _atom_site_label
 _atom_site_symmetry_multiplicity
 _atom_site_fract_x
 _atom_site_fract_y
 _atom_site_fract_z
 _atom_site_occupancy
  Ba  Ba0  1  0.62220234  0.37275216  0.41233037  1
  Ba  Ba1  1  0.02832057  0.22771463  0.25338265  1
  Ba  Ba2  1  0.29118180  0.17804501  0.24216315  1
  Ba  Ba3  1  -0.12310255  0.26327814  0.51140673  1
  Ba  Ba4  1  0.60787761  0.60447240  0.26332189  1
  Ba  Ba5  1  0.32818982  0.76620977  0.23984755  1
  Ba  Ba6  1  0.63751728  0.80424795  0.46686757  1
  Ba  Ba7  1  0.53129603  0.05783959  0.70036190  1
  Ba  Ba8  1  0.75886624  0.78037603  0.85518056  1
  Ba  Ba9  1  0.25554807  0.74689037  0.61988756  1
  Ba  Ba10  1  0.78902255  0.15327507  0.81214532  1
  Ba  Ba11  1  0.10059880  0.58086849  0.25565863  1
  Ba  Ba12  1  -0.14123655  0.70667995  0.39002250  1
  Ba  Ba13  1  0.13811182  0.50884750  0.74907715  1
  Ba  Ba14  1  0.16055319  -0.07796890  0.49361523  1
  Ba  Ba15  1  -0.03445830  0.03736610  0.60101441  1
  Ba  Ba16  1  0.78744385  0.49053523  0.01428312  1
  Ba  Ba17  1  0.27122474  0.02441895  0.72191262  1
  Ba  Ba18  1  0.59193035  0.22202422  0.21775959  1
  Ba  Ba19  1  0.23619236  0.29963523  0.44996965  1
  Ba  Ba20  1  -0.06416683  0.65591861  0.76174544  1
  Ba  Ba21  1  0.02299154  0.41383469  0.10388342  1
  Ba  Ba22  1  0.43425194  0.24335616  0.56007165  1
  Ba  Ba23  1  0.50981049  0.67464517  -0.10834864  1
  Ba  Ba24  1  0.70958544  -0.00976435  0.26902243  1
  Ba  Ba25  1  0.73359127  0.74540165  0.11326080  1
  Ba  Ba26  1  0.81931477  0.37966164  0.24254677  1
  Ba  Ba27  1  0.64866431  0.30362708  0.66750729  1
  Ba  Ba28  1  0.32567728  0.79292887  -0.00508689  1
  Ba  Ba29  1  0.82433652  -0.04622197  0.01416584  1
  Ba  Ba30  1  0.40804052  0.41601835  0.15100370  1
  Ba  Ba31  1  0.02022882  0.04702993  0.86550469  1
  Ba  Ba32  1  0.63818300  0.12895568  -0.00111264  1
  Ba  Ba33  1  0.09118947  0.52688984  0.50454166  1
  Ba  Ba34  1  0.47176976  0.29182513  -0.12202721  1
  Ba  Ba35  1  0.36203815  0.53461832  0.40171175  1
  Ba  Ba36  1  0.05085698  0.80082272  0.28336849  1
  Ba  Ba37  1  0.78328711  0.52463673  0.52168117  1
  Ba  Ba38  1  0.08709592  -0.03141010  0.09292738  1
  Ba  Ba39  1  0.49644706  0.06850747  0.40253938  1
  Ba  Ba40  1  0.24291501  0.26590988  0.70953507  1
  Ba  Ba41  1  -0.04677996  0.01364827  0.32206239  1
  Ba  Ba42  1  0.75309524  -0.04611016  0.66761995  1
  Ba  Ba43  1  0.56719901  0.81268747  0.70162176  1
  Ba  Ba44  1  0.20910148  0.54850941  0.01136822  1
  Ba  Ba45  1  0.13829323  0.80995971  0.83662963  1
  Ba  Ba46  1  -0.00215991  0.30958562  0.85106804  1
  Ba  Ba47  1  0.41772240  -0.02211337  0.18212509  1
  Ba  Ba48  1  0.70809999  0.53077950  0.76843339  1
  Ba  Ba49  1  0.43351563  0.61968860  0.66137811  1
  Ba  Ba50  1  0.44696291  -0.00651764  -0.06860891  1
  Fe  Fe51  1  0.45359431  0.75474668  0.50965594  1
  Fe  Fe52  1  0.51318965  0.47345388  0.78114253  1
  Fe  Fe53  1  0.16261680  0.27681470  0.96475460  1
  Fe  Fe54  1  0.33467049  0.95400501  0.40416641  1
  Fe  Fe55  1  0.77423504  0.26652791  1.02441294  1
  Fe  Fe56  1  0.96406581  0.78488401  0.06689339  1
  Fe  Fe57  1  0.33023126  0.06480776  0.52367380  1
  Fe  Fe58  1  0.30039933  0.19216351  0.92231295  1
  Fe  Fe59  1  -0.01949911  0.64008634  0.07572521  1
  Fe  Fe60  1  0.56505211  0.47480546  0.63119237  1
  Fe  Fe61  1  0.94945135  0.80267634  0.93195506  1
  Fe  Fe62  1  0.36027918  0.47399736  0.78446508  1
  Fe  Fe63  1  1.05868261  0.34304427  0.62507731  1
  Fe  Fe64  1  0.94502287  0.49289676  0.35122333  1
  Fe  Fe65  1  0.88898500  0.68208367  0.97526083  1
  Fe  Fe66  1  0.94317373  0.69900757  0.56509654  1
  Fe  Fe67  1  0.17445187  0.15661288  0.89322028  1
  Fe  Fe68  1  0.05231837  0.32247993  0.49067896  1
  Fe  Fe69  1  0.03258828  0.82190147  0.62966036  1
  Fe  Fe70  1  0.44374519  0.40159262  0.68366539  1
  Fe  Fe71  1  0.52721292  0.81806719  0.08672697  1
  Fe  Fe72  1  0.56959224  0.52804565  0.03386349  1
  Fe  Fe73  1  0.46914898  0.72134910  0.37986962  1
  Fe  Fe74  1  0.89477823  0.26246028  0.07863968  1
  Fe  Fe75  1  0.79376777  0.08463723  0.46277176  1
  Fe  Fe76  1  0.86788831  0.14877440  0.99815798  1
  Fe  Fe77  1  0.03881137  0.68988925  0.95801876  1
  Fe  Fe78  1  0.34189146  0.80260203  0.43934054  1
  Fe  Fe79  1  0.20852730  0.12413188  0.55406387  1
  Fe  Fe80  1  0.90496767  0.11657015  0.13041582  1
  Fe  Fe81  1  0.06864168  0.69239941  0.62637211  1
  Fe  Fe82  1  0.97402688  0.83820803  0.49409650  1
  Fe  Fe83  1  0.60941441  0.92830851  0.05804589  1
  Fe  Fe84  1  0.09120782  0.21685434  0.59497817  1
  Fe  Fe85  1  0.67426198  1.02663502  0.49645167  1
  Fe  Fe86  1  0.45402185  0.86553079  0.39145959  1
  Fe  Fe87  1  0.74220720  0.13556537  0.58544885  1
  Fe  Fe88  1  0.22535473  0.15129116  0.04110885  1
  Fe  Fe89  1  0.06389471  0.73422433  0.49504897  1
  Fe  Fe90  1  0.64441056  -0.05610033  0.91149656  1
  Fe  Fe91  1  0.47292984  0.43922419  0.54584866  1
  Fe  Fe92  1  0.89281914  0.82160235  0.60773115  1
  Fe  Fe93  1  0.78247262  0.17424013  0.13317616  1
  Fe  Fe94  1  0.29486702  0.29116961  0.03140937  1
  Fe  Fe95  1  0.61347530  0.14295743  0.54814057  1
  Fe  Fe96  1  0.60078399  0.83175634  0.96286679  1
  Fe  Fe97  1  0.58709844  0.46971720  0.91135456  1
  Fe  Fe98  1  0.18223115  0.27956509  0.10882430  1
  Fe  Fe99  1  1.03535405  0.39644386  0.35914098  1
  Fe  Fe100  1  0.25332531  0.07796871  0.41342869  1
  Fe  Fe101  1  0.68673279  0.17110150  0.43826275  1
  Bi  Bi102  1  0.04231031  0.18494961  0.03392357  1
  Bi  Bi103  1  0.80574643  0.17934762  0.31121356  1
  Bi  Bi104  1  0.25806469  0.37725137  -0.11543352  1
  Bi  Bi105  1  0.42584444  0.49100955  -0.05413132  1
  Bi  Bi106  1  0.56236178  0.82869129  0.25892584  1
  Bi  Bi107  1  0.62784575  0.41953298  0.14926074  1
  Bi  Bi108  1  0.23101266  0.00163881  -0.06047500  1
  Bi  Bi109  1  0.13661794  0.74482819  0.09105255  1
  Bi  Bi110  1  0.82275594  -0.08352972  0.45902543  1
  Bi  Bi111  1  0.18495485  0.38239776  0.25237207  1
  Bi  Bi112  1  -0.06861259  0.87964913  0.77273254  1
  Bi  Bi113  1  0.42366894  0.92311129  0.56118729  1
  Bi  Bi114  1  0.30025837  0.45392406  0.60122078  1
  Bi  Bi115  1  0.76456429  0.71231936  0.63049900  1
  Bi  Bi116  1  0.28876691  0.63796227  0.82555317  1
  Bi  Bi117  1  0.69232682  0.33386106  -0.11517355  1
  Bi  Bi118  1  0.43272253  0.31057899  0.35201805  1
  Bi  Bi119  1  0.07756298  0.13965141  0.44303219  1
  Bi  Bi120  1  0.20862412  0.96772670  0.27946740  1
  Bi  Bi121  1  0.47091502  0.65661939  0.10520404  1
  Bi  Bi122  1  0.20641560  0.69938331  0.40855128  1
  Bi  Bi123  1  0.56144899  0.58314195  0.48540821  1
  Bi  Bi124  1  0.42238631  0.17635391  0.06280140  1
  Bi  Bi125  1  0.37567068  0.83971648  0.78490885  1
  Bi  Bi126  1  -0.01017195  0.52749654  0.92590473  1
  Bi  Bi127  1  0.88412768  0.58379163  0.20781049  1
