# generated using pymatgen
data_Ba51Fe51Bi26
_symmetry_space_group_name_H-M   'P 1'
_cell_length_a   16.71536412
_cell_length_b   16.04245121
_cell_length_c   16.61334341
_cell_angle_alpha   90.34250136
_cell_angle_beta   89.56322274
_cell_angle_gamma   89.76706848
_symmetry_Int_Tables_number   1
_chemical_formula_structural   Ba51Fe51Bi26
_chemical_formula_sum   'Ba51 Fe51 Bi26'
_cell_volume   4454.71128332
_cell_formula_units_Z   1
loop_
 _symmetry_equiv_pos_site_id
 _symmetry_equiv_pos_as_xyz
  1  'x, y, z'
loop_
 _atom_site_type_symbol
 _atom_site_label
 _atom_site_symmetry_multiplicity
 _atom_site_fract_x
 _atom_site_fract_y
 _atom_site_fract_z
 _atom_site_occupancy
  Ba  Ba0  1  0.72608067  0.28120738  0.03363560  1
  Ba  Ba1  1  0.55018374  0.25993091  0.73692236  1
  Ba  Ba2  1  0.51393278  0.28717351  0.48975599  1
  Ba  Ba3  1  0.73133904  0.21644819  0.45665946  1
  Ba  Ba4  1  0.44496001  0.02468272  0.45834279  1
  Ba  Ba5  1  0.75330103  0.76339552  -0.03627096  1
  Ba  Ba6  1  0.78677937  0.23265261  0.75753665  1
  Ba  Ba7  1  0.05313099  0.42087675  0.46992457  1
  Ba  Ba8  1  -0.03367657  0.59496522  0.34460153  1
  Ba  Ba9  1  0.54456245  0.52670162  0.70550103  1
  Ba  Ba10  1  0.74875014  0.47471990  0.31821609  1
  Ba  Ba11  1  0.68850152  0.04559212  0.14318126  1
  Ba  Ba12  1  0.28164558  0.48732722  0.69925828  1
  Ba  Ba13  1  0.22314867  -0.03040259  0.55779128  1
  Ba  Ba14  1  0.52006027  0.57563868  0.37840033  1
  Ba  Ba15  1  -0.07662768  0.27348956  0.28329923  1
  Ba  Ba16  1  -0.04560627  0.22114314  0.56924496  1
  Ba  Ba17  1  -0.01628641  0.32573384  0.01219306  1
  Ba  Ba18  1  0.24729497  0.70619751  0.85199664  1
  Ba  Ba19  1  0.48011226  0.19788523  -0.02150530  1
  Ba  Ba20  1  0.41761859  0.07087726  0.19293116  1
  Ba  Ba21  1  0.20244653  0.70309259  0.21327417  1
  Ba  Ba22  1  0.49137535  -0.07787846  -0.01503180  1
  Ba  Ba23  1  0.19626238  0.16659250  0.20792527  1
  Ba  Ba24  1  0.83210524  0.01343167  -0.05360687  1
  Ba  Ba25  1  0.52816204  0.67948983  0.00097565  1
  Ba  Ba26  1  -0.05807760  -0.02327735  0.45192905  1
  Ba  Ba27  1  0.50288631  0.77739454  0.57840623  1
  Ba  Ba28  1  0.76814876  0.78051197  0.23897780  1
  Ba  Ba29  1  0.77056162  0.69831437  0.52567221  1
  Ba  Ba30  1  0.70255237  -0.04132644  0.44990210  1
  Ba  Ba31  1  0.78049895  0.53568570  0.71636452  1
  Ba  Ba32  1  0.48367169  0.00162158  0.73992089  1
  Ba  Ba33  1  0.02731077  0.43805830  0.76214318  1
  Ba  Ba34  1  0.75931733  0.52474208  0.03947066  1
  Ba  Ba35  1  -0.00198215  0.72123757  0.77148102  1
  Ba  Ba36  1  0.04764626  0.03322439  0.07471762  1
  Ba  Ba37  1  0.02147972  0.85101797  0.27109496  1
  Ba  Ba38  1  0.25970587  0.42605040  0.24322033  1
  Ba  Ba39  1  0.40923004  0.80351994  0.25573160  1
  Ba  Ba40  1  0.28729007  0.18786918  0.75050197  1
  Ba  Ba41  1  0.05454603  0.79383837  0.55398645  1
  Ba  Ba42  1  0.17749804  0.18359936  0.45991520  1
  Ba  Ba43  1  0.02632103  0.60360505  0.04781481  1
  Ba  Ba44  1  0.72473993  -0.01341328  0.71932094  1
  Ba  Ba45  1  0.21280982  -0.06882180  0.78343755  1
  Ba  Ba46  1  0.50018923  0.43818190  0.01814458  1
  Ba  Ba47  1  0.28888809  0.71670725  0.50421950  1
  Ba  Ba48  1  0.29854689  0.43607060  0.46677332  1
  Ba  Ba49  1  0.05733831  0.17069292  0.77333779  1
  Ba  Ba50  1  0.25635642  0.47255031  -0.01766933  1
  Fe  Fe51  1  0.12422011  0.60437082  0.50162759  1
  Fe  Fe52  1  0.17104229  0.57727768  0.38431692  1
  Fe  Fe53  1  0.85510153  0.37332371  0.47086658  1
  Fe  Fe54  1  0.04436635  0.80858982  0.08471939  1
  Fe  Fe55  1  0.23453664  0.01592190  0.03646554  1
  Fe  Fe56  1  0.58482370  0.74761094  0.20914019  1
  Fe  Fe57  1  0.91765019  0.74906507  0.11501259  1
  Fe  Fe58  1  0.90509874  0.88032852  0.10331395  1
  Fe  Fe59  1  0.17753890  0.25735709  0.03179244  1
  Fe  Fe60  1  0.17271945  0.88020952  0.09268127  1
  Fe  Fe61  1  0.37081871  0.16923539  0.57326304  1
  Fe  Fe62  1  0.33478566  0.78648287  0.68707366  1
  Fe  Fe63  1  0.91226295  0.42169625  0.60476826  1
  Fe  Fe64  1  0.47877039  0.45795223  0.22672193  1
  Fe  Fe65  1  0.38470566  0.66949833  0.71251791  1
  Fe  Fe66  1  0.57881709  0.36653051  0.18654620  1
  Fe  Fe67  1  0.17074356  0.75725745  1.02481087  1
  Fe  Fe68  1  0.25224988  0.88137605  0.96732134  1
  Fe  Fe69  1  0.62122770  0.81989392  0.71511611  1
  Fe  Fe70  1  0.83324586  0.40212507  0.88202632  1
  Fe  Fe71  1  0.88812779  0.99137879  0.19853983  1
  Fe  Fe72  1  0.63122192  0.70159968  0.81001102  1
  Fe  Fe73  1  0.88129613  0.04271891  0.62266874  1
  Fe  Fe74  1  0.61704906  0.83540164  0.84436512  1
  Fe  Fe75  1  0.83764668  0.49886556  0.51780944  1
  Fe  Fe76  1  0.79591027  0.36318357  0.59176468  1
  Fe  Fe77  1  0.59962087  0.85090765  0.13099032  1
  Fe  Fe78  1  0.15896845  0.27667225  0.90557476  1
  Fe  Fe79  1  0.15681520  -0.00823747  0.37395122  1
  Fe  Fe80  1  0.90476402  0.90422120  0.64303193  1
  Fe  Fe81  1  0.32156355  0.28663634  0.58752602  1
  Fe  Fe82  1  0.12855001  0.70668673  0.39640450  1
  Fe  Fe83  1  0.02562307  0.92385635  0.71010901  1
  Fe  Fe84  1  0.57487524  0.38003710  0.31998215  1
  Fe  Fe85  1  0.58842619  0.89934729  0.25555529  1
  Fe  Fe86  1  0.17569290  0.84997086  0.39056454  1
  Fe  Fe87  1  0.29273637  0.91792111  0.38402210  1
  Fe  Fe88  1  0.85435577  0.08006343  0.28734619  1
  Fe  Fe89  1  0.28830689  0.25777559  0.93234946  1
  Fe  Fe90  1  0.90092655  0.90000941  0.78507070  1
  Fe  Fe91  1  0.28339883  0.15152870  1.03139867  1
  Fe  Fe92  1  0.53289781  0.24528931  0.29015317  1
  Fe  Fe93  1  0.27902022  0.04969767  0.35400088  1
  Fe  Fe94  1  0.92501134  0.03267297  0.74452281  1
  Fe  Fe95  1  0.44059789  0.37212496  0.32864779  1
  Fe  Fe96  1  0.01440527  0.02211270  0.62206627  1
  Fe  Fe97  1  0.44721240  0.30818195  0.20767187  1
  Fe  Fe98  1  0.11125826  0.85662013  0.95493255  1
  Fe  Fe99  1  0.65575216  0.69429931  0.68108154  1
  Fe  Fe100  1  0.18558881  0.13169035  -0.06129929  1
  Fe  Fe101  1  0.31329055  0.91466883  0.09107422  1
  Bi  Bi102  1  0.02424563  0.07567906  0.29476497  1
  Bi  Bi103  1  0.35665398  0.22368710  0.34384493  1
  Bi  Bi104  1  0.02980519  -0.01872199  0.86798450  1
  Bi  Bi105  1  0.45926214  0.79386633  0.80263988  1
  Bi  Bi106  1  -0.05117996  0.80917401  -0.04469106  1
  Bi  Bi107  1  0.33554158  0.75359653  0.04489004  1
  Bi  Bi108  1  0.23078402  -0.06076606  0.23184786  1
  Bi  Bi109  1  0.60486607  0.56891745  0.18254861  1
  Bi  Bi110  1  0.67579467  0.45709185  0.52251280  1
  Bi  Bi111  1  0.69617987  0.26698641  0.25355278  1
  Bi  Bi112  1  0.33813071  0.04536031  -0.09182453  1
  Bi  Bi113  1  0.78929903  0.77548714  0.73996585  1
  Bi  Bi114  1  0.33171434  0.30042306  0.09184363  1
  Bi  Bi115  1  0.87298149  0.14751376  0.11714321  1
  Bi  Bi116  1  0.38313049  0.57967269  0.15969437  1
  Bi  Bi117  1  0.15893134  0.32118350  0.62905239  1
  Bi  Bi118  1  0.64622224  0.10698327  0.88735269  1
  Bi  Bi119  1  0.60061169  0.10779611  0.59114309  1
  Bi  Bi120  1  0.40623971  0.56665204  0.85527587  1
  Bi  Bi121  1  0.67122712  0.40285172  0.85797340  1
  Bi  Bi122  1  0.60016110  0.77911469  0.38173492  1
  Bi  Bi123  1  0.90923679  0.45713745  0.17021770  1
  Bi  Bi124  1  0.90229408  0.55497117  0.88863902  1
  Bi  Bi125  1  0.96515776  0.59130737  0.58485188  1
  Bi  Bi126  1  0.58922851  0.08250757  0.32213830  1
  Bi  Bi127  1  0.39081415  0.35890222  0.83894582  1
