# generated using pymatgen
data_Ba51Fe51Bi26
_symmetry_space_group_name_H-M   'P 1'
_cell_length_a   16.73124574
_cell_length_b   16.29497374
_cell_length_c   15.96726351
_cell_angle_alpha   87.93399111
_cell_angle_beta   89.39558888
_cell_angle_gamma   90.69836989
_symmetry_Int_Tables_number   1
_chemical_formula_structural   Ba51Fe51Bi26
_chemical_formula_sum   'Ba51 Fe51 Bi26'
_cell_volume   4349.82228335
_cell_formula_units_Z   1
loop_
 _symmetry_equiv_pos_site_id
 _symmetry_equiv_pos_as_xyz
  1  'x, y, z'
loop_
 _atom_site_type_symbol
 _atom_site_label
 _atom_site_symmetry_multiplicity
 _atom_site_fract_x
 _atom_site_fract_y
 _atom_site_fract_z
 _atom_site_occupancy
  Ba  Ba0  1  0.40899538  0.03865916  0.45113930  1
  Ba  Ba1  1  0.16159854  0.52757128  0.24533175  1
  Ba  Ba2  1  0.08440474  0.83549262  0.52785363  1
  Ba  Ba3  1  0.49595617  0.34664207  -0.14597575  1
  Ba  Ba4  1  0.53345190  0.58953365  -0.02979118  1
  Ba  Ba5  1  -0.10098729  0.41586932  0.24684089  1
  Ba  Ba6  1  0.76035804  -0.06278529  0.25665340  1
  Ba  Ba7  1  -0.03323183  0.23516585  0.46554872  1
  Ba  Ba8  1  0.06560952  0.46028254  -0.00422039  1
  Ba  Ba9  1  0.08410089  0.60721771  0.74619267  1
  Ba  Ba10  1  0.12359719  0.54629733  0.52173999  1
  Ba  Ba11  1  0.25945503  0.74202916  0.39642462  1
  Ba  Ba12  1  0.29381491  0.52056185  0.80148248  1
  Ba  Ba13  1  0.74598336  0.23941791  -0.04415189  1
  Ba  Ba14  1  0.10119131  0.74425429  0.03296469  1
  Ba  Ba15  1  0.47821731  0.48102070  0.23094605  1
  Ba  Ba16  1  0.52669078  0.08511343  -0.05906709  1
  Ba  Ba17  1  0.70209117  0.07314397  0.75561048  1
  Ba  Ba18  1  0.62844518  -0.16172728  0.01356387  1
  Ba  Ba19  1  0.44476552  0.69039945  0.71028932  1
  Ba  Ba20  1  0.80499355  0.51369614  0.01043214  1
  Ba  Ba21  1  0.24525745  0.24757273  0.20333667  1
  Ba  Ba22  1  -0.08547535  0.81243087  0.77144903  1
  Ba  Ba23  1  0.72790156  0.23705630  0.46369570  1
  Ba  Ba24  1  0.27691796  0.76984659  0.16603505  1
  Ba  Ba25  1  0.74974452  0.71931740  0.51097008  1
  Ba  Ba26  1  -0.09843233  0.47284826  0.49407553  1
  Ba  Ba27  1  -0.07257156  0.04302330  0.62069572  1
  Ba  Ba28  1  0.90674147  0.06343543  0.06816479  1
  Ba  Ba29  1  0.20224469  0.33277923  0.46098008  1
  Ba  Ba30  1  0.51323773  0.57986230  0.48282222  1
  Ba  Ba31  1  0.34558354  0.42732994  0.03646094  1
  Ba  Ba32  1  0.84930525  0.77161645  0.06114636  1
  Ba  Ba33  1  0.84669753  0.56521683  0.74255244  1
  Ba  Ba34  1  0.76339019  0.32797680  0.69355515  1
  Ba  Ba35  1  0.31711686  -0.05097501  0.00812075  1
  Ba  Ba36  1  0.51407969  -0.08554655  0.21448863  1
  Ba  Ba37  1  0.50914181  0.81558699  0.46521786  1
  Ba  Ba38  1  0.26684270  0.29114783  0.71138683  1
  Ba  Ba39  1  0.19171124  0.26399135  -0.06858243  1
  Ba  Ba40  1  0.67618933  -0.02074015  0.54440475  1
  Ba  Ba41  1  0.06424828  0.07471346  0.86842536  1
  Ba  Ba42  1  0.70200544  0.25527125  0.21323078  1
  Ba  Ba43  1  0.24320211  0.80784919  0.80434351  1
  Ba  Ba44  1  0.44451139  -0.04996762  0.72543178  1
  Ba  Ba45  1  0.61821952  0.53483834  0.73288302  1
  Ba  Ba46  1  0.01398637  0.00333451  0.32783362  1
  Ba  Ba47  1  0.24803515  -0.00475642  0.25214969  1
  Ba  Ba48  1  0.52128763  0.34224634  0.45678513  1
  Ba  Ba49  1  0.48924095  0.15401210  0.19087178  1
  Ba  Ba50  1  -0.02978649  0.71696403  0.33073706  1
  Fe  Fe51  1  0.23941224  0.12203742  0.55362328  1
  Fe  Fe52  1  0.95681327  0.29840984  0.66551733  1
  Fe  Fe53  1  0.60662700  0.84307253  0.67869665  1
  Fe  Fe54  1  0.07137993  0.32724855  0.18747898  1
  Fe  Fe55  1  0.26119781  0.98115172  0.62073620  1
  Fe  Fe56  1  0.40217366  0.62697337  0.12087043  1
  Fe  Fe57  1  0.42711828  0.16029653  0.77551794  1
  Fe  Fe58  1  1.00483006  0.87079534  0.17774757  1
  Fe  Fe59  1  0.34503945  0.65428749  0.54304751  1
  Fe  Fe60  1  0.23472567  0.61199677  0.96431577  1
  Fe  Fe61  1  0.68375710  0.64609229  0.15574467  1
  Fe  Fe62  1  0.37071700  0.19581362  -0.08754067  1
  Fe  Fe63  1  0.06494352  0.23257811  0.30092209  1
  Fe  Fe64  1  0.08576266  0.36570255  0.64484704  1
  Fe  Fe65  1  0.12398867  1.03601743  0.56183350  1
  Fe  Fe66  1  0.61789211  0.62180799  0.29191582  1
  Fe  Fe67  1  1.04403120  0.15943295  0.19144336  1
  Fe  Fe68  1  0.95080855  0.25854489  0.13918352  1
  Fe  Fe69  1  0.11187063  0.84180237  0.24902508  1
  Fe  Fe70  1  0.24833736  0.66721159  0.63247322  1
  Fe  Fe71  1  0.66689641  0.72758837  0.71019796  1
  Fe  Fe72  1  0.04430499  0.27500564  0.77832420  1
  Fe  Fe73  1  0.97794732  0.43330458  0.68397950  1
  Fe  Fe74  1  0.62783142  0.48344815  0.36055981  1
  Fe  Fe75  1  0.54555403  0.67064366  0.14755702  1
  Fe  Fe76  1  0.06773320  0.36340413  0.32239691  1
  Fe  Fe77  1  0.19428518  0.07668031  0.69072534  1
  Fe  Fe78  1  0.31843288  0.14116285  0.04254779  1
  Fe  Fe79  1  0.34647834  0.68059667  0.99005937  1
  Fe  Fe80  1  0.30323136  0.53619854  0.59699495  1
  Fe  Fe81  1  0.45476287  0.26281539  0.66384083  1
  Fe  Fe82  1  0.44898180  0.74881982  0.07747797  1
  Fe  Fe83  1  0.56511377  0.20478821  0.74503541  1
  Fe  Fe84  1  0.72486475  0.83111717  0.77984765  1
  Fe  Fe85  1  0.27153671  0.59363904  0.08909142  1
  Fe  Fe86  1  0.58716370  0.76599643  0.81849899  1
  Fe  Fe87  1  0.34257995  0.11211511  0.66084381  1
  Fe  Fe88  1  0.48589485  0.12937664  0.63181742  1
  Fe  Fe89  1  0.80035088  0.06770220  0.39576874  1
  Fe  Fe90  1  0.61627491  0.75397893  0.23002902  1
  Fe  Fe91  1  0.40102439  0.24145542  0.03591090  1
  Fe  Fe92  1  0.06886077  0.23520952  0.07792709  1
  Fe  Fe93  1  0.57461231  0.33370759  0.65421481  1
  Fe  Fe94  1  0.73955532  0.56375576  0.35565195  1
  Fe  Fe95  1  0.22096817  0.98671501  0.48128466  1
  Fe  Fe96  1  0.11537175  0.92144262  1.12514517  1
  Fe  Fe97  1  0.61932604  0.90182636  0.81099101  1
  Fe  Fe98  1  0.09015943  0.40821241  0.77601044  1
  Fe  Fe99  1  0.94445284  0.36809763  0.80734063  1
  Fe  Fe100  1  0.73763534  0.41730803  0.36906243  1
  Fe  Fe101  1  0.59738474  0.20879518  0.61000469  1
  Bi  Bi102  1  0.71740468  0.67772542  0.87962701  1
  Bi  Bi103  1  0.15215129  0.08741043  0.07653616  1
  Bi  Bi104  1  0.09230042  0.19520478  0.63142287  1
  Bi  Bi105  1  0.31880281  0.82777337  0.58315455  1
  Bi  Bi106  1  0.17024028  0.12972538  0.39316959  1
  Bi  Bi107  1  0.76987419  0.72069602  0.28299514  1
  Bi  Bi108  1  -0.11725940  0.16807363  0.27695542  1
  Bi  Bi109  1  0.28824820  0.07485922  0.83214974  1
  Bi  Bi110  1  0.69490793  0.47278364  0.52971483  1
  Bi  Bi111  1  -0.03862579  0.27169725  -0.04108398  1
  Bi  Bi112  1  0.69842093  0.47979654  0.20120064  1
  Bi  Bi113  1  0.45241119  0.70481833  0.28385122  1
  Bi  Bi114  1  0.36837835  0.22394133  0.52696441  1
  Bi  Bi115  1  0.44299289  0.80098156  0.90511814  1
  Bi  Bi116  1  0.94940656  0.67086922  0.57429477  1
  Bi  Bi117  1  0.95802757  0.64120823  0.91830182  1
  Bi  Bi118  1  0.31555490  0.52331356  0.41847301  1
  Bi  Bi119  1  0.86155577  0.91596568  0.45525281  1
  Bi  Bi120  1  0.78553625  0.93614987  0.89876938  1
  Bi  Bi121  1  0.54450282  0.32813310  0.06465796  1
  Bi  Bi122  1  0.44012021  0.44277177  0.65480167  1
  Bi  Bi123  1  0.67289337  0.06515925  0.09489377  1
  Bi  Bi124  1  0.09653282  0.93401073  0.71172270  1
  Bi  Bi125  1  0.62367214  0.07462326  0.35613729  1
  Bi  Bi126  1  0.88952492  0.18256494  0.78463502  1
  Bi  Bi127  1  0.97135199  0.59742489  0.13627114  1
