# generated using pymatgen
data_Ba51Fe51Bi26
_symmetry_space_group_name_H-M   'P 1'
_cell_length_a   16.25589988
_cell_length_b   16.32460072
_cell_length_c   16.59960880
_cell_angle_alpha   89.91348523
_cell_angle_beta   90.51291885
_cell_angle_gamma   90.72950798
_symmetry_Int_Tables_number   1
_chemical_formula_structural   Ba51Fe51Bi26
_chemical_formula_sum   'Ba51 Fe51 Bi26'
_cell_volume   4404.51819001
_cell_formula_units_Z   1
loop_
 _symmetry_equiv_pos_site_id
 _symmetry_equiv_pos_as_xyz
  1  'x, y, z'
loop_
 _atom_site_type_symbol
 _atom_site_label
 _atom_site_symmetry_multiplicity
 _atom_site_fract_x
 _atom_site_fract_y
 _atom_site_fract_z
 _atom_site_occupancy
  Ba  Ba0  1  0.27127377  0.04082624  0.79100152  1
  Ba  Ba1  1  -0.04006220  0.75119173  0.75541577  1
  Ba  Ba2  1  0.79269094  0.83766753  0.29044483  1
  Ba  Ba3  1  0.27907247  0.22103453  -0.01844870  1
  Ba  Ba4  1  0.68423198  0.14283731  0.73485440  1
  Ba  Ba5  1  -0.01775180  0.54062760  0.12544950  1
  Ba  Ba6  1  0.54537756  0.53325009  0.63067530  1
  Ba  Ba7  1  0.84355220  -0.05423150  0.80169396  1
  Ba  Ba8  1  0.44944873  0.59053008  0.00916342  1
  Ba  Ba9  1  0.49984488  -0.07221141  0.23750279  1
  Ba  Ba10  1  0.52605243  0.30799600  0.05602508  1
  Ba  Ba11  1  0.67177149  0.65233780  0.21185110  1
  Ba  Ba12  1  0.48123383  0.26125366  0.81488554  1
  Ba  Ba13  1  0.72613583  0.70857732  0.65812254  1
  Ba  Ba14  1  0.75393199  0.34109092  0.34642190  1
  Ba  Ba15  1  0.31593891  0.47797298  0.48856849  1
  Ba  Ba16  1  -0.13262579  0.75428361  0.02955318  1
  Ba  Ba17  1  0.30764742  0.22828799  0.22149202  1
  Ba  Ba18  1  0.24322279  -0.05228325  0.30062791  1
  Ba  Ba19  1  0.19326884  0.53365779  -0.01153307  1
  Ba  Ba20  1  0.52744224  0.30310825  0.30746274  1
  Ba  Ba21  1  0.08244059  0.01998070  0.10432796  1
  Ba  Ba22  1  0.71686357  0.43999890  0.76740670  1
  Ba  Ba23  1  0.16277256  0.45045501  0.28825836  1
  Ba  Ba24  1  0.71911549  0.08570493  0.22850880  1
  Ba  Ba25  1  -0.05537478  0.49404839  -0.13323257  1
  Ba  Ba26  1  0.76909018  0.55456446  0.44467463  1
  Ba  Ba27  1  0.01640357  0.23656764  -0.02327540  1
  Ba  Ba28  1  0.02694245  0.81141288  0.18978248  1
  Ba  Ba29  1  0.64022812  0.79612625  -0.08814669  1
  Ba  Ba30  1  0.77739419  0.25460938  0.01625899  1
  Ba  Ba31  1  -0.03927421  -0.02338357  0.40763193  1
  Ba  Ba32  1  0.24318704  0.24909073  0.63107725  1
  Ba  Ba33  1  0.05211039  0.67525209  0.56872871  1
  Ba  Ba34  1  0.02874536  0.20158222  0.50917116  1
  Ba  Ba35  1  -0.02452413  0.27889931  0.23573631  1
  Ba  Ba36  1  0.02171584  0.15429918  0.75482349  1
  Ba  Ba37  1  0.00879681  0.44525470  0.48525776  1
  Ba  Ba38  1  0.24226959  0.69496461  0.23173358  1
  Ba  Ba39  1  0.80031453  0.27402735  0.58089385  1
  Ba  Ba40  1  0.24879366  0.05959061  0.50260918  1
  Ba  Ba41  1  0.30469282  -0.05187763  0.04464923  1
  Ba  Ba42  1  0.23393860  0.43768789  0.78413765  1
  Ba  Ba43  1  0.72995313  -0.06231679  0.53112605  1
  Ba  Ba44  1  0.70486282  0.52603800  -0.00223378  1
  Ba  Ba45  1  0.43454400  0.50040723  0.22411766  1
  Ba  Ba46  1  0.48743160  -0.01389040  0.50433308  1
  Ba  Ba47  1  0.22529424  0.79690307  0.82292935  1
  Ba  Ba48  1  0.46373107  0.76943268  0.73766358  1
  Ba  Ba49  1  0.29129665  0.74669113  0.50107916  1
  Ba  Ba50  1  0.63141783  0.03354622  -0.03075211  1
  Fe  Fe51  1  0.08671994  0.36445769  0.64754657  1
  Fe  Fe52  1  0.43855981  0.78197457  0.97547433  1
  Fe  Fe53  1  0.69173467  0.73739195  0.43249865  1
  Fe  Fe54  1  0.84956171  0.06740879  0.95050411  1
  Fe  Fe55  1  0.44591468  0.08726209  0.90968889  1
  Fe  Fe56  1  0.46401377  0.65056130  0.49455042  1
  Fe  Fe57  1  0.03772758  0.62137008  0.29926991  1
  Fe  Fe58  1  0.59973849  0.28924864  0.50130595  1
  Fe  Fe59  1  0.14669567  0.89670043  0.63796924  1
  Fe  Fe60  1  0.60290894  0.65243504  0.48952910  1
  Fe  Fe61  1  0.48025845  0.35499731  0.50308431  1
  Fe  Fe62  1  0.48921092  0.18900629  0.45220759  1
  Fe  Fe63  1  0.56393995  0.18088134  0.58325237  1
  Fe  Fe64  1  0.09066315  0.71744254  0.38055608  1
  Fe  Fe65  1  0.53126359  0.43967221  0.89954645  1
  Fe  Fe66  1  0.46140397  0.76682869  0.40352031  1
  Fe  Fe67  1  0.50832287  0.04535190  0.80449000  1
  Fe  Fe68  1  0.54207885  0.76024414  0.08973089  1
  Fe  Fe69  1  0.92351216  0.93740285  1.01386863  1
  Fe  Fe70  1  0.13062761  0.19923888  0.15812874  1
  Fe  Fe71  1  0.43729482  0.47459750  0.81855340  1
  Fe  Fe72  1  0.94055611  0.37617474  0.68643479  1
  Fe  Fe73  1  0.32507135  0.39945458  0.05981781  1
  Fe  Fe74  1  0.54709855  0.09876998  0.34955079  1
  Fe  Fe75  1  0.47804988  0.12415752  0.24353378  1
  Fe  Fe76  1  0.02867553  0.87142294  0.93710778  1
  Fe  Fe77  1  0.40699364  0.78864317  0.10509566  1
  Fe  Fe78  1  0.93478911  0.50527204  0.31110063  1
  Fe  Fe79  1  0.88936742  0.64503490  0.26865847  1
  Fe  Fe80  1  0.09918476  0.69777572  0.05223847  1
  Fe  Fe81  1  0.56180069  0.66087942  0.36492086  1
  Fe  Fe82  1  0.12873221  0.82323809  0.01833963  1
  Fe  Fe83  1  0.80794648  0.98391423  0.06926000  1
  Fe  Fe84  1  0.07731205  0.01805376  0.61166423  1
  Fe  Fe85  1  0.16667686  0.27450890  0.38852922  1
  Fe  Fe86  1  0.81924535  0.51930782  0.24999698  1
  Fe  Fe87  1  0.59352193  0.80555599  0.38017061  1
  Fe  Fe88  1  0.38590318  0.41051265  0.94295765  1
  Fe  Fe89  1  0.40283476  0.11289172  0.35469728  1
  Fe  Fe90  1  0.06239563  0.72163808  0.92984265  1
  Fe  Fe91  1  0.04400093  0.48638526  0.69366238  1
  Fe  Fe92  1  0.41515422  0.62534409  0.37525304  1
  Fe  Fe93  1  0.96335381  0.75149838  0.35573785  1
  Fe  Fe94  1  0.04427946  0.35014301  0.77167454  1
  Fe  Fe95  1  0.43953160  0.24778856  0.57525472  1
  Fe  Fe96  1  0.95271621  0.62388404  0.40391172  1
  Fe  Fe97  1  1.00242445  0.90876456  0.61206538  1
  Fe  Fe98  1  -0.01796006  0.02550559  0.93281068  1
  Fe  Fe99  1  0.50935608  0.88370456  0.04081471  1
  Fe  Fe100  1  0.90406696  0.08108696  0.06659527  1
  Fe  Fe101  1  0.56465738  0.32104315  0.62984484  1
  Bi  Bi102  1  0.53726338  0.49806011  0.41787898  1
  Bi  Bi103  1  0.06598673  -0.05486480  0.78435606  1
  Bi  Bi104  1  0.46158978  0.71294780  0.23840586  1
  Bi  Bi105  1  0.85679847  0.75767919  0.48448739  1
  Bi  Bi106  1  0.55338267  0.79225868  0.54989980  1
  Bi  Bi107  1  0.43163288  0.11039443  0.66812028  1
  Bi  Bi108  1  0.57008171  0.59458742  -0.16885095  1
  Bi  Bi109  1  0.66912314  0.13918730  0.45578165  1
  Bi  Bi110  1  0.44870991  0.10803513  0.07812876  1
  Bi  Bi111  1  0.11821723  -0.13446075  0.47263700  1
  Bi  Bi112  1  0.33125036  0.26704142  0.43122009  1
  Bi  Bi113  1  0.27212340  0.72916442  0.02059184  1
  Bi  Bi114  1  0.11184571  0.61224749  0.79652135  1
  Bi  Bi115  1  0.67588116  0.87420799  0.11622301  1
  Bi  Bi116  1  0.62924351  0.93643023  0.74092921  1
  Bi  Bi117  1  0.66627779  0.43395369  0.17984606  1
  Bi  Bi118  1  0.31740705  0.90099286  0.64080000  1
  Bi  Bi119  1  0.12173628  0.12800673  0.31123731  1
  Bi  Bi120  1  0.86012356  0.16335500  0.37866427  1
  Bi  Bi121  1  0.79764711  0.65438810  0.85482329  1
  Bi  Bi122  1  0.89737834  0.05332931  0.61283951  1
  Bi  Bi123  1  0.40364936  0.38909752  0.66486011  1
  Bi  Bi124  1  0.86523575  0.28669448  0.81431766  1
  Bi  Bi125  1  0.15420110  0.35527470  0.10225619  1
  Bi  Bi126  1  0.88262624  0.53231366  0.64231686  1
  Bi  Bi127  1  0.43382718  0.91937690  0.88438354  1
