# generated using pymatgen
data_Ba51Fe51Bi26
_symmetry_space_group_name_H-M   'P 1'
_cell_length_a   16.56297605
_cell_length_b   15.91245153
_cell_length_c   16.65814822
_cell_angle_alpha   88.55939471
_cell_angle_beta   89.87961815
_cell_angle_gamma   92.19761813
_symmetry_Int_Tables_number   1
_chemical_formula_structural   Ba51Fe51Bi26
_chemical_formula_sum   'Ba51 Fe51 Bi26'
_cell_volume   4385.74439762
_cell_formula_units_Z   1
loop_
 _symmetry_equiv_pos_site_id
 _symmetry_equiv_pos_as_xyz
  1  'x, y, z'
loop_
 _atom_site_type_symbol
 _atom_site_label
 _atom_site_symmetry_multiplicity
 _atom_site_fract_x
 _atom_site_fract_y
 _atom_site_fract_z
 _atom_site_occupancy
  Ba  Ba0  1  -0.03173252  0.80373748  0.50794743  1
  Ba  Ba1  1  0.32012844  -0.02736786  -0.10996905  1
  Ba  Ba2  1  0.80956134  0.60847682  -0.00583920  1
  Ba  Ba3  1  0.39364228  0.20395458  0.55649727  1
  Ba  Ba4  1  0.03688839  0.32458181  0.35820924  1
  Ba  Ba5  1  0.76196013  0.08186019  0.76787649  1
  Ba  Ba6  1  0.48273448  0.46536219  0.24144713  1
  Ba  Ba7  1  0.35276297  0.34544288  -0.09049208  1
  Ba  Ba8  1  0.20039720  0.30018069  0.70835423  1
  Ba  Ba9  1  0.12613488  0.51570858  0.00412902  1
  Ba  Ba10  1  0.16503452  0.09424095  0.00194067  1
  Ba  Ba11  1  -0.02074126  0.30346284  0.09188142  1
  Ba  Ba12  1  0.76572522  0.18747264  0.13129088  1
  Ba  Ba13  1  0.45584687  0.00014929  0.68996599  1
  Ba  Ba14  1  -0.04638125  -0.07398005  0.29010029  1
  Ba  Ba15  1  -0.18951307  0.54542888  0.22259550  1
  Ba  Ba16  1  0.52109911  0.14856317  0.19285941  1
  Ba  Ba17  1  0.19658530  0.66006648  0.48593214  1
  Ba  Ba18  1  0.42755376  0.71171785  0.17109904  1
  Ba  Ba19  1  -0.11031644  -0.00902570  0.06428386  1
  Ba  Ba20  1  -0.03235852  -0.06331743  0.83348126  1
  Ba  Ba21  1  0.04476421  0.46322406  0.72889462  1
  Ba  Ba22  1  0.47034711  0.58861950  0.55485909  1
  Ba  Ba23  1  0.74341272  0.01793046  0.32539918  1
  Ba  Ba24  1  0.29652256  0.06350215  0.19594842  1
  Ba  Ba25  1  -0.07260222  0.28122592  0.58787020  1
  Ba  Ba26  1  0.81597991  0.75278518  0.73781938  1
  Ba  Ba27  1  0.78677283  0.50832496  0.75219313  1
  Ba  Ba28  1  0.57193780  0.48663068  0.00124527  1
  Ba  Ba29  1  0.79946064  0.01213551  0.55864428  1
  Ba  Ba30  1  0.60428083  0.82683688  0.72952652  1
  Ba  Ba31  1  0.44404756  0.81422754  0.46989904  1
  Ba  Ba32  1  0.27363633  0.75133949  0.70244998  1
  Ba  Ba33  1  0.21778346  0.82808109  0.26441301  1
  Ba  Ba34  1  0.53982874  0.07190719  0.43617858  1
  Ba  Ba35  1  0.59719956  0.04573095  -0.06086988  1
  Ba  Ba36  1  0.62867673  0.80637574  0.27783036  1
  Ba  Ba37  1  0.55605792  0.29682826  0.75935592  1
  Ba  Ba38  1  0.21494099  0.55023113  0.24002448  1
  Ba  Ba39  1  0.44909106  0.57569267  0.79504623  1
  Ba  Ba40  1  0.01039143  0.66947853  0.27798584  1
  Ba  Ba41  1  0.65021223  0.53122912  0.41185136  1
  Ba  Ba42  1  0.06165885  0.06847296  0.50004604  1
  Ba  Ba43  1  0.02353941  0.66588811  0.83974059  1
  Ba  Ba44  1  0.25377449  0.30733480  0.14514392  1
  Ba  Ba45  1  0.18961629  0.01387115  0.68559952  1
  Ba  Ba46  1  -0.02488223  0.22465521  0.85673463  1
  Ba  Ba47  1  0.72802103  -0.17072288  -0.02542077  1
  Ba  Ba48  1  0.72890137  0.30022971  0.34528008  1
  Ba  Ba49  1  0.29053826  0.69798473  -0.03092356  1
  Ba  Ba50  1  0.31084849  0.39937842  0.44229508  1
  Fe  Fe51  1  0.76299818  0.84323065  0.45523751  1
  Fe  Fe52  1  0.79935129  0.40839958  0.04549969  1
  Fe  Fe53  1  0.99436116  0.67808872  0.07354766  1
  Fe  Fe54  1  0.63917581  0.87597864  0.49057557  1
  Fe  Fe55  1  0.02522797  0.08782708  0.15937569  1
  Fe  Fe56  1  0.38449698  0.16133592  0.04265966  1
  Fe  Fe57  1  0.09081468  -0.04250232  1.13043320  1
  Fe  Fe58  1  -0.02181019  0.50087363  0.39633674  1
  Fe  Fe59  1  0.54156517  0.73718339  0.97273801  1
  Fe  Fe60  1  0.17242610  0.85891522  0.06426979  1
  Fe  Fe61  1  1.09514636  0.75556267  0.98915042  1
  Fe  Fe62  1  0.49590724  0.93610762  0.12581441  1
  Fe  Fe63  1  0.43278584  0.02643432  0.03548378  1
  Fe  Fe64  1  0.19110355  1.00877320  0.36990253  1
  Fe  Fe65  1  0.34503871  0.06562765  0.38599162  1
  Fe  Fe66  1  0.12017903  0.03284014  0.24680859  1
  Fe  Fe67  1  0.67224922  0.72465125  0.45648546  1
  Fe  Fe68  1  0.82803883  0.30460280  0.95717543  1
  Fe  Fe69  1  0.35151673  0.98549756  0.52118184  1
  Fe  Fe70  1  0.57208437  0.82715000  0.08116569  1
  Fe  Fe71  1  0.68260768  0.25136031  0.90980104  1
  Fe  Fe72  1  0.21991418  0.91755979  0.49179000  1
  Fe  Fe73  1  0.12612873  0.71529149  0.11201019  1
  Fe  Fe74  1  0.51361251  0.38192602  0.53236885  1
  Fe  Fe75  1  0.72121741  0.29185944  0.63286324  1
  Fe  Fe76  1  0.42479564  0.13909524  0.92569397  1
  Fe  Fe77  1  -0.15568830  0.46202577  0.42033795  1
  Fe  Fe78  1  0.69079262  0.64479644  0.59329219  1
  Fe  Fe79  1  0.31172247  0.93161308  0.39525599  1
  Fe  Fe80  1  1.04430240  0.11381955  0.32082544  1
  Fe  Fe81  1  0.47655776  0.87210074  0.99467172  1
  Fe  Fe82  1  0.77102155  0.38774189  0.53032140  1
  Fe  Fe83  1  0.88374571  0.60406347  0.44460028  1
  Fe  Fe84  1  0.74597253  0.22383276  0.52234826  1
  Fe  Fe85  1  0.69150998  0.32544624  0.02598105  1
  Fe  Fe86  1  0.62791740  0.31134137  0.52229609  1
  Fe  Fe87  1  0.79105663  0.54218837  0.54857174  1
  Fe  Fe88  1  1.03131383  0.82063711  0.12481120  1
  Fe  Fe89  1  0.94458868  0.15730685  0.24199470  1
  Fe  Fe90  1  0.72764438  0.80486543  0.58229407  1
  Fe  Fe91  1  0.60310928  0.74658908  0.56281853  1
  Fe  Fe92  1  0.25357597  0.06650311  0.48628359  1
  Fe  Fe93  1  -0.08287190  0.47286873  0.53826629  1
  Fe  Fe94  1  0.06426654  0.90007607  0.99550159  1
  Fe  Fe95  1  0.10075532  0.18785170  0.21449695  1
  Fe  Fe96  1  0.95704857  0.78865930  0.99929536  1
  Fe  Fe97  1  0.24856262  0.50755900  0.63818562  1
  Fe  Fe98  1  0.73530258  0.39635479  0.91046317  1
  Fe  Fe99  1  0.79868897  0.69815931  0.51951588  1
  Fe  Fe100  1  0.01278823  0.57674399  0.49472224  1
  Fe  Fe101  1  0.78256440  0.17609144  0.94161727  1
  Bi  Bi102  1  0.53609817  0.25383515  -0.00095043  1
  Bi  Bi103  1  0.11949742  0.44813649  0.53206443  1
  Bi  Bi104  1  0.88820376  0.15914021  0.40354554  1
  Bi  Bi105  1  0.51541266  0.30155081  0.38481320  1
  Bi  Bi106  1  0.78968033  0.29285120  0.78332072  1
  Bi  Bi107  1  0.44429145  -0.06247546  0.28908206  1
  Bi  Bi108  1  0.81658741  0.72891016  0.34998453  1
  Bi  Bi109  1  0.92662669  0.44893199  -0.07523332  1
  Bi  Bi110  1  0.15290892  0.84825268  -0.14669479  1
  Bi  Bi111  1  0.86377012  0.77131225  0.13983370  1
  Bi  Bi112  1  -0.06446819  0.62571111  0.62897441  1
  Bi  Bi113  1  0.20896626  0.18774670  0.35514348  1
  Bi  Bi114  1  0.33409984  0.88533915  0.08388826  1
  Bi  Bi115  1  0.63680807  0.46362909  0.61806510  1
  Bi  Bi116  1  0.35024414  0.16182386  0.77386549  1
  Bi  Bi117  1  0.66656370  -0.02229432  0.12941687  1
  Bi  Bi118  1  0.37413645  0.61884164  0.36604725  1
  Bi  Bi119  1  0.38389271  0.40804572  0.64731529  1
  Bi  Bi120  1  -0.02625080  0.09102258  0.68739037  1
  Bi  Bi121  1  0.22848866  0.55269794  0.79792511  1
  Bi  Bi122  1  0.62883963  0.65985576  0.11813955  1
  Bi  Bi123  1  0.43527582  0.79933807  0.84286989  1
  Bi  Bi124  1  0.61916276  0.14217651  0.61745437  1
  Bi  Bi125  1  0.64622414  0.65449088  0.85999942  1
  Bi  Bi126  1  0.14805809  0.30835994  0.94360175  1
  Bi  Bi127  1  0.34993020  0.50371866  0.07835718  1
