# generated using pymatgen
data_Ba51Fe51Bi26
_symmetry_space_group_name_H-M   'P 1'
_cell_length_a   16.12681075
_cell_length_b   16.93445190
_cell_length_c   16.01387641
_cell_angle_alpha   88.71210497
_cell_angle_beta   90.68191203
_cell_angle_gamma   86.45351898
_symmetry_Int_Tables_number   1
_chemical_formula_structural   Ba51Fe51Bi26
_chemical_formula_sum   'Ba51 Fe51 Bi26'
_cell_volume   4363.50374415
_cell_formula_units_Z   1
loop_
 _symmetry_equiv_pos_site_id
 _symmetry_equiv_pos_as_xyz
  1  'x, y, z'
loop_
 _atom_site_type_symbol
 _atom_site_label
 _atom_site_symmetry_multiplicity
 _atom_site_fract_x
 _atom_site_fract_y
 _atom_site_fract_z
 _atom_site_occupancy
  Ba  Ba0  1  -0.02304463  0.70765381  0.27823607  1
  Ba  Ba1  1  0.19583033  0.47154540  -0.02267382  1
  Ba  Ba2  1  0.12106432  0.68257272  0.54332007  1
  Ba  Ba3  1  0.17557478  0.26243678  0.59341129  1
  Ba  Ba4  1  0.73591330  -0.02323869  0.75123255  1
  Ba  Ba5  1  -0.02588697  -0.07074766  -0.06032241  1
  Ba  Ba6  1  0.36812807  0.80089646  0.20317055  1
  Ba  Ba7  1  0.57455579  0.72610297  0.76960713  1
  Ba  Ba8  1  -0.03117420  0.31615612  0.89600226  1
  Ba  Ba9  1  0.80647499  0.37857423  0.70561057  1
  Ba  Ba10  1  -0.04886309  0.11859283  0.71190624  1
  Ba  Ba11  1  0.81345304  0.76463668  0.87157423  1
  Ba  Ba12  1  0.22682014  0.49029193  0.44961621  1
  Ba  Ba13  1  -0.04943760  0.63259395  0.72194973  1
  Ba  Ba14  1  -0.06399599  0.33834684  0.22739202  1
  Ba  Ba15  1  0.48272406  0.64595361  -0.00719768  1
  Ba  Ba16  1  0.72346218  0.67514445  0.16511981  1
  Ba  Ba17  1  0.44396394  0.32492994  0.44998174  1
  Ba  Ba18  1  0.80471086  -0.03255819  0.20336855  1
  Ba  Ba19  1  0.44757744  0.20089056  0.22860652  1
  Ba  Ba20  1  0.35416517  0.73115973  0.44303544  1
  Ba  Ba21  1  0.02008862  0.65104822  0.04413920  1
  Ba  Ba22  1  0.57845302  0.45048796  0.63051994  1
  Ba  Ba23  1  0.74167474  0.52683364  -0.08237583  1
  Ba  Ba24  1  0.16239007  0.12026503  0.19275304  1
  Ba  Ba25  1  0.52414662  0.27033901  0.80090618  1
  Ba  Ba26  1  0.26643857  0.58939537  0.16697668  1
  Ba  Ba27  1  0.36823217  0.57326979  0.70012373  1
  Ba  Ba28  1  0.49188203  0.03198127  0.68430886  1
  Ba  Ba29  1  0.71876255  0.50291133  0.35280521  1
  Ba  Ba30  1  0.20158212  0.01479155  -0.04529291  1
  Ba  Ba31  1  0.73685543  0.23587971  0.14269140  1
  Ba  Ba32  1  0.22697773  0.75960145  -0.06284219  1
  Ba  Ba33  1  0.15018698  0.43985358  0.74291715  1
  Ba  Ba34  1  0.66370320  -0.04676970  0.50519384  1
  Ba  Ba35  1  0.18699328  0.32490178  0.29179414  1
  Ba  Ba36  1  0.33298463  0.09849576  0.49333193  1
  Ba  Ba37  1  0.58570097  0.87680945  0.30326717  1
  Ba  Ba38  1  0.54002237  0.39461505  0.03255384  1
  Ba  Ba39  1  0.61002464  0.70476760  0.53276334  1
  Ba  Ba40  1  0.42641640  0.91304721  -0.08793983  1
  Ba  Ba41  1  -0.04980797  0.29274096  0.48828165  1
  Ba  Ba42  1  0.08070136  -0.13996899  0.70212814  1
  Ba  Ba43  1  0.57700322  0.03010536  0.09722581  1
  Ba  Ba44  1  0.68066060  0.26483608  0.42161947  1
  Ba  Ba45  1  0.84549934  0.08547825  0.44705491  1
  Ba  Ba46  1  0.06122126  -0.08362658  0.19902190  1
  Ba  Ba47  1  0.18916320  -0.07775203  0.43371919  1
  Ba  Ba48  1  -0.13799144  0.64333873  0.49550457  1
  Ba  Ba49  1  0.29808486  0.23059508  -0.01860201  1
  Ba  Ba50  1  0.22673463  0.03713475  0.69811298  1
  Fe  Fe51  1  0.29516534  0.87418408  0.61120284  1
  Fe  Fe52  1  1.01922725  0.01996917  0.36959193  1
  Fe  Fe53  1  0.62635581  0.89493285  0.92474676  1
  Fe  Fe54  1  0.40693281  0.76371720  0.63642137  1
  Fe  Fe55  1  0.99200836  0.82207285  0.43898562  1
  Fe  Fe56  1  0.95129278  0.80792978  0.57000100  1
  Fe  Fe57  1  0.99405172  0.94327314  0.50404658  1
  Fe  Fe58  1  0.08644728  0.16751640  0.99473484  1
  Fe  Fe59  1  0.38710211  0.93762780  0.35911482  1
  Fe  Fe60  1  0.63911860  0.76787286  0.95650329  1
  Fe  Fe61  1  0.85144127  0.87845938  0.48824738  1
  Fe  Fe62  1  0.83842885  0.10085651  0.88174321  1
  Fe  Fe63  1  0.38320307  0.45384171  0.29824074  1
  Fe  Fe64  1  0.58918443  0.52340589  0.18797149  1
  Fe  Fe65  1  0.02328565  0.45999709  0.08335671  1
  Fe  Fe66  1  0.34090918  0.14491145  0.79725137  1
  Fe  Fe67  1  0.84882051  0.20560874  -0.02373128  1
  Fe  Fe68  1  0.48227726  0.04418078  0.37608017  1
  Fe  Fe69  1  0.27431108  0.85917270  0.76836451  1
  Fe  Fe70  1  0.27934705  0.96206597  0.25730744  1
  Fe  Fe71  1  0.43600510  0.99114016  0.24051620  1
  Fe  Fe72  1  0.97463416  0.12064406  0.93203492  1
  Fe  Fe73  1  0.65196265  0.12727351  0.58852650  1
  Fe  Fe74  1  -0.03685479  0.19700410  1.07308601  1
  Fe  Fe75  1  0.33848791  0.06833938  0.29998598  1
  Fe  Fe76  1  0.48273332  0.61519077  0.19285730  1
  Fe  Fe77  1  0.40134646  0.58979100  0.30641512  1
  Fe  Fe78  1  0.39917367  0.87084027  0.70998682  1
  Fe  Fe79  1  0.02945461  0.55913123  0.40646772  1
  Fe  Fe80  1  0.54849579  0.12757553  0.47175101  1
  Fe  Fe81  1  0.89477330  0.47000693  1.04633830  1
  Fe  Fe82  1  0.71895995  0.14086879  -0.05438982  1
  Fe  Fe83  1  0.71070560  0.84169090  1.04161762  1
  Fe  Fe84  1  0.52130770  0.51174663  0.31831691  1
  Fe  Fe85  1  0.37952556  0.20260361  0.66618516  1
  Fe  Fe86  1  0.44761536  0.48936791  0.18152927  1
  Fe  Fe87  1  0.50977650  0.19740954  0.58737354  1
  Fe  Fe88  1  0.89314873  0.93248680  0.60488897  1
  Fe  Fe89  1  0.92398151  0.91599711  0.36694750  1
  Fe  Fe90  1  0.05439455  0.14390424  0.36395599  1
  Fe  Fe91  1  0.33641892  1.02051403  0.14894766  1
  Fe  Fe92  1  0.86437285  0.08677733  0.04015541  1
  Fe  Fe93  1  0.01784362  0.43830315  0.38592440  1
  Fe  Fe94  1  0.26771335  0.75668761  0.66721953  1
  Fe  Fe95  1  0.35759148  0.74984431  0.78454135  1
  Fe  Fe96  1  0.92064084  0.52136264  0.31673058  1
  Fe  Fe97  1  0.76687826  0.20855956  0.59341040  1
  Fe  Fe98  1  0.00895791  0.06846366  0.06930411  1
  Fe  Fe99  1  0.90988559  0.52814573  0.17036345  1
  Fe  Fe100  1  0.29189196  0.26102189  0.76587325  1
  Fe  Fe101  1  0.63786978  0.25507858  0.61770584  1
  Bi  Bi102  1  0.63988884  0.08830580  0.31833382  1
  Bi  Bi103  1  0.73617420  0.18181685  0.75493147  1
  Bi  Bi104  1  -0.05794436  0.12003960  0.23267532  1
  Bi  Bi105  1  0.76467209  -0.02388715  -0.02787169  1
  Bi  Bi106  1  0.14514503  0.19327001  0.82332693  1
  Bi  Bi107  1  0.56952380  0.36541757  0.25764131  1
  Bi  Bi108  1  0.79123561  0.80048615  0.64175135  1
  Bi  Bi109  1  0.79352911  0.80402431  0.35420966  1
  Bi  Bi110  1  -0.25032048  0.46063490  0.13732552  1
  Bi  Bi111  1  0.08610967  0.51376098  0.23951274  1
  Bi  Bi112  1  0.44238087  0.53602477  0.47197564  1
  Bi  Bi113  1  0.72303151  0.31076914  -0.08078542  1
  Bi  Bi114  1  0.17243095  0.65673624  0.76514790  1
  Bi  Bi115  1  0.02414611  0.47792811  0.56353188  1
  Bi  Bi116  1  -0.01931024  0.51302208  0.90246997  1
  Bi  Bi117  1  0.35386978  0.36880279  0.64825229  1
  Bi  Bi118  1  0.33241974  0.38186226  0.13932495  1
  Bi  Bi119  1  0.53486242  0.50778490  0.83844790  1
  Bi  Bi120  1  0.73928765  0.58632824  0.69162065  1
  Bi  Bi121  1  0.10175989  0.30537571  0.08105495  1
  Bi  Bi122  1  0.54659418  0.82412209  0.08613628  1
  Bi  Bi123  1  0.55296332  0.67737709  0.32646094  1
  Bi  Bi124  1  0.44516488  0.89828635  0.52177086  1
  Bi  Bi125  1  0.07160379  0.09018576  0.52883022  1
  Bi  Bi126  1  0.57590208  0.06186465  0.88483084  1
  Bi  Bi127  1  0.87947563  0.80295227  0.08873751  1
