# generated using pymatgen
data_Ba51Fe51Bi26
_symmetry_space_group_name_H-M   'P 1'
_cell_length_a   16.73251817
_cell_length_b   16.44343439
_cell_length_c   16.14126291
_cell_angle_alpha   90.99291320
_cell_angle_beta   89.54363773
_cell_angle_gamma   87.53458553
_symmetry_Int_Tables_number   1
_chemical_formula_structural   Ba51Fe51Bi26
_chemical_formula_sum   'Ba51 Fe51 Bi26'
_cell_volume   4436.16240568
_cell_formula_units_Z   1
loop_
 _symmetry_equiv_pos_site_id
 _symmetry_equiv_pos_as_xyz
  1  'x, y, z'
loop_
 _atom_site_type_symbol
 _atom_site_label
 _atom_site_symmetry_multiplicity
 _atom_site_fract_x
 _atom_site_fract_y
 _atom_site_fract_z
 _atom_site_occupancy
  Ba  Ba0  1  -0.02584745  0.55338950  0.06662396  1
  Ba  Ba1  1  0.45699236  0.26876020  0.30742955  1
  Ba  Ba2  1  -0.00858909  0.28495899  0.41217624  1
  Ba  Ba3  1  0.00600799  0.76160548  0.61730738  1
  Ba  Ba4  1  0.69209392  0.24520960  0.45395103  1
  Ba  Ba5  1  0.23675696  0.45821470  -0.10536845  1
  Ba  Ba6  1  0.29949569  0.19077488  0.79051199  1
  Ba  Ba7  1  0.24271731  0.67464951  0.24824425  1
  Ba  Ba8  1  0.80232690  0.74791571  -0.07722403  1
  Ba  Ba9  1  0.75725666  -0.04771697  0.29751395  1
  Ba  Ba10  1  0.77587294  0.47201831  0.45579849  1
  Ba  Ba11  1  0.05284110  0.36016760  0.70934320  1
  Ba  Ba12  1  0.20001491  0.24297862  0.24167027  1
  Ba  Ba13  1  0.41474146  0.74567828  0.38904953  1
  Ba  Ba14  1  0.07979843  0.73203961  -0.07132130  1
  Ba  Ba15  1  -0.00927392  0.10309663  0.88661891  1
  Ba  Ba16  1  0.25977165  0.09104824  0.01589902  1
  Ba  Ba17  1  0.27209099  0.82637186  0.56839201  1
  Ba  Ba18  1  0.60077835  0.03901427  0.77156553  1
  Ba  Ba19  1  0.10543477  0.49917758  0.29324727  1
  Ba  Ba20  1  0.61931584  0.62071070  -0.02314732  1
  Ba  Ba21  1  0.02384397  0.77451538  0.37680215  1
  Ba  Ba22  1  0.45625644  0.65143683  0.79925848  1
  Ba  Ba23  1  0.88413059  0.18109519  0.18300665  1
  Ba  Ba24  1  -0.02342361  0.06704159  0.56624062  1
  Ba  Ba25  1  0.71467361  0.01489193  0.52397976  1
  Ba  Ba26  1  0.39412199  0.32626538  0.04930591  1
  Ba  Ba27  1  -0.02902608  -0.07355613  0.07864428  1
  Ba  Ba28  1  0.75918278  0.21733409  0.70483426  1
  Ba  Ba29  1  0.25557934  0.24381221  0.55504975  1
  Ba  Ba30  1  0.79806425  0.86867788  0.71461519  1
  Ba  Ba31  1  0.57432293  0.74623961  0.20030128  1
  Ba  Ba32  1  0.19933028  0.57681825  0.66512280  1
  Ba  Ba33  1  0.50595476  0.28101096  0.72670130  1
  Ba  Ba34  1  0.76378575  0.41365068  -0.02407090  1
  Ba  Ba35  1  0.75978976  0.73717904  0.38836831  1
  Ba  Ba36  1  0.43417276  -0.06385580  0.06443302  1
  Ba  Ba37  1  0.31383315  0.48818081  0.46255970  1
  Ba  Ba38  1  0.05027530  0.31863710  0.01249512  1
  Ba  Ba39  1  0.42687108  -0.08914860  0.82060769  1
  Ba  Ba40  1  0.02310598  -0.00182618  0.31338871  1
  Ba  Ba41  1  0.35916302  0.70905021  0.04629328  1
  Ba  Ba42  1  0.60389798  0.25062301  -0.06201141  1
  Ba  Ba43  1  0.66180716  0.30056252  0.17497544  1
  Ba  Ba44  1  0.77744983  0.54092981  0.21141157  1
  Ba  Ba45  1  0.58181043  0.58595075  0.49111996  1
  Ba  Ba46  1  0.15986647  -0.05020588  0.76830249  1
  Ba  Ba47  1  0.38467149  0.01382064  0.30469805  1
  Ba  Ba48  1  0.63061960  0.03160105  0.11415034  1
  Ba  Ba49  1  0.56503570  0.79980624  0.59885871  1
  Ba  Ba50  1  0.79470324  0.49898651  0.72696341  1
  Fe  Fe51  1  0.87688053  0.94235147  0.90848009  1
  Fe  Fe52  1  0.57455664  0.13815986  0.58074119  1
  Fe  Fe53  1  0.52640026  0.07960766  0.46299350  1
  Fe  Fe54  1  0.55999284  0.56705063  0.27767313  1
  Fe  Fe55  1  0.63535946  0.92182554  0.93626315  1
  Fe  Fe56  1  0.93171743  0.58737026  0.86251889  1
  Fe  Fe57  1  0.78374966  0.16908799  -0.10758049  1
  Fe  Fe58  1  0.28324929  1.01736600  0.48013467  1
  Fe  Fe59  1  0.13524462  0.86515854  0.20944055  1
  Fe  Fe60  1  0.42477143  0.97267121  0.50661288  1
  Fe  Fe61  1  0.19702073  -0.00286661  0.20009561  1
  Fe  Fe62  1  0.76508004  0.74003707  0.15113904  1
  Fe  Fe63  1  0.56374644  0.81699160  0.97692665  1
  Fe  Fe64  1  0.57099530  0.39054395  0.43641641  1
  Fe  Fe65  1  0.49784057  0.43469833  0.20520424  1
  Fe  Fe66  1  0.27330105  0.88099934  0.16312491  1
  Fe  Fe67  1  0.18193232  1.05006169  0.58123098  1
  Fe  Fe68  1  0.83637961  0.06384833  0.99704357  1
  Fe  Fe69  1  0.47796533  0.46875978  0.36078816  1
  Fe  Fe70  1  0.76541198  0.93697972  0.98477660  1
  Fe  Fe71  1  0.85327687  0.21883733  -0.00367307  1
  Fe  Fe72  1  0.60953393  0.43890891  0.30777803  1
  Fe  Fe73  1  0.15063404  0.96551603  0.48223398  1
  Fe  Fe74  1  0.74539272  0.16562285  0.03927385  1
  Fe  Fe75  1  -0.10910271  0.68818382  0.22481596  1
  Fe  Fe76  1  0.39113964  0.11164366  0.48302474  1
  Fe  Fe77  1  0.90952794  0.60546758  0.53863105  1
  Fe  Fe78  1  0.49801438  0.56353244  0.12906525  1
  Fe  Fe79  1  0.89097285  0.74094300  0.09539056  1
  Fe  Fe80  1  0.05530854  0.53165313  0.85120464  1
  Fe  Fe81  1  -0.04618438  0.45698214  0.88220698  1
  Fe  Fe82  1  0.15734512  -0.05355600  1.07861890  1
  Fe  Fe83  1  0.20512027  0.43450076  0.11998463  1
  Fe  Fe84  1  0.61308444  0.49532280  0.15868891  1
  Fe  Fe85  1  0.57059845  0.47743425  0.76788997  1
  Fe  Fe86  1  0.46304958  0.48863737  0.65992896  1
  Fe  Fe87  1  0.79223471  0.02416455  0.85017007  1
  Fe  Fe88  1  0.88005011  0.81938980  0.22197960  1
  Fe  Fe89  1  0.55727257  0.43763577  0.89982281  1
  Fe  Fe90  1  0.47860569  0.42302258  0.53020068  1
  Fe  Fe91  1  0.67351382  0.83304811  0.05553654  1
  Fe  Fe92  1  0.04150477  0.57682382  0.50042899  1
  Fe  Fe93  1  0.79488558  0.86479310  0.11429132  1
  Fe  Fe94  1  0.96182256  0.47457735  0.54820944  1
  Fe  Fe95  1  0.53094751  0.99623527  0.58421265  1
  Fe  Fe96  1  0.69885517  0.06188825  0.94183851  1
  Fe  Fe97  1  0.44467825  0.45444595  0.80558380  1
  Fe  Fe98  1  0.17966634  0.80677067  1.09086492  1
  Fe  Fe99  1  0.43013402  0.56202759  0.25742684  1
  Fe  Fe100  1  0.44883475  0.11111801  0.60997415  1
  Fe  Fe101  1  0.55360149  0.43833108  0.05065487  1
  Bi  Bi102  1  0.32183406  0.43378075  0.24095252  1
  Bi  Bi103  1  0.33101947  0.01473440  0.65464611  1
  Bi  Bi104  1  0.42501938  0.51982913  -0.02931399  1
  Bi  Bi105  1  0.62947564  0.40965492  0.61203372  1
  Bi  Bi106  1  0.56092093  -0.09128177  0.40554582  1
  Bi  Bi107  1  -0.12396276  0.33393682  0.58375470  1
  Bi  Bi108  1  0.23134802  -0.11731766  0.34818260  1
  Bi  Bi109  1  0.04229411  0.73512725  0.16311527  1
  Bi  Bi110  1  -0.01080853  0.57095499  0.69825741  1
  Bi  Bi111  1  0.47250006  0.25454467  0.51316697  1
  Bi  Bi112  1  -0.07542987  0.58748110  0.36249015  1
  Bi  Bi113  1  0.25523287  -0.12425984  -0.04836902  1
  Bi  Bi114  1  0.61817521  0.80009561  0.81370352  1
  Bi  Bi115  1  0.40347107  0.64418961  0.59298615  1
  Bi  Bi116  1  0.07963688  0.10979543  0.11979730  1
  Bi  Bi117  1  0.85541239  0.12030898  0.38909475  1
  Bi  Bi118  1  0.12011104  0.42123735  0.50347193  1
  Bi  Bi119  1  0.32430276  0.39950447  0.69992074  1
  Bi  Bi120  1  0.11247118  0.14888785  0.70694873  1
  Bi  Bi121  1  0.45187980  0.11134280  0.92790686  1
  Bi  Bi122  1  0.17860493  0.66202894  0.46362299  1
  Bi  Bi123  1  0.15324816  0.12326080  0.41881837  1
  Bi  Bi124  1  0.18177635  0.58487931  0.06065685  1
  Bi  Bi125  1  0.89693143  0.29874741  0.85207964  1
  Bi  Bi126  1  0.76510337  0.67686554  0.59667259  1
  Bi  Bi127  1  0.87904981  0.88747842  0.49488760  1
