# generated using pymatgen
data_Ba51Fe51Bi26
_symmetry_space_group_name_H-M   'P 1'
_cell_length_a   16.29043448
_cell_length_b   16.81437346
_cell_length_c   16.27734168
_cell_angle_alpha   90.31939597
_cell_angle_beta   89.89787843
_cell_angle_gamma   91.52554427
_symmetry_Int_Tables_number   1
_chemical_formula_structural   Ba51Fe51Bi26
_chemical_formula_sum   'Ba51 Fe51 Bi26'
_cell_volume   4456.92727579
_cell_formula_units_Z   1
loop_
 _symmetry_equiv_pos_site_id
 _symmetry_equiv_pos_as_xyz
  1  'x, y, z'
loop_
 _atom_site_type_symbol
 _atom_site_label
 _atom_site_symmetry_multiplicity
 _atom_site_fract_x
 _atom_site_fract_y
 _atom_site_fract_z
 _atom_site_occupancy
  Ba  Ba0  1  0.00403148  -0.08193242  0.67480436  1
  Ba  Ba1  1  0.18372963  0.79965813  0.09203312  1
  Ba  Ba2  1  0.50885186  0.05242945  0.26322007  1
  Ba  Ba3  1  0.52285132  0.42960447  0.80366017  1
  Ba  Ba4  1  0.03974551  0.20394011  0.73443124  1
  Ba  Ba5  1  0.28090064  0.35248305  0.45406095  1
  Ba  Ba6  1  0.24497927  0.80838845  0.80317359  1
  Ba  Ba7  1  0.08852610  0.51416007  0.21767059  1
  Ba  Ba8  1  0.50330181  0.69887547  0.47033316  1
  Ba  Ba9  1  0.84274601  0.59273521  0.26815247  1
  Ba  Ba10  1  0.11728518  -0.03429166  -0.08095113  1
  Ba  Ba11  1  0.80406930  0.04389633  0.33170422  1
  Ba  Ba12  1  0.02119937  0.71206755  0.49459202  1
  Ba  Ba13  1  0.51188857  0.26488816  0.58015360  1
  Ba  Ba14  1  -0.00547201  0.47842510  0.76012955  1
  Ba  Ba15  1  0.58586415  0.50531169  0.35690924  1
  Ba  Ba16  1  0.39954668  0.28536145  0.18212961  1
  Ba  Ba17  1  0.67009311  0.80109465  0.28822792  1
  Ba  Ba18  1  0.49018402  -0.07195279  0.80582001  1
  Ba  Ba19  1  0.76130248  0.74309239  0.02816870  1
  Ba  Ba20  1  0.03551788  0.27549698  0.17238914  1
  Ba  Ba21  1  0.27935501  0.70126286  0.56368358  1
  Ba  Ba22  1  0.19183649  0.21358037  -0.02344643  1
  Ba  Ba23  1  0.45976203  0.67884195  0.74162701  1
  Ba  Ba24  1  0.06129307  0.22173551  0.46933162  1
  Ba  Ba25  1  0.68547825  0.41023505  0.07124092  1
  Ba  Ba26  1  0.74302895  0.55250122  0.79123920  1
  Ba  Ba27  1  0.56099592  0.01273086  0.53497153  1
  Ba  Ba28  1  -0.01662994  0.55949290  0.00979657  1
  Ba  Ba29  1  0.07506504  -0.02396923  0.44793935  1
  Ba  Ba30  1  0.35182488  0.25510166  0.77951117  1
  Ba  Ba31  1  0.50790435  0.73941282  0.02173749  1
  Ba  Ba32  1  0.45509936  0.52405162  0.06235042  1
  Ba  Ba33  1  0.20944920  0.47392475  0.64268808  1
  Ba  Ba34  1  0.67240045  0.26843945  0.26318989  1
  Ba  Ba35  1  0.54823432  0.15069985  0.88221514  1
  Ba  Ba36  1  0.31673380  0.03421438  0.11558416  1
  Ba  Ba37  1  0.23339123  0.56912787  -0.11769838  1
  Ba  Ba38  1  0.22282246  0.13152058  0.30691948  1
  Ba  Ba39  1  0.34740111  -0.05386811  0.45160071  1
  Ba  Ba40  1  -0.11807455  0.36804330  0.37961659  1
  Ba  Ba41  1  0.76613237  0.29422262  0.69497555  1
  Ba  Ba42  1  0.70631839  0.01059314  0.09514796  1
  Ba  Ba43  1  -0.03184413  0.87233441  0.25793139  1
  Ba  Ba44  1  0.34007124  0.50692698  0.27751071  1
  Ba  Ba45  1  0.83226719  0.04374341  0.59492661  1
  Ba  Ba46  1  0.72409494  0.77978763  0.61790714  1
  Ba  Ba47  1  0.27168370  0.05617754  0.68645923  1
  Ba  Ba48  1  -0.08939068  0.29021826  -0.04317916  1
  Ba  Ba49  1  0.26043378  0.71975764  0.30760058  1
  Ba  Ba50  1  0.74178249  -0.05854608  0.84283809  1
  Fe  Fe51  1  0.12115252  0.41034332  0.00318971  1
  Fe  Fe52  1  0.00158924  0.52413294  0.41563256  1
  Fe  Fe53  1  0.45148908  0.46593169  0.49362412  1
  Fe  Fe54  1  0.78172590  0.20272416  0.42187023  1
  Fe  Fe55  1  0.92364121  1.06430585  0.11620932  1
  Fe  Fe56  1  0.23305308  0.38523133  0.89991559  1
  Fe  Fe57  1  0.11144643  0.99819277  0.17724952  1
  Fe  Fe58  1  0.01466015  0.96836187  0.08310874  1
  Fe  Fe59  1  0.07888052  0.41430357  0.37845786  1
  Fe  Fe60  1  0.93170033  0.71733055  -0.08545796  1
  Fe  Fe61  1  0.70775921  0.17595423  0.55003317  1
  Fe  Fe62  1  0.34460702  0.53956625  0.47549701  1
  Fe  Fe63  1  0.89645621  0.78682869  0.74921491  1
  Fe  Fe64  1  0.94258994  0.66294810  0.79018172  1
  Fe  Fe65  1  0.06368185  0.65590528  0.86263628  1
  Fe  Fe66  1  0.03606845  0.77823362  0.79593355  1
  Fe  Fe67  1  0.74857554  0.48806000  0.46333905  1
  Fe  Fe68  1  0.72077097  0.18465676  -0.00522804  1
  Fe  Fe69  1  0.40528432  0.43534149  0.61726920  1
  Fe  Fe70  1  0.07423734  0.43000402  0.50636930  1
  Fe  Fe71  1  0.65283804  0.15757177  0.42995695  1
  Fe  Fe72  1  0.56722765  0.59916493  0.88896857  1
  Fe  Fe73  1  0.17977667  0.33347342  0.77138185  1
  Fe  Fe74  1  0.73412106  0.57587766  0.57518930  1
  Fe  Fe75  1  0.06562298  0.77069728  -0.07138898  1
  Fe  Fe76  1  0.84818161  0.22403274  0.53159341  1
  Fe  Fe77  1  0.24613293  0.43120159  0.04142325  1
  Fe  Fe78  1  0.39986456  0.56098939  0.59730322  1
  Fe  Fe79  1  0.48115659  0.85872381  0.31943035  1
  Fe  Fe80  1  0.64610494  0.58256650  0.98611230  1
  Fe  Fe81  1  0.37008657  0.87498057  0.24997350  1
  Fe  Fe82  1  0.40582307  0.18072817  0.00790586  1
  Fe  Fe83  1  0.84286429  0.09930812  0.98538953  1
  Fe  Fe84  1  0.35438255  0.89607641  0.98216205  1
  Fe  Fe85  1  0.27309896  0.19085954  0.55359062  1
  Fe  Fe86  1  0.20935534  0.26190046  0.64185472  1
  Fe  Fe87  1  0.10104689  0.36820770  0.87638737  1
  Fe  Fe88  1  0.48017848  0.83404676  0.61748444  1
  Fe  Fe89  1  0.81639888  0.74635216  0.84020661  1
  Fe  Fe90  1  0.36407329  0.87250447  0.64490084  1
  Fe  Fe91  1  -0.02724322  0.51022082  0.55312585  1
  Fe  Fe92  1  0.50532371  0.86816973  0.18668748  1
  Fe  Fe93  1  0.86475811  0.56713520  0.47701797  1
  Fe  Fe94  1  0.90568703  -0.03347822  -0.01396932  1
  Fe  Fe95  1  0.93501856  0.85291208  0.88188680  1
  Fe  Fe96  1  0.69535787  0.44430920  0.59226621  1
  Fe  Fe97  1  0.83701005  0.47256110  0.59347978  1
  Fe  Fe98  1  0.76202201  0.15189803  0.86949414  1
  Fe  Fe99  1  0.38109360  0.85458882  0.10955834  1
  Fe  Fe100  1  -0.00956880  0.09484133  -0.00849879  1
  Fe  Fe101  1  0.07688639  0.10032064  0.10754777  1
  Bi  Bi102  1  0.11364648  0.65643474  0.70257236  1
  Bi  Bi103  1  -0.03505953  0.81099576  0.05458784  1
  Bi  Bi104  1  0.50990734  -0.05149710  0.03282740  1
  Bi  Bi105  1  0.38545797  0.34257917  -0.02805232  1
  Bi  Bi106  1  0.82240818  0.19384198  0.13538564  1
  Bi  Bi107  1  0.88094521  0.63632597  0.63958878  1
  Bi  Bi108  1  0.46300390  0.70888041  0.24416454  1
  Bi  Bi109  1  0.68225093  0.33093644  0.47053780  1
  Bi  Bi110  1  0.66063684  0.10228045  0.70680868  1
  Bi  Bi111  1  0.17792630  0.55319523  0.42587174  1
  Bi  Bi112  1  0.56649614  0.54134072  0.61631260  1
  Bi  Bi113  1  0.20603602  -0.08350648  0.28347786  1
  Bi  Bi114  1  0.01001265  0.09139375  0.27711951  1
  Bi  Bi115  1  0.92267942  0.05478517  0.83394541  1
  Bi  Bi116  1  0.19778870  0.88282425  0.59596176  1
  Bi  Bi117  1  0.88673670  0.42050234  0.15506337  1
  Bi  Bi118  1  0.24847330  0.59196613  0.09839543  1
  Bi  Bi119  1  0.64310467  0.74478568  0.83680034  1
  Bi  Bi120  1  0.33314168  0.06154901  0.89978332  1
  Bi  Bi121  1  0.39478583  0.15480537  0.43526819  1
  Bi  Bi122  1  0.95324070  0.34667836  0.59540675  1
  Bi  Bi123  1  0.69623285  0.31349346  0.88915023  1
  Bi  Bi124  1  0.55859609  0.18348926  0.09325316  1
  Bi  Bi125  1  0.72177316  0.65827154  0.43023597  1
  Bi  Bi126  1  0.87595764  0.87951748  0.46454700  1
  Bi  Bi127  1  0.64970770  0.60700525  0.15649008  1
