# generated using pymatgen
data_Ba51Fe51Bi26
_symmetry_space_group_name_H-M   'P 1'
_cell_length_a   16.77597656
_cell_length_b   16.51841823
_cell_length_c   16.30547281
_cell_angle_alpha   90.33604405
_cell_angle_beta   90.86397228
_cell_angle_gamma   88.36841707
_symmetry_Int_Tables_number   1
_chemical_formula_structural   Ba51Fe51Bi26
_chemical_formula_sum   'Ba51 Fe51 Bi26'
_cell_volume   4516.03973581
_cell_formula_units_Z   1
loop_
 _symmetry_equiv_pos_site_id
 _symmetry_equiv_pos_as_xyz
  1  'x, y, z'
loop_
 _atom_site_type_symbol
 _atom_site_label
 _atom_site_symmetry_multiplicity
 _atom_site_fract_x
 _atom_site_fract_y
 _atom_site_fract_z
 _atom_site_occupancy
  Ba  Ba0  1  0.70742928  0.26892593  0.74381793  1
  Ba  Ba1  1  0.42365016  0.50643120  -0.01398476  1
  Ba  Ba2  1  0.48178046  0.25002576  -0.02473952  1
  Ba  Ba3  1  0.73976338  0.24891511  0.25500340  1
  Ba  Ba4  1  0.04441741  0.44542129  0.33214203  1
  Ba  Ba5  1  0.56758012  0.69339858  0.50992538  1
  Ba  Ba6  1  0.58483089  0.52560629  0.77836112  1
  Ba  Ba7  1  -0.06648665  -0.00652898  0.33168262  1
  Ba  Ba8  1  0.75832092  -0.01931014  0.76294241  1
  Ba  Ba9  1  0.79149051  0.56491044  0.02800230  1
  Ba  Ba10  1  0.48081261  0.40209837  0.39024657  1
  Ba  Ba11  1  -0.01543807  0.23364900  0.31757979  1
  Ba  Ba12  1  0.58324945  0.77804283  0.79592400  1
  Ba  Ba13  1  0.05766819  0.08691943  0.79350105  1
  Ba  Ba14  1  0.04878810  0.25748937  0.00716904  1
  Ba  Ba15  1  0.46094635  0.82614191  0.01238308  1
  Ba  Ba16  1  0.47888039  0.24021832  0.71064797  1
  Ba  Ba17  1  -0.01422606  0.51008761  0.84177222  1
  Ba  Ba18  1  0.66220647  0.45703973  0.17596544  1
  Ba  Ba19  1  0.70895642  0.01715423  0.23236621  1
  Ba  Ba20  1  0.30029230  0.86096841  0.45973516  1
  Ba  Ba21  1  0.47455084  0.00883648  0.73694483  1
  Ba  Ba22  1  -0.01128830  0.75475052  0.75853490  1
  Ba  Ba23  1  0.45979989  0.00796317  0.17541422  1
  Ba  Ba24  1  0.20480980  -0.02975006  0.26601007  1
  Ba  Ba25  1  -0.03320356  0.72392048  0.51134617  1
  Ba  Ba26  1  -0.01910507  0.77075178  0.01437330  1
  Ba  Ba27  1  0.55483682  -0.01489780  0.46338329  1
  Ba  Ba28  1  0.76557725  0.76300927  0.64527327  1
  Ba  Ba29  1  0.34652867  0.22190530  0.19973747  1
  Ba  Ba30  1  0.25338605  0.25015744  0.76528911  1
  Ba  Ba31  1  -0.06394432  0.70117197  0.27942609  1
  Ba  Ba32  1  0.42884016  0.60795761  0.22105408  1
  Ba  Ba33  1  0.77081519  0.27090460  0.00162121  1
  Ba  Ba34  1  0.67814737  0.75136574  0.25953129  1
  Ba  Ba35  1  0.80227121  0.01989605  -0.00360981  1
  Ba  Ba36  1  0.71707397  0.80227855  0.01266271  1
  Ba  Ba37  1  0.77911818  0.50491751  0.61262398  1
  Ba  Ba38  1  0.02689554  0.02021497  0.05869044  1
  Ba  Ba39  1  0.87103205  0.09785676  0.57424225  1
  Ba  Ba40  1  0.21681268  0.73860759  -0.07510311  1
  Ba  Ba41  1  0.30951785  0.81085266  0.71362894  1
  Ba  Ba42  1  0.28357605  0.52376970  0.76974151  1
  Ba  Ba43  1  0.72714955  0.28845201  0.47886403  1
  Ba  Ba44  1  0.07582443  0.51861838  0.58936185  1
  Ba  Ba45  1  0.36359248  0.23543332  0.47924484  1
  Ba  Ba46  1  0.04794843  0.51909481  0.08362198  1
  Ba  Ba47  1  0.09228868  0.26770337  0.56556301  1
  Ba  Ba48  1  0.09536125  -0.08183268  0.59254298  1
  Ba  Ba49  1  0.21022128  0.72232849  0.24197964  1
  Ba  Ba50  1  0.31301846  0.59173978  0.51294677  1
  Fe  Fe51  1  0.28079156  0.98189072  0.61341558  1
  Fe  Fe52  1  0.29249424  0.95473815  0.06179669  1
  Fe  Fe53  1  0.31885437  0.12138730  0.63034946  1
  Fe  Fe54  1  0.18973350  0.51494291  0.94260308  1
  Fe  Fe55  1  0.59737576  0.27528205  0.12091459  1
  Fe  Fe56  1  0.18964977  0.09257558  0.61672338  1
  Fe  Fe57  1  0.19464993  0.96569849  0.95348717  1
  Fe  Fe58  1  0.33798915  0.09463848  0.02675195  1
  Fe  Fe59  1  -0.05001884  0.38519699  0.67186269  1
  Fe  Fe60  1  0.32593023  0.98066927  0.92330316  1
  Fe  Fe61  1  0.94360648  0.23328834  0.70536466  1
  Fe  Fe62  1  0.87300014  0.53557919  0.39887376  1
  Fe  Fe63  1  0.21404731  0.10336755  0.93080257  1
  Fe  Fe64  1  0.61336398  1.00425165  0.04460083  1
  Fe  Fe65  1  0.30447376  0.44771453  0.17647741  1
  Fe  Fe66  1  0.15855319  0.71006418  0.63472873  1
  Fe  Fe67  1  0.73555628  0.49052978  0.41007371  1
  Fe  Fe68  1  0.26588865  0.38423835  0.29940403  1
  Fe  Fe69  1  0.72700621  0.95254107  0.55840404  1
  Fe  Fe70  1  0.24599626  1.07170262  0.48978193  1
  Fe  Fe71  1  0.62864981  0.13997356  0.06298902  1
  Fe  Fe72  1  0.82892695  0.41539452  0.32792322  1
  Fe  Fe73  1  0.84659167  0.89928756  0.52886667  1
  Fe  Fe74  1  0.88887687  0.32861769  0.78375970  1
  Fe  Fe75  1  0.88160544  0.52142292  0.24020420  1
  Fe  Fe76  1  0.70776349  0.84101011  0.47251166  1
  Fe  Fe77  1  0.20602416  0.14548816  0.36750796  1
  Fe  Fe78  1  0.18886826  0.27378576  0.33737161  1
  Fe  Fe79  1  0.27412050  0.51651341  0.33336802  1
  Fe  Fe80  1  0.56141918  0.22371286  0.53498790  1
  Fe  Fe81  1  0.23766524  0.41845191  1.04554740  1
  Fe  Fe82  1  0.37589878  1.03591426  0.54152908  1
  Fe  Fe83  1  0.54570776  0.27802343  0.24155202  1
  Fe  Fe84  1  0.73210942  0.65593178  0.84819449  1
  Fe  Fe85  1  0.87390545  0.67021176  0.89537507  1
  Fe  Fe86  1  0.16035705  0.73569608  0.50934753  1
  Fe  Fe87  1  0.75755341  -0.02436416  0.42914447  1
  Fe  Fe88  1  0.03640665  0.85833329  0.20797545  1
  Fe  Fe89  1  0.19629266  0.51389900  0.22451789  1
  Fe  Fe90  1  0.80438560  0.76849324  0.83781785  1
  Fe  Fe91  1  0.21480427  0.06771993  0.07091649  1
  Fe  Fe92  1  0.56846502  0.15742918  0.18546543  1
  Fe  Fe93  1  0.34488119  0.12097373  0.88459027  1
  Fe  Fe94  1  0.17302770  0.39172023  0.91523803  1
  Fe  Fe95  1  0.62092940  0.96331299  0.91463853  1
  Fe  Fe96  1  0.83467209  0.62767801  0.77319518  1
  Fe  Fe97  1  0.85791297  0.30546481  0.62814765  1
  Fe  Fe98  1  0.63195504  0.09466523  0.92257322  1
  Fe  Fe99  1  0.76826325  0.56549004  0.30318244  1
  Fe  Fe100  1  0.81461405  0.85055497  0.40053256  1
  Fe  Fe101  1  0.87139548  0.40229951  0.19594925  1
  Bi  Bi102  1  0.26972828  0.25575737  -0.01862843  1
  Bi  Bi103  1  0.47809022  0.03740942  -0.04629158  1
  Bi  Bi104  1  0.13585264  0.61302619  0.39638295  1
  Bi  Bi105  1  0.77454177  0.67347550  0.44458489  1
  Bi  Bi106  1  0.15762033  -0.14032676  0.08723297  1
  Bi  Bi107  1  0.56819180  0.17466766  0.36754914  1
  Bi  Bi108  1  0.14324426  0.15474048  0.20109227  1
  Bi  Bi109  1  0.25389106  0.59038943  0.08116345  1
  Bi  Bi110  1  0.25556630  0.02073270  0.77351669  1
  Bi  Bi111  1  0.91698438  0.38967599  0.49159467  1
  Bi  Bi112  1  0.08004075  0.08515207  0.46232910  1
  Bi  Bi113  1  0.06429946  0.32123058  0.78976993  1
  Bi  Bi114  1  0.46395391  0.39364969  0.15892574  1
  Bi  Bi115  1  0.15306890  0.35368901  0.17633380  1
  Bi  Bi116  1  0.60004222  0.56732065  0.34529758  1
  Bi  Bi117  1  0.57662707  0.38339655  0.59658395  1
  Bi  Bi118  1  0.86718240  0.16006705  0.83863613  1
  Bi  Bi119  1  0.08424311  0.83890833  0.37626855  1
  Bi  Bi120  1  0.41072627  0.67667125  0.86047041  1
  Bi  Bi121  1  0.44437881  0.64473886  0.67058270  1
  Bi  Bi122  1  0.36433063  0.05362419  0.36763789  1
  Bi  Bi123  1  0.88550468  0.14907389  0.14494853  1
  Bi  Bi124  1  0.87116190  0.87466598  0.16112041  1
  Bi  Bi125  1  0.64732719  0.10302140  0.61924433  1
  Bi  Bi126  1  0.22603011  0.40077415  0.46240308  1
  Bi  Bi127  1  0.58801523  0.64548301  0.07122631  1
