# generated using pymatgen
data_Ba51Fe51Bi26
_symmetry_space_group_name_H-M   'P 1'
_cell_length_a   16.27956367
_cell_length_b   16.28071865
_cell_length_c   16.61732591
_cell_angle_alpha   91.21452115
_cell_angle_beta   90.20371915
_cell_angle_gamma   90.17583643
_symmetry_Int_Tables_number   1
_chemical_formula_structural   Ba51Fe51Bi26
_chemical_formula_sum   'Ba51 Fe51 Bi26'
_cell_volume   4403.26677538
_cell_formula_units_Z   1
loop_
 _symmetry_equiv_pos_site_id
 _symmetry_equiv_pos_as_xyz
  1  'x, y, z'
loop_
 _atom_site_type_symbol
 _atom_site_label
 _atom_site_symmetry_multiplicity
 _atom_site_fract_x
 _atom_site_fract_y
 _atom_site_fract_z
 _atom_site_occupancy
  Ba  Ba0  1  0.30204225  0.73942255  0.73954318  1
  Ba  Ba1  1  0.40990254  0.32366642  0.77592895  1
  Ba  Ba2  1  0.16591627  0.24468935  0.84369256  1
  Ba  Ba3  1  0.50584935  0.74275550  -0.08027873  1
  Ba  Ba4  1  0.77910407  0.69958213  0.74195181  1
  Ba  Ba5  1  0.10175038  0.67733438  0.17913208  1
  Ba  Ba6  1  0.68903194  0.80305383  0.08705043  1
  Ba  Ba7  1  0.03779613  0.73399646  0.43222678  1
  Ba  Ba8  1  0.72147239  0.47688374  0.78962829  1
  Ba  Ba9  1  0.06855395  -0.05624235  -0.04831909  1
  Ba  Ba10  1  0.29404374  0.73764067  0.47601825  1
  Ba  Ba11  1  0.67012328  0.25010338  0.83711716  1
  Ba  Ba12  1  0.86878540  0.28163265  0.08326125  1
  Ba  Ba13  1  0.28861567  0.79379484  0.01941666  1
  Ba  Ba14  1  0.66853365  0.53991196  0.55685735  1
  Ba  Ba15  1  0.17121058  0.49619602  0.74668843  1
  Ba  Ba16  1  0.20370961  0.46639560  0.48449291  1
  Ba  Ba17  1  0.70905737  0.01928333  0.53454632  1
  Ba  Ba18  1  0.79059381  0.45365180  0.29949780  1
  Ba  Ba19  1  0.82341343  0.05400995  0.19104040  1
  Ba  Ba20  1  0.29419111  -0.01453412  0.46753346  1
  Ba  Ba21  1  -0.10249390  0.35680486  0.67458432  1
  Ba  Ba22  1  0.81577470  0.03590529  -0.03562787  1
  Ba  Ba23  1  0.48335295  0.29610365  0.42358301  1
  Ba  Ba24  1  0.07238851  0.38475431  0.02624114  1
  Ba  Ba25  1  -0.06838238  -0.03599302  0.66396823  1
  Ba  Ba26  1  0.54072256  -0.07173629  0.42394661  1
  Ba  Ba27  1  -0.12553441  0.73203155  0.25533518  1
  Ba  Ba28  1  0.04229113  0.75588835  0.75231726  1
  Ba  Ba29  1  0.52204393  0.48855533  0.21857493  1
  Ba  Ba30  1  0.29980247  -0.01376326  0.24495560  1
  Ba  Ba31  1  0.73198266  0.46340869  0.04542115  1
  Ba  Ba32  1  0.70846037  0.25418438  0.50300210  1
  Ba  Ba33  1  0.46007278  0.52665313  0.45327549  1
  Ba  Ba34  1  0.58533235  -0.01230713  0.21994480  1
  Ba  Ba35  1  0.26709893  0.20344214  0.56463642  1
  Ba  Ba36  1  0.06877790  -0.03400684  0.20728934  1
  Ba  Ba37  1  0.66228722  -0.09724242  0.78168161  1
  Ba  Ba38  1  -0.05982804  0.16461411  -0.18546004  1
  Ba  Ba39  1  0.54864680  0.06585831  -0.04215969  1
  Ba  Ba40  1  -0.01952732  0.33280641  0.44663377  1
  Ba  Ba41  1  0.50108311  0.06879033  0.67554314  1
  Ba  Ba42  1  -0.07531803  0.02897229  0.43485545  1
  Ba  Ba43  1  -0.08718973  0.67433088  -0.03083223  1
  Ba  Ba44  1  0.24308897  0.00151541  0.74988018  1
  Ba  Ba45  1  0.29361212  0.54102364  0.10653309  1
  Ba  Ba46  1  0.27947619  0.28145384  0.07438052  1
  Ba  Ba47  1  0.47205901  0.19310434  0.18757917  1
  Ba  Ba48  1  0.49918003  0.49487283  -0.05344124  1
  Ba  Ba49  1  0.26657065  0.23731709  0.32179716  1
  Ba  Ba50  1  0.04831828  0.21444887  0.22971932  1
  Fe  Fe51  1  0.69474942  0.14298535  0.68048469  1
  Fe  Fe52  1  0.82332083  0.14905670  0.65272115  1
  Fe  Fe53  1  0.24829683  0.98320584  0.05138481  1
  Fe  Fe54  1  0.41737268  0.82877123  0.19776446  1
  Fe  Fe55  1  0.33605249  0.42694975  0.33435342  1
  Fe  Fe56  1  0.58847745  0.66015596  0.32160340  1
  Fe  Fe57  1  0.82677383  0.80507632  0.45107241  1
  Fe  Fe58  1  0.68323646  0.22901170  1.03146431  1
  Fe  Fe59  1  -0.00491835  0.37557564  0.84156545  1
  Fe  Fe60  1  0.70035908  0.28635691  0.18387841  1
  Fe  Fe61  1  0.67210350  0.77154407  0.30068184  1
  Fe  Fe62  1  0.22506529  0.42169186  0.24718997  1
  Fe  Fe63  1  0.66033696  0.19460285  0.28608969  1
  Fe  Fe64  1  0.47248967  0.11245015  0.48462811  1
  Fe  Fe65  1  0.90059794  0.46465133  0.92321316  1
  Fe  Fe66  1  0.77103395  0.07117396  0.75584005  1
  Fe  Fe67  1  0.34458828  0.14409889  0.94123445  1
  Fe  Fe68  1  0.19231321  0.09967205  0.09419678  1
  Fe  Fe69  1  0.99098736  0.40317089  0.23478623  1
  Fe  Fe70  1  0.02400954  0.49863039  0.88472976  1
  Fe  Fe71  1  0.40466327  0.82358042  0.33216309  1
  Fe  Fe72  1  0.44112774  0.68701913  0.29744535  1
  Fe  Fe73  1  0.33134192  1.00206360  0.94144359  1
  Fe  Fe74  1  0.71328826  0.09269192  0.35292894  1
  Fe  Fe75  1  0.50285754  0.79293809  0.71743513  1
  Fe  Fe76  1  0.99955325  0.52392682  0.30302997  1
  Fe  Fe77  1  0.86743830  0.55084425  0.60954917  1
  Fe  Fe78  1  0.43234827  0.10259956  0.36517949  1
  Fe  Fe79  1  0.11678762  0.02602670  0.56274924  1
  Fe  Fe80  1  0.59924667  0.30720970  1.09519700  1
  Fe  Fe81  1  0.57575636  0.12276729  0.38546772  1
  Fe  Fe82  1  0.21337115  0.09541537  0.95960705  1
  Fe  Fe83  1  0.60417843  0.71836129  0.62149139  1
  Fe  Fe84  1  0.96000064  0.66312392  0.60257171  1
  Fe  Fe85  1  0.13732723  0.53103082  0.31241113  1
  Fe  Fe86  1  0.32226510  0.73981250  0.23272924  1
  Fe  Fe87  1  0.11779653  0.89231281  0.58346847  1
  Fe  Fe88  1  0.46311083  0.70489179  0.61184091  1
  Fe  Fe89  1  0.09771563  0.47945973  0.18987335  1
  Fe  Fe90  1  0.36470197  0.37444780  0.22460232  1
  Fe  Fe91  1  0.39596768  0.39871822  0.59832904  1
  Fe  Fe92  1  0.83606349  0.67769753  0.53269119  1
  Fe  Fe93  1  0.09981913  0.39719343  0.31553973  1
  Fe  Fe94  1  0.66042611  0.16134128  0.14010264  1
  Fe  Fe95  1  0.33791227  0.09354935  0.06597375  1
  Fe  Fe96  1  0.10233259  0.93530395  0.46023041  1
  Fe  Fe97  1  0.90300770  0.79730015  0.56354229  1
  Fe  Fe98  1  0.00672015  0.52714538  0.59819293  1
  Fe  Fe99  1  0.55569928  0.84007993  0.59542039  1
  Fe  Fe100  1  0.87115950  0.34086237  0.88358735  1
  Fe  Fe101  1  0.53831318  0.78653403  0.25770659  1
  Bi  Bi102  1  0.42615006  -0.05235118  0.07956747  1
  Bi  Bi103  1  0.46294387  0.68300191  0.12493382  1
  Bi  Bi104  1  0.54982322  0.61932257  0.74151353  1
  Bi  Bi105  1  -0.07554623  0.54455474  0.45322122  1
  Bi  Bi106  1  0.35552452  0.55720000  0.63034226  1
  Bi  Bi107  1  0.82854541  0.22833028  0.31767594  1
  Bi  Bi108  1  0.48867422  0.26781734  -0.02673545  1
  Bi  Bi109  1  0.73373090  0.82482052  0.58853606  1
  Bi  Bi110  1  -0.06013476  0.55649829  0.75976185  1
  Bi  Bi111  1  0.29494811  0.59172851  0.31444317  1
  Bi  Bi112  1  -0.06560329  0.52522461  0.13517505  1
  Bi  Bi113  1  0.52183426  0.72684773  0.45736945  1
  Bi  Bi114  1  0.73945507  0.65902214  0.40041600  1
  Bi  Bi115  1  1.04565643  0.15328264  0.01468997  1
  Bi  Bi116  1  0.43279028  0.91960862  0.82785721  1
  Bi  Bi117  1  0.91389782  0.86929532  0.09177848  1
  Bi  Bi118  1  0.69495960  0.64068522  0.93339424  1
  Bi  Bi119  1  0.69322091  0.62320547  0.19711188  1
  Bi  Bi120  1  0.13470145  0.64451598  0.59636667  1
  Bi  Bi121  1  0.31583669  0.60967135  0.90248634  1
  Bi  Bi122  1  0.75667316  0.91779443  0.34060051  1
  Bi  Bi123  1  0.12393408  0.10469001  0.40572931  1
  Bi  Bi124  1  0.88109615  0.86828640  0.84877306  1
  Bi  Bi125  1  0.39459969  0.88407556  0.61397959  1
  Bi  Bi126  1  0.55857836  0.36116626  0.62708190  1
  Bi  Bi127  1  0.27631913  0.42160521  0.91736319  1
