# generated using pymatgen
data_Ba51Fe51Bi26
_symmetry_space_group_name_H-M   'P 1'
_cell_length_a   17.08513675
_cell_length_b   15.90784440
_cell_length_c   15.91417840
_cell_angle_alpha   90.04705923
_cell_angle_beta   91.16581307
_cell_angle_gamma   90.43226059
_symmetry_Int_Tables_number   1
_chemical_formula_structural   Ba51Fe51Bi26
_chemical_formula_sum   'Ba51 Fe51 Bi26'
_cell_volume   4324.25744680
_cell_formula_units_Z   1
loop_
 _symmetry_equiv_pos_site_id
 _symmetry_equiv_pos_as_xyz
  1  'x, y, z'
loop_
 _atom_site_type_symbol
 _atom_site_label
 _atom_site_symmetry_multiplicity
 _atom_site_fract_x
 _atom_site_fract_y
 _atom_site_fract_z
 _atom_site_occupancy
  Ba  Ba0  1  0.26773400  0.75007185  0.71722226  1
  Ba  Ba1  1  0.30105881  0.09023636  0.10296099  1
  Ba  Ba2  1  0.20386564  0.16967186  0.66899548  1
  Ba  Ba3  1  0.56636433  0.16289522  0.11416686  1
  Ba  Ba4  1  0.68480130  -0.03092915  0.01426858  1
  Ba  Ba5  1  0.76027917  0.23311068  0.06765119  1
  Ba  Ba6  1  0.77989599  0.20510261  0.53731571  1
  Ba  Ba7  1  0.84605286  0.35565109  0.32324738  1
  Ba  Ba8  1  0.74709032  0.58577180  0.47452130  1
  Ba  Ba9  1  0.01733050  0.78560778  0.68348830  1
  Ba  Ba10  1  0.02244734  0.76834574  0.23281415  1
  Ba  Ba11  1  0.00421230  0.56490930  0.47380886  1
  Ba  Ba12  1  0.25423176  0.34004543  0.20527212  1
  Ba  Ba13  1  0.74809242  -0.05211407  0.59740387  1
  Ba  Ba14  1  0.03764158  0.01315608  0.08454037  1
  Ba  Ba15  1  0.16106599  0.08768735  0.33139934  1
  Ba  Ba16  1  0.21586453  0.56382053  -0.10825979  1
  Ba  Ba17  1  0.53099235  0.44941453  0.47520181  1
  Ba  Ba18  1  0.26212999  0.69491322  0.17911122  1
  Ba  Ba19  1  0.54563887  0.75383209  -0.00066906  1
  Ba  Ba20  1  0.72653503  0.40996888  0.70890781  1
  Ba  Ba21  1  0.27666781  0.28791574  -0.08041959  1
  Ba  Ba22  1  -0.00394832  0.27443483  0.64892196  1
  Ba  Ba23  1  -0.01239507  0.49495137  -0.03962833  1
  Ba  Ba24  1  0.54578037  0.72014182  0.41700620  1
  Ba  Ba25  1  0.54629069  0.17403247  0.52255209  1
  Ba  Ba26  1  0.33765194  0.02924658  0.81598386  1
  Ba  Ba27  1  0.78647168  0.63536626  0.09014495  1
  Ba  Ba28  1  0.46697013  0.40265893  0.07025267  1
  Ba  Ba29  1  -0.04329810  0.51096921  0.72308811  1
  Ba  Ba30  1  0.01047782  0.01366122  0.54267687  1
  Ba  Ba31  1  0.46622633  -0.04998217  0.62168986  1
  Ba  Ba32  1  -0.11900696  -0.04764939  0.32513739  1
  Ba  Ba33  1  0.22001239  -0.09025412  0.51385264  1
  Ba  Ba34  1  0.32418540  0.84607384  0.00291263  1
  Ba  Ba35  1  -0.01301586  0.04892654  0.80720591  1
  Ba  Ba36  1  -0.03437638  0.23729993  -0.04234413  1
  Ba  Ba37  1  0.67137936  0.46023404  0.21123729  1
  Ba  Ba38  1  0.66333364  0.84827819  0.23299099  1
  Ba  Ba39  1  0.22799715  0.62221451  0.45168979  1
  Ba  Ba40  1  0.25713798  0.43158855  0.66787878  1
  Ba  Ba41  1  0.77835962  0.70406730  0.72895205  1
  Ba  Ba42  1  0.42433887  0.52653318  0.26449661  1
  Ba  Ba43  1  0.58309335  0.53655007  -0.10846394  1
  Ba  Ba44  1  0.50671260  0.25200440  0.89940783  1
  Ba  Ba45  1  0.04561145  0.50524838  0.21023075  1
  Ba  Ba46  1  -0.04848435  0.77915192  -0.06443737  1
  Ba  Ba47  1  0.30467213  0.31508402  0.45339283  1
  Ba  Ba48  1  0.62627858  -0.11816861  0.79606991  1
  Ba  Ba49  1  0.48668621  0.39305438  0.70563596  1
  Ba  Ba50  1  0.01892925  0.26230128  0.20196909  1
  Fe  Fe51  1  0.33422264  1.00926933  0.33168686  1
  Fe  Fe52  1  0.39142627  0.20789720  0.62574252  1
  Fe  Fe53  1  0.72588290  0.42058808  -0.01718383  1
  Fe  Fe54  1  0.49595913  0.94755497  0.91619526  1
  Fe  Fe55  1  0.87859274  0.12573872  0.20839128  1
  Fe  Fe56  1  0.45578287  0.30018290  0.34993074  1
  Fe  Fe57  1  0.08520939  0.21854763  0.47308598  1
  Fe  Fe58  1  0.46293074  0.72974690  0.65427821  1
  Fe  Fe59  1  0.81015658  0.08433104  0.92110716  1
  Fe  Fe60  1  0.13117400  0.28818230  0.36280620  1
  Fe  Fe61  1  0.43546903  0.06212257  0.23734582  1
  Fe  Fe62  1  0.90121077  0.73160513  0.40890161  1
  Fe  Fe63  1  0.13268903  0.34177856  0.51571435  1
  Fe  Fe64  1  0.14626209  0.22702764  0.05624216  1
  Fe  Fe65  1  0.55071409  0.59562958  0.64818582  1
  Fe  Fe66  1  0.37649720  0.23252430  0.75190391  1
  Fe  Fe67  1  0.81443044  0.37300457  0.90421973  1
  Fe  Fe68  1  0.60393345  0.64872539  0.20846822  1
  Fe  Fe69  1  0.42082690  0.60125801  0.60169246  1
  Fe  Fe70  1  0.52307845  0.31890162  0.24258995  1
  Fe  Fe71  1  0.90025907  0.84571944  0.51038318  1
  Fe  Fe72  1  0.84984306  0.05756057  0.08726242  1
  Fe  Fe73  1  0.41692034  0.23088572  0.21577092  1
  Fe  Fe74  1  0.68870429  0.30826652  0.88058717  1
  Fe  Fe75  1  0.46302388  0.04819277  0.38867554  1
  Fe  Fe76  1  0.88009682  0.97913149  0.97236366  1
  Fe  Fe77  1  0.56934586  0.03041841  0.28057232  1
  Fe  Fe78  1  0.67848641  0.15510936  0.90141801  1
  Fe  Fe79  1  0.11494262  0.41631932  0.39901330  1
  Fe  Fe80  1  0.71755793  0.06705057  0.80030017  1
  Fe  Fe81  1  0.54010304  0.68453508  0.75830468  1
  Fe  Fe82  1  0.56415362  1.07183237  0.84527083  1
  Fe  Fe83  1  0.52194713  0.17258660  0.31188029  1
  Fe  Fe84  1  0.39724542  0.91256303  0.41894021  1
  Fe  Fe85  1  0.37468419  0.16349302  0.33434984  1
  Fe  Fe86  1  0.42900520  0.60037727  0.73997782  1
  Fe  Fe87  1  0.37875285  0.79176828  0.33687678  1
  Fe  Fe88  1  0.15045198  0.78052497  0.91043596  1
  Fe  Fe89  1  0.49277329  0.15742592  0.72448563  1
  Fe  Fe90  1  0.13204386  0.83803018  0.03068323  1
  Fe  Fe91  1  1.00415447  0.33178010  0.43796033  1
  Fe  Fe92  1  0.47231494  0.06447374  0.96624144  1
  Fe  Fe93  1  0.47784864  0.91487032  0.30113864  1
  Fe  Fe94  1  0.14240776  0.91762685  0.89841242  1
  Fe  Fe95  1  0.87387045  0.72077270  0.54639748  1
  Fe  Fe96  1  0.53724869  0.59067642  0.11346872  1
  Fe  Fe97  1  0.12316396  0.35129310  0.01785768  1
  Fe  Fe98  1  0.61072644  0.07808159  0.70534136  1
  Fe  Fe99  1  0.36163618  0.90941455  0.22697718  1
  Fe  Fe100  1  0.63605170  0.20283386  0.76360577  1
  Fe  Fe101  1  0.27408974  0.86857927  0.33081158  1
  Bi  Bi102  1  0.43622839  0.81141110  0.81510528  1
  Bi  Bi103  1  0.46733740  0.73925130  0.20478177  1
  Bi  Bi104  1  0.82522046  -0.08041405  0.81601932  1
  Bi  Bi105  1  0.37085552  0.76231188  0.51475247  1
  Bi  Bi106  1  0.04783495  0.79614998  0.45710835  1
  Bi  Bi107  1  0.64076501  0.29575776  0.36504930  1
  Bi  Bi108  1  0.72796525  0.06635012  0.21946565  1
  Bi  Bi109  1  -0.05409561  0.16331342  0.38897565  1
  Bi  Bi110  1  0.33444318  0.09627686  0.49623630  1
  Bi  Bi111  1  0.75793038  0.80251222  0.42938653  1
  Bi  Bi112  1  0.19557844  0.90911205  0.18227881  1
  Bi  Bi113  1  0.48899553  -0.04408439  0.10756772  1
  Bi  Bi114  1  0.81451679  0.21791691  0.79229458  1
  Bi  Bi115  1  0.16135859  0.09996046  0.92987893  1
  Bi  Bi116  1  0.58772950  0.95262458  0.43840033  1
  Bi  Bi117  1  0.10550127  0.36771556  0.82810965  1
  Bi  Bi118  1  0.09883029  0.66547094  0.04514949  1
  Bi  Bi119  1  0.86245870  0.87165164  0.11075144  1
  Bi  Bi120  1  0.13204403  0.60041702  0.65633298  1
  Bi  Bi121  1  0.86066809  0.41332351  0.10140284  1
  Bi  Bi122  1  0.87033032  0.40601187  0.53846222  1
  Bi  Bi123  1  0.15389533  0.94914962  0.72084167  1
  Bi  Bi124  1  0.79644154  0.54961000  0.87886182  1
  Bi  Bi125  1  0.39309746  0.59920520  0.02127476  1
  Bi  Bi126  1  0.61720397  0.75666416  0.61679034  1
  Bi  Bi127  1  0.87249799  0.59841659  0.29420057  1
