# generated using pymatgen
data_Ba51Fe51Bi26
_symmetry_space_group_name_H-M   'P 1'
_cell_length_a   16.29751928
_cell_length_b   16.35929316
_cell_length_c   16.42755199
_cell_angle_alpha   89.30368354
_cell_angle_beta   90.01649511
_cell_angle_gamma   90.81935121
_symmetry_Int_Tables_number   1
_chemical_formula_structural   Ba51Fe51Bi26
_chemical_formula_sum   'Ba51 Fe51 Bi26'
_cell_volume   4379.07522078
_cell_formula_units_Z   1
loop_
 _symmetry_equiv_pos_site_id
 _symmetry_equiv_pos_as_xyz
  1  'x, y, z'
loop_
 _atom_site_type_symbol
 _atom_site_label
 _atom_site_symmetry_multiplicity
 _atom_site_fract_x
 _atom_site_fract_y
 _atom_site_fract_z
 _atom_site_occupancy
  Ba  Ba0  1  0.01363160  0.57582449  0.21769512  1
  Ba  Ba1  1  0.15081550  0.03162729  0.44710172  1
  Ba  Ba2  1  0.03257224  0.03147175  0.22999051  1
  Ba  Ba3  1  0.28338918  0.33788226  0.44095056  1
  Ba  Ba4  1  -0.06096631  0.29184927  0.27417947  1
  Ba  Ba5  1  0.71905503  0.69292662  0.05970270  1
  Ba  Ba6  1  0.27043458  0.58385456  0.28291201  1
  Ba  Ba7  1  0.31722503  0.42336523  -0.00063064  1
  Ba  Ba8  1  0.69382599  -0.01881847  -0.03673005  1
  Ba  Ba9  1  0.67424254  0.06761728  0.70858764  1
  Ba  Ba10  1  0.27843335  0.76826655  0.42661704  1
  Ba  Ba11  1  0.23085522  -0.04556756  0.70164104  1
  Ba  Ba12  1  0.70257480  0.18013892  0.23539852  1
  Ba  Ba13  1  0.81315277  0.47292652  -0.04842420  1
  Ba  Ba14  1  0.55734500  0.49213924  -0.04852176  1
  Ba  Ba15  1  0.14657748  0.39377168  0.83177215  1
  Ba  Ba16  1  0.75766890  -0.05417107  0.33314330  1
  Ba  Ba17  1  -0.00047781  0.26962048  0.49727551  1
  Ba  Ba18  1  0.06068519  0.71874157  0.77747593  1
  Ba  Ba19  1  0.50835638  0.74876135  -0.02925710  1
  Ba  Ba20  1  0.33180875  0.46163419  0.69816561  1
  Ba  Ba21  1  0.70329027  0.71734613  0.37880010  1
  Ba  Ba22  1  -0.00301894  0.78949234  0.07622116  1
  Ba  Ba23  1  0.73120313  0.17005865  0.49178808  1
  Ba  Ba24  1  0.16860049  0.37688699  0.19088891  1
  Ba  Ba25  1  0.04078161  0.54717679  -0.04942326  1
  Ba  Ba26  1  0.50852744  0.67656932  0.75907185  1
  Ba  Ba27  1  0.86866027  0.58726749  0.71529781  1
  Ba  Ba28  1  0.48566996  0.22574680  0.04394334  1
  Ba  Ba29  1  -0.02193399  0.03231969  -0.02234604  1
  Ba  Ba30  1  0.57785334  0.45774163  0.66687345  1
  Ba  Ba31  1  0.20993930  -0.03246719  0.06570313  1
  Ba  Ba32  1  0.38885080  0.20946697  0.78569458  1
  Ba  Ba33  1  0.78842669  0.48130687  0.20084091  1
  Ba  Ba34  1  0.80570659  0.46865813  0.49610599  1
  Ba  Ba35  1  0.27503203  0.77508973  -0.05207095  1
  Ba  Ba36  1  0.73901111  0.30978735  0.76695161  1
  Ba  Ba37  1  -0.06745314  -0.00243006  0.58760258  1
  Ba  Ba38  1  -0.04714729  0.82357668  0.40962933  1
  Ba  Ba39  1  0.11839990  0.21684063  0.69265885  1
  Ba  Ba40  1  0.49244596  0.22626304  0.54555474  1
  Ba  Ba41  1  0.43980202  0.00508101  -0.07017156  1
  Ba  Ba42  1  0.66051894  0.68742823  0.60097879  1
  Ba  Ba43  1  0.50503201  0.38429646  0.22183382  1
  Ba  Ba44  1  0.73860681  0.81773643  0.77114504  1
  Ba  Ba45  1  0.51057466  0.63477688  0.23295669  1
  Ba  Ba46  1  0.27873926  0.69956918  0.69178261  1
  Ba  Ba47  1  0.06393302  0.61825911  0.49156082  1
  Ba  Ba48  1  0.80885620  0.21124651  -0.01471496  1
  Ba  Ba49  1  0.46628684  0.00628984  0.21583133  1
  Ba  Ba50  1  0.39312339  -0.02110713  0.47933445  1
  Fe  Fe51  1  0.07731743  0.19967238  0.90042965  1
  Fe  Fe52  1  0.53775644  0.89243575  0.78760085  1
  Fe  Fe53  1  0.48592143  0.81217761  0.15665289  1
  Fe  Fe54  1  0.00961062  0.95817095  0.77561587  1
  Fe  Fe55  1  0.93497552  0.84438670  0.70183456  1
  Fe  Fe56  1  0.85338480  0.68232773  0.53460621  1
  Fe  Fe57  1  1.00497796  0.37933074  0.05856954  1
  Fe  Fe58  1  0.58768828  -0.03204099  0.42853409  1
  Fe  Fe59  1  0.16311216  0.18477297  0.15072740  1
  Fe  Fe60  1  0.43508010  0.57077019  0.41591169  1
  Fe  Fe61  1  0.42008534  0.87223980  0.69874405  1
  Fe  Fe62  1  0.55692076  0.88243241  0.64216072  1
  Fe  Fe63  1  0.49414942  0.43119425  0.40376205  1
  Fe  Fe64  1  0.51657942  0.69190783  0.45426850  1
  Fe  Fe65  1  0.60361540  0.40008319  0.48493879  1
  Fe  Fe66  1  0.25807875  0.58556876  0.90719886  1
  Fe  Fe67  1  0.38372768  0.58020369  0.87896967  1
  Fe  Fe68  1  0.69957238  0.34576109  0.38050859  1
  Fe  Fe69  1  0.12479564  0.29793854  1.01398930  1
  Fe  Fe70  1  0.30361449  0.13082551  0.11094391  1
  Fe  Fe71  1  0.83342736  0.79888143  0.59628592  1
  Fe  Fe72  1  1.02600665  0.41835145  0.63782045  1
  Fe  Fe73  1  0.93694896  0.85720283  0.84481234  1
  Fe  Fe74  1  0.44761752  0.46107219  0.52703155  1
  Fe  Fe75  1  0.36222064  0.71271925  0.12050576  1
  Fe  Fe76  1  0.22810144  0.24476569  0.92003492  1
  Fe  Fe77  1  0.13098028  0.42688725  0.55971096  1
  Fe  Fe78  1  0.60253334  0.86634097  0.08933546  1
  Fe  Fe79  1  0.57100679  0.84492582  0.49869266  1
  Fe  Fe80  1  0.70671199  0.64606447  0.86662919  1
  Fe  Fe81  1  0.16518582  0.14758172  0.01504226  1
  Fe  Fe82  1  0.68434973  0.54169930  0.80048233  1
  Fe  Fe83  1  0.98934053  0.31723420  0.94030203  1
  Fe  Fe84  1  0.24075926  0.10527880  0.22994797  1
  Fe  Fe85  1  0.24228540  0.77704401  0.18016109  1
  Fe  Fe86  1  0.26391210  0.25340059  0.06868915  1
  Fe  Fe87  1  0.95451385  0.74095533  0.60528639  1
  Fe  Fe88  1  0.36556084  0.61206912  0.01044711  1
  Fe  Fe89  1  0.57747129  0.30597530  0.38425607  1
  Fe  Fe90  1  0.31387290  0.15457863  0.97403437  1
  Fe  Fe91  1  0.95022588  0.22635821  0.83060440  1
  Fe  Fe92  1  0.36550615  0.80020251  0.24601646  1
  Fe  Fe93  1  0.45033047  0.60330726  0.55967576  1
  Fe  Fe94  1  0.62451041  0.82035369  0.21398311  1
  Fe  Fe95  1  0.35947981  0.85856895  0.12156469  1
  Fe  Fe96  1  -0.00641782  0.10310805  0.79428923  1
  Fe  Fe97  1  0.65762932  -0.03694379  0.16343689  1
  Fe  Fe98  1  0.56746481  0.54975146  0.48523334  1
  Fe  Fe99  1  0.57223728  -0.00224230  0.55350519  1
  Fe  Fe100  1  0.74843726  0.86110687  0.15097435  1
  Fe  Fe101  1  0.41606572  0.84544173  0.82378440  1
  Bi  Bi102  1  0.64552776  0.50287003  0.34452399  1
  Bi  Bi103  1  0.21050160  0.08816728  -0.14032143  1
  Bi  Bi104  1  -0.15051731  -0.00144514  0.80784601  1
  Bi  Bi105  1  0.46204108  0.03162826  0.68722843  1
  Bi  Bi106  1  0.43686243  0.77272555  0.57228877  1
  Bi  Bi107  1  0.26589496  -0.06098278  0.27461686  1
  Bi  Bi108  1  0.72002774  -0.08495371  0.55120716  1
  Bi  Bi109  1  -0.06185165  0.39428517  0.79043328  1
  Bi  Bi110  1  0.00365637  0.21142457  0.09151136  1
  Bi  Bi111  1  0.28943948  0.55122384  0.50794949  1
  Bi  Bi112  1  0.20548975  0.60872771  0.07920423  1
  Bi  Bi113  1  0.09852934  0.82877886  0.58035919  1
  Bi  Bi114  1  0.50810716  0.82911422  0.34147470  1
  Bi  Bi115  1  0.60180456  0.16684522  0.88123585  1
  Bi  Bi116  1  0.84667183  0.73600159  0.22385248  1
  Bi  Bi117  1  0.87434607  0.69913761  0.90591378  1
  Bi  Bi118  1  0.08456081  0.43846450  0.38399716  1
  Bi  Bi119  1  0.14267448  0.20514375  0.32259347  1
  Bi  Bi120  1  0.88777098  0.18729736  0.67360328  1
  Bi  Bi121  1  0.28919689  0.15309366  0.57721583  1
  Bi  Bi122  1  0.10085297  0.88218357  0.89665461  1
  Bi  Bi123  1  0.66882891  0.34940659  0.08504396  1
  Bi  Bi124  1  0.90488995  0.09907838  0.38943759  1
  Bi  Bi125  1  0.81892337  0.02295559  0.13380536  1
  Bi  Bi126  1  0.12582721  0.54416533  0.68509186  1
  Bi  Bi127  1  0.11117910  0.74832633  0.28532139  1
