# generated using pymatgen
data_Ba51Fe51Bi26
_symmetry_space_group_name_H-M   'P 1'
_cell_length_a   16.38130987
_cell_length_b   16.71481048
_cell_length_c   16.48249497
_cell_angle_alpha   90.24311376
_cell_angle_beta   90.98723515
_cell_angle_gamma   88.84573089
_symmetry_Int_Tables_number   1
_chemical_formula_structural   Ba51Fe51Bi26
_chemical_formula_sum   'Ba51 Fe51 Bi26'
_cell_volume   4511.46017221
_cell_formula_units_Z   1
loop_
 _symmetry_equiv_pos_site_id
 _symmetry_equiv_pos_as_xyz
  1  'x, y, z'
loop_
 _atom_site_type_symbol
 _atom_site_label
 _atom_site_symmetry_multiplicity
 _atom_site_fract_x
 _atom_site_fract_y
 _atom_site_fract_z
 _atom_site_occupancy
  Ba  Ba0  1  0.22786867  0.80807521  0.29690938  1
  Ba  Ba1  1  0.01337576  0.73343283  -0.02527526  1
  Ba  Ba2  1  -0.06560170  0.73226347  0.68672660  1
  Ba  Ba3  1  -0.02188334  0.01149159  0.23736950  1
  Ba  Ba4  1  -0.07559676  0.51537890  0.32195492  1
  Ba  Ba5  1  0.72626453  0.06874621  0.18453011  1
  Ba  Ba6  1  0.70034920  0.48595076  0.09872975  1
  Ba  Ba7  1  0.88360834  -0.07069645  0.85216822  1
  Ba  Ba8  1  0.00909204  0.15580473  0.72726403  1
  Ba  Ba9  1  0.49068706  0.79507253  0.29478470  1
  Ba  Ba10  1  0.45646001  0.54536296  0.15729507  1
  Ba  Ba11  1  0.18339874  0.05847215  0.14811750  1
  Ba  Ba12  1  0.40518232  0.26077728  0.61309768  1
  Ba  Ba13  1  0.43262938  0.03659847  0.25071896  1
  Ba  Ba14  1  0.18259561  0.29499644  0.08622139  1
  Ba  Ba15  1  0.80422779  0.44705086  0.53365694  1
  Ba  Ba16  1  0.29088824  0.59400550  0.52814603  1
  Ba  Ba17  1  0.07723817  0.79398172  0.49438086  1
  Ba  Ba18  1  0.22657765  0.80332070  0.70183133  1
  Ba  Ba19  1  -0.01933831  0.04154434  0.49607048  1
  Ba  Ba20  1  0.49463908  0.76904804  0.64372778  1
  Ba  Ba21  1  0.01035567  0.49880261  0.06948454  1
  Ba  Ba22  1  0.41807522  0.77883561  -0.04239496  1
  Ba  Ba23  1  0.35301762  0.14578376  0.84980250  1
  Ba  Ba24  1  0.41880280  0.32194038  0.02886931  1
  Ba  Ba25  1  0.83987785  0.50612519  0.75699037  1
  Ba  Ba26  1  0.69359959  0.65861788  -0.13033520  1
  Ba  Ba27  1  0.51954790  0.25503186  0.30077490  1
  Ba  Ba28  1  0.70830678  0.86790971  0.66423941  1
  Ba  Ba29  1  -0.09733761  0.26254776  0.16127135  1
  Ba  Ba30  1  0.00647285  0.27430116  0.44548060  1
  Ba  Ba31  1  -0.04551022  0.74712670  0.21675620  1
  Ba  Ba32  1  0.11942119  0.55792098  0.75398710  1
  Ba  Ba33  1  0.71048885  0.65084000  0.27088452  1
  Ba  Ba34  1  0.28254501  0.21139756  0.37674648  1
  Ba  Ba35  1  0.44366153  0.44494481  0.41277989  1
  Ba  Ba36  1  0.19773995  -0.05526764  -0.07137305  1
  Ba  Ba37  1  0.69148700  0.81957433  0.06669228  1
  Ba  Ba38  1  0.56522934  0.38240606  0.81149164  1
  Ba  Ba39  1  0.75989593  0.15888913  0.75931885  1
  Ba  Ba40  1  0.51527563  0.00025379  -0.03068877  1
  Ba  Ba41  1  0.18793854  0.39382729  0.56196735  1
  Ba  Ba42  1  0.57543835  0.49733084  0.59495493  1
  Ba  Ba43  1  0.04018163  0.35379253  -0.13468898  1
  Ba  Ba44  1  0.69714513  0.24610600  -0.00170058  1
  Ba  Ba45  1  0.18867472  0.54408519  0.25663145  1
  Ba  Ba46  1  0.24351382  0.03324483  0.65407535  1
  Ba  Ba47  1  0.70055280  0.05088809  0.47896633  1
  Ba  Ba48  1  0.80848842  0.73910086  0.47263463  1
  Ba  Ba49  1  0.52781123  0.06523989  0.69278058  1
  Ba  Ba50  1  0.37268872  0.55617196  0.86270592  1
  Fe  Fe51  1  0.09908081  0.43542023  0.38578292  1
  Fe  Fe52  1  0.49413644  0.66394386  0.45718577  1
  Fe  Fe53  1  1.01434661  0.98314518  1.02415863  1
  Fe  Fe54  1  0.02105097  0.13249365  0.03903774  1
  Fe  Fe55  1  0.34986016  0.91331514  0.39831486  1
  Fe  Fe56  1  0.97126661  0.55784151  0.60271246  1
  Fe  Fe57  1  0.13021036  0.95943247  0.38500044  1
  Fe  Fe58  1  0.61325420  0.47239707  0.29342162  1
  Fe  Fe59  1  0.38561571  0.93744324  0.54334731  1
  Fe  Fe60  1  0.89494840  0.06589349  0.03078228  1
  Fe  Fe61  1  0.89207282  0.89382072  0.58628909  1
  Fe  Fe62  1  0.55854846  0.87309033  0.81754620  1
  Fe  Fe63  1  0.23554200  0.40054965  0.76415930  1
  Fe  Fe64  1  0.19509294  0.06831350  0.46820139  1
  Fe  Fe65  1  0.68751722  0.27299051  0.48734660  1
  Fe  Fe66  1  0.16385420  0.61776652  0.06673441  1
  Fe  Fe67  1  0.17504086  0.35669132  0.30145616  1
  Fe  Fe68  1  0.87774533  -0.00760332  0.66257710  1
  Fe  Fe69  1  0.79899913  0.31240421  0.38874825  1
  Fe  Fe70  1  0.65550643  -0.02324088  0.81968122  1
  Fe  Fe71  1  0.62640814  0.65395514  0.47624615  1
  Fe  Fe72  1  0.96667328  0.62258313  0.48616667  1
  Fe  Fe73  1  0.84422771  0.49781428  0.95147030  1
  Fe  Fe74  1  0.73353080  0.42985461  0.91629384  1
  Fe  Fe75  1  0.14314884  0.71262044  0.15510195  1
  Fe  Fe76  1  0.85371739  0.37424712  1.00137485  1
  Fe  Fe77  1  0.52109248  0.95164531  0.54458643  1
  Fe  Fe78  1  0.67480411  0.86662088  -0.11695987  1
  Fe  Fe79  1  0.34487616  0.35299412  0.82285061  1
  Fe  Fe80  1  0.54730792  0.59514156  0.35334760  1
  Fe  Fe81  1  0.12470283  0.08587063  0.35428582  1
  Fe  Fe82  1  0.09329148  0.60104116  0.56697862  1
  Fe  Fe83  1  0.22994171  0.43136531  0.90366891  1
  Fe  Fe84  1  0.65600105  0.52523067  0.41319132  1
  Fe  Fe85  1  0.23442813  0.93829631  0.48191731  1
  Fe  Fe86  1  0.00361148  1.07041194  0.92111263  1
  Fe  Fe87  1  0.25101662  0.00714287  0.34160034  1
  Fe  Fe88  1  1.01806674  0.47883363  0.50038755  1
  Fe  Fe89  1  0.18457830  0.55803828  0.94170034  1
  Fe  Fe90  1  0.34622784  0.03880220  0.45683927  1
  Fe  Fe91  1  0.74877356  0.43975112  0.32952817  1
  Fe  Fe92  1  0.29341798  0.64043052  1.02317167  1
  Fe  Fe93  1  0.08974432  0.57482948  0.43602813  1
  Fe  Fe94  1  0.83196733  0.35465657  0.87227387  1
  Fe  Fe95  1  0.22334748  0.76039537  0.05841827  1
  Fe  Fe96  1  0.70264025  0.22608787  0.36147540  1
  Fe  Fe97  1  0.05444599  0.37955542  0.25644610  1
  Fe  Fe98  1  0.48089052  0.95529759  0.42217699  1
  Fe  Fe99  1  0.65141114  0.37295446  0.39410917  1
  Fe  Fe100  1  0.28965551  0.67510177  0.15573020  1
  Fe  Fe101  1  0.23318139  0.29690195  0.87518683  1
  Bi  Bi102  1  0.83023358  0.21614208  0.55173903  1
  Bi  Bi103  1  0.08996122  0.21469582  0.25822175  1
  Bi  Bi104  1  0.21080718  0.24334188  0.71366021  1
  Bi  Bi105  1  0.72928829  0.02767123  -0.03679920  1
  Bi  Bi106  1  0.49084109  0.11353256  0.47204004  1
  Bi  Bi107  1  0.21464173  0.71617147  -0.10814714  1
  Bi  Bi108  1  0.70379189  0.32076468  0.22312866  1
  Bi  Bi109  1  0.60763561  0.82907029  0.46691940  1
  Bi  Bi110  1  0.37261024  0.63231568  0.32908700  1
  Bi  Bi111  1  0.27301962  0.48340881  0.06043686  1
  Bi  Bi112  1  0.10627366  -0.13017728  0.11789137  1
  Bi  Bi113  1  0.04007887  -0.07142979  0.67695124  1
  Bi  Bi114  1  0.31302840  -0.20709632  0.50827663  1
  Bi  Bi115  1  0.54027433  0.15802342  0.11103823  1
  Bi  Bi116  1  0.87971775  0.90208295  0.07999368  1
  Bi  Bi117  1  0.71269871  0.65249808  0.64254530  1
  Bi  Bi118  1  0.14556574  0.15757522  0.92132124  1
  Bi  Bi119  1  0.89798374  0.20771738  0.92759179  1
  Bi  Bi120  1  0.33695565  0.36638279  0.23925876  1
  Bi  Bi121  1  0.99234982  0.39703301  0.64928059  1
  Bi  Bi122  1  0.83246090  0.64105492  0.05950155  1
  Bi  Bi123  1  0.85049698  0.14749123  0.34556882  1
  Bi  Bi124  1  0.62146217  0.27891850  0.63838708  1
  Bi  Bi125  1  0.35627220  0.12126367  0.06093764  1
  Bi  Bi126  1  0.37502701  0.45619395  0.67813587  1
  Bi  Bi127  1  0.38965659  0.92232634  0.79631340  1
