# generated using pymatgen
data_Ba51Fe51Bi26
_symmetry_space_group_name_H-M   'P 1'
_cell_length_a   16.76677123
_cell_length_b   16.19399454
_cell_length_c   16.16411102
_cell_angle_alpha   87.69307536
_cell_angle_beta   89.13354192
_cell_angle_gamma   90.31900364
_symmetry_Int_Tables_number   1
_chemical_formula_structural   Ba51Fe51Bi26
_chemical_formula_sum   'Ba51 Fe51 Bi26'
_cell_volume   4384.75335653
_cell_formula_units_Z   1
loop_
 _symmetry_equiv_pos_site_id
 _symmetry_equiv_pos_as_xyz
  1  'x, y, z'
loop_
 _atom_site_type_symbol
 _atom_site_label
 _atom_site_symmetry_multiplicity
 _atom_site_fract_x
 _atom_site_fract_y
 _atom_site_fract_z
 _atom_site_occupancy
  Ba  Ba0  1  0.79589969  0.14368700  0.66381633  1
  Ba  Ba1  1  0.74872742  0.57203309  0.84287540  1
  Ba  Ba2  1  0.23844313  0.85672792  -0.06489054  1
  Ba  Ba3  1  0.59369257  0.70196692  0.24495595  1
  Ba  Ba4  1  0.40308543  0.28410139  0.43555694  1
  Ba  Ba5  1  -0.02317327  0.74574903  0.32222297  1
  Ba  Ba6  1  0.51548106  -0.03527968  0.22970132  1
  Ba  Ba7  1  0.20865932  -0.15522166  0.59931624  1
  Ba  Ba8  1  0.12591432  0.39313266  0.13273527  1
  Ba  Ba9  1  0.28419036  0.67754405  0.12291455  1
  Ba  Ba10  1  0.45521970  0.49182716  0.07008718  1
  Ba  Ba11  1  0.55385984  0.09457394  0.73120668  1
  Ba  Ba12  1  0.48508685  0.80466154  0.02206092  1
  Ba  Ba13  1  0.27862451  -0.03353137  0.32829306  1
  Ba  Ba14  1  0.74331427  0.75832248  -0.00447592  1
  Ba  Ba15  1  0.50900753  0.28299625  -0.04525759  1
  Ba  Ba16  1  0.13698730  0.27264473  0.50615208  1
  Ba  Ba17  1  0.75231861  0.29221935  0.27834505  1
  Ba  Ba18  1  0.20606626  0.73831505  0.33648292  1
  Ba  Ba19  1  -0.02800323  0.76132884  0.05778043  1
  Ba  Ba20  1  0.67825426  0.36464367  0.69931329  1
  Ba  Ba21  1  0.01159337  -0.01088894  0.25232773  1
  Ba  Ba22  1  0.16467432  0.29041106  0.74820009  1
  Ba  Ba23  1  0.90186141  0.51267449  0.24294047  1
  Ba  Ba24  1  -0.07841871  0.01017145  0.49016727  1
  Ba  Ba25  1  0.72797511  0.49587620  0.47344252  1
  Ba  Ba26  1  -0.07718729  0.52340047  0.69662143  1
  Ba  Ba27  1  0.24768450  0.46904236  -0.06776089  1
  Ba  Ba28  1  0.74657143  0.08400467  0.16295956  1
  Ba  Ba29  1  0.50972765  0.04876836  -0.02036840  1
  Ba  Ba30  1  0.24659744  0.20950322  0.27320002  1
  Ba  Ba31  1  0.13044169  0.54679717  0.53032547  1
  Ba  Ba32  1  0.78246524  0.32688911  -0.00215993  1
  Ba  Ba33  1  0.42201897  0.31648198  0.70306859  1
  Ba  Ba34  1  -0.01573825  0.21329451  0.33530024  1
  Ba  Ba35  1  0.48577296  0.80270812  0.49015752  1
  Ba  Ba36  1  0.28415572  0.49791251  0.34571033  1
  Ba  Ba37  1  0.69607216  0.03321202  0.41760215  1
  Ba  Ba38  1  -0.06114798  0.74339322  0.58992996  1
  Ba  Ba39  1  -0.06829003  0.21675916  0.83123108  1
  Ba  Ba40  1  0.74311681  0.75405205  0.43346255  1
  Ba  Ba41  1  0.53531011  0.70911252  0.74752000  1
  Ba  Ba42  1  0.77334625  0.00588253  -0.06404567  1
  Ba  Ba43  1  0.74113559  0.85163401  0.69708172  1
  Ba  Ba44  1  0.29282115  0.04630763  0.71854562  1
  Ba  Ba45  1  0.53256827  0.46463652  0.30186352  1
  Ba  Ba46  1  0.46671144  0.04818728  0.50935587  1
  Ba  Ba47  1  0.26078169  0.07543872  0.06777867  1
  Ba  Ba48  1  0.01216172  0.00415481  0.02054511  1
  Ba  Ba49  1  0.33317983  0.57294777  0.70874856  1
  Ba  Ba50  1  0.01281112  -0.03913546  0.76356460  1
  Fe  Fe51  1  0.87255313  0.37553146  0.44950945  1
  Fe  Fe52  1  1.06670478  0.77142558  0.87059331  1
  Fe  Fe53  1  0.56702209  0.18304634  0.40813838  1
  Fe  Fe54  1  0.96028463  0.20752223  1.02961886  1
  Fe  Fe55  1  0.54072349  0.90763638  0.68176212  1
  Fe  Fe56  1  0.03415754  0.63734563  0.82616634  1
  Fe  Fe57  1  0.55280651  0.17916922  0.15682399  1
  Fe  Fe58  1  0.55845957  0.26839095  0.28474678  1
  Fe  Fe59  1  0.81774036  0.89833315  0.14778732  1
  Fe  Fe60  1  1.00804920  0.56268167  0.04207344  1
  Fe  Fe61  1  0.05226538  0.51124523  -0.08628697  1
  Fe  Fe62  1  0.11293206  0.03787377  0.53781137  1
  Fe  Fe63  1  0.58565355  0.24400374  0.54003806  1
  Fe  Fe64  1  0.31716271  0.16723514  0.87975952  1
  Fe  Fe65  1  1.07744966  0.50735877  0.33747534  1
  Fe  Fe66  1  -0.02434428  0.41068075  0.54890862  1
  Fe  Fe67  1  0.12218880  0.06553287  0.40905620  1
  Fe  Fe68  1  0.96092067  0.30961598  0.64555230  1
  Fe  Fe69  1  0.40941047  0.51556522  0.48891740  1
  Fe  Fe70  1  0.70608308  0.87970029  0.25723366  1
  Fe  Fe71  1  0.21287089  0.24708520  0.95261401  1
  Fe  Fe72  1  0.93127943  0.14508008  0.14645279  1
  Fe  Fe73  1  0.46856816  0.61486416  0.55239774  1
  Fe  Fe74  1  0.84302057  0.34878882  0.59552882  1
  Fe  Fe75  1  0.65403501  0.48406209  1.02547169  1
  Fe  Fe76  1  0.60716111  0.31531183  0.42239053  1
  Fe  Fe77  1  0.95348833  0.44303238  0.02686878  1
  Fe  Fe78  1  0.32506897  0.87124627  0.15198392  1
  Fe  Fe79  1  0.41681040  0.90696245  0.65829646  1
  Fe  Fe80  1  0.42933229  0.63316311  0.39472293  1
  Fe  Fe81  1  0.05658817  0.18377418  0.14553041  1
  Fe  Fe82  1  0.00379960  0.39664911  0.40760164  1
  Fe  Fe83  1  0.32846182  0.29471107  0.89443803  1
  Fe  Fe84  1  0.44770224  0.28142665  0.19648993  1
  Fe  Fe85  1  0.83011270  0.90268151  0.28511427  1
  Fe  Fe86  1  0.93047972  0.59907154  0.92826354  1
  Fe  Fe87  1  0.54500168  0.59213393  0.44650705  1
  Fe  Fe88  1  0.09899780  0.66292856  0.68818966  1
  Fe  Fe89  1  0.42259463  0.15408988  0.15564824  1
  Fe  Fe90  1  0.69768048  0.48429955  0.16766684  1
  Fe  Fe91  1  0.65443113  0.59293382  0.09918616  1
  Fe  Fe92  1  0.44689570  0.91421855  0.79266871  1
  Fe  Fe93  1  0.59445912  0.13372778  0.28174610  1
  Fe  Fe94  1  0.46224882  0.15240041  0.29302183  1
  Fe  Fe95  1  0.12145742  0.38700944  0.33387999  1
  Fe  Fe96  1  0.92436267  0.45995086  0.89346986  1
  Fe  Fe97  1  0.68642030  0.89426332  0.12557165  1
  Fe  Fe98  1  0.93450798  0.26291229  0.51449762  1
  Fe  Fe99  1  0.09546589  0.18825686  0.01227972  1
  Fe  Fe100  1  0.17257527  0.69984473  0.79558291  1
  Fe  Fe101  1  1.05519128  0.77788555  0.73683596  1
  Bi  Bi102  1  0.80106489  0.73850166  0.21566387  1
  Bi  Bi103  1  0.54083483  0.42227690  0.54018944  1
  Bi  Bi104  1  0.05713195  0.33988983  -0.06338309  1
  Bi  Bi105  1  0.13085820  0.51144510  0.75511333  1
  Bi  Bi106  1  -0.06460186  0.55819378  0.45327305  1
  Bi  Bi107  1  -0.09843872  0.75617002  0.82617168  1
  Bi  Bi108  1  0.33457634  0.79110603  0.75902274  1
  Bi  Bi109  1  0.60656727  0.34609079  0.12899368  1
  Bi  Bi110  1  0.32616275  0.29571576  0.07711681  1
  Bi  Bi111  1  0.01126721  0.14386300  0.63327048  1
  Bi  Bi112  1  0.81832668  0.54430130  0.04673318  1
  Bi  Bi113  1  -0.07138082  0.31592683  0.15339850  1
  Bi  Bi114  1  0.75003358  0.25209964  0.48838801  1
  Bi  Bi115  1  0.68978150  0.19172622  0.85894758  1
  Bi  Bi116  1  0.08390091  0.89213301  0.43744239  1
  Bi  Bi117  1  0.37313543  0.65169322  0.92224606  1
  Bi  Bi118  1  0.40224775  0.77959529  0.27405026  1
  Bi  Bi119  1  0.26613236  0.10016416  0.49496711  1
  Bi  Bi120  1  0.16009930  0.87047558  0.14943360  1
  Bi  Bi121  1  0.28986330  0.40934049  0.56613389  1
  Bi  Bi122  1  0.57955210  0.62674763  0.95246790  1
  Bi  Bi123  1  0.13525038  0.65191789  0.97561723  1
  Bi  Bi124  1  0.31239811  0.66960189  0.51089905  1
  Bi  Bi125  1  0.73648275  0.64295928  0.63439364  1
  Bi  Bi126  1  0.15209272  0.09504180  0.87568057  1
  Bi  Bi127  1  0.60493854  0.90229061  0.85065735  1
