# generated using pymatgen
data_Ba51Fe51Bi26
_symmetry_space_group_name_H-M   'P 1'
_cell_length_a   16.20139660
_cell_length_b   16.09710170
_cell_length_c   16.81733594
_cell_angle_alpha   90.10713772
_cell_angle_beta   89.42367004
_cell_angle_gamma   89.96912933
_symmetry_Int_Tables_number   1
_chemical_formula_structural   Ba51Fe51Bi26
_chemical_formula_sum   'Ba51 Fe51 Bi26'
_cell_volume   4385.65578770
_cell_formula_units_Z   1
loop_
 _symmetry_equiv_pos_site_id
 _symmetry_equiv_pos_as_xyz
  1  'x, y, z'
loop_
 _atom_site_type_symbol
 _atom_site_label
 _atom_site_symmetry_multiplicity
 _atom_site_fract_x
 _atom_site_fract_y
 _atom_site_fract_z
 _atom_site_occupancy
  Ba  Ba0  1  0.69554972  0.60017314  0.88361566  1
  Ba  Ba1  1  0.90490298  0.68751180  0.79069232  1
  Ba  Ba2  1  0.16653757  0.68893997  -0.03189062  1
  Ba  Ba3  1  0.36851672  0.50062085  0.57391068  1
  Ba  Ba4  1  0.82356211  0.22875102  0.24255989  1
  Ba  Ba5  1  0.22035904  0.73615844  0.28127726  1
  Ba  Ba6  1  0.74659795  0.01745648  0.00828042  1
  Ba  Ba7  1  0.74324254  -0.09099662  0.24237553  1
  Ba  Ba8  1  0.77169597  0.37065968  0.51330593  1
  Ba  Ba9  1  0.47912776  0.46258642  0.20897703  1
  Ba  Ba10  1  0.50493207  -0.00806193  0.37900488  1
  Ba  Ba11  1  0.51941287  0.24656718  0.70232760  1
  Ba  Ba12  1  0.17824652  0.29331593  0.49295161  1
  Ba  Ba13  1  0.46159205  -0.05318165  0.70400758  1
  Ba  Ba14  1  0.77626005  0.24251237  0.83216751  1
  Ba  Ba15  1  0.09240356  0.22924913  0.76340399  1
  Ba  Ba16  1  0.49597287  -0.06150859  -0.06347485  1
  Ba  Ba17  1  0.76195872  -0.05542829  0.74609116  1
  Ba  Ba18  1  0.49069171  0.28409790  0.44011253  1
  Ba  Ba19  1  0.01495658  0.89799796  0.73408517  1
  Ba  Ba20  1  0.08254579  -0.07706377  0.48430233  1
  Ba  Ba21  1  0.44456643  0.79002526  0.48736329  1
  Ba  Ba22  1  -0.03737018  0.15252421  0.48112505  1
  Ba  Ba23  1  0.58114370  0.57763476  0.41380935  1
  Ba  Ba24  1  -0.02844551  0.81063203  0.08933015  1
  Ba  Ba25  1  -0.06663102  0.73220319  0.55750047  1
  Ba  Ba26  1  0.42710893  0.70824789  -0.04201029  1
  Ba  Ba27  1  0.73528557  0.45152443  0.06831433  1
  Ba  Ba28  1  0.17476224  0.43665603  0.04726461  1
  Ba  Ba29  1  0.05299824  0.21681803  0.20756682  1
  Ba  Ba30  1  0.19928970  0.66477791  0.50590525  1
  Ba  Ba31  1  0.30413185  0.30266974  -0.12954777  1
  Ba  Ba32  1  0.31553127  0.07105966  0.54228072  1
  Ba  Ba33  1  0.82507020  0.49548648  0.28282169  1
  Ba  Ba34  1  -0.08899001  0.43727629  0.75247390  1
  Ba  Ba35  1  -0.10192806  0.72860469  0.30749263  1
  Ba  Ba36  1  0.47662168  0.72899895  0.19145145  1
  Ba  Ba37  1  0.10325556  -0.04656199  0.24219366  1
  Ba  Ba38  1  0.27818985  0.33051246  0.27157734  1
  Ba  Ba39  1  0.22518500  -0.01402016  0.78761004  1
  Ba  Ba40  1  0.18277643  0.48628405  0.75618317  1
  Ba  Ba41  1  0.28468657  0.11829161  0.13595311  1
  Ba  Ba42  1  0.08684792  0.50987058  0.26999029  1
  Ba  Ba43  1  0.00101343  0.49537549  0.52230532  1
  Ba  Ba44  1  0.29235724  0.72725433  0.76030516  1
  Ba  Ba45  1  0.72204769  0.07739892  0.47314406  1
  Ba  Ba46  1  0.53523160  0.23336372  -0.01900790  1
  Ba  Ba47  1  0.70024915  0.76819102  0.59548171  1
  Ba  Ba48  1  0.54224431  0.61268413  0.70409789  1
  Ba  Ba49  1  -0.03739188  0.52798093  -0.04109314  1
  Ba  Ba50  1  0.50936205  0.01475109  0.15885776  1
  Fe  Fe51  1  0.62070443  0.81764713  0.07299616  1
  Fe  Fe52  1  0.59178295  0.95026734  0.55995470  1
  Fe  Fe53  1  0.27298077  0.87950712  0.42833069  1
  Fe  Fe54  1  0.95269665  1.01499853  0.97564080  1
  Fe  Fe55  1  0.02734516  0.29431479  0.03353106  1
  Fe  Fe56  1  0.06895174  0.06885113  0.91772028  1
  Fe  Fe57  1  0.29966883  0.15683408  0.71550393  1
  Fe  Fe58  1  0.49584262  0.53783798  0.87532322  1
  Fe  Fe59  1  0.27186674  0.98559952  0.35529848  1
  Fe  Fe60  1  0.53258319  1.07330642  0.55917567  1
  Fe  Fe61  1  0.29285405  0.80206306  0.08287084  1
  Fe  Fe62  1  0.05379766  0.61602062  0.67077066  1
  Fe  Fe63  1  0.34313729  0.51172896  0.90439029  1
  Fe  Fe64  1  0.69259940  0.55435703  0.58872680  1
  Fe  Fe65  1  0.32691599  -0.06077424  0.04765518  1
  Fe  Fe66  1  0.37392244  0.46961725  0.38169969  1
  Fe  Fe67  1  0.74987635  0.60796654  0.70618770  1
  Fe  Fe68  1  0.07855158  1.02570837  1.05751695  1
  Fe  Fe69  1  0.61391993  0.79761565  0.35165865  1
  Fe  Fe70  1  0.76745386  0.79614158  0.08706666  1
  Fe  Fe71  1  0.20384515  0.01268116  -0.01881957  1
  Fe  Fe72  1  0.18238585  0.90374755  0.07494047  1
  Fe  Fe73  1  0.66910966  0.67644762  0.07356418  1
  Fe  Fe74  1  0.94364337  0.06949910  0.65514272  1
  Fe  Fe75  1  0.11613098  0.74102787  0.66581973  1
  Fe  Fe76  1  0.61366233  0.20883956  0.29766764  1
  Fe  Fe77  1  0.66446476  0.08878424  0.27645205  1
  Fe  Fe78  1  0.63900827  0.28772560  0.18247086  1
  Fe  Fe79  1  0.29371814  0.54500259  0.27491433  1
  Fe  Fe80  1  0.68811603  0.78392963  0.96781745  1
  Fe  Fe81  1  0.89672217  0.29036085  -0.00097316  1
  Fe  Fe82  1  0.97834996  0.19754386  0.91735176  1
  Fe  Fe83  1  0.01618434  0.33738926  0.91182614  1
  Fe  Fe84  1  0.72565403  0.74606667  0.40383354  1
  Fe  Fe85  1  0.36018274  0.60507865  0.37555453  1
  Fe  Fe86  1  0.65367609  0.87799297  0.44840005  1
  Fe  Fe87  1  0.80663323  0.65305682  0.13655073  1
  Fe  Fe88  1  0.62303079  0.05737136  0.65150165  1
  Fe  Fe89  1  0.81591369  0.68685809  1.00850898  1
  Fe  Fe90  1  0.37597512  0.54946882  0.78570857  1
  Fe  Fe91  1  0.98147005  0.14727726  1.04019571  1
  Fe  Fe92  1  0.64860729  0.15077531  0.16151995  1
  Fe  Fe93  1  0.45496154  0.43320474  0.95377491  1
  Fe  Fe94  1  0.70489845  0.46817680  0.69818737  1
  Fe  Fe95  1  0.24263853  0.50311243  0.39403501  1
  Fe  Fe96  1  0.26607257  0.86970386  0.95141998  1
  Fe  Fe97  1  0.78756257  0.86438305  0.43114589  1
  Fe  Fe98  1  0.09950664  0.67366049  0.77790588  1
  Fe  Fe99  1  -0.07772439  0.59144455  0.12778255  1
  Fe  Fe100  1  0.43839923  0.43065751  0.80308598  1
  Fe  Fe101  1  0.82758460  0.54486609  0.62278751  1
  Bi  Bi102  1  0.74028716  0.23521025  0.04680869  1
  Bi  Bi103  1  0.57514773  0.43176289  0.58377853  1
  Bi  Bi104  1  0.30406323  0.31292980  0.65766549  1
  Bi  Bi105  1  -0.08031678  0.02829270  0.14726166  1
  Bi  Bi106  1  0.68451968  0.68552275  0.24625949  1
  Bi  Bi107  1  0.54848218  0.55577665  0.03488356  1
  Bi  Bi108  1  0.32880707  -0.09179536  0.21477029  1
  Bi  Bi109  1  0.84294704  0.83933467  -0.07529606  1
  Bi  Bi110  1  0.08875388  -0.10946502  -0.06984063  1
  Bi  Bi111  1  0.79919474  0.59639249  0.46497077  1
  Bi  Bi112  1  -0.08161030  0.07705828  0.81806562  1
  Bi  Bi113  1  0.15256231  0.19714476  -0.01594337  1
  Bi  Bi114  1  0.47997209  0.23149283  0.19950353  1
  Bi  Bi115  1  0.11011630  0.08378071  0.62253842  1
  Bi  Bi116  1  0.61949975  0.08253950  0.82109660  1
  Bi  Bi117  1  0.15128875  0.11420326  0.37020287  1
  Bi  Bi118  1  0.36460555  0.34330941  0.06799095  1
  Bi  Bi119  1  0.65370801  0.37606551  0.32617853  1
  Bi  Bi120  1  0.97351128  0.34470982  0.37954013  1
  Bi  Bi121  1  0.25809965  0.85574083  0.59731393  1
  Bi  Bi122  1  0.60861148  0.40370922  0.83817562  1
  Bi  Bi123  1  0.95061211  0.40986005  0.12957463  1
  Bi  Bi124  1  0.29565243  0.61995929  0.12212135  1
  Bi  Bi125  1  0.35431713  0.13925581  0.34599878  1
  Bi  Bi126  1  0.87284986  0.94615011  0.55972491  1
  Bi  Bi127  1  0.39821724  0.10844252  0.83574006  1
