# generated using pymatgen
data_Ba51Fe51Bi26
_symmetry_space_group_name_H-M   'P 1'
_cell_length_a   16.19038717
_cell_length_b   16.57083816
_cell_length_c   16.38442099
_cell_angle_alpha   87.27080508
_cell_angle_beta   88.33993650
_cell_angle_gamma   91.08155320
_symmetry_Int_Tables_number   1
_chemical_formula_structural   Ba51Fe51Bi26
_chemical_formula_sum   'Ba51 Fe51 Bi26'
_cell_volume   4388.01628284
_cell_formula_units_Z   1
loop_
 _symmetry_equiv_pos_site_id
 _symmetry_equiv_pos_as_xyz
  1  'x, y, z'
loop_
 _atom_site_type_symbol
 _atom_site_label
 _atom_site_symmetry_multiplicity
 _atom_site_fract_x
 _atom_site_fract_y
 _atom_site_fract_z
 _atom_site_occupancy
  Ba  Ba0  1  0.43472294  0.11406123  0.06939802  1
  Ba  Ba1  1  0.77344794  0.44408028  0.29472726  1
  Ba  Ba2  1  0.52148034  0.75422968  -0.05511953  1
  Ba  Ba3  1  0.30620955  0.78128844  0.56909126  1
  Ba  Ba4  1  0.10699381  0.27077680  0.10258575  1
  Ba  Ba5  1  0.24458140  -0.00449236  0.20300822  1
  Ba  Ba6  1  0.66800180  0.03463579  -0.07165400  1
  Ba  Ba7  1  0.32238483  0.57100356  0.71051997  1
  Ba  Ba8  1  0.64376212  0.11435456  0.51190392  1
  Ba  Ba9  1  -0.04082338  -0.03430098  0.50898062  1
  Ba  Ba10  1  -0.05685114  0.29357426  0.47582098  1
  Ba  Ba11  1  -0.01024557  -0.10833009  0.27877253  1
  Ba  Ba12  1  0.53167939  0.50549391  0.23140815  1
  Ba  Ba13  1  0.80467665  0.17934530  0.23692321  1
  Ba  Ba14  1  0.66973100  0.53030350  0.02282550  1
  Ba  Ba15  1  0.06690998  0.50203165  0.01650413  1
  Ba  Ba16  1  0.70598998  0.43949600  0.54409177  1
  Ba  Ba17  1  0.10569861  0.45581189  0.52986056  1
  Ba  Ba18  1  0.56875942  0.87415561  0.68493831  1
  Ba  Ba19  1  0.31130290  0.42663244  0.10787806  1
  Ba  Ba20  1  0.29788044  0.49822827  0.34270056  1
  Ba  Ba21  1  0.34473285  0.24616418  0.25511281  1
  Ba  Ba22  1  0.42881404  0.19044179  0.66392523  1
  Ba  Ba23  1  0.41668106  -0.01531015  0.42492467  1
  Ba  Ba24  1  0.01454111  0.72007439  0.06864294  1
  Ba  Ba25  1  -0.06347239  0.12811197  -0.04894450  1
  Ba  Ba26  1  0.66906771  0.27972781  0.79045231  1
  Ba  Ba27  1  0.03510650  0.14211112  0.30464621  1
  Ba  Ba28  1  0.74648235  0.52218109  0.76839207  1
  Ba  Ba29  1  0.05077698  0.51471558  0.77621856  1
  Ba  Ba30  1  0.85370195  0.38012857  -0.00368520  1
  Ba  Ba31  1  0.24754172  0.27258502  0.50011933  1
  Ba  Ba32  1  0.82593891  0.71198884  0.26842675  1
  Ba  Ba33  1  0.70195303  0.71805619  0.56558093  1
  Ba  Ba34  1  0.42017839  -0.00999112  0.86211681  1
  Ba  Ba35  1  0.47955538  0.58423094  0.50953499  1
  Ba  Ba36  1  0.59341094  0.26565655  0.29978671  1
  Ba  Ba37  1  0.62763782  0.01392126  0.16044468  1
  Ba  Ba38  1  0.57401230  0.74903806  0.18734602  1
  Ba  Ba39  1  0.48485657  0.43897408  -0.11001862  1
  Ba  Ba40  1  0.01451482  0.50285318  0.27492801  1
  Ba  Ba41  1  0.26330985  0.34430060  0.73838114  1
  Ba  Ba42  1  0.81170452  0.09855567  0.69744242  1
  Ba  Ba43  1  0.02123719  0.01602984  0.75585903  1
  Ba  Ba44  1  0.28357862  0.66768326  -0.03967199  1
  Ba  Ba45  1  0.78916960  0.76896841  -0.01459089  1
  Ba  Ba46  1  0.32869140  0.74751117  0.24824605  1
  Ba  Ba47  1  0.94362964  0.73777068  0.72051925  1
  Ba  Ba48  1  0.09936716  0.69309171  0.39920903  1
  Ba  Ba49  1  0.17398087  -0.09842378  -0.00136152  1
  Ba  Ba50  1  0.19321298  0.04518137  0.58362432  1
  Fe  Fe51  1  0.11948193  -0.01259552  0.39228981  1
  Fe  Fe52  1  0.81710165  0.98820208  0.27741542  1
  Fe  Fe53  1  0.28297876  0.17405762  0.86730363  1
  Fe  Fe54  1  0.80462421  0.91458766  0.14837804  1
  Fe  Fe55  1  -0.02486394  0.61052842  0.53287373  1
  Fe  Fe56  1  0.56012986  0.57281633  0.69146271  1
  Fe  Fe57  1  0.37779760  0.60594262  0.13933081  1
  Fe  Fe58  1  0.99162334  0.18450940  0.63262380  1
  Fe  Fe59  1  0.42722310  0.39171172  0.51807243  1
  Fe  Fe60  1  0.24612586  0.88114458  0.74323453  1
  Fe  Fe61  1  0.12449795  0.84349228  0.81413261  1
  Fe  Fe62  1  0.59467725  0.21145217  0.98018051  1
  Fe  Fe63  1  0.57400884  0.88381654  0.33129245  1
  Fe  Fe64  1  0.78758332  0.87310295  0.39500514  1
  Fe  Fe65  1  0.69982772  0.31779014  0.12458267  1
  Fe  Fe66  1  0.16590887  0.12332438  -0.04077738  1
  Fe  Fe67  1  0.02488618  0.32622468  0.68775598  1
  Fe  Fe68  1  0.91627308  0.49847628  0.47077678  1
  Fe  Fe69  1  0.84227456  0.60118389  0.43738344  1
  Fe  Fe70  1  0.47708289  0.63825725  0.80123740  1
  Fe  Fe71  1  0.95004532  0.91798211  1.08212432  1
  Fe  Fe72  1  0.47280233  0.59185952  0.05535338  1
  Fe  Fe73  1  0.22706086  0.16005776  0.73674532  1
  Fe  Fe74  1  0.65838445  0.78102703  0.37357226  1
  Fe  Fe75  1  0.11654229  0.21723359  0.67460883  1
  Fe  Fe76  1  -0.09952507  1.02645963  0.15401011  1
  Fe  Fe77  1  0.54302546  0.32697959  0.50419415  1
  Fe  Fe78  1  0.67661268  0.00060636  0.34089634  1
  Fe  Fe79  1  0.88530007  0.27517491  0.66631277  1
  Fe  Fe80  1  0.60713134  0.66318921  0.77382977  1
  Fe  Fe81  1  0.55299307  0.43630613  0.41588793  1
  Fe  Fe82  1  0.71570079  0.87812409  0.27433979  1
  Fe  Fe83  1  0.65463414  0.90706751  0.44650112  1
  Fe  Fe84  1  0.98554474  0.21058046  0.76915479  1
  Fe  Fe85  1  0.49313877  0.69405950  0.67443275  1
  Fe  Fe86  1  0.18986251  0.27677050  -0.07796938  1
  Fe  Fe87  1  0.62649025  0.20353125  0.11202025  1
  Fe  Fe88  1  0.79317478  0.06619217  0.08378574  1
  Fe  Fe89  1  0.85043567  0.59034227  0.57800858  1
  Fe  Fe90  1  0.37850176  0.87536918  0.06297021  1
  Fe  Fe91  1  0.74064130  0.19872559  0.03279196  1
  Fe  Fe92  1  0.50082525  0.91696350  0.04911509  1
  Fe  Fe93  1  0.84248157  0.95912243  1.01629604  1
  Fe  Fe94  1  0.66234981  0.32352805  0.99594753  1
  Fe  Fe95  1  0.12424968  0.18485776  0.82754719  1
  Fe  Fe96  1  0.44252492  0.36386819  0.38856402  1
  Fe  Fe97  1  0.26696280  0.19150057  0.02019445  1
  Fe  Fe98  1  0.32412903  0.29441167  -0.05326485  1
  Fe  Fe99  1  0.78487839  0.00750095  0.41787956  1
  Fe  Fe100  1  0.18448831  0.74348878  0.75224775  1
  Fe  Fe101  1  0.89705974  0.32748015  0.78443739  1
  Bi  Bi102  1  -0.02953176  0.87754733  0.91765292  1
  Bi  Bi103  1  0.44468493  -0.07798273  0.21429201  1
  Bi  Bi104  1  0.03364115  0.32458935  0.88498869  1
  Bi  Bi105  1  0.75720046  -0.06638189  0.57456723  1
  Bi  Bi106  1  0.21384993  0.02057825  0.82722086  1
  Bi  Bi107  1  0.37307813  0.77407551  0.78509539  1
  Bi  Bi108  1  0.44866646  0.20119630  0.44936835  1
  Bi  Bi109  1  0.51936878  0.33513205  0.10027949  1
  Bi  Bi110  1  0.51679618  0.79765011  0.47620150  1
  Bi  Bi111  1  -0.09456680  0.44085208  0.63830801  1
  Bi  Bi112  1  0.50910400  0.41012697  0.66869991  1
  Bi  Bi113  1  0.06504211  0.05257831  0.10603680  1
  Bi  Bi114  1  -0.09480739  0.75589078  0.47240604  1
  Bi  Bi115  1  0.37548679  0.96595284  0.65121965  1
  Bi  Bi116  1  0.12682165  0.64595731  0.61714618  1
  Bi  Bi117  1  0.10655618  0.85722050  0.64073154  1
  Bi  Bi118  1  0.86399249  0.55999042  0.12314170  1
  Bi  Bi119  1  0.88957137  0.59653766  0.90639897  1
  Bi  Bi120  1  0.45751664  0.21671109  0.87658404  1
  Bi  Bi121  1  0.60039979  0.08445613  0.73124883  1
  Bi  Bi122  1  0.66280112  0.60141755  0.38129397  1
  Bi  Bi123  1  0.14337658  0.34232456  0.31917917  1
  Bi  Bi124  1  0.25491318  0.45436164  0.90860264  1
  Bi  Bi125  1  0.23342032  0.10558635  0.37736931  1
  Bi  Bi126  1  0.19465482  0.60229155  0.16817067  1
  Bi  Bi127  1  0.22006605  0.86424600  0.38593364  1
