# generated using pymatgen
data_Ba51Fe51Bi26
_symmetry_space_group_name_H-M   'P 1'
_cell_length_a   16.14281128
_cell_length_b   16.42579630
_cell_length_c   16.60649358
_cell_angle_alpha   93.62705653
_cell_angle_beta   93.21029612
_cell_angle_gamma   92.27985913
_symmetry_Int_Tables_number   1
_chemical_formula_structural   Ba51Fe51Bi26
_chemical_formula_sum   'Ba51 Fe51 Bi26'
_cell_volume   4383.48798571
_cell_formula_units_Z   1
loop_
 _symmetry_equiv_pos_site_id
 _symmetry_equiv_pos_as_xyz
  1  'x, y, z'
loop_
 _atom_site_type_symbol
 _atom_site_label
 _atom_site_symmetry_multiplicity
 _atom_site_fract_x
 _atom_site_fract_y
 _atom_site_fract_z
 _atom_site_occupancy
  Ba  Ba0  1  0.48751823  0.32207434  0.19555866  1
  Ba  Ba1  1  -0.12330918  0.76551289  0.74190344  1
  Ba  Ba2  1  0.10233727  0.82168055  -0.03488083  1
  Ba  Ba3  1  0.17604588  0.01117280  0.47178668  1
  Ba  Ba4  1  0.77093584  0.00844858  0.85084320  1
  Ba  Ba5  1  0.42417488  0.26808785  0.78628152  1
  Ba  Ba6  1  0.43132627  0.09014222  0.48139693  1
  Ba  Ba7  1  0.24954802  0.69475200  0.74596749  1
  Ba  Ba8  1  -0.05002373  0.65573897  0.18844134  1
  Ba  Ba9  1  0.09792781  0.22123326  0.19267406  1
  Ba  Ba10  1  0.55221977  0.50846887  0.36127842  1
  Ba  Ba11  1  0.00185401  0.18970297  0.45665679  1
  Ba  Ba12  1  0.28740614  0.29562948  0.50284481  1
  Ba  Ba13  1  0.49450891  0.49993323  0.62701747  1
  Ba  Ba14  1  0.51267217  0.03162963  0.70053358  1
  Ba  Ba15  1  0.45442621  0.04764673  0.14160174  1
  Ba  Ba16  1  -0.07031541  0.49307905  0.70440517  1
  Ba  Ba17  1  0.29584827  0.71511008  0.26674732  1
  Ba  Ba18  1  0.02111229  0.54300985  0.45173413  1
  Ba  Ba19  1  0.04398799  0.81291763  0.55242999  1
  Ba  Ba20  1  0.26675022  0.40081014  0.24914504  1
  Ba  Ba21  1  0.23035832  0.00070774  0.22249758  1
  Ba  Ba22  1  0.02321588  -0.03309463  0.80026198  1
  Ba  Ba23  1  0.54477589  0.73965111  0.28040306  1
  Ba  Ba24  1  0.12715263  0.58721093  0.05655771  1
  Ba  Ba25  1  0.42014728  0.71201464  0.03342578  1
  Ba  Ba26  1  0.71585243  0.33193148  0.10664386  1
  Ba  Ba27  1  0.34096457  -0.06849368  -0.05693014  1
  Ba  Ba28  1  0.81005833  0.34393976  0.49225952  1
  Ba  Ba29  1  0.29313073  0.54385810  0.46978860  1
  Ba  Ba30  1  -0.04171613  -0.04225746  0.12223985  1
  Ba  Ba31  1  0.79355763  0.51188705  0.31138776  1
  Ba  Ba32  1  0.69877775  -0.01196093  0.07494987  1
  Ba  Ba33  1  0.38601260  0.45469294  0.00114066  1
  Ba  Ba34  1  0.49254531  0.77607198  0.78446002  1
  Ba  Ba35  1  0.72799872  0.75806270  0.10005014  1
  Ba  Ba36  1  0.22463486  0.11436279  0.84894342  1
  Ba  Ba37  1  0.60687056  0.46324939  -0.07069664  1
  Ba  Ba38  1  0.68715694  0.38076376  0.70282146  1
  Ba  Ba39  1  -0.11546314  0.19405588  0.71104870  1
  Ba  Ba40  1  0.53313549  0.85782555  0.51635785  1
  Ba  Ba41  1  0.29689680  0.78506883  0.49848541  1
  Ba  Ba42  1  0.17318956  0.46338841  0.82645933  1
  Ba  Ba43  1  0.86410819  -0.06249964  0.41548608  1
  Ba  Ba44  1  -0.16875267  0.62468131  -0.08829073  1
  Ba  Ba45  1  0.02842903  0.22878474  -0.06762613  1
  Ba  Ba46  1  0.84017766  0.17682798  0.24467711  1
  Ba  Ba47  1  0.60128284  0.05916271  0.33157642  1
  Ba  Ba48  1  0.59183384  0.17997096  -0.03222561  1
  Ba  Ba49  1  0.12186061  0.24211196  0.67430469  1
  Ba  Ba50  1  0.75734065  0.73141721  0.52741156  1
  Fe  Fe51  1  0.31600010  0.18830855  0.14886396  1
  Fe  Fe52  1  0.80905057  0.22153857  0.88585788  1
  Fe  Fe53  1  0.52168720  0.24559668  0.39448664  1
  Fe  Fe54  1  0.27099956  0.82460499  0.10212545  1
  Fe  Fe55  1  0.86919773  0.32295083  0.98706722  1
  Fe  Fe56  1  1.01422413  0.45251882  0.19572670  1
  Fe  Fe57  1  0.62992525  0.59054877  0.77840732  1
  Fe  Fe58  1  0.81895647  0.06216421  0.57382010  1
  Fe  Fe59  1  0.15993879  0.63348805  0.57582154  1
  Fe  Fe60  1  0.57799963  0.60392619  0.09303123  1
  Fe  Fe61  1  0.69436292  0.82118378  -0.11059295  1
  Fe  Fe62  1  0.31351733  0.99046132  0.74071119  1
  Fe  Fe63  1  0.71302284  0.04073323  0.66478380  1
  Fe  Fe64  1  0.31690550  0.29898808  0.08215361  1
  Fe  Fe65  1  0.28713360  0.10167314  1.04133127  1
  Fe  Fe66  1  0.27577622  0.28389220  0.94121187  1
  Fe  Fe67  1  0.83428275  0.94764290  0.64368777  1
  Fe  Fe68  1  0.89213779  0.38797634  0.19143894  1
  Fe  Fe69  1  0.21092875  0.86906186  0.65021388  1
  Fe  Fe70  1  0.59894051  0.35749409  0.47692441  1
  Fe  Fe71  1  0.57714881  0.64378890  0.51720876  1
  Fe  Fe72  1  0.68728583  0.71786186  0.78266096  1
  Fe  Fe73  1  0.00951538  0.38039687  0.07244580  1
  Fe  Fe74  1  0.59380498  0.83545880  -0.03007020  1
  Fe  Fe75  1  0.71426891  0.17211122  0.60065962  1
  Fe  Fe76  1  0.45841571  0.35363969  0.43353777  1
  Fe  Fe77  1  0.62813450  0.18148730  0.19418190  1
  Fe  Fe78  1  0.80230903  0.43626824  0.94332529  1
  Fe  Fe79  1  0.15907045  0.84215549  0.35238679  1
  Fe  Fe80  1  0.31444023  0.96120608  0.60503745  1
  Fe  Fe81  1  0.65711073  1.06380785  0.52578052  1
  Fe  Fe82  1  0.07517948  0.61683763  0.66229089  1
  Fe  Fe83  1  0.38409669  0.86069507  0.16459118  1
  Fe  Fe84  1  0.72111971  0.93944471  0.55937118  1
  Fe  Fe85  1  0.34158122  0.86595221  0.70351317  1
  Fe  Fe86  1  0.60998891  0.67759256  0.65416937  1
  Fe  Fe87  1  0.72598426  0.59659005  0.69496456  1
  Fe  Fe88  1  0.20996746  0.20782140  1.03432931  1
  Fe  Fe89  1  0.59562888  0.49962818  0.15630488  1
  Fe  Fe90  1  0.02888120  -0.14474085  0.32197251  1
  Fe  Fe91  1  0.37390512  0.20180229  1.00505986  1
  Fe  Fe92  1  0.21475534  0.90192763  0.78044946  1
  Fe  Fe93  1  0.89308126  0.45539337  0.07317738  1
  Fe  Fe94  1  -0.07737234  0.28600944  0.11316846  1
  Fe  Fe95  1  0.62995389  0.21414962  0.49040735  1
  Fe  Fe96  1  0.84692166  0.35514035  0.84080883  1
  Fe  Fe97  1  0.72175155  0.31616835  0.89637670  1
  Fe  Fe98  1  0.46528582  0.68799295  0.59062874  1
  Fe  Fe99  1  0.09107055  0.72516996  0.34717454  1
  Fe  Fe100  1  0.17885394  0.00018568  0.67171199  1
  Fe  Fe101  1  0.45714409  0.66755152  0.46054893  1
  Bi  Bi102  1  0.50008156  0.28203621  0.58593798  1
  Bi  Bi103  1  0.74992221  0.54571854  0.09745089  1
  Bi  Bi104  1  0.36276331  0.20293010  0.31560926  1
  Bi  Bi105  1  0.67601084  0.86181602  0.69647464  1
  Bi  Bi106  1  0.11673225  -0.19500504  0.17871441  1
  Bi  Bi107  1  0.17736582  0.38123790  0.04088249  1
  Bi  Bi108  1  0.69461026  0.51895745  0.53707756  1
  Bi  Bi109  1  0.60455144  0.67076304  -0.06792444  1
  Bi  Bi110  1  0.78245295  0.13774078  0.43877716  1
  Bi  Bi111  1  0.67062265  0.18435275  0.77262503  1
  Bi  Bi112  1  -0.02345672  0.45269027  -0.08108737  1
  Bi  Bi113  1  0.13391053  0.56614350  0.27819522  1
  Bi  Bi114  1  -0.00273548  0.03334261  0.60176271  1
  Bi  Bi115  1  0.41826781  0.91352344  0.32748863  1
  Bi  Bi116  1  0.12470254  0.04332451  0.01737196  1
  Bi  Bi117  1  0.91989656  0.72587591  0.38493507  1
  Bi  Bi118  1  1.02737542  0.03232870  0.31102660  1
  Bi  Bi119  1  0.43520640  0.55965144  0.18639079  1
  Bi  Bi120  1  0.55100181  0.97491254  0.90739866  1
  Bi  Bi121  1  0.66637800  0.30184660  0.32112436  1
  Bi  Bi122  1  0.05115841  0.65213961  0.82649387  1
  Bi  Bi123  1  0.96697298  0.35570930  0.33446889  1
  Bi  Bi124  1  0.83760621  0.14948280  0.02969546  1
  Bi  Bi125  1  0.29896324  0.13274430  0.64607448  1
  Bi  Bi126  1  0.14950684  0.46354003  0.61395156  1
  Bi  Bi127  1  0.86337615  0.84777507  0.95160234  1
