# generated using pymatgen
data_Ba51Fe51Bi26
_symmetry_space_group_name_H-M   'P 1'
_cell_length_a   16.66484939
_cell_length_b   16.13661796
_cell_length_c   16.22052707
_cell_angle_alpha   90.41805198
_cell_angle_beta   88.27795022
_cell_angle_gamma   91.34443059
_symmetry_Int_Tables_number   1
_chemical_formula_structural   Ba51Fe51Bi26
_chemical_formula_sum   'Ba51 Fe51 Bi26'
_cell_volume   4358.66678156
_cell_formula_units_Z   1
loop_
 _symmetry_equiv_pos_site_id
 _symmetry_equiv_pos_as_xyz
  1  'x, y, z'
loop_
 _atom_site_type_symbol
 _atom_site_label
 _atom_site_symmetry_multiplicity
 _atom_site_fract_x
 _atom_site_fract_y
 _atom_site_fract_z
 _atom_site_occupancy
  Ba  Ba0  1  0.65627992  0.78063178  -0.16473110  1
  Ba  Ba1  1  -0.10763334  0.78384693  0.79183080  1
  Ba  Ba2  1  0.59960108  0.24962273  0.81901428  1
  Ba  Ba3  1  0.49899239  0.05709224  0.35814287  1
  Ba  Ba4  1  0.72629054  0.02112952  -0.08334697  1
  Ba  Ba5  1  0.20250295  0.59926537  0.40381588  1
  Ba  Ba6  1  -0.04805326  0.52953952  0.28112802  1
  Ba  Ba7  1  0.27604583  0.05108977  0.49708786  1
  Ba  Ba8  1  0.82216046  0.01468184  0.68246705  1
  Ba  Ba9  1  0.50574993  0.67369301  0.01844158  1
  Ba  Ba10  1  0.72075277  -0.01535638  0.41891878  1
  Ba  Ba11  1  0.49853437  0.80022622  0.28894204  1
  Ba  Ba12  1  -0.08340183  0.64282117  0.06321063  1
  Ba  Ba13  1  0.68282660  0.56323653  0.56605645  1
  Ba  Ba14  1  0.52578070  0.52130780  0.75455604  1
  Ba  Ba15  1  0.24925529  0.64172936  -0.04064935  1
  Ba  Ba16  1  0.47076137  0.29275754  0.35771629  1
  Ba  Ba17  1  0.25335287  0.47389372  0.76430248  1
  Ba  Ba18  1  0.41441817  0.29534346  0.04324920  1
  Ba  Ba19  1  -0.03161230  0.54479133  0.69757786  1
  Ba  Ba20  1  0.75651117  0.77209851  0.21795854  1
  Ba  Ba21  1  0.40183121  0.29146360  0.60340590  1
  Ba  Ba22  1  0.43361209  0.85492233  0.80772943  1
  Ba  Ba23  1  0.73782347  0.32032081  -0.00266394  1
  Ba  Ba24  1  0.78701434  0.38546193  0.72626880  1
  Ba  Ba25  1  0.34083676  0.70941055  0.59596091  1
  Ba  Ba26  1  0.15388206  0.80265629  0.71984999  1
  Ba  Ba27  1  0.33005647  0.09772552  0.73865627  1
  Ba  Ba28  1  0.00293397  0.26398901  0.71728896  1
  Ba  Ba29  1  0.20929887  0.38527826  0.51375974  1
  Ba  Ba30  1  0.01391952  0.22864166  0.45881919  1
  Ba  Ba31  1  0.02687621  0.03145692  0.82546473  1
  Ba  Ba32  1  0.28291589  -0.04921468  0.22088743  1
  Ba  Ba33  1  0.22327976  0.21303643  0.23768281  1
  Ba  Ba34  1  -0.11311418  0.00392802  0.20450418  1
  Ba  Ba35  1  0.06082743  -0.02832184  0.43399036  1
  Ba  Ba36  1  0.46937837  0.49318855  0.21326227  1
  Ba  Ba37  1  0.47810091  -0.10886661  0.52839662  1
  Ba  Ba38  1  0.03938368  0.46931539  -0.03484085  1
  Ba  Ba39  1  0.67861364  0.13730477  0.16594347  1
  Ba  Ba40  1  0.77030016  0.20779450  0.56293765  1
  Ba  Ba41  1  0.00342968  0.70606983  0.49811216  1
  Ba  Ba42  1  0.76697166  0.79042802  0.57568440  1
  Ba  Ba43  1  -0.03007921  0.20071335  0.01789625  1
  Ba  Ba44  1  0.04274070  0.80211508  0.24374240  1
  Ba  Ba45  1  0.30712934  0.67382732  0.20699608  1
  Ba  Ba46  1  0.68692184  0.41951255  0.39615577  1
  Ba  Ba47  1  0.31473670  0.04497302  -0.01593445  1
  Ba  Ba48  1  0.12810187  -0.14081625  0.02376581  1
  Ba  Ba49  1  0.71222659  0.52669197  0.12330176  1
  Ba  Ba50  1  0.53050751  -0.04908905  0.06464587  1
  Fe  Fe51  1  0.47371393  0.09954007  0.55838797  1
  Fe  Fe52  1  0.89627647  0.93367102  0.97503581  1
  Fe  Fe53  1  0.13665458  0.29811387  0.88221229  1
  Fe  Fe54  1  0.14843786  0.48227078  0.24257162  1
  Fe  Fe55  1  0.33845033  0.75429038  0.39839303  1
  Fe  Fe56  1  0.60442913  0.96260301  0.77295485  1
  Fe  Fe57  1  0.13105762  0.01181816  0.63943501  1
  Fe  Fe58  1  0.61361426  0.05019895  0.56833509  1
  Fe  Fe59  1  0.88284574  0.36270630  0.39162846  1
  Fe  Fe60  1  0.21815439  0.80456712  0.35440104  1
  Fe  Fe61  1  0.10150273  0.06490000  0.11678333  1
  Fe  Fe62  1  0.38403891  0.51928717  0.54087611  1
  Fe  Fe63  1  0.64266707  0.07846424  0.70913083  1
  Fe  Fe64  1  0.80919901  0.79873074  -0.02122340  1
  Fe  Fe65  1  0.16668119  0.17001311  0.85277812  1
  Fe  Fe66  1  0.70774939  0.70105679  0.02499354  1
  Fe  Fe67  1  0.33661293  0.88942282  0.39703324  1
  Fe  Fe68  1  0.39688186  0.48370851  0.41269335  1
  Fe  Fe69  1  0.51072819  1.02917424  0.68516894  1
  Fe  Fe70  1  0.52484086  0.54480315  0.42390377  1
  Fe  Fe71  1  0.87120766  0.23405643  0.19587630  1
  Fe  Fe72  1  0.09552936  0.01124922  0.23264464  1
  Fe  Fe73  1  0.57645214  0.18284011  0.50677514  1
  Fe  Fe74  1  0.62742073  0.92833429  0.64768352  1
  Fe  Fe75  1  -0.09323674  0.84413829  0.08942518  1
  Fe  Fe76  1  0.88186657  0.37629065  0.53889443  1
  Fe  Fe77  1  0.80187000  0.52056043  0.91504416  1
  Fe  Fe78  1  0.39596453  0.47519990  0.93014480  1
  Fe  Fe79  1  0.27192893  0.25390445  0.87963665  1
  Fe  Fe80  1  0.13978825  0.14365653  0.60800083  1
  Fe  Fe81  1  0.23794224  0.47416837  0.13635016  1
  Fe  Fe82  1  0.78407033  0.90534608  0.06691563  1
  Fe  Fe83  1  0.66612975  0.59061517  0.93092823  1
  Fe  Fe84  1  1.02048821  0.07799732  0.61394863  1
  Fe  Fe85  1  0.23795799  0.84101389  0.47949386  1
  Fe  Fe86  1  0.95931998  0.32302257  0.26999237  1
  Fe  Fe87  1  0.67566424  0.74508101  0.41154925  1
  Fe  Fe88  1  0.79891489  0.33384638  0.25645374  1
  Fe  Fe89  1  0.78766499  0.65783184  0.92168668  1
  Fe  Fe90  1  0.84910415  0.22210378  0.33613034  1
  Fe  Fe91  1  0.85749121  0.48977179  0.48333916  1
  Fe  Fe92  1  0.55879408  0.69883768  0.46316442  1
  Fe  Fe93  1  0.41986040  0.63412791  0.42610229  1
  Fe  Fe94  1  0.68588942  0.47134685  0.87039563  1
  Fe  Fe95  1  0.67839485  0.83110971  0.03155340  1
  Fe  Fe96  1  0.35663655  0.50513746  0.05388236  1
  Fe  Fe97  1  0.49939467  0.44819365  0.51935551  1
  Fe  Fe98  1  0.08351287  0.38619414  0.32219315  1
  Fe  Fe99  1  0.49575647  0.59940649  0.55426582  1
  Fe  Fe100  1  0.55694166  0.17584281  0.64328533  1
  Fe  Fe101  1  -0.04465937  0.81565014  0.96828219  1
  Bi  Bi102  1  0.55391235  0.46191043  -0.01931574  1
  Bi  Bi103  1  0.01535228  0.15844932  0.25065700  1
  Bi  Bi104  1  0.68071658  0.19655108  0.36971707  1
  Bi  Bi105  1  0.28495594  0.41560131  0.30471485  1
  Bi  Bi106  1  0.60616549  0.34426812  0.60229182  1
  Bi  Bi107  1  0.17790581  0.19005817  0.02154644  1
  Bi  Bi108  1  0.76194864  0.59983026  0.76228704  1
  Bi  Bi109  1  0.50450030  0.05534822  0.86821028  1
  Bi  Bi110  1  0.81162401  0.63837266  0.40906959  1
  Bi  Bi111  1  0.20708594  0.26672580  0.71108547  1
  Bi  Bi112  1  0.02014268  0.46191163  0.47745798  1
  Bi  Bi113  1  0.24204923  0.41283515  -0.02867961  1
  Bi  Bi114  1  0.61606476  0.62489794  0.30480645  1
  Bi  Bi115  1  0.08685242  0.35707313  0.15060010  1
  Bi  Bi116  1  0.82891622  0.19106445  0.82311759  1
  Bi  Bi117  1  0.89015427  0.39571075  0.11880903  1
  Bi  Bi118  1  0.55858011  0.73555001  0.64398683  1
  Bi  Bi119  1  0.42875028  0.11754692  0.17053536  1
  Bi  Bi120  1  0.05200365  0.69050330  0.88659040  1
  Bi  Bi121  1  0.99449311  0.89976582  0.63271304  1
  Bi  Bi122  1  0.62735072  0.34033516  0.19970547  1
  Bi  Bi123  1  0.15657660  0.60020990  0.62054380  1
  Bi  Bi124  1  0.40971530  0.33627586  0.82052892  1
  Bi  Bi125  1  0.11684183  0.61778782  0.13981010  1
  Bi  Bi126  1  0.87696425  0.84998786  0.38226664  1
  Bi  Bi127  1  0.35220682  0.82785386  1.04069821  1
