# generated using pymatgen
data_Ba51Fe51Bi26
_symmetry_space_group_name_H-M   'P 1'
_cell_length_a   15.83586779
_cell_length_b   17.02775855
_cell_length_c   16.13256547
_cell_angle_alpha   89.23694759
_cell_angle_beta   88.72094095
_cell_angle_gamma   94.24424928
_symmetry_Int_Tables_number   1
_chemical_formula_structural   Ba51Fe51Bi26
_chemical_formula_sum   'Ba51 Fe51 Bi26'
_cell_volume   4336.63597139
_cell_formula_units_Z   1
loop_
 _symmetry_equiv_pos_site_id
 _symmetry_equiv_pos_as_xyz
  1  'x, y, z'
loop_
 _atom_site_type_symbol
 _atom_site_label
 _atom_site_symmetry_multiplicity
 _atom_site_fract_x
 _atom_site_fract_y
 _atom_site_fract_z
 _atom_site_occupancy
  Ba  Ba0  1  0.59087419  0.87137380  0.00812960  1
  Ba  Ba1  1  0.73760834  0.24594739  -0.05672136  1
  Ba  Ba2  1  0.49486162  -0.00759378  0.50026723  1
  Ba  Ba3  1  0.86226676  0.35941504  0.49045020  1
  Ba  Ba4  1  0.11948982  -0.04824664  0.14876479  1
  Ba  Ba5  1  0.79784850  0.80106377  0.66203313  1
  Ba  Ba6  1  -0.11933274  -0.11195468  0.02876355  1
  Ba  Ba7  1  0.71563105  0.63492395  0.01481386  1
  Ba  Ba8  1  0.74701462  0.02793548  0.80611942  1
  Ba  Ba9  1  0.76337721  0.13240711  0.51337598  1
  Ba  Ba10  1  0.50763028  0.18689839  0.20262317  1
  Ba  Ba11  1  0.55251578  0.43696649  0.04423298  1
  Ba  Ba12  1  0.43979380  -0.04388135  0.25744701  1
  Ba  Ba13  1  0.19973448  0.47486613  0.34277948  1
  Ba  Ba14  1  -0.01524574  0.70061306  -0.07390145  1
  Ba  Ba15  1  0.30942768  -0.10218590  -0.00586919  1
  Ba  Ba16  1  -0.00851435  -0.01236279  0.75311931  1
  Ba  Ba17  1  0.43107297  0.20401473  -0.04499722  1
  Ba  Ba18  1  0.58411337  0.47250198  0.48622278  1
  Ba  Ba19  1  0.77601001  0.59747766  0.77833065  1
  Ba  Ba20  1  -0.07132793  0.36911860  0.20971347  1
  Ba  Ba21  1  -0.03653796  0.55787384  0.42502859  1
  Ba  Ba22  1  0.02966430  0.04079584  0.37727310  1
  Ba  Ba23  1  -0.01796634  0.34879949  -0.02522526  1
  Ba  Ba24  1  0.35937545  0.55958041  0.79494026  1
  Ba  Ba25  1  0.50357057  0.63746543  0.27429809  1
  Ba  Ba26  1  0.08140294  0.51454698  -0.21059576  1
  Ba  Ba27  1  0.27784523  0.11503780  0.32143899  1
  Ba  Ba28  1  0.19597772  -0.06357587  0.52558086  1
  Ba  Ba29  1  -0.08199390  0.14023003  0.12367182  1
  Ba  Ba30  1  0.76671766  0.89290182  0.44009392  1
  Ba  Ba31  1  0.72682811  0.48843384  0.26766712  1
  Ba  Ba32  1  0.19202382  0.64767162  0.57158757  1
  Ba  Ba33  1  0.86839948  0.36140795  0.73909211  1
  Ba  Ba34  1  0.28797691  0.42052775  0.59367504  1
  Ba  Ba35  1  0.15712989  0.11611488  -0.05795387  1
  Ba  Ba36  1  0.10600063  0.55494460  0.13380877  1
  Ba  Ba37  1  0.12074462  0.26074551  0.73258091  1
  Ba  Ba38  1  0.52388599  0.83630444  0.77147105  1
  Ba  Ba39  1  0.00655068  0.77890743  0.50056904  1
  Ba  Ba40  1  0.09158905  0.26962766  0.45209934  1
  Ba  Ba41  1  0.57492436  0.42433975  0.76568944  1
  Ba  Ba42  1  0.24836918  0.40574605  0.01332579  1
  Ba  Ba43  1  -0.04652025  0.73706400  0.23991785  1
  Ba  Ba44  1  0.40496385  0.37208637  0.30992826  1
  Ba  Ba45  1  0.68908382  0.83621305  0.22988822  1
  Ba  Ba46  1  0.31684220  0.15981782  0.55863656  1
  Ba  Ba47  1  0.41142584  0.65514162  0.00950487  1
  Ba  Ba48  1  0.51283892  0.67606975  0.59412824  1
  Ba  Ba49  1  0.33247404  0.76041476  0.38920635  1
  Ba  Ba50  1  0.53423764  0.13873855  0.71111264  1
  Fe  Fe51  1  0.24879663  0.24210117  0.13605308  1
  Fe  Fe52  1  0.77045665  0.56629280  0.46370860  1
  Fe  Fe53  1  0.12982211  0.84052671  0.34193366  1
  Fe  Fe54  1  0.23935685  0.90478379  0.29797336  1
  Fe  Fe55  1  0.77595989  0.50254818  0.59706824  1
  Fe  Fe56  1  0.28102262  0.28909024  0.86601312  1
  Fe  Fe57  1  0.71479745  0.63218617  0.56678682  1
  Fe  Fe58  1  0.30868505  0.73431437  0.85143535  1
  Fe  Fe59  1  0.06300251  0.22245519  0.24809039  1
  Fe  Fe60  1  0.19664864  0.78897508  0.21914411  1
  Fe  Fe61  1  0.31274726  0.96372015  0.68342412  1
  Fe  Fe62  1  0.50397958  0.25265837  0.41839533  1
  Fe  Fe63  1  0.32259607  0.86174910  0.78769343  1
  Fe  Fe64  1  0.68503233  0.14061823  0.12135539  1
  Fe  Fe65  1  0.32368828  0.00605541  0.81387961  1
  Fe  Fe66  1  0.16941578  0.69718916  0.77128496  1
  Fe  Fe67  1  0.19840858  0.26912424  0.26322968  1
  Fe  Fe68  1  0.62519599  0.18502078  0.37408885  1
  Fe  Fe69  1  0.61316169  0.31470322  0.31587639  1
  Fe  Fe70  1  0.39419140  0.37665229  0.86668560  1
  Fe  Fe71  1  0.81105898  1.06232613  0.30757988  1
  Fe  Fe72  1  0.14793362  0.14507897  0.17847536  1
  Fe  Fe73  1  0.10281415  0.24434483  0.10022745  1
  Fe  Fe74  1  0.38316802  0.31506571  0.74545053  1
  Fe  Fe75  1  0.94557181  0.17441444  0.65288317  1
  Fe  Fe76  1  0.18949326  0.79901195  0.85990836  1
  Fe  Fe77  1  0.57609222  0.20875283  0.52011799  1
  Fe  Fe78  1  0.21168690  0.82953416  0.69428218  1
  Fe  Fe79  1  0.78309279  0.43156302  0.04703891  1
  Fe  Fe80  1  0.91448303  0.52418485  0.62440229  1
  Fe  Fe81  1  0.48110199  1.03517597  1.07024923  1
  Fe  Fe82  1  0.66553336  0.67814155  0.43735110  1
  Fe  Fe83  1  0.81629815  0.71023328  0.46553084  1
  Fe  Fe84  1  0.77028847  0.66095017  0.35084879  1
  Fe  Fe85  1  0.59361057  0.09734852  1.01347844  1
  Fe  Fe86  1  0.60746732  1.02005614  0.14334998  1
  Fe  Fe87  1  0.13359633  0.34355848  0.17869621  1
  Fe  Fe88  1  0.07944318  0.81066686  0.76301029  1
  Fe  Fe89  1  0.21426643  0.72274379  0.09829811  1
  Fe  Fe90  1  0.30653652  0.73050477  0.72002611  1
  Fe  Fe91  1  0.20567102  0.04105642  0.71325124  1
  Fe  Fe92  1  0.85931232  0.63267969  0.57865602  1
  Fe  Fe93  1  0.26438968  0.65822027  0.20283447  1
  Fe  Fe94  1  0.75103757  0.44206883  0.91739409  1
  Fe  Fe95  1  0.18558074  -0.06981619  0.79248900  1
  Fe  Fe96  1  0.74876806  0.28595935  0.32935319  1
  Fe  Fe97  1  0.74984261  0.02884056  0.18945738  1
  Fe  Fe98  1  0.73269311  0.16610948  0.26034690  1
  Fe  Fe99  1  0.26533264  0.39102517  0.79103090  1
  Fe  Fe100  1  0.87224720  0.49952368  0.94496366  1
  Fe  Fe101  1  0.65806199  0.30859102  0.44820463  1
  Bi  Bi102  1  0.70954516  0.30702762  0.15358046  1
  Bi  Bi103  1  0.90378890  0.20324004  0.34218245  1
  Bi  Bi104  1  0.49299187  0.01423897  0.89230086  1
  Bi  Bi105  1  -0.01322289  0.67590988  0.69480832  1
  Bi  Bi106  1  0.46699924  0.31336719  0.58718116  1
  Bi  Bi107  1  0.63730151  0.02966810  0.32924529  1
  Bi  Bi108  1  0.08017230  -0.09842711  0.93212825  1
  Bi  Bi109  1  0.31285913  0.16127383  0.77245629  1
  Bi  Bi110  1  0.36885734  0.83228736  0.59875465  1
  Bi  Bi111  1  0.13457157  0.67043080  0.33667641  1
  Bi  Bi112  1  0.31182978  0.08560011  0.10901577  1
  Bi  Bi113  1  0.19466390  0.63459739  -0.05819505  1
  Bi  Bi114  1  0.75019817  0.03581435  0.01631749  1
  Bi  Bi115  1  0.55704146  0.79983763  0.40739616  1
  Bi  Bi116  1  0.08814697  0.10418366  0.59103754  1
  Bi  Bi117  1  0.56607446  0.62586453  0.84871889  1
  Bi  Bi118  1  0.92821255  0.17826844  0.82661404  1
  Bi  Bi119  1  0.34568517  0.51857136  0.16908870  1
  Bi  Bi120  1  0.66155544  0.96218685  0.62592437  1
  Bi  Bi121  1  0.88900518  0.55765879  0.11058136  1
  Bi  Bi122  1  1.06059192  0.43987332  0.58244543  1
  Bi  Bi123  1  0.75998204  0.80143909  0.87357894  1
  Bi  Bi124  1  0.37402447  0.78679544  0.16659385  1
  Bi  Bi125  1  0.89560814  0.93934462  0.23966496  1
  Bi  Bi126  1  0.38104610  0.55711989  0.45051993  1
  Bi  Bi127  1  0.68635638  0.31187712  0.61993904  1
