# generated using pymatgen
data_Ba51Fe51Bi26
_symmetry_space_group_name_H-M   'P 1'
_cell_length_a   16.10752398
_cell_length_b   16.38705120
_cell_length_c   16.64699232
_cell_angle_alpha   91.91549324
_cell_angle_beta   91.05639471
_cell_angle_gamma   87.93673639
_symmetry_Int_Tables_number   1
_chemical_formula_structural   Ba51Fe51Bi26
_chemical_formula_sum   'Ba51 Fe51 Bi26'
_cell_volume   4388.09807091
_cell_formula_units_Z   1
loop_
 _symmetry_equiv_pos_site_id
 _symmetry_equiv_pos_as_xyz
  1  'x, y, z'
loop_
 _atom_site_type_symbol
 _atom_site_label
 _atom_site_symmetry_multiplicity
 _atom_site_fract_x
 _atom_site_fract_y
 _atom_site_fract_z
 _atom_site_occupancy
  Ba  Ba0  1  0.20787958  -0.02835169  -0.00589233  1
  Ba  Ba1  1  0.04686254  0.15970412  0.76775955  1
  Ba  Ba2  1  -0.09724279  0.47745333  0.75706528  1
  Ba  Ba3  1  0.28606889  0.31268899  0.23206550  1
  Ba  Ba4  1  0.07490238  -0.00939729  0.43574956  1
  Ba  Ba5  1  0.62263868  0.62574460  0.28330762  1
  Ba  Ba6  1  0.55260387  0.22265411  0.11463464  1
  Ba  Ba7  1  0.75956554  0.91519312  0.21145566  1
  Ba  Ba8  1  0.56104619  0.17238027  0.48928836  1
  Ba  Ba9  1  0.33576964  0.78620553  0.85151123  1
  Ba  Ba10  1  0.03121675  0.44575064  0.30734177  1
  Ba  Ba11  1  0.43616382  0.48203428  0.10375919  1
  Ba  Ba12  1  -0.02631881  0.21344637  0.49559448  1
  Ba  Ba13  1  0.41366085  0.62573454  0.66358209  1
  Ba  Ba14  1  0.77781880  0.61639956  0.50956080  1
  Ba  Ba15  1  0.35949019  0.01738650  0.50698015  1
  Ba  Ba16  1  0.77582870  -0.06762184  0.69833596  1
  Ba  Ba17  1  0.23611219  0.75186888  0.10610042  1
  Ba  Ba18  1  0.50179274  0.25759989  -0.13857924  1
  Ba  Ba19  1  0.04757160  0.60735424  0.49174731  1
  Ba  Ba20  1  0.27633501  0.04757937  0.20564396  1
  Ba  Ba21  1  0.52793638  -0.06858243  0.30278047  1
  Ba  Ba22  1  0.80564235  0.24886818  0.70368584  1
  Ba  Ba23  1  0.48585887  0.36975698  0.63552121  1
  Ba  Ba24  1  0.30848098  0.52480829  -0.10716036  1
  Ba  Ba25  1  0.32066811  0.03077112  0.79457327  1
  Ba  Ba26  1  0.53706045  -0.03412355  0.69954628  1
  Ba  Ba27  1  0.02655233  0.32706689  0.02713391  1
  Ba  Ba28  1  0.65802675  0.54825674  0.69442508  1
  Ba  Ba29  1  0.24936241  0.59539586  0.28619732  1
  Ba  Ba30  1  0.06640803  -0.11197136  0.74122820  1
  Ba  Ba31  1  0.24231725  0.24380597  0.63149080  1
  Ba  Ba32  1  0.78515784  0.34411053  0.00074062  1
  Ba  Ba33  1  0.04067035  -0.06513058  0.19520847  1
  Ba  Ba34  1  0.79600002  0.30363467  0.29279903  1
  Ba  Ba35  1  0.19725417  0.79266714  0.53900908  1
  Ba  Ba36  1  -0.12457917  0.71987244  -0.11306734  1
  Ba  Ba37  1  0.54010702  0.36609164  0.34549814  1
  Ba  Ba38  1  0.49800363  0.73589364  0.04354790  1
  Ba  Ba39  1  0.77480043  0.03139367  0.45414600  1
  Ba  Ba40  1  0.81762447  0.11569299  0.12024961  1
  Ba  Ba41  1  0.69021324  0.06455828  -0.09746938  1
  Ba  Ba42  1  -0.05643111  -0.04256015  -0.05196090  1
  Ba  Ba43  1  -0.05662592  0.73581846  0.08187245  1
  Ba  Ba44  1  0.06306912  0.20515283  0.24266359  1
  Ba  Ba45  1  0.07529941  0.55690263  -0.04200245  1
  Ba  Ba46  1  0.70850671  0.56696488  -0.03387420  1
  Ba  Ba47  1  0.24517347  0.26718657  -0.04793854  1
  Ba  Ba48  1  0.09487171  0.41662139  0.60031512  1
  Ba  Ba49  1  0.41331011  0.70323550  0.44339062  1
  Ba  Ba50  1  -0.08099014  0.82532480  0.51897521  1
  Fe  Fe51  1  0.90974959  0.67750769  0.35995908  1
  Fe  Fe52  1  0.73652953  0.86837343  0.88002695  1
  Fe  Fe53  1  0.94123998  0.61440660  0.22373645  1
  Fe  Fe54  1  0.03503084  0.66993610  0.79229762  1
  Fe  Fe55  1  0.21893831  0.55299755  0.09963848  1
  Fe  Fe56  1  0.14800491  0.14684159  0.07842726  1
  Fe  Fe57  1  0.23332909  0.42737809  0.07167550  1
  Fe  Fe58  1  0.65270038  0.89988266  0.01332511  1
  Fe  Fe59  1  0.07319371  0.73488832  0.22546310  1
  Fe  Fe60  1  0.12050914  0.45987744  0.13888971  1
  Fe  Fe61  1  0.05111703  0.64582266  0.31217960  1
  Fe  Fe62  1  0.41266076  0.94207810  1.02108744  1
  Fe  Fe63  1  0.70389543  0.71381725  0.80219090  1
  Fe  Fe64  1  0.68115695  0.82144090  0.54809980  1
  Fe  Fe65  1  0.59862764  0.78589945  0.44297434  1
  Fe  Fe66  1  0.32955603  0.42865097  0.38206424  1
  Fe  Fe67  1  0.58129865  0.41619667  0.97983790  1
  Fe  Fe68  1  0.08464696  0.59988358  0.16501725  1
  Fe  Fe69  1  0.52253364  0.81619298  0.56168973  1
  Fe  Fe70  1  0.54621493  -0.09012540  0.11205869  1
  Fe  Fe71  1  0.66447142  0.76945938  0.93527909  1
  Fe  Fe72  1  0.93538483  0.77367083  0.27153541  1
  Fe  Fe73  1  0.02651348  0.59214583  0.67925200  1
  Fe  Fe74  1  0.62719787  0.82302720  0.79476133  1
  Fe  Fe75  1  0.53184779  0.48901104  0.88578466  1
  Fe  Fe76  1  0.70376834  0.74961672  0.66573802  1
  Fe  Fe77  1  0.84720588  0.45884083  0.16584784  1
  Fe  Fe78  1  0.81699292  0.58434504  0.14139131  1
  Fe  Fe79  1  0.18244419  0.61478653  0.65566253  1
  Fe  Fe80  1  0.20891022  0.36221330  0.42976539  1
  Fe  Fe81  1  0.64847022  0.39009446  0.52926118  1
  Fe  Fe82  1  0.21530700  0.49591060  0.43439009  1
  Fe  Fe83  1  0.78188273  0.84952682  0.00914541  1
  Fe  Fe84  1  0.54197647  0.01618483  1.03121439  1
  Fe  Fe85  1  0.73459647  0.43247323  0.44036671  1
  Fe  Fe86  1  0.08458249  0.13288054  0.95919063  1
  Fe  Fe87  1  0.37979710  0.50877478  0.47373790  1
  Fe  Fe88  1  0.29759041  0.41325419  0.53235146  1
  Fe  Fe89  1  0.56314221  0.75598484  0.68572454  1
  Fe  Fe90  1  0.03876305  0.77372936  0.36404419  1
  Fe  Fe91  1  0.16752599  0.69026210  0.77700459  1
  Fe  Fe92  1  0.12931311  0.54484402  0.76410970  1
  Fe  Fe93  1  0.40654829  0.90162766  0.14138300  1
  Fe  Fe94  1  1.01935303  0.10729842  0.06840953  1
  Fe  Fe95  1  0.59914004  0.69507737  0.55712262  1
  Fe  Fe96  1  0.45771369  0.03406938  0.13981649  1
  Fe  Fe97  1  0.96395737  0.51282055  1.11716212  1
  Fe  Fe98  1  0.81021029  0.69218863  0.24534280  1
  Fe  Fe99  1  0.77543746  0.40748302  0.57917490  1
  Fe  Fe100  1  0.26346929  0.55952495  0.54500396  1
  Fe  Fe101  1  0.06944065  0.71396499  0.66059307  1
  Bi  Bi102  1  0.53925326  0.66384679  0.84394179  1
  Bi  Bi103  1  0.52231330  -0.09276019  -0.09937298  1
  Bi  Bi104  1  0.55631244  0.53553839  0.49209956  1
  Bi  Bi105  1  0.75663616  0.78871106  0.37807601  1
  Bi  Bi106  1  0.10464334  0.77669524  0.92501142  1
  Bi  Bi107  1  0.81665253  0.52977889  0.31465378  1
  Bi  Bi108  1  0.28260543  0.46537789  0.69125568  1
  Bi  Bi109  1  0.71382559  0.73268387  0.10518910  1
  Bi  Bi110  1  0.66821890  0.39042526  0.82878590  1
  Bi  Bi111  1  0.36462397  0.27813091  0.45044147  1
  Bi  Bi112  1  -0.11295408  0.69966656  0.68328197  1
  Bi  Bi113  1  0.75522887  0.25767377  0.49311821  1
  Bi  Bi114  1  0.58325878  -0.04428168  0.49981699  1
  Bi  Bi115  1  0.65743060  0.12111264  0.27656867  1
  Bi  Bi116  1  0.17101033  0.03233551  0.62191601  1
  Bi  Bi117  1  0.65612010  0.44190359  0.14147069  1
  Bi  Bi118  1  0.90380696  0.16754927  0.93029216  1
  Bi  Bi119  1  0.10935623  0.38171416  0.82007880  1
  Bi  Bi120  1  0.93961392  0.03612783  0.61201943  1
  Bi  Bi121  1  0.62898328  0.15043984  0.71088041  1
  Bi  Bi122  1  0.91190704  0.42812089  0.48820691  1
  Bi  Bi123  1  0.45152958  0.14406803  0.28021885  1
  Bi  Bi124  1  0.91705921  0.07807584  0.30984753  1
  Bi  Bi125  1  0.37558538  0.83866595  0.64690898  1
  Bi  Bi126  1  0.43365046  0.16007303  0.67526986  1
  Bi  Bi127  1  0.38992487  0.11199703  1.00127999  1
