# generated using pymatgen
data_Ba51Fe51Bi26
_symmetry_space_group_name_H-M   'P 1'
_cell_length_a   16.72130071
_cell_length_b   16.14501357
_cell_length_c   16.55691099
_cell_angle_alpha   90.82120107
_cell_angle_beta   89.46524257
_cell_angle_gamma   89.77345931
_symmetry_Int_Tables_number   1
_chemical_formula_structural   Ba51Fe51Bi26
_chemical_formula_sum   'Ba51 Fe51 Bi26'
_cell_volume   4469.10574757
_cell_formula_units_Z   1
loop_
 _symmetry_equiv_pos_site_id
 _symmetry_equiv_pos_as_xyz
  1  'x, y, z'
loop_
 _atom_site_type_symbol
 _atom_site_label
 _atom_site_symmetry_multiplicity
 _atom_site_fract_x
 _atom_site_fract_y
 _atom_site_fract_z
 _atom_site_occupancy
  Ba  Ba0  1  -0.00388469  0.54779338  0.29231580  1
  Ba  Ba1  1  0.67501204  -0.02924297  0.28414473  1
  Ba  Ba2  1  0.24101270  -0.02362470  0.50519809  1
  Ba  Ba3  1  0.84342266  -0.04646098  0.82874953  1
  Ba  Ba4  1  0.27861754  0.57166637  -0.03294648  1
  Ba  Ba5  1  0.72340526  0.48997476  0.25531967  1
  Ba  Ba6  1  0.55605591  0.53778999  -0.02789131  1
  Ba  Ba7  1  0.59718885  0.76759440  -0.11098270  1
  Ba  Ba8  1  0.26436235  0.18962060  0.06043757  1
  Ba  Ba9  1  -0.14369833  0.47341899  0.77311028  1
  Ba  Ba10  1  0.84596276  0.72374760  0.21366725  1
  Ba  Ba11  1  0.44887414  0.24921307  0.23217199  1
  Ba  Ba12  1  0.28498487  0.63422731  0.58381195  1
  Ba  Ba13  1  0.23803704  0.56480713  0.21777259  1
  Ba  Ba14  1  0.09229174  0.81094053  0.11960210  1
  Ba  Ba15  1  0.58828634  0.43536487  0.69899041  1
  Ba  Ba16  1  0.33453871  0.13468264  0.70922950  1
  Ba  Ba17  1  0.47353580  0.50338962  0.20865152  1
  Ba  Ba18  1  -0.08972885  -0.02957734  0.27014977  1
  Ba  Ba19  1  0.74484047  0.85428628  0.05844735  1
  Ba  Ba20  1  0.21882540  0.34051130  0.85636636  1
  Ba  Ba21  1  0.03451922  0.11307319  0.71528672  1
  Ba  Ba22  1  0.04466716  0.55220275  0.05479517  1
  Ba  Ba23  1  0.52651402  0.73316883  0.65590364  1
  Ba  Ba24  1  0.82467254  0.24551283  0.25189907  1
  Ba  Ba25  1  0.27242146  0.75953692  0.35175210  1
  Ba  Ba26  1  0.57913430  0.13530333  0.79633595  1
  Ba  Ba27  1  0.42107090  0.35396827  0.52367948  1
  Ba  Ba28  1  0.07148114  0.28677136  0.23919119  1
  Ba  Ba29  1  0.39637833  0.79421149  0.06087009  1
  Ba  Ba30  1  0.72826588  0.32343240  0.49519387  1
  Ba  Ba31  1  0.00698450  0.05636984  0.46708591  1
  Ba  Ba32  1  -0.01420503  0.77037677  0.47358861  1
  Ba  Ba33  1  0.72213505  0.18649697  0.01099393  1
  Ba  Ba34  1  0.07445577  0.75778361  0.70857597  1
  Ba  Ba35  1  0.77015587  0.64709249  0.47624023  1
  Ba  Ba36  1  0.19027275  0.39858246  0.45687567  1
  Ba  Ba37  1  0.47573204  0.32916170  -0.04626322  1
  Ba  Ba38  1  0.31881571  0.81555619  0.80377267  1
  Ba  Ba39  1  -0.02069394  0.32074265  0.52980817  1
  Ba  Ba40  1  0.58261046  0.16458663  0.40358500  1
  Ba  Ba41  1  0.79934017  0.23266616  0.73073390  1
  Ba  Ba42  1  0.52590691  0.62756463  0.42729963  1
  Ba  Ba43  1  0.08669618  0.92415258  -0.10640353  1
  Ba  Ba44  1  0.52382349  0.00498893  0.57278567  1
  Ba  Ba45  1  0.07292455  0.54638558  0.82133206  1
  Ba  Ba46  1  0.49624703  0.02634864  0.06764008  1
  Ba  Ba47  1  0.81028435  0.73699775  0.71595718  1
  Ba  Ba48  1  0.03338649  0.10405425  0.05964914  1
  Ba  Ba49  1  0.78358556  0.52813062  0.00489362  1
  Ba  Ba50  1  0.44122321  -0.06797451  0.33522101  1
  Fe  Fe51  1  0.56022017  0.68628667  0.10999135  1
  Fe  Fe52  1  0.49369459  0.58878932  0.78360507  1
  Fe  Fe53  1  0.77450956  0.84478960  0.39807429  1
  Fe  Fe54  1  0.34912836  0.62769081  0.77137888  1
  Fe  Fe55  1  0.93010151  0.83390892  -0.01273443  1
  Fe  Fe56  1  0.26566587  0.50822331  0.76271080  1
  Fe  Fe57  1  0.84172272  -0.05238601  0.48156421  1
  Fe  Fe58  1  0.82821360  0.73921755  0.91894269  1
  Fe  Fe59  1  0.08251697  0.93104260  0.61121214  1
  Fe  Fe60  1  -0.02595530  0.31068715  0.88258440  1
  Fe  Fe61  1  0.78518987  0.83686061  0.54412003  1
  Fe  Fe62  1  -0.08603256  0.63846797  0.88936590  1
  Fe  Fe63  1  0.89018345  0.51323746  0.57547135  1
  Fe  Fe64  1  0.66430104  0.92872067  0.73855197  1
  Fe  Fe65  1  0.15655123  0.46271674  0.66419551  1
  Fe  Fe66  1  0.27133245  0.22612812  0.33548865  1
  Fe  Fe67  1  0.28757798  0.42925049  0.65505950  1
  Fe  Fe68  1  0.10075337  1.06605918  0.28639593  1
  Fe  Fe69  1  0.15970553  -0.00031604  0.17839508  1
  Fe  Fe70  1  0.95685074  0.61748888  0.62568180  1
  Fe  Fe71  1  0.62241828  0.66085336  0.24800583  1
  Fe  Fe72  1  0.63460653  0.19685478  0.18856003  1
  Fe  Fe73  1  0.32651873  0.09785467  0.30070822  1
  Fe  Fe74  1  0.94393166  0.78058522  0.85891721  1
  Fe  Fe75  1  0.68636349  0.76594153  0.31066407  1
  Fe  Fe76  1  0.68387423  0.66846657  0.12750104  1
  Fe  Fe77  1  0.28353419  1.01482978  0.88211342  1
  Fe  Fe78  1  0.39874807  0.49937950  0.83351111  1
  Fe  Fe79  1  0.91524902  0.28481222  0.02634210  1
  Fe  Fe80  1  0.02539048  0.71873301  -0.05883909  1
  Fe  Fe81  1  0.09149459  0.57766849  0.59034310  1
  Fe  Fe82  1  0.40099296  0.96595638  0.90343183  1
  Fe  Fe83  1  0.66682512  0.87181691  0.61566795  1
  Fe  Fe84  1  0.21570377  0.40918031  0.07780046  1
  Fe  Fe85  1  0.94306906  0.41339152  -0.02987716  1
  Fe  Fe86  1  0.83959895  0.32034437  0.91702640  1
  Fe  Fe87  1  0.19407565  0.13210487  0.38140895  1
  Fe  Fe88  1  0.34011291  0.40316356  0.08094747  1
  Fe  Fe89  1  0.20775046  0.13650111  0.23204876  1
  Fe  Fe90  1  0.91552507  0.70439620  0.02209046  1
  Fe  Fe91  1  0.40072839  0.51251592  0.69217922  1
  Fe  Fe92  1  0.64294162  0.29802151  0.26763358  1
  Fe  Fe93  1  0.70951616  -0.03774634  0.48831558  1
  Fe  Fe94  1  0.30949403  1.02958126  0.17984577  1
  Fe  Fe95  1  0.75994270  -0.03068296  0.62540375  1
  Fe  Fe96  1  0.99678802  0.53752106  0.49664445  1
  Fe  Fe97  1  0.23111276  -0.00086762  0.31262784  1
  Fe  Fe98  1  0.61061459  0.79375881  0.18844135  1
  Fe  Fe99  1  0.42689350  0.65137331  0.87537952  1
  Fe  Fe100  1  0.01394114  0.48084535  0.64130777  1
  Fe  Fe101  1  0.26276133  0.90735153  0.20726191  1
  Bi  Bi102  1  0.62180554  0.35890942  0.11355175  1
  Bi  Bi103  1  0.61409751  -0.17531791  0.45821739  1
  Bi  Bi104  1  0.79628336  0.10237302  0.41744382  1
  Bi  Bi105  1  0.36760215  0.14814424  0.45309258  1
  Bi  Bi106  1  -0.13461832  0.45428056  0.41553783  1
  Bi  Bi107  1  0.08229213  0.32538572  0.02321922  1
  Bi  Bi108  1  0.46353929  0.72675833  0.24718959  1
  Bi  Bi109  1  0.40177446  0.34626272  0.74718168  1
  Bi  Bi110  1  0.49801880  -0.07510481  0.76829320  1
  Bi  Bi111  1  0.10005733  -0.10479962  0.32376806  1
  Bi  Bi112  1  0.03939900  0.34091233  0.73061967  1
  Bi  Bi113  1  0.25051528  -0.05046839  0.03820189  1
  Bi  Bi114  1  0.26868061  0.35513981  0.22864619  1
  Bi  Bi115  1  0.40176108  0.13577107  0.91119002  1
  Bi  Bi116  1  0.13568222  0.61176111  0.43001474  1
  Bi  Bi117  1  0.56735713  0.39829058  0.37627268  1
  Bi  Bi118  1  0.65369527  -0.02286682  0.91089724  1
  Bi  Bi119  1  0.90280103  0.41430643  0.14349859  1
  Bi  Bi120  1  0.68268664  0.36173988  0.87231340  1
  Bi  Bi121  1  0.90352250  0.15247141  0.89893239  1
  Bi  Bi122  1  0.39014770  0.81941559  0.52205124  1
  Bi  Bi123  1  0.58568108  0.22592982  0.61186282  1
  Bi  Bi124  1  0.92320010  -0.08496229  0.63051666  1
  Bi  Bi125  1  0.19884808  0.96332143  0.71712366  1
  Bi  Bi126  1  0.16476784  0.12959437  0.87592973  1
  Bi  Bi127  1  0.34290488  0.53401366  0.39637086  1
