# generated using pymatgen
data_Ba51Fe51Bi26
_symmetry_space_group_name_H-M   'P 1'
_cell_length_a   16.51090399
_cell_length_b   16.24631476
_cell_length_c   16.51829116
_cell_angle_alpha   91.99752610
_cell_angle_beta   88.09649100
_cell_angle_gamma   88.75662178
_symmetry_Int_Tables_number   1
_chemical_formula_structural   Ba51Fe51Bi26
_chemical_formula_sum   'Ba51 Fe51 Bi26'
_cell_volume   4424.59359893
_cell_formula_units_Z   1
loop_
 _symmetry_equiv_pos_site_id
 _symmetry_equiv_pos_as_xyz
  1  'x, y, z'
loop_
 _atom_site_type_symbol
 _atom_site_label
 _atom_site_symmetry_multiplicity
 _atom_site_fract_x
 _atom_site_fract_y
 _atom_site_fract_z
 _atom_site_occupancy
  Ba  Ba0  1  0.00684157  -0.12068298  0.00285862  1
  Ba  Ba1  1  -0.01625051  0.14728469  -0.00743618  1
  Ba  Ba2  1  0.80217304  0.30371509  0.76109466  1
  Ba  Ba3  1  0.50913928  0.75732655  0.49983193  1
  Ba  Ba4  1  0.25586179  0.83033515  -0.06419026  1
  Ba  Ba5  1  0.41782645  0.23933588  0.27498783  1
  Ba  Ba6  1  0.55801642  0.04515377  0.53096039  1
  Ba  Ba7  1  0.30196384  0.82665613  0.30248744  1
  Ba  Ba8  1  0.62817481  0.46832703  0.74030669  1
  Ba  Ba9  1  0.52292800  0.51228453  0.00853536  1
  Ba  Ba10  1  0.02439284  0.19145884  0.76541669  1
  Ba  Ba11  1  0.10645763  0.41117979  0.84198749  1
  Ba  Ba12  1  0.46872377  0.13712557  0.77399048  1
  Ba  Ba13  1  0.53118364  0.46690929  0.36369952  1
  Ba  Ba14  1  0.15348546  0.23196834  0.48059680  1
  Ba  Ba15  1  0.72363192  0.53393974  0.15043765  1
  Ba  Ba16  1  0.51291180  0.73300297  0.21823380  1
  Ba  Ba17  1  -0.05204528  0.47298661  0.28638154  1
  Ba  Ba18  1  0.94061321  0.04307414  0.58177224  1
  Ba  Ba19  1  0.72322553  0.25253604  0.01339658  1
  Ba  Ba20  1  0.75242398  0.83764530  0.47131780  1
  Ba  Ba21  1  0.81469694  0.75715518  0.22746167  1
  Ba  Ba22  1  0.03918958  0.69699973  0.28662232  1
  Ba  Ba23  1  -0.05561020  0.41482566  0.01884354  1
  Ba  Ba24  1  0.24255884  0.72282404  0.53133664  1
  Ba  Ba25  1  -0.07984521  0.07348462  0.22246586  1
  Ba  Ba26  1  0.68903054  -0.03739145  0.26635693  1
  Ba  Ba27  1  0.48229834  0.79157960  -0.01411874  1
  Ba  Ba28  1  0.30745873  0.47234885  0.50728505  1
  Ba  Ba29  1  0.28436313  0.26327953  0.70168256  1
  Ba  Ba30  1  0.88040914  0.70467197  0.66657653  1
  Ba  Ba31  1  0.25907384  0.60143604  0.21644319  1
  Ba  Ba32  1  0.70810901  0.21744212  0.25672525  1
  Ba  Ba33  1  0.36576677  0.54787126  0.78078336  1
  Ba  Ba34  1  0.75306139  -0.01903074  -0.02905029  1
  Ba  Ba35  1  0.28209534  0.42610691  0.00292854  1
  Ba  Ba36  1  0.64442977  0.76764017  0.80386339  1
  Ba  Ba37  1  0.30240827  -0.06053568  0.72410302  1
  Ba  Ba38  1  0.17199504  0.05978247  0.19908483  1
  Ba  Ba39  1  0.11799439  0.64419208  0.00359923  1
  Ba  Ba40  1  -0.04665216  0.47470502  0.52013513  1
  Ba  Ba41  1  0.01886850  0.82216800  0.48477584  1
  Ba  Ba42  1  0.76435489  0.29176010  0.48616587  1
  Ba  Ba43  1  0.53048334  0.03658112  0.10122294  1
  Ba  Ba44  1  0.71053944  0.05316697  0.73525461  1
  Ba  Ba45  1  0.70155844  0.57198113  0.53716126  1
  Ba  Ba46  1  0.47044752  0.26053852  0.01321936  1
  Ba  Ba47  1  0.10151127  0.57023263  0.66559337  1
  Ba  Ba48  1  0.22933027  -0.01848042  0.46031438  1
  Ba  Ba49  1  0.82986350  0.71787547  -0.03786697  1
  Ba  Ba50  1  0.18029101  0.37857791  0.28230250  1
  Fe  Fe51  1  0.31420519  0.76267179  0.10918673  1
  Fe  Fe52  1  0.90068201  0.27172932  0.28463364  1
  Fe  Fe53  1  0.98019466  0.88258871  0.69433980  1
  Fe  Fe54  1  0.97523314  -0.04327700  0.82316325  1
  Fe  Fe55  1  0.93707244  0.90859869  0.33128967  1
  Fe  Fe56  1  0.51081116  0.06552865  0.33407100  1
  Fe  Fe57  1  0.54197822  0.94809617  0.71819700  1
  Fe  Fe58  1  0.83386052  0.35356756  0.18916842  1
  Fe  Fe59  1  0.55249354  0.36218939  0.54672581  1
  Fe  Fe60  1  0.56770151  0.95643567  0.84517207  1
  Fe  Fe61  1  0.28321810  0.23330050  0.95248040  1
  Fe  Fe62  1  0.53458743  0.91824368  0.36555942  1
  Fe  Fe63  1  0.18342600  0.13574623  0.01378531  1
  Fe  Fe64  1  0.50948497  0.67241924  0.70454338  1
  Fe  Fe65  1  0.37671671  0.03897656  0.29540015  1
  Fe  Fe66  1  0.97794704  0.80127066  0.81406070  1
  Fe  Fe67  1  0.08964532  0.72998070  0.82546588  1
  Fe  Fe68  1  0.14292483  0.27748155  0.00609903  1
  Fe  Fe69  1  0.40558352  0.74593479  0.79088107  1
  Fe  Fe70  1  0.89665639  0.45910996  0.82595717  1
  Fe  Fe71  1  -0.01895976  0.30878962  0.40366794  1
  Fe  Fe72  1  0.46276120  0.87184416  0.81390746  1
  Fe  Fe73  1  0.33636844  0.11594486  0.03171957  1
  Fe  Fe74  1  0.61054769  0.25665297  0.82223978  1
  Fe  Fe75  1  0.39206611  0.70840461  0.66042911  1
  Fe  Fe76  1  0.08202535  0.77738434  0.68722512  1
  Fe  Fe77  1  0.07920855  0.90443668  0.29596993  1
  Fe  Fe78  1  0.41874060  0.97276562  0.40628314  1
  Fe  Fe79  1  0.64385920  0.67692311  0.01879241  1
  Fe  Fe80  1  0.27983082  0.10467582  0.88810773  1
  Fe  Fe81  1  0.47623593  0.23166491  0.58091562  1
  Fe  Fe82  1  0.10829618  0.87170218  0.79147466  1
  Fe  Fe83  1  0.45088032  0.36935452  0.63754977  1
  Fe  Fe84  1  0.86837538  0.51222746  0.71217097  1
  Fe  Fe85  1  0.46594671  -0.06097825  0.25631867  1
  Fe  Fe86  1  0.87172051  0.24200062  0.13856115  1
  Fe  Fe87  1  0.67783946  0.60576172  0.91320728  1
  Fe  Fe88  1  0.96844478  0.39722280  0.70490309  1
  Fe  Fe89  1  0.11758428  0.90913366  0.63635371  1
  Fe  Fe90  1  1.06810476  -0.00423696  0.73131977  1
  Fe  Fe91  1  0.92751733  0.18768059  0.40910811  1
  Fe  Fe92  1  0.03910035  0.21598386  0.31574535  1
  Fe  Fe93  1  0.60889432  0.36002986  0.89901715  1
  Fe  Fe94  1  0.42556230  0.30983341  0.49126640  1
  Fe  Fe95  1  0.79330145  0.57008932  0.81925012  1
  Fe  Fe96  1  0.98548701  0.87615032  0.21106892  1
  Fe  Fe97  1  0.25909432  1.01297964  0.00153206  1
  Fe  Fe98  1  0.08341122  0.36045658  0.64776150  1
  Fe  Fe99  1  0.48536140  0.82171884  0.68753377  1
  Fe  Fe100  1  0.33228483  0.65698145  0.03509335  1
  Fe  Fe101  1  0.16812710  0.21197342  0.88740234  1
  Bi  Bi102  1  0.23984602  0.72216596  0.74664206  1
  Bi  Bi103  1  0.26562624  0.24566033  0.12564447  1
  Bi  Bi104  1  -0.02633445  0.60711405  0.83944983  1
  Bi  Bi105  1  0.41495620  -0.00200348  -0.07949173  1
  Bi  Bi106  1  -0.04532283  0.26696850  0.57717000  1
  Bi  Bi107  1  0.03092176  0.28079949  0.16166302  1
  Bi  Bi108  1  0.35094103  -0.06388626  0.12975092  1
  Bi  Bi109  1  0.04162466  0.05065720  0.39049725  1
  Bi  Bi110  1  0.37352338  0.14018187  0.46438936  1
  Bi  Bi111  1  -0.17145296  -0.11831710  0.79383165  1
  Bi  Bi112  1  0.74957789  0.45128491  -0.06462277  1
  Bi  Bi113  1  0.48999718  0.54039906  0.59238132  1
  Bi  Bi114  1  0.45716305  0.35727600  0.82281866  1
  Bi  Bi115  1  0.56959399  0.23266873  0.42053266  1
  Bi  Bi116  1  0.14778747  0.81823413  0.14925019  1
  Bi  Bi117  1  0.13205072  0.02034555  0.88431555  1
  Bi  Bi118  1  0.58639128  0.36395395  0.16283380  1
  Bi  Bi119  1  0.93552170  0.61087505  0.11598074  1
  Bi  Bi120  1  0.16495232  0.08398925  0.63327228  1
  Bi  Bi121  1  0.66302196  0.83339343  0.08816067  1
  Bi  Bi122  1  0.12997623  0.55852964  0.42255739  1
  Bi  Bi123  1  0.38192958  0.63722990  0.37953824  1
  Bi  Bi124  1  0.39788975  0.43367471  0.17960864  1
  Bi  Bi125  1  0.62843843  0.23846292  0.65282678  1
  Bi  Bi126  1  0.87379627  0.66069776  0.43415600  1
  Bi  Bi127  1  0.66338337  0.66814849  0.35282903  1
