# generated using pymatgen
data_Ba51Fe51Bi26
_symmetry_space_group_name_H-M   'P 1'
_cell_length_a   16.66661253
_cell_length_b   16.21670628
_cell_length_c   16.35886079
_cell_angle_alpha   87.90527050
_cell_angle_beta   91.45683968
_cell_angle_gamma   91.63020197
_symmetry_Int_Tables_number   1
_chemical_formula_structural   Ba51Fe51Bi26
_chemical_formula_sum   'Ba51 Fe51 Bi26'
_cell_volume   4415.37399899
_cell_formula_units_Z   1
loop_
 _symmetry_equiv_pos_site_id
 _symmetry_equiv_pos_as_xyz
  1  'x, y, z'
loop_
 _atom_site_type_symbol
 _atom_site_label
 _atom_site_symmetry_multiplicity
 _atom_site_fract_x
 _atom_site_fract_y
 _atom_site_fract_z
 _atom_site_occupancy
  Ba  Ba0  1  0.51283374  0.31078534  0.65740657  1
  Ba  Ba1  1  0.67994323  0.42466899  0.34577465  1
  Ba  Ba2  1  0.08260827  0.31366901  0.82220570  1
  Ba  Ba3  1  0.79985515  0.22148523  -0.03315187  1
  Ba  Ba4  1  0.61233521  0.69908515  -0.09707837  1
  Ba  Ba5  1  0.50876982  -0.00179024  0.16058000  1
  Ba  Ba6  1  0.52398684  0.20703096  -0.01246890  1
  Ba  Ba7  1  0.25439640  0.56676593  0.27289396  1
  Ba  Ba8  1  0.18685913  0.56491961  0.79694357  1
  Ba  Ba9  1  0.28284312  0.08545981  0.83105182  1
  Ba  Ba10  1  -0.17359290  0.54789378  -0.05134932  1
  Ba  Ba11  1  0.84464473  0.21919388  0.21786613  1
  Ba  Ba12  1  0.45311602  0.41319933  0.22096243  1
  Ba  Ba13  1  0.61306279  0.23468234  0.22583097  1
  Ba  Ba14  1  0.13483235  0.26845951  0.49944976  1
  Ba  Ba15  1  0.29505064  0.81730842  0.76776986  1
  Ba  Ba16  1  -0.04034099  0.55415671  0.71536637  1
  Ba  Ba17  1  0.75989035  -0.00035206  0.81546202  1
  Ba  Ba18  1  -0.08321495  0.27143483  0.61127650  1
  Ba  Ba19  1  0.26989615  0.29880927  0.68873089  1
  Ba  Ba20  1  0.02722246  -0.02712510  0.18047802  1
  Ba  Ba21  1  0.23530558  0.81064966  0.25964314  1
  Ba  Ba22  1  0.46686865  0.47114608  -0.02791713  1
  Ba  Ba23  1  -0.04220027  0.50349654  0.21009039  1
  Ba  Ba24  1  0.79981337  0.71890068  0.12302169  1
  Ba  Ba25  1  0.76893888  -0.04970543  0.25856441  1
  Ba  Ba26  1  0.72074495  0.23700330  0.74064789  1
  Ba  Ba27  1  0.09450480  0.19268004  0.24669919  1
  Ba  Ba28  1  -0.00213458  -0.06495567  0.75909013  1
  Ba  Ba29  1  0.59436008  0.62751124  0.21348477  1
  Ba  Ba30  1  0.90090047  0.47857651  0.47706796  1
  Ba  Ba31  1  0.54715010  -0.06531849  0.77378947  1
  Ba  Ba32  1  0.21375355  0.72226189  0.02693723  1
  Ba  Ba33  1  0.57828679  0.59147239  0.50444405  1
  Ba  Ba34  1  0.43261072  0.80189228  0.03509388  1
  Ba  Ba35  1  0.53528609  0.81380632  0.36972762  1
  Ba  Ba36  1  0.00152130  0.79213272  0.00650237  1
  Ba  Ba37  1  0.19091436  -0.03174622  0.59002379  1
  Ba  Ba38  1  0.44528424  0.58386401  0.70158811  1
  Ba  Ba39  1  0.32408261  0.02245778  0.32581662  1
  Ba  Ba40  1  0.25356258  0.26518488  0.04598028  1
  Ba  Ba41  1  0.43887565  -0.01162552  0.54456967  1
  Ba  Ba42  1  -0.01809052  0.73906406  0.33217218  1
  Ba  Ba43  1  0.82565933  0.76346761  0.69611585  1
  Ba  Ba44  1  -0.00268157  0.36626080  0.03760914  1
  Ba  Ba45  1  -0.00734548  0.06702705  0.49061357  1
  Ba  Ba46  1  0.76183101  -0.01141678  0.51850821  1
  Ba  Ba47  1  0.26985507  0.49086543  0.50138501  1
  Ba  Ba48  1  0.54035139  0.19939214  0.45152715  1
  Ba  Ba49  1  0.29404577  0.28585596  0.32984243  1
  Ba  Ba50  1  0.03060791  0.08981900  -0.04666691  1
  Fe  Fe51  1  0.16309561  0.68396693  0.43329296  1
  Fe  Fe52  1  0.35959121  0.26029772  0.51754477  1
  Fe  Fe53  1  0.20874651  0.05305514  1.02285452  1
  Fe  Fe54  1  0.35758945  0.15620364  0.59799660  1
  Fe  Fe55  1  0.35675123  0.83885672  0.42342034  1
  Fe  Fe56  1  0.09772542  0.63643828  0.54256358  1
  Fe  Fe57  1  0.01358226  0.69359253  0.83640720  1
  Fe  Fe58  1  0.84646948  0.16401844  0.42146132  1
  Fe  Fe59  1  0.96553577  0.86480062  0.50066010  1
  Fe  Fe60  1  0.28336860  0.45652307  0.11309520  1
  Fe  Fe61  1  0.64458309  0.61204289  0.71716526  1
  Fe  Fe62  1  0.74221197  0.75725824  0.36789152  1
  Fe  Fe63  1  0.64746772  0.46387752  0.68093760  1
  Fe  Fe64  1  0.15144422  0.52702805  0.10563825  1
  Fe  Fe65  1  0.63143895  0.03694795  0.95632050  1
  Fe  Fe66  1  0.62677960  0.74114686  0.68073891  1
  Fe  Fe67  1  0.18287516  0.92921086  0.08535902  1
  Fe  Fe68  1  0.72202148  0.15469410  0.38083457  1
  Fe  Fe69  1  0.23386868  0.06351068  0.15357791  1
  Fe  Fe70  1  0.76593887  0.39683759  0.10300660  1
  Fe  Fe71  1  0.86431895  0.90340429  0.07784237  1
  Fe  Fe72  1  0.15817019  0.39337646  0.15880039  1
  Fe  Fe73  1  0.17241862  0.08955029  0.41175305  1
  Fe  Fe74  1  0.75689625  0.50735945  0.17419625  1
  Fe  Fe75  1  0.11981040  0.76290608  0.84963048  1
  Fe  Fe76  1  0.21807597  0.81771078  0.46346570  1
  Fe  Fe77  1  0.73418456  0.18689127  0.52073199  1
  Fe  Fe78  1  0.30460572  0.70567790  0.42594686  1
  Fe  Fe79  1  0.59923676  0.91045630  0.97501206  1
  Fe  Fe80  1  0.73584727  -0.06037362  1.01735199  1
  Fe  Fe81  1  0.30261190  0.94956328  0.99476287  1
  Fe  Fe82  1  0.30855614  0.95012159  0.13236291  1
  Fe  Fe83  1  0.27678619  0.54277464  1.00578088  1
  Fe  Fe84  1  0.71918691  0.41156864  0.81284193  1
  Fe  Fe85  1  0.08524532  0.78941829  0.51133902  1
  Fe  Fe86  1  0.79264524  0.28429604  0.42493028  1
  Fe  Fe87  1  0.40782793  0.71282871  0.50777673  1
  Fe  Fe88  1  0.84300354  0.81978518  0.45518995  1
  Fe  Fe89  1  0.75873252  0.54496200  0.76655347  1
  Fe  Fe90  1  0.67274607  0.52452569  0.06654392  1
  Fe  Fe91  1  0.78915174  0.67682361  0.46581508  1
  Fe  Fe92  1  0.17334868  0.44855348  1.00234740  1
  Fe  Fe93  1  0.88362336  0.95687636  0.95734385  1
  Fe  Fe94  1  0.11354433  0.40578631  0.28053534  1
  Fe  Fe95  1  0.61947271  0.49790102  0.81550270  1
  Fe  Fe96  1  0.34701292  0.07805676  1.05730608  1
  Fe  Fe97  1  0.78433930  0.42802926  0.68701258  1
  Fe  Fe98  1  0.28123700  0.13657193  0.48018468  1
  Fe  Fe99  1  0.33002383  0.81495477  0.55230150  1
  Fe  Fe100  1  0.63729177  0.41401018  0.13773097  1
  Fe  Fe101  1  0.84801731  0.03791295  0.06882940  1
  Bi  Bi102  1  0.45670550  0.00712182  -0.05507325  1
  Bi  Bi103  1  0.70131421  0.35451994  0.55263403  1
  Bi  Bi104  1  0.10660103  0.92818498  0.38531900  1
  Bi  Bi105  1  0.25628693  0.67185105  0.59953116  1
  Bi  Bi106  1  0.15556239  -0.07899223  -0.09030233  1
  Bi  Bi107  1  0.76361695  0.57518934  0.60208677  1
  Bi  Bi108  1  0.08093788  0.75760008  0.68800365  1
  Bi  Bi109  1  0.47588006  0.79213221  0.63755741  1
  Bi  Bi110  1  0.65738088  0.38170392  -0.03539064  1
  Bi  Bi111  1  0.80650585  -0.19114098  -0.08204078  1
  Bi  Bi112  1  0.68239399  0.79107295  0.52493350  1
  Bi  Bi113  1  0.04943636  0.57292267  -0.03479223  1
  Bi  Bi114  1  0.08458389  0.53743809  0.38726785  1
  Bi  Bi115  1  0.62091033  0.09154666  0.62788118  1
  Bi  Bi116  1  0.79701671  0.60573718  0.31145945  1
  Bi  Bi117  1  0.40385077  0.18666148  0.17988321  1
  Bi  Bi118  1  0.62659807  0.82928136  0.12613316  1
  Bi  Bi119  1  0.45442233  0.39690916  0.45278659  1
  Bi  Bi120  1  0.94104713  0.69539402  0.53599643  1
  Bi  Bi121  1  0.36945395  0.64617448  0.89144596  1
  Bi  Bi122  1  0.39383110  0.60070919  0.12271388  1
  Bi  Bi123  1  0.10166523  0.42682718  0.63507536  1
  Bi  Bi124  1  0.10044562  0.13569140  0.70059788  1
  Bi  Bi125  1  0.95959037  0.29463800  0.37866214  1
  Bi  Bi126  1  0.69476126  0.09487782  0.10247443  1
  Bi  Bi127  1  0.88248614  0.37359963  0.82469374  1
