# generated using pymatgen
data_Ba51Fe51Bi26
_symmetry_space_group_name_H-M   'P 1'
_cell_length_a   16.53971117
_cell_length_b   16.14343945
_cell_length_c   16.52495217
_cell_angle_alpha   90.95983144
_cell_angle_beta   88.68374861
_cell_angle_gamma   90.87656655
_symmetry_Int_Tables_number   1
_chemical_formula_structural   Ba51Fe51Bi26
_chemical_formula_sum   'Ba51 Fe51 Bi26'
_cell_volume   4410.01744321
_cell_formula_units_Z   1
loop_
 _symmetry_equiv_pos_site_id
 _symmetry_equiv_pos_as_xyz
  1  'x, y, z'
loop_
 _atom_site_type_symbol
 _atom_site_label
 _atom_site_symmetry_multiplicity
 _atom_site_fract_x
 _atom_site_fract_y
 _atom_site_fract_z
 _atom_site_occupancy
  Ba  Ba0  1  0.73933530  -0.10674083  0.01067187  1
  Ba  Ba1  1  0.37843844  0.35584552  0.28964592  1
  Ba  Ba2  1  0.18487359  0.56749574  0.43845340  1
  Ba  Ba3  1  -0.19582528  0.21634005  0.46995289  1
  Ba  Ba4  1  0.70578654  0.22826810  0.78340290  1
  Ba  Ba5  1  0.74165605  -0.02759403  0.78962145  1
  Ba  Ba6  1  0.00001994  0.24570593  0.30836572  1
  Ba  Ba7  1  0.27627276  0.31024480  -0.12285443  1
  Ba  Ba8  1  0.09808847  0.12154220  0.51559269  1
  Ba  Ba9  1  0.40176493  0.77282967  0.20884721  1
  Ba  Ba10  1  0.50795832  -0.05184828  0.12270156  1
  Ba  Ba11  1  0.02936743  0.76625080  0.51633914  1
  Ba  Ba12  1  0.75628642  0.63714683  -0.02159948  1
  Ba  Ba13  1  0.27628712  0.53036112  0.78674238  1
  Ba  Ba14  1  0.69985875  0.54256502  0.73515562  1
  Ba  Ba15  1  -0.00821337  0.54341944  0.01685900  1
  Ba  Ba16  1  0.17005705  0.47256596  0.21320372  1
  Ba  Ba17  1  0.35095085  0.04469139  -0.05317001  1
  Ba  Ba18  1  -0.03421935  -0.04861860  -0.10485882  1
  Ba  Ba19  1  0.29225542  0.61902177  0.02786703  1
  Ba  Ba20  1  0.83316195  0.32863635  -0.01203793  1
  Ba  Ba21  1  0.26231010  0.78848729  0.81363720  1
  Ba  Ba22  1  0.99167666  0.13542753  0.04658069  1
  Ba  Ba23  1  0.74286510  0.82999955  0.23403088  1
  Ba  Ba24  1  0.41012942  0.49902557  0.50622767  1
  Ba  Ba25  1  -0.03517942  0.84726319  0.30440997  1
  Ba  Ba26  1  0.55655830  0.71575951  0.37404535  1
  Ba  Ba27  1  0.25044437  -0.03387783  0.20126419  1
  Ba  Ba28  1  0.57514653  0.29191265  0.58460663  1
  Ba  Ba29  1  0.09310368  0.81734636  0.03568274  1
  Ba  Ba30  1  0.23485771  -0.01001119  0.73289675  1
  Ba  Ba31  1  0.05280710  0.61570745  0.70204929  1
  Ba  Ba32  1  0.20762704  0.23128161  0.08953237  1
  Ba  Ba33  1  0.38025621  0.16777686  0.69274977  1
  Ba  Ba34  1  0.24450252  0.15886102  0.33145713  1
  Ba  Ba35  1  0.56027650  0.46939896  0.09177716  1
  Ba  Ba36  1  0.20546578  0.33242507  0.59999465  1
  Ba  Ba37  1  -0.05816946  0.35560063  0.74783612  1
  Ba  Ba38  1  0.32653249  0.78363523  0.45172120  1
  Ba  Ba39  1  0.33751702  0.01828195  0.50495410  1
  Ba  Ba40  1  -0.07323383  0.00867013  0.63586791  1
  Ba  Ba41  1  0.50010133  0.74979117  -0.06944082  1
  Ba  Ba42  1  0.16398549  0.72828002  0.25045830  1
  Ba  Ba43  1  0.45501054  0.75593354  0.66131641  1
  Ba  Ba44  1  0.69078887  0.54348072  0.24665859  1
  Ba  Ba45  1  -0.03717484  0.44907579  0.47653854  1
  Ba  Ba46  1  0.71681773  0.78772561  0.60586020  1
  Ba  Ba47  1  0.52417881  0.13588314  0.33996172  1
  Ba  Ba48  1  0.60631093  0.18080238  0.04685707  1
  Ba  Ba49  1  0.71054113  -0.01004865  0.42676454  1
  Ba  Ba50  1  0.74407147  0.52792299  0.47386268  1
  Fe  Fe51  1  0.84363057  0.79946241  0.85105580  1
  Fe  Fe52  1  0.55960583  0.89456916  0.75936905  1
  Fe  Fe53  1  0.44777274  0.38601409  0.83918995  1
  Fe  Fe54  1  0.16552233  0.16374272  0.70883797  1
  Fe  Fe55  1  0.13742228  0.92658169  0.57221873  1
  Fe  Fe56  1  0.92751015  0.14868284  0.82280464  1
  Fe  Fe57  1  0.05514900  0.96520554  0.16606906  1
  Fe  Fe58  1  -0.01815105  0.49468857  0.21526867  1
  Fe  Fe59  1  0.83616835  0.12410391  0.25575196  1
  Fe  Fe60  1  -0.02910580  0.74216345  0.84361224  1
  Fe  Fe61  1  0.91030775  0.78829168  0.71353205  1
  Fe  Fe62  1  0.86410309  0.57465851  0.15930501  1
  Fe  Fe63  1  0.03788860  0.21214812  0.86737944  1
  Fe  Fe64  1  0.48463453  0.60635472  0.20792043  1
  Fe  Fe65  1  0.11515112  0.26866700  0.76970266  1
  Fe  Fe66  1  0.74011384  0.32195428  0.16546693  1
  Fe  Fe67  1  0.84336250  0.68674108  0.77534606  1
  Fe  Fe68  1  0.53821800  0.06493314  0.59847469  1
  Fe  Fe69  1  0.56339280  0.48330841  0.89754928  1
  Fe  Fe70  1  0.94967872  0.03801056  0.22792635  1
  Fe  Fe71  1  1.06071951  0.08528047  0.78951670  1
  Fe  Fe72  1  0.36889482  0.53889173  0.19704459  1
  Fe  Fe73  1  0.43641446  0.93268138  0.33903098  1
  Fe  Fe74  1  0.47105216  0.52857689  0.31021102  1
  Fe  Fe75  1  0.72933310  0.21697710  0.25274798  1
  Fe  Fe76  1  1.02094688  0.18211754  0.70936247  1
  Fe  Fe77  1  0.39929704  0.23092448  0.01257506  1
  Fe  Fe78  1  -0.00705385  0.63935310  0.20136585  1
  Fe  Fe79  1  0.56035255  0.92654658  0.31372965  1
  Fe  Fe80  1  0.45152116  0.29260022  0.11270115  1
  Fe  Fe81  1  0.87382630  0.66112951  0.26813329  1
  Fe  Fe82  1  0.43085061  0.49046475  0.93046716  1
  Fe  Fe83  1  0.47318571  0.35183172  0.97350084  1
  Fe  Fe84  1  0.59765442  0.94965808  0.63419030  1
  Fe  Fe85  1  0.06988742  0.02615652  0.31000173  1
  Fe  Fe86  1  0.45209487  0.95899156  0.65915454  1
  Fe  Fe87  1  0.83717413  1.02954325  0.13165360  1
  Fe  Fe88  1  0.36046876  0.60559241  0.31324602  1
  Fe  Fe89  1  0.59130259  0.35039289  0.89211409  1
  Fe  Fe90  1  0.54530695  0.04843954  0.74476082  1
  Fe  Fe91  1  0.86312284  0.26899043  0.18627638  1
  Fe  Fe92  1  0.55557987  0.40741390  0.76637092  1
  Fe  Fe93  1  0.44064561  0.94859602  0.79143347  1
  Fe  Fe94  1  0.09487038  0.09190264  0.20135073  1
  Fe  Fe95  1  0.16850275  0.14866358  0.84341714  1
  Fe  Fe96  1  0.78563898  0.16733202  0.12184917  1
  Fe  Fe97  1  0.85857482  0.42284497  0.17483660  1
  Fe  Fe98  1  0.88063933  0.52518946  0.30142398  1
  Fe  Fe99  1  0.92849051  0.92738009  0.12159422  1
  Fe  Fe100  1  0.20586591  0.82662525  0.61148170  1
  Fe  Fe101  1  -0.00141382  0.60195354  0.32919800  1
  Bi  Bi102  1  0.80337333  0.37026882  0.32695313  1
  Bi  Bi103  1  0.40008481  0.38356093  0.68375968  1
  Bi  Bi104  1  0.49110876  0.21281450  0.86415853  1
  Bi  Bi105  1  0.00959683  0.34883333  0.11711111  1
  Bi  Bi106  1  0.39410202  0.13750725  0.16137665  1
  Bi  Bi107  1  -0.10048810  0.74634323  0.10844589  1
  Bi  Bi108  1  0.51909674  -0.09452602  0.48992206  1
  Bi  Bi109  1  0.06726139  0.85356936  0.71645010  1
  Bi  Bi110  1  0.48304566  0.57490588  0.78957517  1
  Bi  Bi111  1  -0.07855934  0.04727515  0.39982242  1
  Bi  Bi112  1  0.68319397  0.75969785  0.81610194  1
  Bi  Bi113  1  0.68118970  0.04238833  0.21239170  1
  Bi  Bi114  1  0.55655393  -0.02046620  0.91261359  1
  Bi  Bi115  1  0.31218130  0.83962247  0.02970573  1
  Bi  Bi116  1  0.57890564  0.61596001  0.56245024  1
  Bi  Bi117  1  0.16274911  0.35596483  0.39646405  1
  Bi  Bi118  1  0.11516509  0.65897321  0.89464261  1
  Bi  Bi119  1  0.78248375  0.37066721  0.61741984  1
  Bi  Bi120  1  0.80536777  0.11008695  0.95226586  1
  Bi  Bi121  1  0.25441838  0.66162782  0.61729593  1
  Bi  Bi122  1  0.59906127  0.70853324  0.12476639  1
  Bi  Bi123  1  0.70461724  0.08852617  0.61737788  1
  Bi  Bi124  1  0.16098346  0.91769981  0.40289574  1
  Bi  Bi125  1  0.38232459  0.24282100  0.48041537  1
  Bi  Bi126  1  0.87207814  0.64190817  0.61006568  1
  Bi  Bi127  1  0.33969596  0.41216595  0.07497081  1
