# generated using pymatgen
data_Ba51Fe51Bi26
_symmetry_space_group_name_H-M   'P 1'
_cell_length_a   16.54760443
_cell_length_b   16.09574222
_cell_length_c   16.54651304
_cell_angle_alpha   90.31745755
_cell_angle_beta   91.31737832
_cell_angle_gamma   91.22661736
_symmetry_Int_Tables_number   1
_chemical_formula_structural   Ba51Fe51Bi26
_chemical_formula_sum   'Ba51 Fe51 Bi26'
_cell_volume   4404.84240495
_cell_formula_units_Z   1
loop_
 _symmetry_equiv_pos_site_id
 _symmetry_equiv_pos_as_xyz
  1  'x, y, z'
loop_
 _atom_site_type_symbol
 _atom_site_label
 _atom_site_symmetry_multiplicity
 _atom_site_fract_x
 _atom_site_fract_y
 _atom_site_fract_z
 _atom_site_occupancy
  Ba  Ba0  1  0.32112828  0.81392847  0.30764973  1
  Ba  Ba1  1  0.24900415  0.21022612  0.21160959  1
  Ba  Ba2  1  0.35675660  0.35509179  0.00613040  1
  Ba  Ba3  1  0.39734647  0.56570385  -0.06506137  1
  Ba  Ba4  1  0.40112262  -0.01548059  0.51141955  1
  Ba  Ba5  1  0.28610496  0.77290991  0.55101771  1
  Ba  Ba6  1  0.02853951  0.70705032  -0.06898206  1
  Ba  Ba7  1  0.38350898  -0.06750233  0.08478658  1
  Ba  Ba8  1  0.78377744  0.55119929  0.73590520  1
  Ba  Ba9  1  0.22374574  0.70525105  0.08767875  1
  Ba  Ba10  1  0.17144728  0.44038144  0.21910748  1
  Ba  Ba11  1  -0.08099056  0.52270999  0.46509693  1
  Ba  Ba12  1  0.26537016  0.39628501  0.70491524  1
  Ba  Ba13  1  0.50665684  0.59014067  0.73949595  1
  Ba  Ba14  1  0.76687355  0.01219196  0.12433247  1
  Ba  Ba15  1  0.49177774  0.81131476  -0.08274407  1
  Ba  Ba16  1  0.74394704  0.22749408  0.68068326  1
  Ba  Ba17  1  0.71397628  0.37138974  0.33397401  1
  Ba  Ba18  1  0.31613559  -0.07002774  0.77514866  1
  Ba  Ba19  1  0.45612296  0.21800004  0.68243404  1
  Ba  Ba20  1  0.16035418  0.15067895  0.69917657  1
  Ba  Ba21  1  -0.07171749  0.75658462  0.60059057  1
  Ba  Ba22  1  0.73164534  0.77179312  -0.03065711  1
  Ba  Ba23  1  -0.01620884  0.27750173  0.84529087  1
  Ba  Ba24  1  0.58606781  -0.01427705  0.76196898  1
  Ba  Ba25  1  -0.04948503  0.44811361  0.09322388  1
  Ba  Ba26  1  0.55217545  0.70019007  0.26016309  1
  Ba  Ba27  1  0.69617616  0.52971235  0.13203725  1
  Ba  Ba28  1  0.00542430  -0.03487632  0.48433470  1
  Ba  Ba29  1  0.46938139  0.41233903  0.51774475  1
  Ba  Ba30  1  0.76044563  0.27556131  0.11289247  1
  Ba  Ba31  1  0.84382153  0.18765343  0.37862471  1
  Ba  Ba32  1  0.45974922  0.14368084  -0.05885455  1
  Ba  Ba33  1  0.74811017  0.37561749  0.88806712  1
  Ba  Ba34  1  0.21032009  0.12922409  -0.05556744  1
  Ba  Ba35  1  0.70946186  0.00005568  0.52846794  1
  Ba  Ba36  1  0.15382495  0.47742720  -0.06457178  1
  Ba  Ba37  1  0.48640542  0.19369528  0.41363262  1
  Ba  Ba38  1  0.83148991  -0.01847206  0.84809374  1
  Ba  Ba39  1  0.58867527  -0.04049403  0.31849487  1
  Ba  Ba40  1  0.78916601  0.78622375  0.24131883  1
  Ba  Ba41  1  0.19457746  0.49067011  0.46441764  1
  Ba  Ba42  1  0.05244604  -0.08313562  0.76341820  1
  Ba  Ba43  1  0.68846713  0.76282548  0.65659586  1
  Ba  Ba44  1  0.48699058  0.28146333  0.19670391  1
  Ba  Ba45  1  -0.02017675  0.16776721  0.18109140  1
  Ba  Ba46  1  0.51377896  0.64490017  0.48395521  1
  Ba  Ba47  1  0.02671695  0.28673150  0.49459741  1
  Ba  Ba48  1  -0.01066312  0.63306724  0.27044292  1
  Ba  Ba49  1  0.03484471  0.55373373  0.71780493  1
  Ba  Ba50  1  0.18216190  -0.00877694  0.21113870  1
  Fe  Fe51  1  0.32443544  0.28172540  0.50628696  1
  Fe  Fe52  1  0.68743846  0.24756011  0.49379038  1
  Fe  Fe53  1  0.37638356  0.58122344  0.24809698  1
  Fe  Fe54  1  0.93452111  0.76870412  0.40732418  1
  Fe  Fe55  1  0.11012323  0.70528802  0.60948579  1
  Fe  Fe56  1  0.34587548  0.72045377  0.79283778  1
  Fe  Fe57  1  0.63880735  0.51699616  0.59312797  1
  Fe  Fe58  1  0.57203483  1.01147870  1.02723375  1
  Fe  Fe59  1  0.47364591  0.51810880  0.13989628  1
  Fe  Fe60  1  0.80938303  0.70477479  0.44804059  1
  Fe  Fe61  1  0.65132351  0.36841049  0.54055803  1
  Fe  Fe62  1  0.27295769  0.09303966  0.39458634  1
  Fe  Fe63  1  0.76289275  0.45780098  0.55720536  1
  Fe  Fe64  1  0.09095981  0.85345104  0.07016396  1
  Fe  Fe65  1  0.22591540  0.23121646  0.41612465  1
  Fe  Fe66  1  0.61901818  0.16825768  0.82787485  1
  Fe  Fe67  1  0.49852305  0.83325143  0.43873075  1
  Fe  Fe68  1  0.17103738  0.11698412  0.50112908  1
  Fe  Fe69  1  0.66685861  0.08236369  0.94868843  1
  Fe  Fe70  1  0.54402926  0.43865082  0.87143104  1
  Fe  Fe71  1  0.64991394  0.50094589  0.45894893  1
  Fe  Fe72  1  0.27254707  0.60141916  0.74897368  1
  Fe  Fe73  1  0.23620927  0.65016390  0.87410228  1
  Fe  Fe74  1  0.13182069  0.85162047  0.35744722  1
  Fe  Fe75  1  0.53515035  0.05758861  0.15120618  1
  Fe  Fe76  1  0.19407939  0.97673276  0.42045067  1
  Fe  Fe77  1  0.08769370  0.01048539  0.03918000  1
  Fe  Fe78  1  0.83164590  0.84415585  0.44245915  1
  Fe  Fe79  1  0.74067643  0.17281131  0.87034706  1
  Fe  Fe80  1  0.29245861  0.76873991  0.90721030  1
  Fe  Fe81  1  0.20876829  0.26351566  0.55630850  1
  Fe  Fe82  1  0.32076172  0.52556266  0.11472535  1
  Fe  Fe83  1  0.10976078  0.81259254  0.21620106  1
  Fe  Fe84  1  1.01806683  0.91446342  0.96018920  1
  Fe  Fe85  1  0.55917241  0.29550170  0.85637000  1
  Fe  Fe86  1  0.73146665  0.60580290  0.51763491  1
  Fe  Fe87  1  0.19268795  0.61086606  0.63161146  1
  Fe  Fe88  1  0.01360453  0.05671367  0.90603638  1
  Fe  Fe89  1  0.55130042  0.86198757  0.55103892  1
  Fe  Fe90  1  0.30113377  0.14713690  0.53630380  1
  Fe  Fe91  1  0.79316005  0.32639211  0.51601414  1
  Fe  Fe92  1  0.03233186  0.14002286  1.00564197  1
  Fe  Fe93  1  0.92369241  0.85210638  0.04511162  1
  Fe  Fe94  1  0.94047824  0.01085211  1.02687844  1
  Fe  Fe95  1  0.44941439  0.37898653  0.80390341  1
  Fe  Fe96  1  0.37599325  0.44729335  0.21101220  1
  Fe  Fe97  1  0.61094497  1.14516176  0.07903025  1
  Fe  Fe98  1  -0.00448955  0.77954781  0.14260473  1
  Fe  Fe99  1  0.63839085  0.22365537  0.96150393  1
  Fe  Fe100  1  0.40464674  0.63926619  0.12891579  1
  Fe  Fe101  1  1.00202803  -0.06340879  0.13421656  1
  Bi  Bi102  1  -0.01879597  0.87870064  0.28782446  1
  Bi  Bi103  1  0.66566773  0.79600320  0.44612439  1
  Bi  Bi104  1  0.52221995  0.48464513  0.30673949  1
  Bi  Bi105  1  0.39322025  0.04692450  0.27285519  1
  Bi  Bi106  1  0.74291468  0.58801118  0.34160542  1
  Bi  Bi107  1  0.19837634  -0.09524332  -0.04463932  1
  Bi  Bi108  1  0.57185403  0.36909218  0.02197915  1
  Bi  Bi109  1  0.60138137  0.39258365  0.71203145  1
  Bi  Bi110  1  0.20078109  -0.02633174  0.59178597  1
  Bi  Bi111  1  -0.13196339  0.15648003  -0.02234238  1
  Bi  Bi112  1  0.08953980  0.70561452  0.44728159  1
  Bi  Bi113  1  0.32960347  0.35632450  0.35134256  1
  Bi  Bi114  1  0.17545823  0.74780835  0.75426923  1
  Bi  Bi115  1  0.95186303  0.37324905  0.29506224  1
  Bi  Bi116  1  0.55227498  0.65351455  0.04956742  1
  Bi  Bi117  1  0.46701561  0.80453559  0.68851181  1
  Bi  Bi118  1  0.59162108  0.87448487  0.11889042  1
  Bi  Bi119  1  0.81328935  0.98137916  0.34654314  1
  Bi  Bi120  1  0.34627654  0.56609443  0.59931036  1
  Bi  Bi121  1  0.93956839  0.48813155  0.88988861  1
  Bi  Bi122  1  0.89568770  0.38246439  0.64508410  1
  Bi  Bi123  1  0.11648179  0.29458230  0.05013410  1
  Bi  Bi124  1  0.87824296  0.66968737  0.08400373  1
  Bi  Bi125  1  0.09437585  0.12551149  0.35504893  1
  Bi  Bi126  1  0.86474891  0.76263706  0.79649605  1
  Bi  Bi127  1  0.64984345  0.15925647  0.25117444  1
