# generated using pymatgen
data_Ba51Fe51Bi26
_symmetry_space_group_name_H-M   'P 1'
_cell_length_a   15.73940976
_cell_length_b   16.43234461
_cell_length_c   16.98366368
_cell_angle_alpha   92.52241527
_cell_angle_beta   90.12418026
_cell_angle_gamma   88.78989197
_symmetry_Int_Tables_number   1
_chemical_formula_structural   Ba51Fe51Bi26
_chemical_formula_sum   'Ba51 Fe51 Bi26'
_cell_volume   4387.33859962
_cell_formula_units_Z   1
loop_
 _symmetry_equiv_pos_site_id
 _symmetry_equiv_pos_as_xyz
  1  'x, y, z'
loop_
 _atom_site_type_symbol
 _atom_site_label
 _atom_site_symmetry_multiplicity
 _atom_site_fract_x
 _atom_site_fract_y
 _atom_site_fract_z
 _atom_site_occupancy
  Ba  Ba0  1  0.02606144  -0.17981058  0.52947419  1
  Ba  Ba1  1  -0.11093840  0.54213167  0.23542932  1
  Ba  Ba2  1  0.20352339  0.17628147  0.23570563  1
  Ba  Ba3  1  0.53611833  0.71806081  0.02367038  1
  Ba  Ba4  1  0.52823198  0.44921040  -0.00570369  1
  Ba  Ba5  1  -0.08271865  0.28749366  0.08081033  1
  Ba  Ba6  1  0.02133215  0.15067971  0.42428793  1
  Ba  Ba7  1  -0.03319410  0.06702261  0.18127967  1
  Ba  Ba8  1  -0.06188371  0.44314708  0.44344954  1
  Ba  Ba9  1  0.70704009  0.28902156  0.49590299  1
  Ba  Ba10  1  0.40565253  0.46349816  0.45413135  1
  Ba  Ba11  1  0.57201126  0.74422643  0.30874885  1
  Ba  Ba12  1  0.28405259  0.23975324  0.01525712  1
  Ba  Ba13  1  0.29091687  0.67970166  0.12222513  1
  Ba  Ba14  1  0.72950145  0.43665133  0.75953099  1
  Ba  Ba15  1  0.46786246  0.24667731  0.69195287  1
  Ba  Ba16  1  0.72114772  0.71872907  0.72308270  1
  Ba  Ba17  1  0.36828350  -0.07053872  0.14933052  1
  Ba  Ba18  1  0.53286880  0.02384333  0.00671679  1
  Ba  Ba19  1  0.17322174  0.58094733  0.42825620  1
  Ba  Ba20  1  0.47708893  0.73899046  0.77200283  1
  Ba  Ba21  1  0.49626158  -0.05575496  0.49544674  1
  Ba  Ba22  1  0.79093944  -0.04888802  0.01957206  1
  Ba  Ba23  1  0.20155982  0.72934898  0.77292794  1
  Ba  Ba24  1  0.39142660  0.17714479  0.46639085  1
  Ba  Ba25  1  0.04008992  0.63427076  0.03650146  1
  Ba  Ba26  1  0.48095749  0.48376211  0.73775970  1
  Ba  Ba27  1  0.12768956  0.40678213  0.14530067  1
  Ba  Ba28  1  0.09877185  0.87718517  -0.04658336  1
  Ba  Ba29  1  0.18839993  0.79594302  0.32867773  1
  Ba  Ba30  1  -0.03842071  0.41448561  0.66831281  1
  Ba  Ba31  1  0.16805865  0.34134673  0.42956478  1
  Ba  Ba32  1  0.78677297  0.06161152  0.47731577  1
  Ba  Ba33  1  0.79412032  0.49947796  -0.00687015  1
  Ba  Ba34  1  0.81250119  0.72371676  -0.06532476  1
  Ba  Ba35  1  0.28678267  0.00736373  0.85296210  1
  Ba  Ba36  1  0.26411415  0.33607507  0.81009446  1
  Ba  Ba37  1  0.70234548  -0.00598631  0.29060292  1
  Ba  Ba38  1  0.35659450  0.72895493  0.53370359  1
  Ba  Ba39  1  0.48991741  0.48043056  0.23522638  1
  Ba  Ba40  1  0.22072221  0.50084309  0.65522413  1
  Ba  Ba41  1  0.75454146  0.17316499  0.73555036  1
  Ba  Ba42  1  0.72374819  0.36671182  0.23854768  1
  Ba  Ba43  1  0.06667863  0.19923171  0.74084320  1
  Ba  Ba44  1  -0.05134273  0.80662000  0.75975792  1
  Ba  Ba45  1  0.84142827  0.79493735  0.27927741  1
  Ba  Ba46  1  0.22206879  0.00601973  0.55825085  1
  Ba  Ba47  1  0.73094052  0.21205841  -0.04321886  1
  Ba  Ba48  1  0.54168857  0.00202550  0.75665325  1
  Ba  Ba49  1  0.79828012  0.68400132  0.50221823  1
  Ba  Ba50  1  -0.06415875  0.02422739  0.65425014  1
  Fe  Fe51  1  0.50069700  0.59205474  0.57496283  1
  Fe  Fe52  1  0.26793053  0.53961661  0.25880829  1
  Fe  Fe53  1  0.74398685  0.50307016  0.40743630  1
  Fe  Fe54  1  0.95253968  0.50796796  0.86617114  1
  Fe  Fe55  1  0.55095862  1.09109976  0.20514518  1
  Fe  Fe56  1  1.06812176  0.40264758  0.83359752  1
  Fe  Fe57  1  0.90038605  0.05475524  0.87247386  1
  Fe  Fe58  1  0.55180451  0.23686183  0.20521061  1
  Fe  Fe59  1  1.04295518  0.89995328  0.24189730  1
  Fe  Fe60  1  1.00633570  0.06381442  -0.01306829  1
  Fe  Fe61  1  0.16475161  0.31523729  0.62389087  1
  Fe  Fe62  1  0.07444677  0.28757741  -0.06799642  1
  Fe  Fe63  1  0.12410143  1.13734766  0.91579210  1
  Fe  Fe64  1  0.17527655  0.97790185  0.20945460  1
  Fe  Fe65  1  0.19631759  0.20397816  0.55228000  1
  Fe  Fe66  1  0.30055898  0.31632935  0.59477186  1
  Fe  Fe67  1  0.41467346  0.23976188  0.27679920  1
  Fe  Fe68  1  0.41418482  0.29508164  0.15896122  1
  Fe  Fe69  1  0.01822875  0.64539164  0.85020982  1
  Fe  Fe70  1  0.06564414  0.54261642  0.76874282  1
  Fe  Fe71  1  0.72030083  0.74645894  0.12574097  1
  Fe  Fe72  1  0.61602981  0.45322210  0.41750942  1
  Fe  Fe73  1  0.26787199  0.20301987  0.66066562  1
  Fe  Fe74  1  1.01505947  0.42975460  -0.03162927  1
  Fe  Fe75  1  0.11623256  -0.01365870  0.32584994  1
  Fe  Fe76  1  0.13121628  0.86615083  0.14616152  1
  Fe  Fe77  1  1.03524504  1.03874829  0.84857079  1
  Fe  Fe78  1  0.61239906  0.58451174  0.46896533  1
  Fe  Fe79  1  0.39504988  0.10255032  0.25882214  1
  Fe  Fe80  1  0.42396958  0.17275622  0.87947406  1
  Fe  Fe81  1  0.11293579  0.52730035  0.89065925  1
  Fe  Fe82  1  0.45615728  0.30317785  0.88173691  1
  Fe  Fe83  1  0.84009992  0.68884254  0.11458463  1
  Fe  Fe84  1  0.91887241  0.60038685  0.76956297  1
  Fe  Fe85  1  0.81104712  0.19652851  0.29878608  1
  Fe  Fe86  1  0.07676806  0.18291517  0.03188701  1
  Fe  Fe87  1  0.66780226  0.18700446  0.29451763  1
  Fe  Fe88  1  0.58838389  0.31399798  0.84463201  1
  Fe  Fe89  1  0.65970914  0.56463643  0.33077289  1
  Fe  Fe90  1  0.71282510  0.87457833  0.51880111  1
  Fe  Fe91  1  0.55927414  0.18598466  0.86245435  1
  Fe  Fe92  1  0.80193923  0.87727527  0.62145694  1
  Fe  Fe93  1  0.48092502  1.01382789  0.30958889  1
  Fe  Fe94  1  0.43050969  0.15577432  0.14539155  1
  Fe  Fe95  1  0.70674405  -0.01533364  0.63093365  1
  Fe  Fe96  1  0.15244970  0.40904287  0.95666566  1
  Fe  Fe97  1  0.64246070  0.86777024  0.63171654  1
  Fe  Fe98  1  0.58849714  0.46628533  0.55730943  1
  Fe  Fe99  1  0.62725093  0.58585418  0.61727721  1
  Fe  Fe100  1  -0.03065875  0.17530559  0.91444772  1
  Fe  Fe101  1  0.52869024  0.14464146  0.32884590  1
  Bi  Bi102  1  -0.09855877  0.33000078  -0.13584598  1
  Bi  Bi103  1  0.57850696  0.74057110  0.53907908  1
  Bi  Bi104  1  0.74506121  0.14404287  0.14962725  1
  Bi  Bi105  1  0.51517629  0.24149628  0.02651944  1
  Bi  Bi106  1  0.29998286  0.37506070  0.27230064  1
  Bi  Bi107  1  0.67780196  0.58803491  0.16426446  1
  Bi  Bi108  1  0.17920176  0.04676473  0.05939126  1
  Bi  Bi109  1  0.02504986  0.62846030  0.63400304  1
  Bi  Bi110  1  0.54465922  0.31072646  0.36263177  1
  Bi  Bi111  1  0.77588310  -0.04687048  0.78207050  1
  Bi  Bi112  1  0.29535257  0.00034876  0.34970624  1
  Bi  Bi113  1  0.76500185  0.48914501  0.56819202  1
  Bi  Bi114  1  -0.04404527  0.82801324  0.10731961  1
  Bi  Bi115  1  0.33036035  0.81370529  0.95366811  1
  Bi  Bi116  1  0.95427370  0.95206891  0.37948614  1
  Bi  Bi117  1  0.89966260  0.22751466  0.58300600  1
  Bi  Bi118  1  0.62651670  0.59057434  0.87173098  1
  Bi  Bi119  1  0.11240230  0.60881284  0.22833021  1
  Bi  Bi120  1  0.60997233  0.87747166  0.14639566  1
  Bi  Bi121  1  0.63200632  0.85542135  0.88791868  1
  Bi  Bi122  1  -0.01744564  0.66806292  0.38164293  1
  Bi  Bi123  1  0.36067554  0.89018048  0.67410592  1
  Bi  Bi124  1  -0.03683696  0.29602557  0.28360128  1
  Bi  Bi125  1  0.11882867  0.93566518  0.73276965  1
  Bi  Bi126  1  0.37078652  0.65014612  0.33264831  1
  Bi  Bi127  1  0.60010801  0.11335053  0.58325939  1
