# generated using pymatgen
data_Ba51Fe51Bi26
_symmetry_space_group_name_H-M   'P 1'
_cell_length_a   16.42787644
_cell_length_b   16.44713977
_cell_length_c   16.29954149
_cell_angle_alpha   90.88796303
_cell_angle_beta   88.68436498
_cell_angle_gamma   89.83757292
_symmetry_Int_Tables_number   1
_chemical_formula_structural   Ba51Fe51Bi26
_chemical_formula_sum   'Ba51 Fe51 Bi26'
_cell_volume   4402.28672959
_cell_formula_units_Z   1
loop_
 _symmetry_equiv_pos_site_id
 _symmetry_equiv_pos_as_xyz
  1  'x, y, z'
loop_
 _atom_site_type_symbol
 _atom_site_label
 _atom_site_symmetry_multiplicity
 _atom_site_fract_x
 _atom_site_fract_y
 _atom_site_fract_z
 _atom_site_occupancy
  Ba  Ba0  1  0.78700998  0.77085363  0.69130988  1
  Ba  Ba1  1  0.06531503  -0.05538302  0.28641414  1
  Ba  Ba2  1  0.50086441  0.50925032  0.77045704  1
  Ba  Ba3  1  0.18835628  0.49219252  0.21836455  1
  Ba  Ba4  1  -0.01096006  0.81695997  0.02306632  1
  Ba  Ba5  1  0.26989279  0.40919150  0.68554582  1
  Ba  Ba6  1  0.25578427  0.77425155  0.29529110  1
  Ba  Ba7  1  0.09259113  0.04290894  -0.09101898  1
  Ba  Ba8  1  0.16833475  0.47363720  -0.09478448  1
  Ba  Ba9  1  -0.04473047  0.57615088  -0.01777665  1
  Ba  Ba10  1  0.25831687  -0.04131467  0.09433716  1
  Ba  Ba11  1  0.68159012  0.53097317  0.56210608  1
  Ba  Ba12  1  0.22985323  0.27153664  0.01841094  1
  Ba  Ba13  1  0.19582082  0.78185664  -0.09033697  1
  Ba  Ba14  1  0.77668293  0.50207027  0.82024909  1
  Ba  Ba15  1  0.50293343  0.05886375  0.79974298  1
  Ba  Ba16  1  0.71038811  0.27902974  0.52433953  1
  Ba  Ba17  1  0.71240739  0.08556784  -0.06412097  1
  Ba  Ba18  1  0.58234064  0.74789121  0.53659050  1
  Ba  Ba19  1  0.02355720  0.51975609  0.68642884  1
  Ba  Ba20  1  0.86442029  0.10336994  0.16138255  1
  Ba  Ba21  1  0.51046234  -0.07437108  0.00494201  1
  Ba  Ba22  1  0.67194123  0.26777688  0.26277905  1
  Ba  Ba23  1  0.40865157  0.45184603  0.02220308  1
  Ba  Ba24  1  0.69836058  0.57840026  0.26506195  1
  Ba  Ba25  1  0.26146803  -0.04113716  0.67475461  1
  Ba  Ba26  1  0.67643848  0.00737243  0.54278684  1
  Ba  Ba27  1  -0.12326118  0.00419487  0.74133305  1
  Ba  Ba28  1  0.68566588  0.71632314  -0.04235990  1
  Ba  Ba29  1  0.47079269  0.62591794  0.31517791  1
  Ba  Ba30  1  -0.06024335  0.19788572  0.34785428  1
  Ba  Ba31  1  -0.04971771  0.54399952  0.21914529  1
  Ba  Ba32  1  0.04215913  0.28033020  0.55174362  1
  Ba  Ba33  1  0.29535765  0.28240360  0.45272131  1
  Ba  Ba34  1  0.27858147  0.15946905  0.81249120  1
  Ba  Ba35  1  0.30515657  -0.00532172  0.43556140  1
  Ba  Ba36  1  0.44990263  0.36880427  0.24607618  1
  Ba  Ba37  1  0.47632359  0.24533402  0.63159601  1
  Ba  Ba38  1  0.88059047  0.24088641  0.75113984  1
  Ba  Ba39  1  0.39760245  0.70679381  0.07079957  1
  Ba  Ba40  1  0.02030193  -0.02060734  0.53630256  1
  Ba  Ba41  1  0.25912816  0.16155236  0.22697544  1
  Ba  Ba42  1  0.51629082  0.08306347  0.34831613  1
  Ba  Ba43  1  0.27692150  0.57951378  0.47737761  1
  Ba  Ba44  1  0.45101980  0.77628448  0.79451605  1
  Ba  Ba45  1  0.75504775  -0.10087058  0.11920604  1
  Ba  Ba46  1  0.81542520  0.33696710  0.02900855  1
  Ba  Ba47  1  0.68796501  0.83743827  0.33461720  1
  Ba  Ba48  1  -0.07193716  0.52732973  0.45596969  1
  Ba  Ba49  1  0.60247587  0.29236712  0.85108155  1
  Ba  Ba50  1  0.20927020  0.68740385  0.69333373  1
  Fe  Fe51  1  0.38194947  0.09543879  1.00078292  1
  Fe  Fe52  1  0.76692277  0.11014636  0.39535497  1
  Fe  Fe53  1  0.57063893  0.44750324  0.40113825  1
  Fe  Fe54  1  0.95719394  0.33072915  0.20646105  1
  Fe  Fe55  1  0.38317966  0.97070673  0.24062557  1
  Fe  Fe56  1  0.94580157  0.76964845  0.53748294  1
  Fe  Fe57  1  0.08488840  0.27125191  0.19160943  1
  Fe  Fe58  1  0.22617823  0.22067634  0.63619400  1
  Fe  Fe59  1  0.42221988  0.43002413  0.43675924  1
  Fe  Fe60  1  0.31985723  0.13768742  0.59467534  1
  Fe  Fe61  1  0.22694597  0.62012624  0.02965753  1
  Fe  Fe62  1  0.07872658  0.79295559  0.44791325  1
  Fe  Fe63  1  0.02509050  0.69632906  0.82586514  1
  Fe  Fe64  1  0.12683122  0.28621573  0.32671960  1
  Fe  Fe65  1  0.08952500  0.27244946  0.82717721  1
  Fe  Fe66  1  0.38129614  0.80163244  0.60259303  1
  Fe  Fe67  1  0.39852900  0.20970102  0.09444897  1
  Fe  Fe68  1  0.87573861  0.71450151  0.88271004  1
  Fe  Fe69  1  0.50547088  0.18406064  0.16229372  1
  Fe  Fe70  1  0.90342276  0.80842060  0.26689823  1
  Fe  Fe71  1  0.85219020  0.69676602  0.31139068  1
  Fe  Fe72  1  0.18886826  0.73825992  0.10473624  1
  Fe  Fe73  1  0.18442069  0.11357541  0.56814708  1
  Fe  Fe74  1  -0.05993423  0.80145788  0.80508316  1
  Fe  Fe75  1  0.10877047  0.63618506  0.08800568  1
  Fe  Fe76  1  0.56963848  0.59900642  0.11163719  1
  Fe  Fe77  1  0.45702018  0.89412138  0.50303962  1
  Fe  Fe78  1  0.59121401  0.46774712  0.11003823  1
  Fe  Fe79  1  0.51649282  0.32824399  0.43202143  1
  Fe  Fe80  1  0.57268400  0.55711418  0.98050572  1
  Fe  Fe81  1  0.91072796  0.64901717  0.77281654  1
  Fe  Fe82  1  0.54069492  0.40180149  0.54245996  1
  Fe  Fe83  1  1.03970568  0.37683484  0.30310777  1
  Fe  Fe84  1  0.39272021  0.77134031  0.47198330  1
  Fe  Fe85  1  0.62492104  0.43878169  0.97766432  1
  Fe  Fe86  1  0.42114780  0.45650409  0.57120089  1
  Fe  Fe87  1  0.46315337  0.90680011  0.63180235  1
  Fe  Fe88  1  0.43531711  0.06277669  0.13926236  1
  Fe  Fe89  1  0.04331456  0.26213906  0.95616514  1
  Fe  Fe90  1  0.07021966  0.16693679  0.08193080  1
  Fe  Fe91  1  0.66119990  0.90320582  0.86855301  1
  Fe  Fe92  1  0.50086471  0.53823541  0.49185913  1
  Fe  Fe93  1  0.99288176  0.73075058  0.67858748  1
  Fe  Fe94  1  0.52206734  0.13259565  0.02700575  1
  Fe  Fe95  1  0.96288162  0.73381410  0.39161775  1
  Fe  Fe96  1  0.71389467  0.04556766  0.29787610  1
  Fe  Fe97  1  0.08272941  0.80544095  0.59330546  1
  Fe  Fe98  1  0.44103411  0.22162437  0.96243391  1
  Fe  Fe99  1  0.04882502  0.67825160  0.53532653  1
  Fe  Fe100  1  0.49900815  0.93313334  0.19578980  1
  Fe  Fe101  1  0.97382234  0.25143087  0.08889425  1
  Bi  Bi102  1  0.74054311  0.53296884  0.04997352  1
  Bi  Bi103  1  0.42197556  0.63200093  0.61767801  1
  Bi  Bi104  1  0.62652358  0.06542505  0.15294373  1
  Bi  Bi105  1  0.57656442  0.30228824  0.06664882  1
  Bi  Bi106  1  0.05372884  0.74329843  0.21409757  1
  Bi  Bi107  1  0.58127656  0.76463086  0.15680964  1
  Bi  Bi108  1  0.08463947  0.13806392  0.71140330  1
  Bi  Bi109  1  -0.20289718  0.69934030  0.47360144  1
  Bi  Bi110  1  0.07759009  0.87500747  0.75100762  1
  Bi  Bi111  1  0.05134984  0.39927388  0.08063421  1
  Bi  Bi112  1  0.82127347  -0.11882179  0.90486098  1
  Bi  Bi113  1  0.23256793  0.80860857  0.51382709  1
  Bi  Bi114  1  0.85928079  -0.03198166  0.33503453  1
  Bi  Bi115  1  0.13406490  0.12972443  0.40496964  1
  Bi  Bi116  1  0.97278220  0.39522273  0.85926060  1
  Bi  Bi117  1  0.83514969  0.71001772  0.14303896  1
  Bi  Bi118  1  0.61180966  0.88945279  0.71219746  1
  Bi  Bi119  1  0.39108259  0.33300967  0.84156859  1
  Bi  Bi120  1  0.32697201  0.96315739  0.89126304  1
  Bi  Bi121  1  0.86228837  0.12852405  0.54102505  1
  Bi  Bi122  1  0.91749482  0.14933176  0.95847682  1
  Bi  Bi123  1  0.85057221  0.41247506  0.62106581  1
  Bi  Bi124  1  0.68047489  0.15012488  0.71043346  1
  Bi  Bi125  1  0.46045121  0.85332055  0.33951199  1
  Bi  Bi126  1  0.33017485  0.61159632  0.88191816  1
  Bi  Bi127  1  0.10045243  0.62731032  0.37663154  1
