# generated using pymatgen
data_Ba51Fe51Bi26
_symmetry_space_group_name_H-M   'P 1'
_cell_length_a   16.26783461
_cell_length_b   16.53233084
_cell_length_c   16.33602637
_cell_angle_alpha   91.24217766
_cell_angle_beta   89.68407780
_cell_angle_gamma   88.81043480
_symmetry_Int_Tables_number   1
_chemical_formula_structural   Ba51Fe51Bi26
_chemical_formula_sum   'Ba51 Fe51 Bi26'
_cell_volume   4391.43894916
_cell_formula_units_Z   1
loop_
 _symmetry_equiv_pos_site_id
 _symmetry_equiv_pos_as_xyz
  1  'x, y, z'
loop_
 _atom_site_type_symbol
 _atom_site_label
 _atom_site_symmetry_multiplicity
 _atom_site_fract_x
 _atom_site_fract_y
 _atom_site_fract_z
 _atom_site_occupancy
  Ba  Ba0  1  0.18935447  0.55755529  0.49351924  1
  Ba  Ba1  1  0.59662877  -0.01700540  0.59373098  1
  Ba  Ba2  1  -0.02623072  0.29019061  0.23261384  1
  Ba  Ba3  1  0.23090517  0.32001160  0.25676942  1
  Ba  Ba4  1  0.75675022  0.70943221  0.36004921  1
  Ba  Ba5  1  0.46871561  0.63819550  0.47292117  1
  Ba  Ba6  1  0.15021551  0.12130924  0.34451313  1
  Ba  Ba7  1  0.26102740  0.27768406  0.81652515  1
  Ba  Ba8  1  0.23619575  -0.02984547  0.50733689  1
  Ba  Ba9  1  0.59809124  0.06200358  -0.08620252  1
  Ba  Ba10  1  0.50956124  0.51024019  0.07254755  1
  Ba  Ba11  1  0.01006833  0.02200111  0.16783569  1
  Ba  Ba12  1  0.28062696  -0.05063446  0.21540376  1
  Ba  Ba13  1  0.17570345  0.08873224  -0.04678762  1
  Ba  Ba14  1  0.16819830  0.78232789  0.71984614  1
  Ba  Ba15  1  0.42841178  0.70461755  0.70458059  1
  Ba  Ba16  1  0.02205753  0.29361888  -0.01802235  1
  Ba  Ba17  1  -0.05273522  0.42729242  0.78690769  1
  Ba  Ba18  1  0.58179637  -0.07030467  0.20186999  1
  Ba  Ba19  1  0.07623826  0.58780372  -0.07830362  1
  Ba  Ba20  1  0.73395223  0.34289350  0.65793348  1
  Ba  Ba21  1  0.47865533  0.72569120  0.26081146  1
  Ba  Ba22  1  0.78506577  0.09884064  0.23448530  1
  Ba  Ba23  1  0.54597301  0.42617486  0.52096129  1
  Ba  Ba24  1  0.40093471  0.16103317  0.07393393  1
  Ba  Ba25  1  0.74957076  0.70754470  0.09334744  1
  Ba  Ba26  1  0.66896625  0.74988217  0.59963058  1
  Ba  Ba27  1  0.83306385  0.21235388  0.84364205  1
  Ba  Ba28  1  0.20696079  0.72054578  0.32693672  1
  Ba  Ba29  1  -0.01238125  0.78051498  0.21903894  1
  Ba  Ba30  1  0.36505950  -0.05849276  0.72201470  1
  Ba  Ba31  1  0.84325282  0.47481819  0.33071506  1
  Ba  Ba32  1  -0.02941330  0.29074422  0.54918653  1
  Ba  Ba33  1  0.65923245  0.31645347  0.00856189  1
  Ba  Ba34  1  0.45196327  0.19380415  0.48034789  1
  Ba  Ba35  1  0.31923980  0.75081348  0.07503386  1
  Ba  Ba36  1  0.03640999  -0.00617214  0.78807803  1
  Ba  Ba37  1  0.22235482  0.29290727  0.53590841  1
  Ba  Ba38  1  0.79216296  -0.03983840  0.80614712  1
  Ba  Ba39  1  -0.06903241  0.53159789  0.54882942  1
  Ba  Ba40  1  0.47626452  0.86575358  -0.04792394  1
  Ba  Ba41  1  0.52619841  0.46252003  0.79738859  1
  Ba  Ba42  1  0.52246125  0.29529660  0.26436209  1
  Ba  Ba43  1  0.64016048  0.67521105  0.86050148  1
  Ba  Ba44  1  0.79213226  -0.02123021  0.43710454  1
  Ba  Ba45  1  -0.13110709  0.70558459  0.77380314  1
  Ba  Ba46  1  0.00889780  0.80137962  0.51982657  1
  Ba  Ba47  1  -0.01736012  0.84020668  -0.02144816  1
  Ba  Ba48  1  0.27355308  0.51949279  0.76756303  1
  Ba  Ba49  1  0.53246093  0.19693211  0.73239734  1
  Ba  Ba50  1  -0.02163834  0.51893734  0.14657058  1
  Fe  Fe51  1  0.30203001  0.57298875  0.15075993  1
  Fe  Fe52  1  0.70748924  0.99365726  0.07714344  1
  Fe  Fe53  1  0.20534833  0.51359003  0.23142439  1
  Fe  Fe54  1  0.79287679  0.19400189  0.49024558  1
  Fe  Fe55  1  0.35903574  0.47393759  0.56823979  1
  Fe  Fe56  1  0.67226697  0.19533872  0.37899134  1
  Fe  Fe57  1  0.44784242  0.84271301  0.52834766  1
  Fe  Fe58  1  0.38125027  0.83830119  0.40844220  1
  Fe  Fe59  1  0.31075239  0.43348233  0.09232397  1
  Fe  Fe60  1  0.30529121  0.79477843  0.86839271  1
  Fe  Fe61  1  0.65292467  0.44101249  0.23879104  1
  Fe  Fe62  1  0.84039807  0.55985622  -0.02798087  1
  Fe  Fe63  1  0.53797270  0.86000769  0.42064165  1
  Fe  Fe64  1  0.18059702  0.48664340  0.08932937  1
  Fe  Fe65  1  0.68125868  0.35947609  0.36153317  1
  Fe  Fe66  1  0.28727231  0.91045668  -0.04273119  1
  Fe  Fe67  1  0.43699651  -0.03125510  0.47910642  1
  Fe  Fe68  1  0.22142617  0.13400442  0.15159545  1
  Fe  Fe69  1  0.44645054  -0.06186702  0.34964998  1
  Fe  Fe70  1  0.27871619  0.56219200  -0.00189168  1
  Fe  Fe71  1  0.65758748  0.57516841  0.24892627  1
  Fe  Fe72  1  0.18969268  0.89872834  0.87032595  1
  Fe  Fe73  1  0.99671814  1.00321037  0.46833325  1
  Fe  Fe74  1  0.79689654  0.26178248  0.36735553  1
  Fe  Fe75  1  0.90825122  0.10372063  0.53886027  1
  Fe  Fe76  1  -0.00468630  0.11449279  0.64696285  1
  Fe  Fe77  1  0.82854056  0.42421435  0.95008181  1
  Fe  Fe78  1  0.91467905  0.99003464  0.61074242  1
  Fe  Fe79  1  0.72673325  0.43941094  0.83940418  1
  Fe  Fe80  1  0.17805543  0.78437203  0.93902859  1
  Fe  Fe81  1  0.84298296  0.21641616  0.06394684  1
  Fe  Fe82  1  0.35881410  0.45873110  0.22830192  1
  Fe  Fe83  1  0.77231500  0.10218793  1.02703005  1
  Fe  Fe84  1  0.83015763  0.95936538  1.04379324  1
  Fe  Fe85  1  0.66112583  0.14703438  0.51540352  1
  Fe  Fe86  1  0.65210273  0.50889971  0.37013668  1
  Fe  Fe87  1  0.25748802  0.67428298  0.89737884  1
  Fe  Fe88  1  0.06111879  0.11341169  0.52510982  1
  Fe  Fe89  1  0.80353511  0.54660222  0.84475934  1
  Fe  Fe90  1  0.66173283  0.27992423  0.48438166  1
  Fe  Fe91  1  0.04887901  0.98636763  0.59361901  1
  Fe  Fe92  1  0.16900652  0.90141046  0.02079057  1
  Fe  Fe93  1  0.21816247  0.42973012  0.96304355  1
  Fe  Fe94  1  0.35219907  0.43837472  0.95003724  1
  Fe  Fe95  1  0.32735202  0.56333521  0.30376697  1
  Fe  Fe96  1  0.61987287  0.57357118  0.66364610  1
  Fe  Fe97  1  0.11228081  0.19241038  0.13314167  1
  Fe  Fe98  1  0.70470615  0.51626824  0.95212803  1
  Fe  Fe99  1  0.84984389  0.34868891  0.06960780  1
  Fe  Fe100  1  0.73291796  0.53439113  0.71560071  1
  Fe  Fe101  1  0.77847409  0.34815470  0.46937458  1
  Bi  Bi102  1  0.22460941  0.28496716  0.04715983  1
  Bi  Bi103  1  0.35532356  0.41265233  0.40908217  1
  Bi  Bi104  1  0.71767141  0.55227784  0.52488363  1
  Bi  Bi105  1  0.50452359  0.51844245  0.29091366  1
  Bi  Bi106  1  0.41983446  0.63416142  -0.09072756  1
  Bi  Bi107  1  0.14346787  0.64770736  0.12586460  1
  Bi  Bi108  1  -0.06126616  0.14266477  0.38064521  1
  Bi  Bi109  1  0.58124775  0.04501814  0.38715992  1
  Bi  Bi110  1  0.77327412  0.11270723  0.64491968  1
  Bi  Bi111  1  0.75429330  0.49870972  0.11281185  1
  Bi  Bi112  1  0.70142960  -0.13592488  -0.03161906  1
  Bi  Bi113  1  0.75498665  0.30526251  0.20655006  1
  Bi  Bi114  1  0.04444039  0.21492798  0.77528094  1
  Bi  Bi115  1  0.39686721  0.34134067  0.65677931  1
  Bi  Bi116  1  0.57917987  0.86465945  0.76414196  1
  Bi  Bi117  1  0.93579976  0.06975665  0.97167763  1
  Bi  Bi118  1  0.38618200  0.08937935  0.87072810  1
  Bi  Bi119  1  0.11368862  0.42916264  0.65397643  1
  Bi  Bi120  1  0.07468041  0.44810214  0.34517817  1
  Bi  Bi121  1  0.29052070  0.76394879  0.53704088  1
  Bi  Bi122  1  0.05296826  0.61410764  0.70260759  1
  Bi  Bi123  1  0.98351422  0.64099828  0.37184741  1
  Bi  Bi124  1  0.80358674  0.88935130  0.20611463  1
  Bi  Bi125  1  0.09520225  0.91496241  0.34852357  1
  Bi  Bi126  1  0.46037912  0.30482380  0.92192683  1
  Bi  Bi127  1  0.61226771  0.13040283  0.11581529  1
