# generated using pymatgen
data_Ba51Fe51Bi26
_symmetry_space_group_name_H-M   'P 1'
_cell_length_a   15.86038280
_cell_length_b   16.16072789
_cell_length_c   17.11822582
_cell_angle_alpha   89.50608579
_cell_angle_beta   90.37031426
_cell_angle_gamma   91.38544877
_symmetry_Int_Tables_number   1
_chemical_formula_structural   Ba51Fe51Bi26
_chemical_formula_sum   'Ba51 Fe51 Bi26'
_cell_volume   4386.13219605
_cell_formula_units_Z   1
loop_
 _symmetry_equiv_pos_site_id
 _symmetry_equiv_pos_as_xyz
  1  'x, y, z'
loop_
 _atom_site_type_symbol
 _atom_site_label
 _atom_site_symmetry_multiplicity
 _atom_site_fract_x
 _atom_site_fract_y
 _atom_site_fract_z
 _atom_site_occupancy
  Ba  Ba0  1  -0.11115397  0.64405031  0.72489701  1
  Ba  Ba1  1  -0.01726505  0.32496711  0.22761792  1
  Ba  Ba2  1  0.76221567  0.20242398  0.89501106  1
  Ba  Ba3  1  0.69446540  0.69400269  0.04269849  1
  Ba  Ba4  1  0.19872236  0.06036033  0.54778686  1
  Ba  Ba5  1  -0.05899297  0.70009395  0.04546365  1
  Ba  Ba6  1  0.48806199  0.30583914  0.53661320  1
  Ba  Ba7  1  0.74794199  0.26295765  0.30283581  1
  Ba  Ba8  1  0.19632821  -0.04161499  0.13830315  1
  Ba  Ba9  1  0.17041571  0.20509309  0.34695159  1
  Ba  Ba10  1  0.75610604  0.26980120  0.50970552  1
  Ba  Ba11  1  0.62209550  0.87927149  0.18763447  1
  Ba  Ba12  1  0.53316656  -0.11372168  0.69824675  1
  Ba  Ba13  1  0.02585495  -0.05953990  0.70142169  1
  Ba  Ba14  1  0.05748169  0.23403403  0.76490163  1
  Ba  Ba15  1  0.19999295  0.48775850  0.26163534  1
  Ba  Ba16  1  0.46237592  0.26708800  0.30946324  1
  Ba  Ba17  1  0.81418288  0.03871988  0.21248626  1
  Ba  Ba18  1  0.29754060  -0.06385780  0.34903869  1
  Ba  Ba19  1  0.49494134  0.79905848  0.36655904  1
  Ba  Ba20  1  0.04066218  0.31324453  0.51701998  1
  Ba  Ba21  1  0.52114516  0.18997749  0.77042545  1
  Ba  Ba22  1  0.53035553  0.03563119  0.49294251  1
  Ba  Ba23  1  0.44210643  0.69715598  0.60160815  1
  Ba  Ba24  1  0.48629640  0.38157675  -0.03867513  1
  Ba  Ba25  1  0.26014723  0.34959914  0.82028694  1
  Ba  Ba26  1  0.22699920  0.72478783  0.44559080  1
  Ba  Ba27  1  -0.13232629  0.80064996  0.49863414  1
  Ba  Ba28  1  0.27059571  0.44506364  0.59854030  1
  Ba  Ba29  1  0.17798060  0.73192839  0.69260190  1
  Ba  Ba30  1  0.48988224  0.92103484  -0.03060302  1
  Ba  Ba31  1  0.25316441  0.49220008  0.02326590  1
  Ba  Ba32  1  0.04955143  0.55708317  -0.11729711  1
  Ba  Ba33  1  -0.08771458  0.56886021  0.24985001  1
  Ba  Ba34  1  0.78555364  0.86109854  0.72152113  1
  Ba  Ba35  1  0.03732536  -0.05425004  0.31492210  1
  Ba  Ba36  1  0.70903743  0.59462847  0.47277519  1
  Ba  Ba37  1  0.63843445  0.49337588  0.21293232  1
  Ba  Ba38  1  0.43429922  0.53610967  0.36032261  1
  Ba  Ba39  1  0.31065188  0.02974848  0.75677198  1
  Ba  Ba40  1  0.03431452  0.24085794  0.01020857  1
  Ba  Ba41  1  0.01668486  0.57109922  0.50536576  1
  Ba  Ba42  1  0.76396798  0.09922721  0.67868816  1
  Ba  Ba43  1  0.07129382  -0.01709939  -0.06069622  1
  Ba  Ba44  1  0.23324422  0.76961413  -0.01064496  1
  Ba  Ba45  1  0.81180122  -0.04105084  -0.02058036  1
  Ba  Ba46  1  0.50722137  0.66345862  0.86223133  1
  Ba  Ba47  1  0.45676332  0.64560756  0.13296917  1
  Ba  Ba48  1  -0.15894582  0.40999033  0.68268632  1
  Ba  Ba49  1  0.80324408  0.43300015  0.02881099  1
  Ba  Ba50  1  0.52365121  0.47694185  0.71147215  1
  Fe  Fe51  1  0.05905626  0.76716840  0.19877175  1
  Fe  Fe52  1  0.35546167  0.52410911  0.84141112  1
  Fe  Fe53  1  0.21904586  0.54162984  0.76617796  1
  Fe  Fe54  1  0.81354324  0.49227895  0.85296060  1
  Fe  Fe55  1  0.67590327  0.12159735  1.06369019  1
  Fe  Fe56  1  0.12189773  0.65149121  0.13858569  1
  Fe  Fe57  1  0.73635919  0.98736354  0.51324420  1
  Fe  Fe58  1  0.37307186  0.16219684  0.61823397  1
  Fe  Fe59  1  0.23908291  0.21972135  0.67192438  1
  Fe  Fe60  1  0.77162611  0.75435057  0.21852659  1
  Fe  Fe61  1  0.24873724  0.14984431  0.06586451  1
  Fe  Fe62  1  0.84720818  0.09995742  0.49355165  1
  Fe  Fe63  1  0.52674462  0.29874268  0.12691097  1
  Fe  Fe64  1  -0.02086859  0.01205257  0.48371845  1
  Fe  Fe65  1  0.13656819  0.14691432  0.16423176  1
  Fe  Fe66  1  0.62462962  0.18352581  0.17017126  1
  Fe  Fe67  1  0.21290864  0.77699883  0.19896808  1
  Fe  Fe68  1  0.67062119  0.31863274  0.14264403  1
  Fe  Fe69  1  0.81607292  0.86783643  0.31224279  1
  Fe  Fe70  1  0.84991322  0.97972930  0.40769303  1
  Fe  Fe71  1  0.64145913  0.25916780  1.03630733  1
  Fe  Fe72  1  0.28026294  0.64077108  0.84479982  1
  Fe  Fe73  1  0.39275473  1.08989603  0.06851694  1
  Fe  Fe74  1  0.21985154  0.16364969  0.92688940  1
  Fe  Fe75  1  0.36431845  0.28148088  0.67917282  1
  Fe  Fe76  1  0.80778862  0.62170065  0.90048504  1
  Fe  Fe77  1  0.73443658  0.07849054  0.40345270  1
  Fe  Fe78  1  0.26167506  0.27760018  0.99538792  1
  Fe  Fe79  1  0.44167839  0.00879475  0.18538959  1
  Fe  Fe80  1  0.71308449  0.55211153  0.78234074  1
  Fe  Fe81  1  0.67929249  0.67881951  0.28253391  1
  Fe  Fe82  1  0.87467197  -0.01750144  0.56307228  1
  Fe  Fe83  1  0.15370592  0.67740368  0.27190221  1
  Fe  Fe84  1  0.28404243  0.24813551  0.55342565  1
  Fe  Fe85  1  0.70202809  0.68685627  0.83494398  1
  Fe  Fe86  1  0.55596628  1.05300175  0.11024665  1
  Fe  Fe87  1  0.34613358  0.58180313  0.72592369  1
  Fe  Fe88  1  1.01872211  0.06819501  0.11773948  1
  Fe  Fe89  1  0.26101322  0.64950366  0.16199635  1
  Fe  Fe90  1  0.37671752  0.24880638  1.08574167  1
  Fe  Fe91  1  0.47756186  1.16106919  0.15908481  1
  Fe  Fe92  1  0.91610097  0.79235237  0.23539755  1
  Fe  Fe93  1  0.35913443  0.17622768  0.95143019  1
  Fe  Fe94  1  1.01676850  0.12880287  0.22775761  1
  Fe  Fe95  1  0.69637745  0.93857395  0.37919320  1
  Fe  Fe96  1  0.81414119  0.76778762  0.89253423  1
  Fe  Fe97  1  0.67647175  0.54611168  0.90749871  1
  Fe  Fe98  1  0.70117978  0.78952682  0.35835059  1
  Fe  Fe99  1  0.68784738  0.82142513  0.88429864  1
  Fe  Fe100  1  0.82514803  0.71632547  0.33372565  1
  Fe  Fe101  1  0.30952610  0.70254099  0.27186490  1
  Bi  Bi102  1  0.64462412  0.83512695  0.51344405  1
  Bi  Bi103  1  0.59027901  0.06626868  0.28987911  1
  Bi  Bi104  1  0.28835730  0.00732942  -0.04157622  1
  Bi  Bi105  1  0.66736440  0.38741665  0.83633363  1
  Bi  Bi106  1  0.93839070  0.15424566  0.36886242  1
  Bi  Bi107  1  -0.02441261  0.12827376  0.60197698  1
  Bi  Bi108  1  0.65204273  -0.00973456  -0.16381846  1
  Bi  Bi109  1  0.81299044  0.22633913  0.10124640  1
  Bi  Bi110  1  0.01230792  0.72421483  0.35742146  1
  Bi  Bi111  1  0.20542833  0.30532048  0.14676971  1
  Bi  Bi112  1  0.38343751  0.83953311  0.17693432  1
  Bi  Bi113  1  0.52934956  0.15062881  -0.02835519  1
  Bi  Bi114  1  -0.02566960  -0.09958465  0.11627291  1
  Bi  Bi115  1  0.65155499  0.66794794  0.67716301  1
  Bi  Bi116  1  0.87717381  0.42914332  0.41885692  1
  Bi  Bi117  1  0.35173873  0.79962342  0.80424031  1
  Bi  Bi118  1  0.03843542  0.50055025  0.09344262  1
  Bi  Bi119  1  0.41848253  0.42906249  0.16796662  1
  Bi  Bi120  1  0.35844931  0.89071419  0.54844187  1
  Bi  Bi121  1  0.91752552  0.07154504  0.82834285  1
  Bi  Bi122  1  -0.01152531  0.78634089  0.85584284  1
  Bi  Bi123  1  0.31627977  0.11997493  0.22368671  1
  Bi  Bi124  1  0.61123982  0.41027416  0.40188663  1
  Bi  Bi125  1  0.08565367  0.87512967  0.51371752  1
  Bi  Bi126  1  0.07274612  0.47226214  0.68695880  1
  Bi  Bi127  1  0.92844531  0.36854512  0.86991644  1
