# generated using pymatgen
data_Ba51Fe51Bi26
_symmetry_space_group_name_H-M   'P 1'
_cell_length_a   16.35206325
_cell_length_b   16.27439063
_cell_length_c   16.57495844
_cell_angle_alpha   88.18851715
_cell_angle_beta   85.69426253
_cell_angle_gamma   90.34877625
_symmetry_Int_Tables_number   1
_chemical_formula_structural   Ba51Fe51Bi26
_chemical_formula_sum   'Ba51 Fe51 Bi26'
_cell_volume   4396.11983460
_cell_formula_units_Z   1
loop_
 _symmetry_equiv_pos_site_id
 _symmetry_equiv_pos_as_xyz
  1  'x, y, z'
loop_
 _atom_site_type_symbol
 _atom_site_label
 _atom_site_symmetry_multiplicity
 _atom_site_fract_x
 _atom_site_fract_y
 _atom_site_fract_z
 _atom_site_occupancy
  Ba  Ba0  1  0.25480756  0.51740528  0.47150210  1
  Ba  Ba1  1  0.18501452  0.60251884  -0.16486153  1
  Ba  Ba2  1  0.25054443  0.73915839  0.38130732  1
  Ba  Ba3  1  0.54223175  0.10328685  -0.02604622  1
  Ba  Ba4  1  -0.05513525  0.62578485  0.43197783  1
  Ba  Ba5  1  0.57308955  0.47599563  0.33365760  1
  Ba  Ba6  1  0.05331854  0.73226065  0.04596014  1
  Ba  Ba7  1  0.31973854  0.55310641  0.18711310  1
  Ba  Ba8  1  0.29862997  0.78872476  0.62802644  1
  Ba  Ba9  1  0.53009887  0.46153085  0.71583409  1
  Ba  Ba10  1  0.50380495  0.66546866  0.53720452  1
  Ba  Ba11  1  0.19268510  -0.03669281  0.05753056  1
  Ba  Ba12  1  0.78497086  0.02423016  0.21344957  1
  Ba  Ba13  1  -0.01901744  0.15675551  0.71092996  1
  Ba  Ba14  1  -0.10384320  0.33113886  0.55458102  1
  Ba  Ba15  1  0.14702801  0.28728515  0.54618342  1
  Ba  Ba16  1  0.01599194  -0.01254346  -0.11270041  1
  Ba  Ba17  1  0.21058815  0.32876731  0.03891424  1
  Ba  Ba18  1  -0.03458484  0.50038751  -0.03905986  1
  Ba  Ba19  1  0.00810395  0.25992270  0.32091338  1
  Ba  Ba20  1  0.01664368  0.24094350  -0.06620610  1
  Ba  Ba21  1  0.31367056  0.37884122  0.81691499  1
  Ba  Ba22  1  0.04340439  0.76318405  0.71759363  1
  Ba  Ba23  1  0.34152088  0.76520329  -0.04736623  1
  Ba  Ba24  1  0.47888597  0.30417512  0.13124774  1
  Ba  Ba25  1  0.65140717  0.86110164  0.39322836  1
  Ba  Ba26  1  0.54697703  0.77026725  0.76111087  1
  Ba  Ba27  1  0.55367034  -0.02828460  0.18084738  1
  Ba  Ba28  1  0.46728022  0.50011730  -0.05717823  1
  Ba  Ba29  1  0.76302691  0.34351660  0.81949321  1
  Ba  Ba30  1  0.22272557  0.17139109  0.24000895  1
  Ba  Ba31  1  0.78341413  0.04546466  0.55486011  1
  Ba  Ba32  1  0.72717002  0.22000683  0.04466821  1
  Ba  Ba33  1  -0.10987984  0.78013832  0.24634236  1
  Ba  Ba34  1  0.28287800  0.09153795  0.85763070  1
  Ba  Ba35  1  0.36488221  0.22343191  0.64997353  1
  Ba  Ba36  1  0.71745478  0.48250274  0.01569202  1
  Ba  Ba37  1  0.04637063  0.48739744  0.21055311  1
  Ba  Ba38  1  0.46579026  0.04632487  0.47052812  1
  Ba  Ba39  1  0.36148438  0.28461556  0.40733539  1
  Ba  Ba40  1  0.03263646  0.01911712  0.30201371  1
  Ba  Ba41  1  0.56288512  0.77078406  0.01046181  1
  Ba  Ba42  1  0.77360301  0.27812408  0.27008023  1
  Ba  Ba43  1  0.86953883  0.55928972  0.73390988  1
  Ba  Ba44  1  0.70592975  -0.02355315  0.79979442  1
  Ba  Ba45  1  0.80769670  -0.11907668  -0.01578317  1
  Ba  Ba46  1  0.51247821  0.06013136  0.72000347  1
  Ba  Ba47  1  0.00888989  -0.10003831  0.51296969  1
  Ba  Ba48  1  0.63032184  0.29128846  0.51180451  1
  Ba  Ba49  1  0.77486724  0.56821663  0.23504814  1
  Ba  Ba50  1  0.34094406  -0.06165749  0.23886514  1
  Fe  Fe51  1  0.84503837  0.78170414  0.75920250  1
  Fe  Fe52  1  0.49356899  0.79237057  0.27691814  1
  Fe  Fe53  1  0.69771868  0.75133773  0.57605407  1
  Fe  Fe54  1  0.91770311  0.24510258  0.10844021  1
  Fe  Fe55  1  0.18789464  0.08543412  0.67818849  1
  Fe  Fe56  1  0.03246178  0.37481233  0.68487605  1
  Fe  Fe57  1  0.12290119  0.31506637  0.76247856  1
  Fe  Fe58  1  0.25868192  0.08704300  0.53514743  1
  Fe  Fe59  1  0.81367194  0.68529445  0.06215679  1
  Fe  Fe60  1  0.07666460  0.84682457  0.19316402  1
  Fe  Fe61  1  0.30908182  0.52084611  0.66258389  1
  Fe  Fe62  1  0.47584940  0.22383030  0.82159376  1
  Fe  Fe63  1  0.42511692  0.73550787  0.18548773  1
  Fe  Fe64  1  0.04842104  0.23924280  0.13367621  1
  Fe  Fe65  1  0.73753715  0.67578348  0.95740661  1
  Fe  Fe66  1  0.04613140  0.11479383  0.08770770  1
  Fe  Fe67  1  0.72128157  0.60656493  0.58069238  1
  Fe  Fe68  1  0.17797693  0.43779136  0.68895385  1
  Fe  Fe69  1  0.10085175  0.72229749  0.25132767  1
  Fe  Fe70  1  0.75930925  0.50133196  0.47103536  1
  Fe  Fe71  1  0.05521213  0.49623374  0.74423628  1
  Fe  Fe72  1  0.63531937  0.18772089  0.82091076  1
  Fe  Fe73  1  0.19498594  0.95252912  0.59067162  1
  Fe  Fe74  1  0.42495769  0.26909336  -0.06095023  1
  Fe  Fe75  1  0.30725776  0.40288952  0.61660440  1
  Fe  Fe76  1  1.11046428  0.41784314  0.83980475  1
  Fe  Fe77  1  0.60854995  0.15967997  0.22500654  1
  Fe  Fe78  1  0.08416261  0.97344761  0.68624450  1
  Fe  Fe79  1  0.16150136  0.11673224  0.44696200  1
  Fe  Fe80  1  0.05002290  0.80671631  0.34309505  1
  Fe  Fe81  1  0.68206429  0.66093643  0.10215726  1
  Fe  Fe82  1  0.66476367  0.18223765  0.67231170  1
  Fe  Fe83  1  0.63193204  0.51309205  0.51790459  1
  Fe  Fe84  1  0.94084204  0.13626672  0.17975436  1
  Fe  Fe85  1  0.75086316  0.83235006  0.67865320  1
  Fe  Fe86  1  0.56992740  0.69417247  0.20832963  1
  Fe  Fe87  1  0.39370216  -0.02135644  1.02620578  1
  Fe  Fe88  1  0.16007684  0.86905501  0.28372927  1
  Fe  Fe89  1  0.57955846  0.27252881  0.73570381  1
  Fe  Fe90  1  0.44862342  0.93913611  0.91497889  1
  Fe  Fe91  1  0.72575493  0.68944974  0.70468925  1
  Fe  Fe92  1  0.11016167  0.06346160  0.56542179  1
  Fe  Fe93  1  0.56342736  0.23188279  0.32241758  1
  Fe  Fe94  1  0.97881230  0.37761589  0.80716078  1
  Fe  Fe95  1  0.90466707  0.10722374  0.05256666  1
  Fe  Fe96  1  0.55792272  0.30191346  -0.11320740  1
  Fe  Fe97  1  0.76172731  0.16720603  0.74686250  1
  Fe  Fe98  1  0.20045225  0.94358967  0.74181121  1
  Fe  Fe99  1  0.73069221  0.75144593  0.83423831  1
  Fe  Fe100  1  0.30459280  0.01161701  0.65396102  1
  Fe  Fe101  1  0.05072794  0.43832016  0.41508284  1
  Bi  Bi102  1  0.45699925  0.43495470  0.52604920  1
  Bi  Bi103  1  0.24737228  0.76285600  0.15652597  1
  Bi  Bi104  1  0.20996637  -0.04055430  0.41968757  1
  Bi  Bi105  1  0.69993410  0.80976192  0.17438777  1
  Bi  Bi106  1  -0.01740076  0.13152618  0.49079477  1
  Bi  Bi107  1  0.43603331  0.13427350  0.27327304  1
  Bi  Bi108  1  0.65530617  0.59061581  0.84266494  1
  Bi  Bi109  1  0.54414369  0.55112066  0.12640277  1
  Bi  Bi110  1  0.16381682  0.83071970  0.87251898  1
  Bi  Bi111  1  0.05120077  0.50153636  0.57155910  1
  Bi  Bi112  1  0.36885890  -0.09206587  0.77687130  1
  Bi  Bi113  1  0.72960438  0.43847887  0.62916953  1
  Bi  Bi114  1  0.61910691  0.90646240  0.60192131  1
  Bi  Bi115  1  0.88691596  0.43453093  0.36320416  1
  Bi  Bi116  1  0.33907718  0.14724165  0.04957714  1
  Bi  Bi117  1  0.70327357  0.65379170  0.41779104  1
  Bi  Bi118  1  0.43582343  0.63749338  0.33407466  1
  Bi  Bi119  1  0.43117646  0.84534308  0.42427802  1
  Bi  Bi120  1  0.38771672  0.62098175  0.76688055  1
  Bi  Bi121  1  0.90267314  0.70141828  0.89906560  1
  Bi  Bi122  1  0.96991126  0.94826613  0.10665801  1
  Bi  Bi123  1  0.19039787  0.38440751  0.31935714  1
  Bi  Bi124  1  0.86846095  0.73325084  0.59447724  1
  Bi  Bi125  1  0.90847693  0.93824675  0.71019315  1
  Bi  Bi126  1  0.66829383  1.10785944  0.37971847  1
  Bi  Bi127  1  0.83463756  0.12047722  0.89362524  1
