# generated using pymatgen
data_Ba51Fe51Bi26
_symmetry_space_group_name_H-M   'P 1'
_cell_length_a   16.22988692
_cell_length_b   15.82146205
_cell_length_c   17.06953841
_cell_angle_alpha   88.15436920
_cell_angle_beta   91.24772792
_cell_angle_gamma   90.68019995
_symmetry_Int_Tables_number   1
_chemical_formula_structural   Ba51Fe51Bi26
_chemical_formula_sum   'Ba51 Fe51 Bi26'
_cell_volume   4379.53904764
_cell_formula_units_Z   1
loop_
 _symmetry_equiv_pos_site_id
 _symmetry_equiv_pos_as_xyz
  1  'x, y, z'
loop_
 _atom_site_type_symbol
 _atom_site_label
 _atom_site_symmetry_multiplicity
 _atom_site_fract_x
 _atom_site_fract_y
 _atom_site_fract_z
 _atom_site_occupancy
  Ba  Ba0  1  0.25712664  0.70521348  0.09931833  1
  Ba  Ba1  1  0.06726118  0.33140813  0.57853902  1
  Ba  Ba2  1  0.21155520  0.41434360  0.07240073  1
  Ba  Ba3  1  0.77345584  0.21634263  0.30550198  1
  Ba  Ba4  1  -0.01988860  0.11942291  0.05994886  1
  Ba  Ba5  1  0.21456147  0.18233116  -0.00313653  1
  Ba  Ba6  1  0.02707009  0.16229588  0.33077385  1
  Ba  Ba7  1  0.78183360  0.82401294  0.50311843  1
  Ba  Ba8  1  0.38631997  0.54119739  0.91579402  1
  Ba  Ba9  1  0.07052048  -0.06504306  0.20086027  1
  Ba  Ba10  1  0.52876234  0.24406972  0.53871418  1
  Ba  Ba11  1  -0.01142322  0.53918541  0.08443652  1
  Ba  Ba12  1  0.29095906  0.42448071  0.67352914  1
  Ba  Ba13  1  0.76202000  0.67259979  -0.00125202  1
  Ba  Ba14  1  0.22819483  0.13166053  0.48397094  1
  Ba  Ba15  1  0.29730085  0.05924272  0.21934158  1
  Ba  Ba16  1  0.44473973  0.24354318  0.82724121  1
  Ba  Ba17  1  0.57253666  0.75487450  0.60548642  1
  Ba  Ba18  1  0.27000653  0.36845491  0.30345990  1
  Ba  Ba19  1  0.38169913  0.73101977  0.44407494  1
  Ba  Ba20  1  0.45656832  0.02044102  0.61974651  1
  Ba  Ba21  1  0.39520810  0.77508723  0.75364820  1
  Ba  Ba22  1  0.19503200  0.83127047  0.61586349  1
  Ba  Ba23  1  0.65113836  0.59512683  0.38000085  1
  Ba  Ba24  1  0.77419719  0.47025695  0.18549187  1
  Ba  Ba25  1  0.10787580  0.46962285  0.84653981  1
  Ba  Ba26  1  -0.00058828  0.41350020  0.30697734  1
  Ba  Ba27  1  -0.01511706  0.21354443  0.80614835  1
  Ba  Ba28  1  0.77221929  0.69563183  0.76178816  1
  Ba  Ba29  1  0.03761968  0.81235403  0.80177262  1
  Ba  Ba30  1  0.70382788  0.76935885  0.22734267  1
  Ba  Ba31  1  0.45881516  0.77958895  0.22281872  1
  Ba  Ba32  1  0.59972480  0.39852276  -0.05126556  1
  Ba  Ba33  1  0.07429361  0.70761680  0.32495463  1
  Ba  Ba34  1  -0.04921495  0.57478671  0.66500631  1
  Ba  Ba35  1  0.78539314  0.15309555  0.55776873  1
  Ba  Ba36  1  -0.00855984  0.81407528  0.01497348  1
  Ba  Ba37  1  0.51327249  0.25970410  0.21847711  1
  Ba  Ba38  1  0.15504974  0.06168180  0.71152576  1
  Ba  Ba39  1  0.44299758  0.47859043  0.44190444  1
  Ba  Ba40  1  0.50753809  0.77769889  -0.02868882  1
  Ba  Ba41  1  0.51157812  0.10468232  0.00581607  1
  Ba  Ba42  1  0.60785821  0.46437727  0.68545345  1
  Ba  Ba43  1  0.55695113  -0.00366613  0.27475602  1
  Ba  Ba44  1  0.64741413  -0.03734158  0.79438088  1
  Ba  Ba45  1  0.78710830  0.25667203  0.02022658  1
  Ba  Ba46  1  0.01194995  -0.07698942  0.44319775  1
  Ba  Ba47  1  0.79392190  0.41759856  0.48791005  1
  Ba  Ba48  1  -0.10516703  -0.01117628  0.70729091  1
  Ba  Ba49  1  0.73966360  -0.04679712  0.03658176  1
  Ba  Ba50  1  0.82928087  0.44418182  -0.14339743  1
  Fe  Fe51  1  0.93274785  0.31920005  0.14857101  1
  Fe  Fe52  1  0.13457259  0.54236133  0.57034907  1
  Fe  Fe53  1  0.89559255  0.02095975  0.29143041  1
  Fe  Fe54  1  0.60730841  0.17738618  0.71668188  1
  Fe  Fe55  1  0.73632458  0.14019671  0.74405656  1
  Fe  Fe56  1  0.57215945  0.57903091  0.01827293  1
  Fe  Fe57  1  0.61431394  0.94447916  0.49522215  1
  Fe  Fe58  1  0.77992173  0.25620515  0.80438601  1
  Fe  Fe59  1  0.47513440  0.94294068  0.44634707  1
  Fe  Fe60  1  0.23204213  0.63476751  0.60633220  1
  Fe  Fe61  1  0.53824882  0.46409025  0.11360836  1
  Fe  Fe62  1  0.28830576  0.72622032  0.91535309  1
  Fe  Fe63  1  0.85649749  0.88261329  0.30013855  1
  Fe  Fe64  1  0.69998860  0.27806274  0.67958627  1
  Fe  Fe65  1  0.20955469  -0.03506031  0.37485430  1
  Fe  Fe66  1  0.51321343  0.58447928  0.22045886  1
  Fe  Fe67  1  0.46720626  0.44728197  0.25550211  1
  Fe  Fe68  1  0.32728320  0.87186799  -0.06294540  1
  Fe  Fe69  1  0.84256869  0.62845115  0.45217820  1
  Fe  Fe70  1  0.19543005  0.67348701  0.47048719  1
  Fe  Fe71  1  0.58384428  0.06628136  0.45106948  1
  Fe  Fe72  1  0.22106472  0.83992245  0.42644483  1
  Fe  Fe73  1  0.59992611  0.59451293  0.87774511  1
  Fe  Fe74  1  0.64578509  0.29560775  0.79746175  1
  Fe  Fe75  1  0.35547280  -0.07004677  0.36173440  1
  Fe  Fe76  1  0.75597247  0.98186350  0.23842125  1
  Fe  Fe77  1  0.18090941  0.84054748  0.95553042  1
  Fe  Fe78  1  0.22631571  0.81420447  0.83055405  1
  Fe  Fe79  1  0.87756436  0.92252736  0.17364032  1
  Fe  Fe80  1  0.23668160  0.57459349  0.37128961  1
  Fe  Fe81  1  1.08043914  0.67562472  0.54540755  1
  Fe  Fe82  1  0.31801108  0.94419373  0.48130512  1
  Fe  Fe83  1  0.33391569  0.03141976  -0.04975416  1
  Fe  Fe84  1  0.84425415  0.06691849  0.17763033  1
  Fe  Fe85  1  0.58375554  0.71299465  0.80929890  1
  Fe  Fe86  1  0.51083744  0.60928506  0.76859641  1
  Fe  Fe87  1  0.95712615  0.70514479  0.47171357  1
  Fe  Fe88  1  0.65810308  0.16936342  0.85778361  1
  Fe  Fe89  1  0.22834243  -0.03950855  0.01704684  1
  Fe  Fe90  1  0.05828611  0.29292769  0.15237459  1
  Fe  Fe91  1  0.23975845  -0.03643399  0.86290948  1
  Fe  Fe92  1  0.61895537  0.59601234  0.13984342  1
  Fe  Fe93  1  0.15441121  0.69588260  0.91609556  1
  Fe  Fe94  1  0.87531176  0.61195739  0.32896464  1
  Fe  Fe95  1  0.87799566  0.74764073  0.35731158  1
  Fe  Fe96  1  0.15253053  0.50702113  0.44575785  1
  Fe  Fe97  1  0.27454712  0.54764885  0.51091743  1
  Fe  Fe98  1  0.59762026  0.47393890  0.23738037  1
  Fe  Fe99  1  0.40453501  0.48328900  0.13880796  1
  Fe  Fe100  1  0.46789608  0.61024803  0.09458160  1
  Fe  Fe101  1  0.30467428  0.10121820  0.82933486  1
  Bi  Bi102  1  0.41533987  0.59579147  0.61999919  1
  Bi  Bi103  1  -0.01229415  0.53033891  0.47073264  1
  Bi  Bi104  1  0.61687874  0.36868140  0.36818902  1
  Bi  Bi105  1  0.20791388  0.26073133  0.80326154  1
  Bi  Bi106  1  0.08658319  0.00230933  -0.07796449  1
  Bi  Bi107  1  0.43333146  -0.01779739  -0.16814137  1
  Bi  Bi108  1  0.42036175  0.10685529  0.40019519  1
  Bi  Bi109  1  0.35707878  0.58341966  0.26527638  1
  Bi  Bi110  1  0.86094880  0.34437602  0.67535639  1
  Bi  Bi111  1  0.75350093  0.01438316  0.39806515  1
  Bi  Bi112  1  -0.09551830  0.73168459  0.18983928  1
  Bi  Bi113  1  0.25137448  -0.16445945  0.26660128  1
  Bi  Bi114  1  0.21476493  0.64765922  0.77110042  1
  Bi  Bi115  1  0.15360194  0.54039987  0.22776616  1
  Bi  Bi116  1  0.82895700  0.86192963  0.87575415  1
  Bi  Bi117  1  0.01026008  0.11710031  0.55014604  1
  Bi  Bi118  1  0.58175797  0.80758427  0.39977648  1
  Bi  Bi119  1  0.00466673  0.33587602  0.99313743  1
  Bi  Bi120  1  0.67863443  0.12197191  0.14719711  1
  Bi  Bi121  1  0.73476527  0.60741448  0.57656503  1
  Bi  Bi122  1  0.41340511  0.33757020  1.03975510  1
  Bi  Bi123  1  0.81824705  0.09578695  0.88685716  1
  Bi  Bi124  1  0.32885185  0.19174787  0.66051299  1
  Bi  Bi125  1  0.39120249  0.93059217  0.08136335  1
  Bi  Bi126  1  -0.03077343  0.79462653  0.61151352  1
  Bi  Bi127  1  0.96043933  0.62385048  0.89194291  1
