# generated using pymatgen
data_Ba51Fe51Bi26
_symmetry_space_group_name_H-M   'P 1'
_cell_length_a   16.54730636
_cell_length_b   16.40425191
_cell_length_c   16.29563357
_cell_angle_alpha   88.22830009
_cell_angle_beta   90.54976488
_cell_angle_gamma   91.87151652
_symmetry_Int_Tables_number   1
_chemical_formula_structural   Ba51Fe51Bi26
_chemical_formula_sum   'Ba51 Fe51 Bi26'
_cell_volume   4418.75132294
_cell_formula_units_Z   1
loop_
 _symmetry_equiv_pos_site_id
 _symmetry_equiv_pos_as_xyz
  1  'x, y, z'
loop_
 _atom_site_type_symbol
 _atom_site_label
 _atom_site_symmetry_multiplicity
 _atom_site_fract_x
 _atom_site_fract_y
 _atom_site_fract_z
 _atom_site_occupancy
  Ba  Ba0  1  0.46592241  0.32425237  0.02716689  1
  Ba  Ba1  1  0.51069532  0.19279155  0.23590529  1
  Ba  Ba2  1  0.49302428  0.15445006  0.78917329  1
  Ba  Ba3  1  0.76713608  0.58632989  0.80145313  1
  Ba  Ba4  1  0.43592665  0.44648083  0.27149009  1
  Ba  Ba5  1  0.24793074  0.60372364  0.21826238  1
  Ba  Ba6  1  0.31797892  0.41137797  0.52820258  1
  Ba  Ba7  1  0.48284968  0.66376244  0.74368520  1
  Ba  Ba8  1  -0.00138596  -0.00632170  -0.00558934  1
  Ba  Ba9  1  0.72305899  0.00450599  0.22936174  1
  Ba  Ba10  1  0.32351214  0.00760633  0.64990124  1
  Ba  Ba11  1  0.67072215  0.29781049  0.48021896  1
  Ba  Ba12  1  -0.04629845  -0.07521964  0.28476456  1
  Ba  Ba13  1  0.05583966  0.54938910  0.04805189  1
  Ba  Ba14  1  0.22207795  0.70600405  -0.12039929  1
  Ba  Ba15  1  0.79359754  -0.00715215  0.70101888  1
  Ba  Ba16  1  0.78061401  0.26070377  0.25024007  1
  Ba  Ba17  1  0.76617471  0.76609495  0.26388755  1
  Ba  Ba18  1  -0.02679680  0.01027404  0.53730981  1
  Ba  Ba19  1  0.55991540  -0.07844729  0.72832603  1
  Ba  Ba20  1  0.28116480  0.08390090  0.25534250  1
  Ba  Ba21  1  0.69419305  0.24543720  0.01117903  1
  Ba  Ba22  1  0.20077419  0.16905977  0.50151343  1
  Ba  Ba23  1  0.69155486  0.51523261  0.58634926  1
  Ba  Ba24  1  0.45595490  0.62558108  0.46910860  1
  Ba  Ba25  1  0.71954311  0.02602737  -0.04373755  1
  Ba  Ba26  1  0.21539599  0.21017057  0.03115169  1
  Ba  Ba27  1  -0.01196009  0.58093446  0.32809861  1
  Ba  Ba28  1  0.08470918  0.20594966  0.75919521  1
  Ba  Ba29  1  0.46675654  0.10790970  0.46630296  1
  Ba  Ba30  1  -0.00344102  0.67458975  0.78731471  1
  Ba  Ba31  1  -0.00141040  0.18000614  0.27878827  1
  Ba  Ba32  1  0.69913440  0.53484032  0.30823223  1
  Ba  Ba33  1  0.23628587  0.48172416  0.76030970  1
  Ba  Ba34  1  -0.03809110  0.28076483  0.02265895  1
  Ba  Ba35  1  0.30922777  0.80907342  0.40234469  1
  Ba  Ba36  1  -0.05961787  0.40133969  0.77470693  1
  Ba  Ba37  1  0.83375932  0.77608012  -0.00800338  1
  Ba  Ba38  1  0.79701191  0.47533215  0.06547405  1
  Ba  Ba39  1  0.08359471  0.47997909  0.52699610  1
  Ba  Ba40  1  0.02437796  0.75303731  0.50592223  1
  Ba  Ba41  1  0.22233824  0.77632797  0.63595522  1
  Ba  Ba42  1  0.16787296  0.37445667  0.27322289  1
  Ba  Ba43  1  0.59500590  0.89787683  0.45717981  1
  Ba  Ba44  1  0.69622648  0.28361579  0.72928482  1
  Ba  Ba45  1  0.28190185  0.83456759  0.16028578  1
  Ba  Ba46  1  0.54712272  0.56405601  0.05286462  1
  Ba  Ba47  1  -0.10372763  0.25804385  0.52682500  1
  Ba  Ba48  1  0.50344145  0.78548120  -0.04142314  1
  Ba  Ba49  1  0.46218483  0.39973199  0.77649403  1
  Ba  Ba50  1  0.26331396  -0.05271012  -0.04529391  1
  Fe  Fe51  1  0.51737446  0.37767502  0.57521966  1
  Fe  Fe52  1  0.51429425  0.11075939  0.05254558  1
  Fe  Fe53  1  0.96785401  0.80156842  0.13672158  1
  Fe  Fe54  1  0.45967033  0.78603936  0.27983723  1
  Fe  Fe55  1  0.81081263  0.68602506  0.58985359  1
  Fe  Fe56  1  0.15765815  0.92340005  0.29163186  1
  Fe  Fe57  1  0.49375503  0.63850143  0.26368835  1
  Fe  Fe58  1  0.22140546  0.41468199  0.05844529  1
  Fe  Fe59  1  0.57227920  0.73541304  0.17472161  1
  Fe  Fe60  1  0.71398430  0.86920123  0.84133649  1
  Fe  Fe61  1  0.67428514  0.41774434  0.88362417  1
  Fe  Fe62  1  0.47227776  0.31951307  0.45286398  1
  Fe  Fe63  1  0.34248721  0.47024572  0.06772289  1
  Fe  Fe64  1  0.25011251  0.60563517  0.53038060  1
  Fe  Fe65  1  0.11100353  0.03271525  0.34030712  1
  Fe  Fe66  1  0.36719657  0.51433576  0.93261965  1
  Fe  Fe67  1  0.67519468  0.74682865  0.85324244  1
  Fe  Fe68  1  0.38854740  0.13128509  1.09517974  1
  Fe  Fe69  1  0.57838945  0.86376939  0.23989238  1
  Fe  Fe70  1  0.93625665  0.85983544  0.81538651  1
  Fe  Fe71  1  0.30142805  0.38380680  0.93736827  1
  Fe  Fe72  1  0.16280766  -0.04657525  0.77431234  1
  Fe  Fe73  1  0.06180472  0.71699275  0.15261228  1
  Fe  Fe74  1  0.26227553  0.55445452  0.40805415  1
  Fe  Fe75  1  0.87605557  0.47246758  0.46993500  1
  Fe  Fe76  1  0.83858730  0.75108920  0.44797876  1
  Fe  Fe77  1  0.12626672  -0.02963961  0.64804125  1
  Fe  Fe78  1  0.39135047  0.12380950  0.96420247  1
  Fe  Fe79  1  0.53353778  0.44055582  0.45843685  1
  Fe  Fe80  1  0.11289853  0.00681422  0.19183033  1
  Fe  Fe81  1  0.54960542  0.98585658  0.12486145  1
  Fe  Fe82  1  0.57740019  0.72888174  0.31945967  1
  Fe  Fe83  1  0.41317726  -0.00352080  0.08718430  1
  Fe  Fe84  1  0.05255513  0.86204666  0.70944946  1
  Fe  Fe85  1  0.83632057  0.61357986  0.46934552  1
  Fe  Fe86  1  0.30808688  0.26674280  0.74309637  1
  Fe  Fe87  1  0.43678320  0.71212627  0.16477766  1
  Fe  Fe88  1  0.82564337  0.10041738  0.40133048  1
  Fe  Fe89  1  0.35618842  0.25121975  0.88628737  1
  Fe  Fe90  1  0.23530403  0.29512191  0.84484463  1
  Fe  Fe91  1  0.17293093  0.64840322  0.42870081  1
  Fe  Fe92  1  0.23782128  0.51962128  0.96829605  1
  Fe  Fe93  1  0.78969921  0.36903013  0.88755477  1
  Fe  Fe94  1  0.76589714  0.80634112  0.54728489  1
  Fe  Fe95  1  -0.03602839  0.38681901  0.38846381  1
  Fe  Fe96  1  0.75472967  0.08137522  0.50860519  1
  Fe  Fe97  1  0.07529859  0.87108248  0.84568948  1
  Fe  Fe98  1  0.47889505  0.85786464  0.13984156  1
  Fe  Fe99  1  0.81004012  0.79002177  0.79791221  1
  Fe  Fe100  1  0.84078635  0.40436867  0.36185126  1
  Fe  Fe101  1  0.09327525  0.86864572  0.15654908  1
  Bi  Bi102  1  -0.00005075  0.01415707  0.77112384  1
  Bi  Bi103  1  0.49665767  -0.00332635  -0.06343307  1
  Bi  Bi104  1  0.67431685  0.68740043  0.45529801  1
  Bi  Bi105  1  0.80381156  -0.07198386  0.43286151  1
  Bi  Bi106  1  0.67892955  0.74993763  0.68328439  1
  Bi  Bi107  1  0.34808539  0.64526160  0.03665786  1
  Bi  Bi108  1  0.17065270  -0.05030286  0.47954461  1
  Bi  Bi109  1  0.40669459  0.24226484  0.61194092  1
  Bi  Bi110  1  0.65852914  0.85809073  0.08837606  1
  Bi  Bi111  1  0.45188155  -0.03649963  0.27864176  1
  Bi  Bi112  1  0.06586913  0.78459038  -0.00631626  1
  Bi  Bi113  1  0.26624309  0.11836653  0.82814217  1
  Bi  Bi114  1  0.11528538  0.75901391  0.30437615  1
  Bi  Bi115  1  0.63243014  0.10886813  0.61818763  1
  Bi  Bi116  1  0.85053980  0.20870183  0.85265113  1
  Bi  Bi117  1  0.62140009  0.38612403  0.16704413  1
  Bi  Bi118  1  0.89477226  0.64658084  0.15151255  1
  Bi  Bi119  1  0.89807582  0.81746436  0.65414513  1
  Bi  Bi120  1  0.36551819  0.83865802  0.78956666  1
  Bi  Bi121  1  0.33728111  0.26628706  0.35608311  1
  Bi  Bi122  1  0.11725564  0.38530743  0.91440145  1
  Bi  Bi123  1  0.95713248  0.39192208  0.21385710  1
  Bi  Bi124  1  0.86561544  0.11063336  0.11407263  1
  Bi  Bi125  1  0.91092220  0.55424622  0.62071225  1
  Bi  Bi126  1  0.43090838  0.81299440  0.58520369  1
  Bi  Bi127  1  0.65788771  0.12341308  0.37561186  1
