# generated using pymatgen
data_Ba51Fe51Bi26
_symmetry_space_group_name_H-M   'P 1'
_cell_length_a   15.75358546
_cell_length_b   16.83287906
_cell_length_c   16.41364286
_cell_angle_alpha   92.43476481
_cell_angle_beta   90.18920506
_cell_angle_gamma   90.54091521
_symmetry_Int_Tables_number   1
_chemical_formula_structural   Ba51Fe51Bi26
_chemical_formula_sum   'Ba51 Fe51 Bi26'
_cell_volume   4348.38727822
_cell_formula_units_Z   1
loop_
 _symmetry_equiv_pos_site_id
 _symmetry_equiv_pos_as_xyz
  1  'x, y, z'
loop_
 _atom_site_type_symbol
 _atom_site_label
 _atom_site_symmetry_multiplicity
 _atom_site_fract_x
 _atom_site_fract_y
 _atom_site_fract_z
 _atom_site_occupancy
  Ba  Ba0  1  -0.00537117  0.60715423  0.81106649  1
  Ba  Ba1  1  0.00576838  0.04941988  0.75762514  1
  Ba  Ba2  1  0.55001759  0.22993964  0.23774050  1
  Ba  Ba3  1  0.17315448  0.10793236  0.54027869  1
  Ba  Ba4  1  0.01724542  0.08058658  0.28772040  1
  Ba  Ba5  1  0.65309285  0.38590421  -0.02734306  1
  Ba  Ba6  1  0.28666450  0.13880677  0.33516302  1
  Ba  Ba7  1  0.32439885  0.08850110  0.72779554  1
  Ba  Ba8  1  0.65075431  0.08490606  0.02935137  1
  Ba  Ba9  1  0.31719082  0.60949194  0.09312425  1
  Ba  Ba10  1  0.71255622  0.64233598  -0.04690922  1
  Ba  Ba11  1  0.45438616  0.46313711  0.23744495  1
  Ba  Ba12  1  0.20429233  0.18842676  0.03918920  1
  Ba  Ba13  1  -0.04266048  0.87175915  0.60486102  1
  Ba  Ba14  1  0.19445288  0.73260959  0.75443463  1
  Ba  Ba15  1  -0.14969418  0.40992899  0.44605844  1
  Ba  Ba16  1  -0.08774046  0.55741816  0.07351017  1
  Ba  Ba17  1  0.40898136  0.75857362  0.29844912  1
  Ba  Ba18  1  0.23919622  0.51029284  0.56879115  1
  Ba  Ba19  1  0.11751957  0.46078268  -0.01938582  1
  Ba  Ba20  1  0.68071962  0.50256304  0.75548284  1
  Ba  Ba21  1  0.01744957  -0.12082057  0.09472799  1
  Ba  Ba22  1  0.80751791  0.75600905  0.77122025  1
  Ba  Ba23  1  0.30288299  -0.01906165  0.14031252  1
  Ba  Ba24  1  0.19073222  -0.05961212  0.89013172  1
  Ba  Ba25  1  0.43386206  0.43129750  0.70231807  1
  Ba  Ba26  1  0.44177013  0.86770378  -0.05471520  1
  Ba  Ba27  1  0.27483159  0.75242668  0.52655194  1
  Ba  Ba28  1  -0.08325350  0.27842341  0.02517487  1
  Ba  Ba29  1  0.57399457  0.22075895  0.74090985  1
  Ba  Ba30  1  0.26865758  0.36918956  0.36131939  1
  Ba  Ba31  1  0.46649674  0.25067369  0.50091315  1
  Ba  Ba32  1  0.59410210  0.76345820  0.13012766  1
  Ba  Ba33  1  0.51512128  0.82707982  0.53049239  1
  Ba  Ba34  1  0.07936838  0.34082632  0.22606380  1
  Ba  Ba35  1  0.55314746  0.74941804  0.76678083  1
  Ba  Ba36  1  0.71137387  0.20826536  0.51964505  1
  Ba  Ba37  1  0.71877040  0.48371417  0.23467766  1
  Ba  Ba38  1  0.52388347  0.01614181  0.35814794  1
  Ba  Ba39  1  -0.04786655  0.20013237  0.54287812  1
  Ba  Ba40  1  0.00144511  0.63348219  0.46987474  1
  Ba  Ba41  1  0.00004056  0.71212743  0.24480244  1
  Ba  Ba42  1  0.16265791  -0.09384381  0.38627463  1
  Ba  Ba43  1  0.85516142  0.26246638  0.78249158  1
  Ba  Ba44  1  0.33446644  0.33293201  -0.10867445  1
  Ba  Ba45  1  0.51198472  0.53915058  0.48611808  1
  Ba  Ba46  1  0.56572190  -0.02334863  0.77014971  1
  Ba  Ba47  1  0.73729861  0.68366442  0.48693382  1
  Ba  Ba48  1  0.01362849  0.40663652  0.67425317  1
  Ba  Ba49  1  0.78625838  -0.05950905  0.21857409  1
  Ba  Ba50  1  0.77144255  -0.01495451  0.46341098  1
  Fe  Fe51  1  0.47425678  0.59024069  0.81191207  1
  Fe  Fe52  1  0.74534448  0.69991158  0.25150758  1
  Fe  Fe53  1  0.25470895  0.74391374  0.94641494  1
  Fe  Fe54  1  0.19937874  0.81763962  0.04736272  1
  Fe  Fe55  1  0.36731490  0.05249490  0.50016383  1
  Fe  Fe56  1  0.81218728  0.96607088  0.00163578  1
  Fe  Fe57  1  0.37607277  0.68558155  0.89279405  1
  Fe  Fe58  1  0.61881977  0.36845373  0.58677562  1
  Fe  Fe59  1  0.81027963  0.77907039  0.33448998  1
  Fe  Fe60  1  0.23034352  0.35857818  0.67175841  1
  Fe  Fe61  1  0.69349199  0.46881791  0.55351685  1
  Fe  Fe62  1  0.39588977  -0.03638779  0.59073410  1
  Fe  Fe63  1  0.82601948  0.09331833  0.65958096  1
  Fe  Fe64  1  0.11798982  0.53314279  0.33471068  1
  Fe  Fe65  1  0.70228765  0.12915385  0.33344269  1
  Fe  Fe66  1  0.26560768  0.94488466  0.54931338  1
  Fe  Fe67  1  0.77014447  0.26620896  0.31806840  1
  Fe  Fe68  1  0.22763898  0.51064722  0.23228456  1
  Fe  Fe69  1  0.23292178  0.61176489  0.90229182  1
  Fe  Fe70  1  0.36184640  0.53646525  0.90917079  1
  Fe  Fe71  1  0.82808648  0.94744885  0.85566675  1
  Fe  Fe72  1  -0.00020179  0.12216621  0.93653130  1
  Fe  Fe73  1  0.33141430  0.59648147  0.79173166  1
  Fe  Fe74  1  0.88905308  0.21418593  0.22083062  1
  Fe  Fe75  1  0.09854179  0.54212074  0.19323027  1
  Fe  Fe76  1  0.32659633  0.79275669  0.07392704  1
  Fe  Fe77  1  0.13878967  0.30519805  0.54769375  1
  Fe  Fe78  1  0.08487793  0.26095926  0.41722382  1
  Fe  Fe79  1  0.34545148  0.24858073  0.17957449  1
  Fe  Fe80  1  0.50356394  0.50896482  0.91085086  1
  Fe  Fe81  1  0.93429935  0.73225804  0.96330716  1
  Fe  Fe82  1  0.76067439  0.14145029  0.21765442  1
  Fe  Fe83  1  0.94260099  0.25950302  0.35318865  1
  Fe  Fe84  1  0.05253592  0.05090729  0.02332743  1
  Fe  Fe85  1  0.76331312  0.38163395  0.62399796  1
  Fe  Fe86  1  0.20147887  0.92323304  0.66206965  1
  Fe  Fe87  1  0.42378170  0.30376975  0.08863165  1
  Fe  Fe88  1  0.84002833  0.14999104  0.35194794  1
  Fe  Fe89  1  0.40993595  0.16664423  0.08633993  1
  Fe  Fe90  1  0.87311789  0.34305465  0.25162536  1
  Fe  Fe91  1  0.80923442  0.97547712  0.71712008  1
  Fe  Fe92  1  0.17575317  0.24306289  0.67245665  1
  Fe  Fe93  1  0.70194179  0.04438704  0.64555833  1
  Fe  Fe94  1  0.86051629  0.84297792  -0.04387431  1
  Fe  Fe95  1  0.27773675  0.28420421  0.55251995  1
  Fe  Fe96  1  0.36154486  0.93457191  0.44038653  1
  Fe  Fe97  1  0.33048243  0.26564276  0.67501691  1
  Fe  Fe98  1  0.95734924  -0.02557769  0.93867205  1
  Fe  Fe99  1  0.18810218  0.63924736  0.28004752  1
  Fe  Fe100  1  0.49379575  0.63764871  -0.05138509  1
  Fe  Fe101  1  0.86274294  0.08119789  0.93336051  1
  Bi  Bi102  1  0.09907296  0.67659237  0.00144661  1
  Bi  Bi103  1  0.27421994  0.39017386  0.11521493  1
  Bi  Bi104  1  0.51080904  0.22860265  -0.03932418  1
  Bi  Bi105  1  0.53621589  0.06511403  0.57568286  1
  Bi  Bi106  1  0.35877695  0.87483113  0.72346060  1
  Bi  Bi107  1  0.67605833  0.86703877  -0.06806712  1
  Bi  Bi108  1  0.73610972  0.28616374  0.14297023  1
  Bi  Bi109  1  -0.05545424  0.50716967  0.27804741  1
  Bi  Bi110  1  0.62691685  0.37241131  0.40730451  1
  Bi  Bi111  1  0.89590905  0.08338534  0.10146879  1
  Bi  Bi112  1  0.73779287  0.09842513  0.81802085  1
  Bi  Bi113  1  0.21147484  0.79167213  0.21101871  1
  Bi  Bi114  1  0.20096368  0.48648031  0.78467513  1
  Bi  Bi115  1  0.31433843  0.57980560  0.37580949  1
  Bi  Bi116  1  0.82852659  0.75182316  0.10796643  1
  Bi  Bi117  1  0.41006980  0.63674286  0.65024004  1
  Bi  Bi118  1  0.84747383  0.55000035  0.62066402  1
  Bi  Bi119  1  0.36589273  0.06590436  0.94918233  1
  Bi  Bi120  1  0.71466410  0.86500089  0.62399807  1
  Bi  Bi121  1  0.07051278  0.42351117  0.45346455  1
  Bi  Bi122  1  0.99798182  0.83837161  0.83932083  1
  Bi  Bi123  1  0.64296536  0.83841846  0.34478483  1
  Bi  Bi124  1  0.59353344  0.63662186  0.31581561  1
  Bi  Bi125  1  0.55487362  0.55017734  0.07198018  1
  Bi  Bi126  1  0.86787144  0.44976717  0.88858095  1
  Bi  Bi127  1  -0.05512767  0.87637661  0.38277868  1
