# generated using pymatgen
data_Ba51Fe51Bi26
_symmetry_space_group_name_H-M   'P 1'
_cell_length_a   16.10422426
_cell_length_b   16.43139201
_cell_length_c   16.37422115
_cell_angle_alpha   86.40464873
_cell_angle_beta   92.01337870
_cell_angle_gamma   91.35965440
_symmetry_Int_Tables_number   1
_chemical_formula_structural   Ba51Fe51Bi26
_chemical_formula_sum   'Ba51 Fe51 Bi26'
_cell_volume   4320.65764982
_cell_formula_units_Z   1
loop_
 _symmetry_equiv_pos_site_id
 _symmetry_equiv_pos_as_xyz
  1  'x, y, z'
loop_
 _atom_site_type_symbol
 _atom_site_label
 _atom_site_symmetry_multiplicity
 _atom_site_fract_x
 _atom_site_fract_y
 _atom_site_fract_z
 _atom_site_occupancy
  Ba  Ba0  1  0.59627358  0.21202165  0.02301955  1
  Ba  Ba1  1  0.22587930  0.58001818  0.18880669  1
  Ba  Ba2  1  0.97010928  0.04637181  0.26021907  1
  Ba  Ba3  1  0.28812192  0.28455743  0.75760307  1
  Ba  Ba4  1  0.14730586  0.75168191  0.52385753  1
  Ba  Ba5  1  -0.04825421  0.08433685  0.01944917  1
  Ba  Ba6  1  0.03283813  0.54485121  0.52833480  1
  Ba  Ba7  1  -0.04078818  0.51626167  0.28835821  1
  Ba  Ba8  1  0.45781975  0.00877391  0.03680283  1
  Ba  Ba9  1  -0.03415574  0.74783448  0.78216297  1
  Ba  Ba10  1  0.23101456  0.96260278  0.33875679  1
  Ba  Ba11  1  0.34643630  0.24889826  -0.00884608  1
  Ba  Ba12  1  0.28638023  0.14012056  0.49693345  1
  Ba  Ba13  1  -0.00665972  0.03995240  0.75630144  1
  Ba  Ba14  1  0.64460077  0.68510494  0.58063507  1
  Ba  Ba15  1  0.48645960  0.67597342  -0.07385079  1
  Ba  Ba16  1  0.31112989  0.34381818  0.26018792  1
  Ba  Ba17  1  0.61067080  0.05645613  0.22705754  1
  Ba  Ba18  1  0.05192129  0.31773326  0.19266558  1
  Ba  Ba19  1  0.73876585  0.48148227  0.01195309  1
  Ba  Ba20  1  -0.00697059  0.76008449  0.24364092  1
  Ba  Ba21  1  0.64972808  0.44159326  0.72163228  1
  Ba  Ba22  1  0.04836851  0.26734828  -0.16424648  1
  Ba  Ba23  1  0.30301188  0.83827669  0.15062559  1
  Ba  Ba24  1  0.77193616  0.84685614  0.45922803  1
  Ba  Ba25  1  0.51350406  0.41400129  -0.08747455  1
  Ba  Ba26  1  0.73060861  0.81237931  0.22277761  1
  Ba  Ba27  1  0.41292950  -0.08842884  0.78878996  1
  Ba  Ba28  1  0.53304441  -0.05546697  0.43473545  1
  Ba  Ba29  1  0.68944578  -0.05712467  -0.00137551  1
  Ba  Ba30  1  0.56405678  0.26997602  0.33223765  1
  Ba  Ba31  1  0.22356955  0.02801934  -0.01793854  1
  Ba  Ba32  1  0.13092382  0.43189848  -0.00690964  1
  Ba  Ba33  1  0.33274109  0.60205386  0.57961509  1
  Ba  Ba34  1  0.79750007  0.71235620  -0.03101183  1
  Ba  Ba35  1  0.47362900  0.65932061  0.17061173  1
  Ba  Ba36  1  0.70516636  0.54595572  0.26029800  1
  Ba  Ba37  1  0.72135263  -0.13656795  0.75622279  1
  Ba  Ba38  1  0.21950014  0.38645517  0.56071391  1
  Ba  Ba39  1  0.84700368  0.07465866  0.48913006  1
  Ba  Ba40  1  -0.05932768  0.28289082  0.57632477  1
  Ba  Ba41  1  0.77781038  0.25116815  -0.14760723  1
  Ba  Ba42  1  0.51951732  0.50133157  0.48057409  1
  Ba  Ba43  1  -0.10548374  0.51398639  0.77296645  1
  Ba  Ba44  1  0.12839381  -0.03399221  0.58553717  1
  Ba  Ba45  1  0.37876493  0.76205210  0.40441977  1
  Ba  Ba46  1  0.47297133  0.10026355  0.65160630  1
  Ba  Ba47  1  0.08316571  0.82594556  -0.02940038  1
  Ba  Ba48  1  0.78143830  0.47387994  0.51265076  1
  Ba  Ba49  1  0.29014005  0.53714282  0.85369653  1
  Ba  Ba50  1  0.80276229  0.28011316  0.19587649  1
  Fe  Fe51  1  -0.01874684  0.67436814  0.05076902  1
  Fe  Fe52  1  0.88517701  0.59745400  0.11359146  1
  Fe  Fe53  1  0.42585127  0.18553883  0.16826729  1
  Fe  Fe54  1  0.48316540  0.29641600  0.75627202  1
  Fe  Fe55  1  0.49742030  0.63049778  0.71293139  1
  Fe  Fe56  1  0.32388900  0.47196114  0.40741582  1
  Fe  Fe57  1  0.23953145  0.67241764  0.72093631  1
  Fe  Fe58  1  0.48827075  0.33373648  0.61431065  1
  Fe  Fe59  1  0.53991517  0.75636275  0.73613915  1
  Fe  Fe60  1  0.27160168  1.18586297  0.16558621  1
  Fe  Fe61  1  0.59785167  0.25570151  0.67944314  1
  Fe  Fe62  1  0.63868161  0.33318177  0.55940210  1
  Fe  Fe63  1  0.10581333  0.62822003  0.72858559  1
  Fe  Fe64  1  0.94017553  0.75263463  0.53008413  1
  Fe  Fe65  1  1.18102650  0.08565614  0.16440742  1
  Fe  Fe66  1  0.86633229  0.36576942  0.37809921  1
  Fe  Fe67  1  0.43985294  0.76725763  0.62414028  1
  Fe  Fe68  1  0.53006965  0.46753329  0.10174797  1
  Fe  Fe69  1  0.45158770  0.18004809  0.84766330  1
  Fe  Fe70  1  0.95875502  0.55913956  0.97272818  1
  Fe  Fe71  1  0.76052613  0.11654320  0.08873219  1
  Fe  Fe72  1  0.78560283  0.11885725  0.66911960  1
  Fe  Fe73  1  0.66808011  0.13293943  0.73057357  1
  Fe  Fe74  1  0.33981830  0.09498624  0.82699609  1
  Fe  Fe75  1  0.19071151  0.10446047  0.79769318  1
  Fe  Fe76  1  0.53482187  0.86578993  0.63220145  1
  Fe  Fe77  1  0.24895017  0.58172140  0.40026582  1
  Fe  Fe78  1  0.83420580  0.74367143  0.63085762  1
  Fe  Fe79  1  0.42634818  0.95989630  0.24527893  1
  Fe  Fe80  1  0.66336568  0.17172271  0.57517980  1
  Fe  Fe81  1  0.93185893  0.47734958  0.09397686  1
  Fe  Fe82  1  0.29514590  0.79673390  0.66919418  1
  Fe  Fe83  1  0.60814080  0.37543348  0.15544059  1
  Fe  Fe84  1  0.15644250  0.77799406  0.72624633  1
  Fe  Fe85  1  0.15624743  0.68504710  0.85558519  1
  Fe  Fe86  1  0.27529855  0.76856505  0.82546138  1
  Fe  Fe87  1  0.27066321  0.06788500  0.70769487  1
  Fe  Fe88  1  0.74396210  0.25884425  0.64596298  1
  Fe  Fe89  1  0.03798705  0.56645329  0.11104553  1
  Fe  Fe90  1  0.58296139  0.22248290  0.81817662  1
  Fe  Fe91  1  0.50363163  0.85639028  0.25269773  1
  Fe  Fe92  1  0.38875201  0.71086631  0.75275302  1
  Fe  Fe93  1  0.79791673  1.01000515  0.15091785  1
  Fe  Fe94  1  0.54128288  0.24523961  0.52848512  1
  Fe  Fe95  1  0.10383037  0.62584755  0.98638132  1
  Fe  Fe96  1  0.33970950  1.06402922  0.17367856  1
  Fe  Fe97  1  0.06206909  0.57407957  0.85930819  1
  Fe  Fe98  1  0.87211715  0.63847034  0.57752613  1
  Fe  Fe99  1  0.37677096  0.57304249  0.33451602  1
  Fe  Fe100  1  0.88319330  0.90944383  0.90906548  1
  Fe  Fe101  1  0.47696885  0.32898917  0.13765079  1
  Bi  Bi102  1  0.49745390  0.46745458  0.26642265  1
  Bi  Bi103  1  0.10655676  0.45725076  0.73791568  1
  Bi  Bi104  1  0.39722693  0.32098086  0.46871909  1
  Bi  Bi105  1  0.27147764  0.70105124  0.99411528  1
  Bi  Bi106  1  0.74706217  0.26940807  0.45312173  1
  Bi  Bi107  1  0.11049197  -0.06697169  0.15190162  1
  Bi  Bi108  1  -0.08398075  0.36345170  -0.02045495  1
  Bi  Bi109  1  0.56812302  0.05685680  0.85517411  1
  Bi  Bi110  1  0.18955777  -0.07139737  0.79388039  1
  Bi  Bi111  1  -0.08334863  -0.10643123  0.62201201  1
  Bi  Bi112  1  0.43232339  0.45813514  0.70633229  1
  Bi  Bi113  1  0.35657464  0.91594732  0.55856607  1
  Bi  Bi114  1  0.41644185  0.10449801  0.32460257  1
  Bi  Bi115  1  0.14995508  0.44785945  0.36221869  1
  Bi  Bi116  1  0.13044606  0.18089121  0.64591655  1
  Bi  Bi117  1  0.65807560  0.63641530  0.80601360  1
  Bi  Bi118  1  0.17024593  0.16644334  0.30567984  1
  Bi  Bi119  1  0.88301531  0.87945600  0.07812495  1
  Bi  Bi120  1  0.13921469  0.20877611  0.03851383  1
  Bi  Bi121  1  0.85265598  0.65683582  0.40315306  1
  Bi  Bi122  1  -0.00346573  0.88586904  0.41828643  1
  Bi  Bi123  1  0.95272459  0.23044135  0.36508724  1
  Bi  Bi124  1  0.58384956  0.73158496  0.35620727  1
  Bi  Bi125  1  0.66328136  0.00141949  0.60015717  1
  Bi  Bi126  1  0.36073238  0.45876971  0.06027010  1
  Bi  Bi127  1  0.80263485  0.04418750  0.83852395  1
