# generated using pymatgen
data_Ba51Fe51Bi26
_symmetry_space_group_name_H-M   'P 1'
_cell_length_a   16.22599088
_cell_length_b   16.69528984
_cell_length_c   16.35939482
_cell_angle_alpha   87.67541234
_cell_angle_beta   90.99606574
_cell_angle_gamma   91.29909369
_symmetry_Int_Tables_number   1
_chemical_formula_structural   Ba51Fe51Bi26
_chemical_formula_sum   'Ba51 Fe51 Bi26'
_cell_volume   4426.33468911
_cell_formula_units_Z   1
loop_
 _symmetry_equiv_pos_site_id
 _symmetry_equiv_pos_as_xyz
  1  'x, y, z'
loop_
 _atom_site_type_symbol
 _atom_site_label
 _atom_site_symmetry_multiplicity
 _atom_site_fract_x
 _atom_site_fract_y
 _atom_site_fract_z
 _atom_site_occupancy
  Ba  Ba0  1  0.04165410  0.02942633  0.71851526  1
  Ba  Ba1  1  0.21300377  0.70810991  0.21613283  1
  Ba  Ba2  1  0.80368908  0.07150540  0.79348161  1
  Ba  Ba3  1  0.86249529  0.25697229  -0.02123213  1
  Ba  Ba4  1  0.75402693  0.84821231  0.02574576  1
  Ba  Ba5  1  0.79177236  0.57489744  0.70104777  1
  Ba  Ba6  1  0.53391699  0.49348028  0.69947321  1
  Ba  Ba7  1  -0.01164516  0.26157295  0.73649594  1
  Ba  Ba8  1  0.75882985  0.20415024  0.23320733  1
  Ba  Ba9  1  0.68199276  0.29583561  0.78653881  1
  Ba  Ba10  1  0.05645185  0.77545335  0.77192074  1
  Ba  Ba11  1  -0.03740804  0.60532045  0.29225121  1
  Ba  Ba12  1  -0.04048375  -0.01455358  0.45375323  1
  Ba  Ba13  1  0.42573536  0.42610802  0.28424486  1
  Ba  Ba14  1  0.31260829  0.18969370  0.75098134  1
  Ba  Ba15  1  0.28826507  0.55908896  0.44587031  1
  Ba  Ba16  1  0.32546332  0.68988882  0.74111283  1
  Ba  Ba17  1  0.27600516  0.49688154  -0.07841026  1
  Ba  Ba18  1  0.48333444  -0.03016004  0.21842269  1
  Ba  Ba19  1  0.05378432  0.45324264  0.50573687  1
  Ba  Ba20  1  0.22645270  0.23592021  0.24303116  1
  Ba  Ba21  1  0.23622040  0.80415164  0.50158824  1
  Ba  Ba22  1  0.29522644  0.23722411  -0.00110839  1
  Ba  Ba23  1  0.07103077  0.51991846  0.80536549  1
  Ba  Ba24  1  -0.00115033  0.38620500  0.19405837  1
  Ba  Ba25  1  0.00792295  0.77465021  0.07630989  1
  Ba  Ba26  1  0.76831333  0.75609828  0.49231680  1
  Ba  Ba27  1  0.54398800  0.20575381  0.50123239  1
  Ba  Ba28  1  0.22808991  -0.04442945  0.30327410  1
  Ba  Ba29  1  0.23642692  0.48446274  0.15505781  1
  Ba  Ba30  1  0.52153659  0.38086329  -0.00734788  1
  Ba  Ba31  1  0.75684096  0.84345009  0.78076627  1
  Ba  Ba32  1  0.28533831  0.27433954  0.47228080  1
  Ba  Ba33  1  0.03265308  0.06695381  0.22713257  1
  Ba  Ba34  1  0.31839275  0.04254506  0.56231726  1
  Ba  Ba35  1  0.26105489  -0.05557790  0.79477967  1
  Ba  Ba36  1  0.60101387  0.61703051  0.06398832  1
  Ba  Ba37  1  0.72472347  0.37001773  0.51907260  1
  Ba  Ba38  1  0.00790647  0.71128559  0.51947945  1
  Ba  Ba39  1  0.65534169  0.06774364  0.00016291  1
  Ba  Ba40  1  0.37022496  0.71393640  0.01855468  1
  Ba  Ba41  1  0.63668196  0.77255403  0.27191126  1
  Ba  Ba42  1  0.70446025  -0.02086101  0.55031944  1
  Ba  Ba43  1  0.85406917  0.57214589  -0.02404757  1
  Ba  Ba44  1  -0.02334377  0.22967626  0.47564821  1
  Ba  Ba45  1  0.28058409  0.41862730  0.67227830  1
  Ba  Ba46  1  -0.12416530  0.86620535  0.25177215  1
  Ba  Ba47  1  0.70889825  0.51886900  0.31611551  1
  Ba  Ba48  1  0.50234315  0.73632874  0.47346203  1
  Ba  Ba49  1  0.55912340  0.75375488  0.70638839  1
  Ba  Ba50  1  0.41498327  -0.00477198  -0.01174779  1
  Fe  Fe51  1  0.64007602  0.64231537  0.85747683  1
  Fe  Fe52  1  0.52132941  0.04100998  0.41017660  1
  Fe  Fe53  1  0.79289530  0.03252119  0.34462926  1
  Fe  Fe54  1  0.13729077  0.51920521  0.31744529  1
  Fe  Fe55  1  0.46462226  0.06092864  0.79481864  1
  Fe  Fe56  1  0.51963049  0.26791807  0.18064212  1
  Fe  Fe57  1  0.45719325  0.31442580  0.65469103  1
  Fe  Fe58  1  0.08720979  0.96526032  0.93108502  1
  Fe  Fe59  1  0.19967709  0.68591145  0.88935714  1
  Fe  Fe60  1  0.12177182  0.31663143  0.90211615  1
  Fe  Fe61  1  0.85549955  1.03146766  0.11121239  1
  Fe  Fe62  1  -0.00672765  0.87663643  0.61207983  1
  Fe  Fe63  1  0.44753538  0.23902776  0.29456340  1
  Fe  Fe64  1  0.52845372  0.15258133  0.12812402  1
  Fe  Fe65  1  0.98698338  0.07008614  0.92247086  1
  Fe  Fe66  1  0.76847505  0.19074479  0.61668009  1
  Fe  Fe67  1  0.85541328  0.09759292  0.60503271  1
  Fe  Fe68  1  0.88203805  0.81706883  0.63874823  1
  Fe  Fe69  1  0.64969427  0.13259100  0.66711218  1
  Fe  Fe70  1  0.57866658  0.92004103  0.40282620  1
  Fe  Fe71  1  0.50917641  0.07295556  0.65763315  1
  Fe  Fe72  1  0.15028197  0.26861646  0.62054587  1
  Fe  Fe73  1  0.40811066  0.15967737  0.18814535  1
  Fe  Fe74  1  0.65080885  0.05543759  0.35221234  1
  Fe  Fe75  1  -0.01444967  -0.02767154  0.04891148  1
  Fe  Fe76  1  0.60121850  0.09636457  0.80098800  1
  Fe  Fe77  1  0.46335560  0.31916497  0.78365923  1
  Fe  Fe78  1  0.13598303  0.95210152  0.07396407  1
  Fe  Fe79  1  0.42856945  0.93738167  0.41021897  1
  Fe  Fe80  1  1.07482338  0.66516712  0.93507322  1
  Fe  Fe81  1  0.53055353  0.60174097  0.27576206  1
  Fe  Fe82  1  0.17961628  0.65444533  0.02079266  1
  Fe  Fe83  1  0.60660867  0.98823885  0.71409341  1
  Fe  Fe84  1  0.95044248  0.11394726  0.05802596  1
  Fe  Fe85  1  0.88005888  0.95276077  0.63752682  1
  Fe  Fe86  1  0.17199546  0.40218651  0.33285092  1
  Fe  Fe87  1  0.50968758  0.55693264  0.40511463  1
  Fe  Fe88  1  0.51720878  0.19792530  0.72344025  1
  Fe  Fe89  1  0.71422801  0.92569782  0.36284142  1
  Fe  Fe90  1  0.13464603  0.38774952  0.01133253  1
  Fe  Fe91  1  0.41078880  0.63944116  0.32123906  1
  Fe  Fe92  1  0.09748838  1.08421083  0.02970573  1
  Fe  Fe93  1  0.56472186  0.95262978  0.83823286  1
  Fe  Fe94  1  0.20877246  1.02833424  0.96467763  1
  Fe  Fe95  1  1.01191483  0.38791859  -0.04729491  1
  Fe  Fe96  1  0.54751353  0.14735398  0.28220116  1
  Fe  Fe97  1  0.85988955  1.02388215  0.97859026  1
  Fe  Fe98  1  0.46340920  0.94626979  0.72683196  1
  Fe  Fe99  1  0.45934070  0.72311228  0.20219594  1
  Fe  Fe100  1  0.40529822  0.60165205  0.19242781  1
  Fe  Fe101  1  0.14300200  0.15033806  0.58732515  1
  Bi  Bi102  1  0.43971272  -0.16223821  0.85233430  1
  Bi  Bi103  1  0.06988065  0.24318532  0.06912604  1
  Bi  Bi104  1  0.71156095  -0.00906355  0.19925103  1
  Bi  Bi105  1  0.49608226  -0.07387281  0.56485696  1
  Bi  Bi106  1  0.05683394  0.53409856  0.04426248  1
  Bi  Bi107  1  0.37225912  0.80361225  0.32322803  1
  Bi  Bi108  1  0.49673203  0.19234999  0.90205494  1
  Bi  Bi109  1  0.44588843  0.41800179  0.51202507  1
  Bi  Bi110  1  0.18989628  0.83065541  -0.02909836  1
  Bi  Bi111  1  -0.06793151  -0.09617897  -0.10953282  1
  Bi  Bi112  1  0.37630475  0.10501001  0.36190118  1
  Bi  Bi113  1  0.26153346  0.06454135  0.12360042  1
  Bi  Bi114  1  0.77310562  0.15613936  0.45217493  1
  Bi  Bi115  1  0.88474895  0.41450765  0.83284972  1
  Bi  Bi116  1  0.54359105  0.82426834  0.08186912  1
  Bi  Bi117  1  0.06699686  0.81367307  0.33376512  1
  Bi  Bi118  1  0.13418801  0.14956926  0.86693741  1
  Bi  Bi119  1  0.63732874  0.58250606  0.52705179  1
  Bi  Bi120  1  0.86167258  0.55482426  0.48933625  1
  Bi  Bi121  1  0.14229773  0.10966291  0.42336573  1
  Bi  Bi122  1  0.16778523  0.60853303  0.62126146  1
  Bi  Bi123  1  0.60436524  0.31498435  0.32064216  1
  Bi  Bi124  1  0.88168827  0.39490984  0.36701887  1
  Bi  Bi125  1  0.67683759  0.48594414  0.88244920  1
  Bi  Bi126  1  0.80326857  0.67904558  0.15881844  1
  Bi  Bi127  1  0.47590646  0.59120478  0.87819487  1
