# generated using pymatgen
data_Ba51Fe51Bi26
_symmetry_space_group_name_H-M   'P 1'
_cell_length_a   16.71743774
_cell_length_b   16.32575661
_cell_length_c   15.98130546
_cell_angle_alpha   89.73291317
_cell_angle_beta   88.34093947
_cell_angle_gamma   88.07197634
_symmetry_Int_Tables_number   1
_chemical_formula_structural   Ba51Fe51Bi26
_chemical_formula_sum   'Ba51 Fe51 Bi26'
_cell_volume   4357.36860695
_cell_formula_units_Z   1
loop_
 _symmetry_equiv_pos_site_id
 _symmetry_equiv_pos_as_xyz
  1  'x, y, z'
loop_
 _atom_site_type_symbol
 _atom_site_label
 _atom_site_symmetry_multiplicity
 _atom_site_fract_x
 _atom_site_fract_y
 _atom_site_fract_z
 _atom_site_occupancy
  Ba  Ba0  1  -0.08262475  0.21090731  0.74046666  1
  Ba  Ba1  1  0.74850458  0.76228320  0.54232188  1
  Ba  Ba2  1  0.03420280  0.22436628  -0.01727907  1
  Ba  Ba3  1  0.56193618  0.24243224  0.23966711  1
  Ba  Ba4  1  0.34533392  0.48810960  0.34989257  1
  Ba  Ba5  1  -0.02674889  0.66477157  0.22514894  1
  Ba  Ba6  1  0.21599721  0.85038327  0.56260470  1
  Ba  Ba7  1  0.57283054  0.81900803  0.85821574  1
  Ba  Ba8  1  0.17931401  0.24552304  0.25721586  1
  Ba  Ba9  1  0.06791782  0.23798886  0.48216811  1
  Ba  Ba10  1  -0.03826182  0.49086280  0.78990725  1
  Ba  Ba11  1  0.19966607  0.71823731  0.10970165  1
  Ba  Ba12  1  0.58832109  0.52747444  0.26975103  1
  Ba  Ba13  1  0.32135926  0.01792564  0.71186799  1
  Ba  Ba14  1  0.52472105  0.76410264  0.44983919  1
  Ba  Ba15  1  0.33561736  0.76989175  0.32237050  1
  Ba  Ba16  1  -0.03291198  0.49288642  0.04288475  1
  Ba  Ba17  1  0.28686501  0.34011069  0.55321538  1
  Ba  Ba18  1  0.63815357  0.25422967  0.63611892  1
  Ba  Ba19  1  0.20979834  0.49426652  0.77037470  1
  Ba  Ba20  1  0.22522639  0.23068446  0.79289482  1
  Ba  Ba21  1  0.71042060  0.50051412  0.73429743  1
  Ba  Ba22  1  0.54991274  0.04177486  0.69555354  1
  Ba  Ba23  1  0.45856189  0.42637535  0.76080800  1
  Ba  Ba24  1  0.72413132  0.55383947  -0.02176295  1
  Ba  Ba25  1  0.26183694  0.07815433  0.43274895  1
  Ba  Ba26  1  0.80431670  0.00316533  0.60917089  1
  Ba  Ba27  1  0.80268854  -0.00731480  -0.05670883  1
  Ba  Ba28  1  -0.05980899  0.42880084  0.53390952  1
  Ba  Ba29  1  0.72093833  0.74031739  0.22664540  1
  Ba  Ba30  1  0.39949559  0.72175380  0.71844330  1
  Ba  Ba31  1  0.13018952  0.55735412  0.52151161  1
  Ba  Ba32  1  0.81309351  0.33673341  0.35279334  1
  Ba  Ba33  1  0.77980414  0.11249931  0.31056318  1
  Ba  Ba34  1  0.60254387  -0.00042047  0.44832816  1
  Ba  Ba35  1  0.66797921  0.94615796  0.16258917  1
  Ba  Ba36  1  0.26010184  0.11717806  0.06841253  1
  Ba  Ba37  1  0.48404926  0.44701870  0.04722203  1
  Ba  Ba38  1  0.80645366  0.74699461  0.78810885  1
  Ba  Ba39  1  -0.07245785  -0.06299333  0.22789382  1
  Ba  Ba40  1  0.06080329  -0.06402863  0.03255047  1
  Ba  Ba41  1  0.02615139  -0.04029547  0.76873892  1
  Ba  Ba42  1  0.34504379  -0.10828601  -0.04875716  1
  Ba  Ba43  1  0.32462663  0.60570177  -0.05804393  1
  Ba  Ba44  1  0.06986767  0.71160616  0.73154096  1
  Ba  Ba45  1  -0.02485266  0.78173966  0.47851516  1
  Ba  Ba46  1  0.51624215  0.51851928  0.53125927  1
  Ba  Ba47  1  0.77843990  0.33266531  0.10662398  1
  Ba  Ba48  1  0.52802298  0.09392813  -0.01536701  1
  Ba  Ba49  1  0.81615206  0.58078720  0.40758720  1
  Ba  Ba50  1  0.13356044  -0.10075601  0.32279305  1
  Fe  Fe51  1  0.80634185  0.33970324  0.62790423  1
  Fe  Fe52  1  0.95381711  0.97787128  0.42745369  1
  Fe  Fe53  1  0.53235668  0.20104604  0.43029958  1
  Fe  Fe54  1  0.35422465  0.00154388  0.26424387  1
  Fe  Fe55  1  0.51192087  1.02345765  0.25232234  1
  Fe  Fe56  1  0.02188670  0.95129199  0.56076836  1
  Fe  Fe57  1  0.50051636  0.86851336  0.23997212  1
  Fe  Fe58  1  0.52330912  0.84820982  1.07993626  1
  Fe  Fe59  1  0.20983531  0.43989310  0.22338752  1
  Fe  Fe60  1  0.25661072  0.64069997  0.63322974  1
  Fe  Fe61  1  0.14603796  0.53575213  0.11891915  1
  Fe  Fe62  1  1.01112178  0.37286178  0.34167323  1
  Fe  Fe63  1  0.45649835  0.71914011  1.03484867  1
  Fe  Fe64  1  0.49386755  0.35691167  0.40305253  1
  Fe  Fe65  1  0.44093673  0.94574940  0.34811649  1
  Fe  Fe66  1  0.45990592  0.27531787  0.92351142  1
  Fe  Fe67  1  -0.00186928  0.73454502  0.04320952  1
  Fe  Fe68  1  0.52910259  0.22071751  0.82226262  1
  Fe  Fe69  1  0.60992221  0.32370448  0.44440277  1
  Fe  Fe70  1  0.43569623  0.14884059  0.51258954  1
  Fe  Fe71  1  0.96284081  0.17856055  0.27007241  1
  Fe  Fe72  1  0.04613849  0.07170300  0.32447043  1
  Fe  Fe73  1  0.93635129  0.66374792  0.92285004  1
  Fe  Fe74  1  0.63106725  0.85960613  0.66102276  1
  Fe  Fe75  1  0.47755736  0.29236294  0.52570947  1
  Fe  Fe76  1  0.51950379  0.73175377  0.18345793  1
  Fe  Fe77  1  0.86192808  0.68223813  0.04388118  1
  Fe  Fe78  1  0.13083621  0.43243407  0.35843247  1
  Fe  Fe79  1  0.33722162  0.65494068  0.51647820  1
  Fe  Fe80  1  0.89173775  0.80885974  0.95026843  1
  Fe  Fe81  1  1.06719548  0.46500005  0.22515667  1
  Fe  Fe82  1  0.07666618  1.03161831  0.46146895  1
  Fe  Fe83  1  0.78813332  0.19872868  0.94648244  1
  Fe  Fe84  1  0.13585319  0.38389571  1.10647239  1
  Fe  Fe85  1  0.19025031  0.46407999  1.00428382  1
  Fe  Fe86  1  0.32937936  0.53868227  0.58561160  1
  Fe  Fe87  1  0.41453262  0.11217826  0.21029712  1
  Fe  Fe88  1  0.40110816  0.81089897  0.13675524  1
  Fe  Fe89  1  0.58505590  0.70816279  1.05530589  1
  Fe  Fe90  1  0.04455925  0.10880473  0.18490021  1
  Fe  Fe91  1  0.94482010  0.11577575  0.41025877  1
  Fe  Fe92  1  0.27267251  0.36436351  0.09710375  1
  Fe  Fe93  1  0.01533814  0.52165804  0.36448242  1
  Fe  Fe94  1  0.97004389  0.07808068  0.55426790  1
  Fe  Fe95  1  0.28233287  0.50144866  0.11385144  1
  Fe  Fe96  1  0.44453536  0.09468246  0.36472350  1
  Fe  Fe97  1  0.93145737  0.46805209  0.27284468  1
  Fe  Fe98  1  0.51155744  0.85744225  0.62907988  1
  Fe  Fe99  1  0.01518244  0.77435441  0.91200906  1
  Fe  Fe100  1  0.43259570  0.96218861  0.14539035  1
  Fe  Fe101  1  0.88079854  0.80942350  0.08669568  1
  Bi  Bi102  1  -0.01411717  0.32039071  0.18062853  1
  Bi  Bi103  1  0.39632533  0.61852329  0.16605989  1
  Bi  Bi104  1  -0.15240113  0.20387148  0.52904731  1
  Bi  Bi105  1  0.26226362  -0.08331873  0.15202695  1
  Bi  Bi106  1  0.41055093  -0.05332606  0.52197871  1
  Bi  Bi107  1  0.37295404  0.25354004  0.36797373  1
  Bi  Bi108  1  0.90039744  0.11022207  0.10352304  1
  Bi  Bi109  1  0.31760771  0.37674011  -0.07589443  1
  Bi  Bi110  1  0.16309433  0.59843922  0.30052364  1
  Bi  Bi111  1  0.40650523  0.25127636  0.09849310  1
  Bi  Bi112  1  0.72801594  0.78749769  0.00570328  1
  Bi  Bi113  1  0.42144366  0.21830244  0.68003694  1
  Bi  Bi114  1  0.10466197  0.61818861  -0.06564224  1
  Bi  Bi115  1  0.79814601  0.90867518  0.39542353  1
  Bi  Bi116  1  0.71169058  0.43520234  0.52377076  1
  Bi  Bi117  1  0.61209708  0.34609255  0.88804713  1
  Bi  Bi118  1  0.69591867  0.13941664  0.81718328  1
  Bi  Bi119  1  0.13291590  0.07361101  0.62123194  1
  Bi  Bi120  1  0.09219953  0.35687000  0.66767535  1
  Bi  Bi121  1  0.17963476  0.04017584  0.88748868  1
  Bi  Bi122  1  0.90319481  0.62725505  0.62218531  1
  Bi  Bi123  1  0.59526374  0.69088506  0.65861973  1
  Bi  Bi124  1  0.86014883  0.34621986  0.90775217  1
  Bi  Bi125  1  0.69807447  0.14441742  0.08623190  1
  Bi  Bi126  1  0.79669907  0.53757892  0.19001175  1
  Bi  Bi127  1  0.53189839  0.61582514  0.90641356  1
