# generated using pymatgen
data_Ba51Fe51Bi26
_symmetry_space_group_name_H-M   'P 1'
_cell_length_a   16.92719510
_cell_length_b   16.18285973
_cell_length_c   16.29806363
_cell_angle_alpha   87.18284261
_cell_angle_beta   89.52670562
_cell_angle_gamma   88.31502917
_symmetry_Int_Tables_number   1
_chemical_formula_structural   Ba51Fe51Bi26
_chemical_formula_sum   'Ba51 Fe51 Bi26'
_cell_volume   4457.10797455
_cell_formula_units_Z   1
loop_
 _symmetry_equiv_pos_site_id
 _symmetry_equiv_pos_as_xyz
  1  'x, y, z'
loop_
 _atom_site_type_symbol
 _atom_site_label
 _atom_site_symmetry_multiplicity
 _atom_site_fract_x
 _atom_site_fract_y
 _atom_site_fract_z
 _atom_site_occupancy
  Ba  Ba0  1  -0.00295767  0.82799038  0.76649719  1
  Ba  Ba1  1  0.22417587  0.29149114  0.49521180  1
  Ba  Ba2  1  0.26513427  0.41317645  -0.02650168  1
  Ba  Ba3  1  0.46075718  0.38014352  0.79761716  1
  Ba  Ba4  1  0.71697318  0.74948061  0.28230576  1
  Ba  Ba5  1  -0.06132094  0.33732718  0.20748041  1
  Ba  Ba6  1  0.75973615  0.00780273  0.12963356  1
  Ba  Ba7  1  0.02779069  0.11146104  0.82466673  1
  Ba  Ba8  1  0.77094586  0.14609147  -0.10937413  1
  Ba  Ba9  1  0.58117729  0.82063003  0.50499652  1
  Ba  Ba10  1  0.37673961  0.12776687  0.21896977  1
  Ba  Ba11  1  0.29847580  0.36101691  0.23917741  1
  Ba  Ba12  1  0.89142141  0.32287727  0.77102540  1
  Ba  Ba13  1  0.09535762  0.12576520  0.18090191  1
  Ba  Ba14  1  0.77970638  0.50283161  0.25614193  1
  Ba  Ba15  1  0.53346575  0.67487445  0.78831656  1
  Ba  Ba16  1  0.67670241  0.38119602  0.50602279  1
  Ba  Ba17  1  0.22181342  -0.02293575  0.68323044  1
  Ba  Ba18  1  0.59232699  0.19007563  0.33290722  1
  Ba  Ba19  1  0.21118045  0.48103205  0.74863511  1
  Ba  Ba20  1  0.33275685  0.79798809  0.49994304  1
  Ba  Ba21  1  0.00216215  0.01580849  0.57200149  1
  Ba  Ba22  1  0.28705179  0.74428920  0.75294006  1
  Ba  Ba23  1  0.71358926  0.28344029  0.12241879  1
  Ba  Ba24  1  0.78439410  -0.07885015  0.56683757  1
  Ba  Ba25  1  0.61677021  -0.06716577  -0.08824298  1
  Ba  Ba26  1  -0.00619381  0.51533612  0.69314883  1
  Ba  Ba27  1  0.52969529  0.52156792  0.26304627  1
  Ba  Ba28  1  0.49435285  0.76669386  0.10719951  1
  Ba  Ba29  1  0.05738309  0.81784063  0.29421479  1
  Ba  Ba30  1  -0.01132144  0.20023069  0.40645687  1
  Ba  Ba31  1  0.53943902  0.13257811  0.03824177  1
  Ba  Ba32  1  0.69443911  0.44660538  0.73809770  1
  Ba  Ba33  1  0.30455198  0.84734951  0.23578472  1
  Ba  Ba34  1  0.12050772  0.55696032  0.17204694  1
  Ba  Ba35  1  0.51181374  0.51277842  0.00118215  1
  Ba  Ba36  1  0.49295426  0.22843340  0.60488947  1
  Ba  Ba37  1  0.03382288  0.80075256  0.01505146  1
  Ba  Ba38  1  0.00594344  0.47933674  -0.02960759  1
  Ba  Ba39  1  0.78398654  0.67970441  0.73871449  1
  Ba  Ba40  1  0.78886342  0.74642482  -0.01328575  1
  Ba  Ba41  1  0.31888095  0.01014589  -0.03888594  1
  Ba  Ba42  1  -0.03126626  0.71057067  0.51553923  1
  Ba  Ba43  1  0.26646780  0.22138087  0.76615300  1
  Ba  Ba44  1  0.03077950  0.49786032  0.40731441  1
  Ba  Ba45  1  0.75666556  0.13845839  0.48677534  1
  Ba  Ba46  1  0.21383371  0.00317586  0.41684062  1
  Ba  Ba47  1  0.22979824  0.58405248  0.53446038  1
  Ba  Ba48  1  0.27149819  0.71059442  -0.01110314  1
  Ba  Ba49  1  0.47334762  -0.02629957  0.70500326  1
  Ba  Ba50  1  0.48155186  0.56189498  0.50996659  1
  Fe  Fe51  1  0.70088870  0.46315639  0.03317375  1
  Fe  Fe52  1  0.83276318  0.52044245  0.89979681  1
  Fe  Fe53  1  0.70561774  0.54949565  0.92158108  1
  Fe  Fe54  1  0.82230843  0.56527376  0.59355001  1
  Fe  Fe55  1  0.86508148  0.90011256  0.32226370  1
  Fe  Fe56  1  -0.02556264  0.35898947  0.53961281  1
  Fe  Fe57  1  0.38317319  0.23326695  0.95028243  1
  Fe  Fe58  1  0.60713737  0.24340849  0.77672190  1
  Fe  Fe59  1  0.78468601  0.88936994  0.80050919  1
  Fe  Fe60  1  0.53128939  0.00093729  0.36359084  1
  Fe  Fe61  1  -0.05542701  0.08809380  0.00982133  1
  Fe  Fe62  1  0.33784651  0.53946658  0.30142743  1
  Fe  Fe63  1  0.20459617  0.69203896  0.35424811  1
  Fe  Fe64  1  0.80839029  0.30255799  0.37984370  1
  Fe  Fe65  1  0.68245477  0.58022926  0.43236296  1
  Fe  Fe66  1  0.69408307  0.56601363  0.56401420  1
  Fe  Fe67  1  0.70568136  0.21287188  0.69423319  1
  Fe  Fe68  1  -0.04724086  0.23844625  0.59814567  1
  Fe  Fe69  1  0.21588995  0.55763437  0.34296970  1
  Fe  Fe70  1  0.61780191  0.10856542  0.78261974  1
  Fe  Fe71  1  0.38394576  0.55549096  0.69660055  1
  Fe  Fe72  1  0.95927553  -0.01849787  1.10076255  1
  Fe  Fe73  1  0.55696761  0.87759792  0.29387620  1
  Fe  Fe74  1  0.37438393  0.56540283  0.82338066  1
  Fe  Fe75  1  0.58203001  0.02690961  0.22868409  1
  Fe  Fe76  1  0.84198959  0.41876264  0.04209011  1
  Fe  Fe77  1  0.87499648  0.39811377  0.42848497  1
  Fe  Fe78  1  0.33246505  0.65505369  0.37199428  1
  Fe  Fe79  1  -0.07426025  1.01161143  0.23709865  1
  Fe  Fe80  1  0.42832870  0.96998274  0.49356935  1
  Fe  Fe81  1  0.42272718  0.92475419  0.35826422  1
  Fe  Fe82  1  0.46888807  0.95795773  0.22112110  1
  Fe  Fe83  1  0.80522304  0.54877584  0.03515669  1
  Fe  Fe84  1  0.38343427  0.66002086  0.23948265  1
  Fe  Fe85  1  0.25472517  0.65846441  0.23215452  1
  Fe  Fe86  1  0.41821163  0.07498868  0.41027084  1
  Fe  Fe87  1  0.84654186  0.29315074  0.53227728  1
  Fe  Fe88  1  -0.00372441  -0.00759792  0.36334600  1
  Fe  Fe89  1  0.38633196  0.27698826  0.07487171  1
  Fe  Fe90  1  0.64876001  0.10437362  0.65078603  1
  Fe  Fe91  1  0.86466075  0.02528165  0.37836775  1
  Fe  Fe92  1  0.77608907  0.40112593  0.92783873  1
  Fe  Fe93  1  0.85501949  0.43101444  0.57627911  1
  Fe  Fe94  1  -0.06444920  0.90024950  0.43667267  1
  Fe  Fe95  1  0.90858987  0.12812535  0.13236575  1
  Fe  Fe96  1  0.81143735  0.53385771  0.46220438  1
  Fe  Fe97  1  0.72323425  1.01489104  0.73758830  1
  Fe  Fe98  1  0.86432521  0.98229319  0.76131890  1
  Fe  Fe99  1  0.59920988  0.91355109  0.16563729  1
  Fe  Fe100  1  0.48071735  0.32200318  0.99990261  1
  Fe  Fe101  1  0.11953507  0.68882953  0.67528067  1
  Bi  Bi102  1  0.57133287  0.04555931  0.51916292  1
  Bi  Bi103  1  0.62951252  0.33025170  -0.07556284  1
  Bi  Bi104  1  0.76576058  0.70924787  0.50105813  1
  Bi  Bi105  1  -0.09686792  0.26027093  0.00565175  1
  Bi  Bi106  1  0.85193328  0.13126827  0.67632827  1
  Bi  Bi107  1  0.34159171  0.55028349  0.12638548  1
  Bi  Bi108  1  -0.17829897  0.16662840  0.27539492  1
  Bi  Bi109  1  -0.12457761  -0.05010772  -0.06852761  1
  Bi  Bi110  1  0.08872796  0.30447269  0.65277323  1
  Bi  Bi111  1  0.46481348  0.15019834  0.82851653  1
  Bi  Bi112  1  0.48052290  0.73348980  0.34321147  1
  Bi  Bi113  1  0.25127581  0.19901489  0.04773955  1
  Bi  Bi114  1  0.69806916  -0.03795598  0.34626106  1
  Bi  Bi115  1  0.88798146  0.83609829  0.16895625  1
  Bi  Bi116  1  0.09409984  0.32929998  0.84866123  1
  Bi  Bi117  1  0.33051749  0.10663393  0.55713615  1
  Bi  Bi118  1  0.43129720  0.83005218  0.89579834  1
  Bi  Bi119  1  0.09599988  0.00833555  1.00890037  1
  Bi  Bi120  1  0.10526980  0.64546680  0.83990765  1
  Bi  Bi121  1  0.50504104  0.32163630  0.17441831  1
  Bi  Bi122  1  0.12572059  0.34661026  0.12483611  1
  Bi  Bi123  1  0.13514499  0.82474753  0.56919689  1
  Bi  Bi124  1  0.66230296  0.61682310  0.10613258  1
  Bi  Bi125  1  0.35598828  0.40871472  0.60802629  1
  Bi  Bi126  1  0.16822382  0.89205780  0.87038932  1
  Bi  Bi127  1  0.64942620  0.84697159  0.71974530  1
