# generated using pymatgen
data_Ba51Fe51Bi26
_symmetry_space_group_name_H-M   'P 1'
_cell_length_a   16.61536750
_cell_length_b   16.33083420
_cell_length_c   16.54762422
_cell_angle_alpha   90.75469813
_cell_angle_beta   91.56304016
_cell_angle_gamma   89.27080887
_symmetry_Int_Tables_number   1
_chemical_formula_structural   Ba51Fe51Bi26
_chemical_formula_sum   'Ba51 Fe51 Bi26'
_cell_volume   4487.67529899
_cell_formula_units_Z   1
loop_
 _symmetry_equiv_pos_site_id
 _symmetry_equiv_pos_as_xyz
  1  'x, y, z'
loop_
 _atom_site_type_symbol
 _atom_site_label
 _atom_site_symmetry_multiplicity
 _atom_site_fract_x
 _atom_site_fract_y
 _atom_site_fract_z
 _atom_site_occupancy
  Ba  Ba0  1  -0.06134072  0.70364549  0.19217987  1
  Ba  Ba1  1  0.76955715  -0.12021493  0.40050956  1
  Ba  Ba2  1  0.74806141  0.68652390  0.01445278  1
  Ba  Ba3  1  0.73536997  0.33962157  0.76413741  1
  Ba  Ba4  1  0.11516282  0.54957160  0.02125465  1
  Ba  Ba5  1  0.68530183  0.21665470  0.30064746  1
  Ba  Ba6  1  0.79194963  0.28889617  0.53456599  1
  Ba  Ba7  1  0.02652427  -0.02662367  0.16015551  1
  Ba  Ba8  1  0.20208720  0.02087590  0.83551058  1
  Ba  Ba9  1  0.43149658  0.05477863  0.54215621  1
  Ba  Ba10  1  -0.03050867  0.01362862  0.91134301  1
  Ba  Ba11  1  0.46493803  0.40160509  -0.00663065  1
  Ba  Ba12  1  0.05496642  0.35340274  0.54775925  1
  Ba  Ba13  1  0.22238898  0.30657614  -0.02661409  1
  Ba  Ba14  1  -0.02824425  0.23973062  0.27244128  1
  Ba  Ba15  1  0.66075907  0.69211173  0.51228904  1
  Ba  Ba16  1  -0.00844291  -0.02767839  0.39460567  1
  Ba  Ba17  1  -0.15000552  0.54102329  0.60419793  1
  Ba  Ba18  1  0.50822890  0.18520172  0.10629068  1
  Ba  Ba19  1  0.17901824  0.64715998  0.42588150  1
  Ba  Ba20  1  0.49090119  0.77384764  0.01488412  1
  Ba  Ba21  1  0.38479952  0.79531502  0.53689009  1
  Ba  Ba22  1  -0.05430601  0.51736024  0.35528210  1
  Ba  Ba23  1  0.71689254  0.45215510  -0.03279124  1
  Ba  Ba24  1  0.15570999  0.06454523  0.55391585  1
  Ba  Ba25  1  0.80440249  0.17136541  0.04957383  1
  Ba  Ba26  1  0.39503576  0.19080922  0.32675838  1
  Ba  Ba27  1  -0.12476687  0.77993029  0.80260457  1
  Ba  Ba28  1  0.03368117  0.55321711  0.78436826  1
  Ba  Ba29  1  0.56368077  0.72420463  0.26752457  1
  Ba  Ba30  1  0.32633282  0.59660141  -0.12553117  1
  Ba  Ba31  1  -0.01950609  0.34914850  -0.06081512  1
  Ba  Ba32  1  -0.02340361  0.15267923  0.70570119  1
  Ba  Ba33  1  0.59228282  0.71050906  0.74978236  1
  Ba  Ba34  1  -0.03529105  0.78973760  0.56517985  1
  Ba  Ba35  1  0.45294885  0.53570108  0.45665262  1
  Ba  Ba36  1  0.74209195  0.45645461  0.20741735  1
  Ba  Ba37  1  0.24570969  0.46295062  0.63127411  1
  Ba  Ba38  1  0.55708533  0.18477589  0.87045794  1
  Ba  Ba39  1  0.33484485  0.19106934  0.74371942  1
  Ba  Ba40  1  0.56066485  -0.01101685  0.26438269  1
  Ba  Ba41  1  0.33171640  0.54629933  0.19104248  1
  Ba  Ba42  1  0.67610880  0.05021232  0.55367729  1
  Ba  Ba43  1  0.52604369  0.30018695  0.49815233  1
  Ba  Ba44  1  0.18259057  0.74807527  0.69660232  1
  Ba  Ba45  1  0.22706263  0.14760781  0.14177457  1
  Ba  Ba46  1  0.47253872  -0.04296271  0.83973336  1
  Ba  Ba47  1  0.29053493  -0.06168352  0.04130132  1
  Ba  Ba48  1  0.19351427  0.76734309  0.19763619  1
  Ba  Ba49  1  0.20110436  0.35475662  0.32642833  1
  Ba  Ba50  1  0.74496193  0.01244688  0.78499876  1
  Fe  Fe51  1  0.51775185  0.34265649  0.22372084  1
  Fe  Fe52  1  0.17878326  0.95139612  0.36015543  1
  Fe  Fe53  1  0.48017974  0.58688795  0.07491752  1
  Fe  Fe54  1  0.16313338  0.26322299  0.68572565  1
  Fe  Fe55  1  0.89363818  0.96377946  0.65685147  1
  Fe  Fe56  1  0.22876373  0.35668341  0.78904592  1
  Fe  Fe57  1  0.64321423  0.53600057  0.36207539  1
  Fe  Fe58  1  0.54257077  0.54901283  0.65335847  1
  Fe  Fe59  1  0.81236985  0.85111967  0.10600534  1
  Fe  Fe60  1  0.86881696  0.02766222  0.54404877  1
  Fe  Fe61  1  0.65576674  0.00642083  0.96839614  1
  Fe  Fe62  1  0.23374984  -0.03250767  0.24200058  1
  Fe  Fe63  1  0.89975720  0.56729954  0.92048541  1
  Fe  Fe64  1  0.82281717  0.09674934  0.43146624  1
  Fe  Fe65  1  0.81741231  -0.01046970  0.11401824  1
  Fe  Fe66  1  0.28868285  0.94301589  0.45655492  1
  Fe  Fe67  1  0.14197263  0.22956094  0.80838642  1
  Fe  Fe68  1  0.73168485  0.94259200  0.21073976  1
  Fe  Fe69  1  1.09456066  0.86776898  0.99096837  1
  Fe  Fe70  1  0.04739280  0.73063558  0.90796821  1
  Fe  Fe71  1  0.85817000  0.89420655  0.22799918  1
  Fe  Fe72  1  0.40951866  0.94370056  0.37694319  1
  Fe  Fe73  1  0.43885349  0.38669682  0.31177182  1
  Fe  Fe74  1  0.29961943  0.86909386  0.33414330  1
  Fe  Fe75  1  1.08267839  0.31113738  0.12437367  1
  Fe  Fe76  1  0.61091689  0.49493210  0.79288845  1
  Fe  Fe77  1  0.16969254  0.40567420  0.14660423  1
  Fe  Fe78  1  0.67548842  0.89134360  1.08081242  1
  Fe  Fe79  1  0.07191499  0.74471734  0.04160827  1
  Fe  Fe80  1  0.18993636  0.75295582  -0.03639139  1
  Fe  Fe81  1  0.76361984  0.52251347  0.41809762  1
  Fe  Fe82  1  0.12713392  0.83808707  0.86532231  1
  Fe  Fe83  1  0.37400576  0.39046658  0.78241817  1
  Fe  Fe84  1  0.45393339  0.31048051  0.67970136  1
  Fe  Fe85  1  0.57300190  0.26122273  0.68805562  1
  Fe  Fe86  1  0.47272224  0.50606328  0.77676245  1
  Fe  Fe87  1  0.29233164  0.03974748  0.36612803  1
  Fe  Fe88  1  0.73660848  0.80446505  0.20357411  1
  Fe  Fe89  1  0.57683920  0.40747343  0.66910571  1
  Fe  Fe90  1  0.95674136  0.66108861  0.98960375  1
  Fe  Fe91  1  0.77830977  -0.05403207  0.98938306  1
  Fe  Fe92  1  0.67962562  0.03545449  0.09793051  1
  Fe  Fe93  1  0.09709805  0.35807109  0.75753238  1
  Fe  Fe94  1  0.71523747  0.40138062  0.39073323  1
  Fe  Fe95  1  0.67268288  0.52707865  0.68074537  1
  Fe  Fe96  1  0.52130585  0.36705191  0.79191483  1
  Fe  Fe97  1  0.58349584  0.40087917  0.34256759  1
  Fe  Fe98  1  0.02889411  0.42674329  0.16705744  1
  Fe  Fe99  1  0.36133783  -0.00236639  0.25662648  1
  Fe  Fe100  1  0.60487175  0.57554948  0.08476770  1
  Fe  Fe101  1  0.43660266  0.44485912  0.65706093  1
  Bi  Bi102  1  0.66680780  -0.14911841  -0.10384341  1
  Bi  Bi103  1  0.55585337  0.88902534  0.45340902  1
  Bi  Bi104  1  0.53688659  0.51330487  0.22233349  1
  Bi  Bi105  1  0.84001313  0.06822181  0.26361951  1
  Bi  Bi106  1  0.65191454  0.46851735  0.52826325  1
  Bi  Bi107  1  0.77518249  0.57739170  0.80527428  1
  Bi  Bi108  1  0.54583289  0.58770454  -0.07836626  1
  Bi  Bi109  1  0.15731855  0.85111046  0.49544271  1
  Bi  Bi110  1  0.76480681  0.65688460  0.31498393  1
  Bi  Bi111  1  -0.07055789  0.82995091  0.00450797  1
  Bi  Bi112  1  0.51878628  -0.01565396  0.04953537  1
  Bi  Bi113  1  0.38884032  0.62049922  0.66656589  1
  Bi  Bi114  1  0.14968380  0.12155084  0.33221375  1
  Bi  Bi115  1  0.36135421  0.13539533  0.94962215  1
  Bi  Bi116  1  0.34762726  0.33087249  0.16753706  1
  Bi  Bi117  1  0.90301107  0.51676076  0.08014541  1
  Bi  Bi118  1  0.93369392  0.36767173  0.71699821  1
  Bi  Bi119  1  0.04202068  0.92329467  0.72875598  1
  Bi  Bi120  1  0.02270456  0.16852892  0.05881059  1
  Bi  Bi121  1  0.35934906  0.70226010  0.34262132  1
  Bi  Bi122  1  0.30556992  0.81944264  0.86278211  1
  Bi  Bi123  1  0.12179634  0.55134097  0.23957123  1
  Bi  Bi124  1  0.76728172  0.86133594  0.62360236  1
  Bi  Bi125  1  0.05607639  0.57737349  0.57257181  1
  Bi  Bi126  1  0.96234150  0.16554398  0.49249408  1
  Bi  Bi127  1  0.39636126  0.84443321  0.20210488  1
