# generated using pymatgen
data_Ba51Fe51Bi26
_symmetry_space_group_name_H-M   'P 1'
_cell_length_a   16.05328050
_cell_length_b   16.54969369
_cell_length_c   16.59767280
_cell_angle_alpha   89.81893920
_cell_angle_beta   90.57562103
_cell_angle_gamma   89.72615222
_symmetry_Int_Tables_number   1
_chemical_formula_structural   Ba51Fe51Bi26
_chemical_formula_sum   'Ba51 Fe51 Bi26'
_cell_volume   4409.32225038
_cell_formula_units_Z   1
loop_
 _symmetry_equiv_pos_site_id
 _symmetry_equiv_pos_as_xyz
  1  'x, y, z'
loop_
 _atom_site_type_symbol
 _atom_site_label
 _atom_site_symmetry_multiplicity
 _atom_site_fract_x
 _atom_site_fract_y
 _atom_site_fract_z
 _atom_site_occupancy
  Ba  Ba0  1  0.46742473  0.75207519  0.01123315  1
  Ba  Ba1  1  -0.01115812  -0.15059151  0.28171715  1
  Ba  Ba2  1  -0.02205701  0.24718130  -0.02486029  1
  Ba  Ba3  1  0.44538493  0.07389501  0.74432975  1
  Ba  Ba4  1  0.73595392  0.45494267  0.05403246  1
  Ba  Ba5  1  0.03640881  0.70994637  0.74173080  1
  Ba  Ba6  1  0.46127372  0.19207992  0.04461180  1
  Ba  Ba7  1  0.84402639  0.65001535  -0.01311957  1
  Ba  Ba8  1  0.64923315  -0.02755855  0.01475957  1
  Ba  Ba9  1  0.15680652  0.60002014  0.20862290  1
  Ba  Ba10  1  0.18935302  0.00073518  0.26035361  1
  Ba  Ba11  1  0.24954549  0.76902309  -0.10283385  1
  Ba  Ba12  1  0.31258430  0.26886172  0.86795017  1
  Ba  Ba13  1  0.25986788  0.75471751  0.39380641  1
  Ba  Ba14  1  0.77334306  0.68554763  0.75846943  1
  Ba  Ba15  1  0.54958917  0.08579298  0.45989116  1
  Ba  Ba16  1  0.41983920  0.60262627  0.21167511  1
  Ba  Ba17  1  0.30359007  -0.02315897  0.54530026  1
  Ba  Ba18  1  0.47356577  0.46933050  -0.01463125  1
  Ba  Ba19  1  0.80200614  0.29628100  0.69837435  1
  Ba  Ba20  1  0.82766333  0.67416719  0.24244806  1
  Ba  Ba21  1  0.08316061  0.22950651  0.74558710  1
  Ba  Ba22  1  0.38480334  -0.18101415  0.70086865  1
  Ba  Ba23  1  0.61291094  0.79385635  0.23522145  1
  Ba  Ba24  1  -0.01955271  0.48355974  0.40275258  1
  Ba  Ba25  1  0.56273221  0.30283089  0.72946687  1
  Ba  Ba26  1  0.22764036  0.37417380  0.09536764  1
  Ba  Ba27  1  0.05014952  0.23379356  0.24309815  1
  Ba  Ba28  1  0.29818130  0.24130777  0.56852114  1
  Ba  Ba29  1  0.07264036  0.55921205  -0.01008302  1
  Ba  Ba30  1  0.21878335  0.01646265  -0.02771408  1
  Ba  Ba31  1  -0.04962400  -0.12898795  0.53806417  1
  Ba  Ba32  1  0.78223276  0.42781334  0.26723930  1
  Ba  Ba33  1  0.53367958  0.63166867  0.75110019  1
  Ba  Ba34  1  0.74876143  -0.02639348  0.29341617  1
  Ba  Ba35  1  0.24826857  0.63802803  0.65974821  1
  Ba  Ba36  1  0.52364080  0.28847818  0.26926242  1
  Ba  Ba37  1  0.78848309  0.20700658  0.29532512  1
  Ba  Ba38  1  0.68219801  -0.06195111  0.76951895  1
  Ba  Ba39  1  0.22123179  0.41981268  0.69984044  1
  Ba  Ba40  1  0.83213223  0.12536174  0.50804187  1
  Ba  Ba41  1  -0.09218381  0.05869245  0.73645029  1
  Ba  Ba42  1  -0.05345713  0.46949624  0.76832143  1
  Ba  Ba43  1  -0.03648366  0.87911106  -0.06115519  1
  Ba  Ba44  1  0.10061660  0.11595568  0.49562648  1
  Ba  Ba45  1  0.49091982  0.48788743  0.41170443  1
  Ba  Ba46  1  -0.05278112  0.03559210  0.11472194  1
  Ba  Ba47  1  0.62327851  0.76282518  0.51493663  1
  Ba  Ba48  1  0.74787948  0.55257719  0.49030566  1
  Ba  Ba49  1  0.42274551  0.02773846  0.21230833  1
  Ba  Ba50  1  0.25180248  0.48467918  0.46649505  1
  Fe  Fe51  1  0.13434547  -0.03577613  0.65854776  1
  Fe  Fe52  1  0.67942845  0.74697735  0.04268164  1
  Fe  Fe53  1  0.64847207  0.45033605  0.85081509  1
  Fe  Fe54  1  0.12112361  0.86782207  0.10615951  1
  Fe  Fe55  1  1.03986383  0.90555394  0.73608209  1
  Fe  Fe56  1  0.79124493  0.15131182  0.09570758  1
  Fe  Fe57  1  0.63412056  0.63783433  0.10962851  1
  Fe  Fe58  1  0.66857257  0.26123331  0.53963970  1
  Fe  Fe59  1  0.38781358  0.91583444  0.37204034  1
  Fe  Fe60  1  0.68887310  0.26834221  0.11087635  1
  Fe  Fe61  1  0.92576837  0.63660032  0.58985143  1
  Fe  Fe62  1  0.32195335  0.37033459  0.29076494  1
  Fe  Fe63  1  0.46151793  0.77795662  0.37450331  1
  Fe  Fe64  1  0.25399521  0.97034518  0.75913591  1
  Fe  Fe65  1  0.16198477  0.75091439  0.05912325  1
  Fe  Fe66  1  0.76768529  0.50659263  0.85205176  1
  Fe  Fe67  1  0.61038069  0.39988418  0.56303867  1
  Fe  Fe68  1  0.21187852  0.09089364  0.67581305  1
  Fe  Fe69  1  0.23814988  0.09973155  0.79859349  1
  Fe  Fe70  1  0.91241731  0.68707077  0.46858399  1
  Fe  Fe71  1  0.65379918  0.33892317  0.43520259  1
  Fe  Fe72  1  0.36492843  0.29114690  0.38805106  1
  Fe  Fe73  1  0.22687559  0.26926255  0.36812757  1
  Fe  Fe74  1  0.98122018  0.28325069  0.46249070  1
  Fe  Fe75  1  0.10781545  0.03956511  0.77651942  1
  Fe  Fe76  1  0.64759609  0.77436008  0.89934797  1
  Fe  Fe77  1  0.45505266  0.41032631  0.60625090  1
  Fe  Fe78  1  0.55257578  0.52380246  0.59296941  1
  Fe  Fe79  1  0.77232789  0.37245008  0.88087167  1
  Fe  Fe80  1  0.18357021  0.84686471  0.72813539  1
  Fe  Fe81  1  0.52228718  0.90243424  0.37579729  1
  Fe  Fe82  1  0.95028403  0.56622728  0.14803273  1
  Fe  Fe83  1  0.04482358  0.68027296  0.54202760  1
  Fe  Fe84  1  0.31296051  0.23473159  0.25629041  1
  Fe  Fe85  1  0.27945198  0.47338977  0.89683991  1
  Fe  Fe86  1  0.19518243  0.56043357  0.83987204  1
  Fe  Fe87  1  0.75900058  0.82342202  0.94431976  1
  Fe  Fe88  1  0.95917249  0.37780100  0.57734480  1
  Fe  Fe89  1  0.41348068  0.53156713  0.61876944  1
  Fe  Fe90  1  0.43976571  0.84591397  0.49034775  1
  Fe  Fe91  1  0.77995888  0.26044660  0.97997190  1
  Fe  Fe92  1  0.09053051  0.33479505  0.57033949  1
  Fe  Fe93  1  0.97332476  0.24499580  0.58955013  1
  Fe  Fe94  1  0.83159350  0.28000439  0.11410531  1
  Fe  Fe95  1  0.33379318  0.59057370  0.85088826  1
  Fe  Fe96  1  0.28572472  0.73335433  0.11665565  1
  Fe  Fe97  1  0.26767358  0.86545250  0.09055414  1
  Fe  Fe98  1  0.13540303  0.91854326  0.83026590  1
  Fe  Fe99  1  0.11404383  0.31700114  0.44087850  1
  Fe  Fe100  1  0.19410751  0.79817097  0.20199519  1
  Fe  Fe101  1  0.67931573  0.16901151  1.01479241  1
  Bi  Bi102  1  0.06058508  0.52019051  0.59784298  1
  Bi  Bi103  1  0.38597450  0.81815420  0.22108598  1
  Bi  Bi104  1  0.61097818  0.30669663  -0.05933015  1
  Bi  Bi105  1  0.81955346  0.34434976  0.47747007  1
  Bi  Bi106  1  0.15595105  0.81257948  0.57229528  1
  Bi  Bi107  1  0.42455407  0.67266801  0.52606697  1
  Bi  Bi108  1  0.00440515  0.72477560  0.10969712  1
  Bi  Bi109  1  0.41369583  0.45713309  0.77598824  1
  Bi  Bi110  1  0.29412948  0.59310893  0.02449523  1
  Bi  Bi111  1  0.15401617  0.40676294  0.29730474  1
  Bi  Bi112  1  0.49731925  0.28751836  0.49615234  1
  Bi  Bi113  1  0.81978621  0.08838549  -0.06605457  1
  Bi  Bi114  1  0.70120954  0.48920388  0.69252679  1
  Bi  Bi115  1  0.24574597  0.16208827  0.11944388  1
  Bi  Bi116  1  0.67231842  0.12582253  0.65447351  1
  Bi  Bi117  1  0.95595168  0.05539110  0.33696508  1
  Bi  Bi118  1  0.63284803  0.60700850  0.93697037  1
  Bi  Bi119  1  0.53066476  0.93330281  0.60450406  1
  Bi  Bi120  1  0.80669980  0.85789960  0.10992918  1
  Bi  Bi121  1  -0.04705985  0.40530220  0.12028006  1
  Bi  Bi122  1  0.62413160  0.11665749  0.17470822  1
  Bi  Bi123  1  0.79761255  0.79824467  0.40454121  1
  Bi  Bi124  1  0.63055935  0.58057081  0.26903185  1
  Bi  Bi125  1  0.05570297  0.67659423  0.37811737  1
  Bi  Bi126  1  0.32781640  0.12106021  0.38634873  1
  Bi  Bi127  1  0.12858625  0.38523179  0.88968227  1
