# generated using pymatgen
data_Ba51Fe51Bi26
_symmetry_space_group_name_H-M   'P 1'
_cell_length_a   15.81237558
_cell_length_b   17.08998507
_cell_length_c   16.07007370
_cell_angle_alpha   93.44562802
_cell_angle_beta   88.91705637
_cell_angle_gamma   87.69705216
_symmetry_Int_Tables_number   1
_chemical_formula_structural   Ba51Fe51Bi26
_chemical_formula_sum   'Ba51 Fe51 Bi26'
_cell_volume   4330.32783451
_cell_formula_units_Z   1
loop_
 _symmetry_equiv_pos_site_id
 _symmetry_equiv_pos_as_xyz
  1  'x, y, z'
loop_
 _atom_site_type_symbol
 _atom_site_label
 _atom_site_symmetry_multiplicity
 _atom_site_fract_x
 _atom_site_fract_y
 _atom_site_fract_z
 _atom_site_occupancy
  Ba  Ba0  1  0.11528937  0.76026223  0.02029892  1
  Ba  Ba1  1  0.19569568  0.81096415  0.42928747  1
  Ba  Ba2  1  0.88044016  0.60694751  0.27750931  1
  Ba  Ba3  1  0.62013453  0.03992732  0.29035061  1
  Ba  Ba4  1  0.18056347  0.05430678  0.34884993  1
  Ba  Ba5  1  0.41055933  0.62566835  0.51312207  1
  Ba  Ba6  1  0.74358278  0.83249629  0.43471071  1
  Ba  Ba7  1  0.04960707  0.20197320  0.81804535  1
  Ba  Ba8  1  0.01501103  0.52327440  0.65654579  1
  Ba  Ba9  1  0.54597543  0.68282288  0.05854100  1
  Ba  Ba10  1  0.65947856  0.89284859  0.69486566  1
  Ba  Ba11  1  0.77016730  0.44854212  0.66825453  1
  Ba  Ba12  1  -0.04137768  0.28099624  0.50240281  1
  Ba  Ba13  1  0.39861770  0.75460855  0.73639856  1
  Ba  Ba14  1  0.48330245  0.22094340  0.20601797  1
  Ba  Ba15  1  0.22150862  0.26854852  0.29208135  1
  Ba  Ba16  1  0.81129426  0.35513021  0.02832390  1
  Ba  Ba17  1  0.44386765  0.14349755  0.47352269  1
  Ba  Ba18  1  0.22718146  0.19234097  0.60780401  1
  Ba  Ba19  1  0.50111491  -0.09814367  0.90934501  1
  Ba  Ba20  1  0.33905939  0.33686544  0.81253257  1
  Ba  Ba21  1  0.63103916  0.56756029  0.38731798  1
  Ba  Ba22  1  0.80152989  0.24155501  0.80837891  1
  Ba  Ba23  1  0.76373431  0.08739812  0.59702570  1
  Ba  Ba24  1  0.50782484  0.55428332  0.79592733  1
  Ba  Ba25  1  0.56770318  0.28550653  0.72342627  1
  Ba  Ba26  1  -0.05160143  -0.00749886  0.40851168  1
  Ba  Ba27  1  0.52650813  0.12672555  -0.06840578  1
  Ba  Ba28  1  0.05219890  0.47269267  0.35524969  1
  Ba  Ba29  1  0.31349378  0.58106318  0.08004030  1
  Ba  Ba30  1  -0.00590365  0.03489840  0.14192743  1
  Ba  Ba31  1  0.67517929  0.31257602  0.45972344  1
  Ba  Ba32  1  -0.04154728  0.53304151  0.02775821  1
  Ba  Ba33  1  0.40613113  -0.09248942  0.55707642  1
  Ba  Ba34  1  0.09033196  -0.01972470  0.64641975  1
  Ba  Ba35  1  0.70028101  0.84915447  0.04258486  1
  Ba  Ba36  1  0.13703909  0.35381002  0.06701500  1
  Ba  Ba37  1  0.33550503  -0.16502584  0.18551117  1
  Ba  Ba38  1  -0.15294863  0.67827177  0.56737939  1
  Ba  Ba39  1  0.06152325  -0.01203936  -0.10255204  1
  Ba  Ba40  1  0.31646146  0.18689483  -0.00881126  1
  Ba  Ba41  1  0.21627050  0.42453926  0.54930030  1
  Ba  Ba42  1  0.52446446  0.80716177  0.34843609  1
  Ba  Ba43  1  0.17764179  0.52969676  0.87080914  1
  Ba  Ba44  1  0.79961585  0.37043840  0.27105834  1
  Ba  Ba45  1  0.78476061  0.60250836  -0.11849451  1
  Ba  Ba46  1  -0.13080138  0.81924553  0.79408770  1
  Ba  Ba47  1  0.57657572  0.45439424  0.09808396  1
  Ba  Ba48  1  0.34796206  0.46307745  0.30191704  1
  Ba  Ba49  1  0.86196874  -0.13956077  0.22192176  1
  Ba  Ba50  1  0.28290622  -0.04105206  -0.00229279  1
  Fe  Fe51  1  0.49507485  0.32932935  0.54197408  1
  Fe  Fe52  1  0.47000507  -0.01012148  0.73981777  1
  Fe  Fe53  1  0.72120966  0.20168540  0.20741816  1
  Fe  Fe54  1  1.02960027  0.72920294  0.23148041  1
  Fe  Fe55  1  0.17793551  0.68713014  0.76088446  1
  Fe  Fe56  1  0.00019106  0.40163188  0.86656593  1
  Fe  Fe57  1  0.24415090  0.64222790  0.28705454  1
  Fe  Fe58  1  0.80317810  1.02566203  0.05518770  1
  Fe  Fe59  1  0.68984441  1.02106048  -0.03834688  1
  Fe  Fe60  1  0.90431863  0.72122265  0.98519156  1
  Fe  Fe61  1  0.37758208  0.04908508  0.83589369  1
  Fe  Fe62  1  0.80026965  0.67665167  0.08227953  1
  Fe  Fe63  1  0.71264520  0.15819175  0.96433249  1
  Fe  Fe64  1  0.86422861  0.42361002  0.84642434  1
  Fe  Fe65  1  0.84918000  0.10156954  0.93904623  1
  Fe  Fe66  1  -0.00589129  0.29702210  0.29609882  1
  Fe  Fe67  1  0.94686702  0.36519808  0.74549636  1
  Fe  Fe68  1  0.65006180  0.24410260  0.08248543  1
  Fe  Fe69  1  0.41940050  0.43219393  0.49607712  1
  Fe  Fe70  1  0.36073981  0.06197514  0.67614662  1
  Fe  Fe71  1  0.66840514  0.09824918  0.10250691  1
  Fe  Fe72  1  0.74151793  0.57374862  0.12215194  1
  Fe  Fe73  1  0.35791017  0.31265583  0.45280627  1
  Fe  Fe74  1  0.18365983  0.67540494  0.60599342  1
  Fe  Fe75  1  1.05201191  0.79824445  0.59881932  1
  Fe  Fe76  1  0.20840680  0.80776902  0.82975642  1
  Fe  Fe77  1  0.81540550  0.97508346  0.90776729  1
  Fe  Fe78  1  0.05292207  0.21043828  0.18336508  1
  Fe  Fe79  1  -0.01122485  0.17083681  0.30481000  1
  Fe  Fe80  1  0.63480768  0.28774690  0.94513918  1
  Fe  Fe81  1  0.17077519  0.72601861  0.21944174  1
  Fe  Fe82  1  0.18806477  0.80172037  0.67040876  1
  Fe  Fe83  1  0.51761359  0.07233602  0.63914893  1
  Fe  Fe84  1  0.37167094  0.31351102  0.59539658  1
  Fe  Fe85  1  0.41048138  0.43140447  0.63964663  1
  Fe  Fe86  1  0.05177484  0.69926261  0.67918989  1
  Fe  Fe87  1  0.51891350  0.29536662  1.01398732  1
  Fe  Fe88  1  0.88909967  0.20661824  0.20128996  1
  Fe  Fe89  1  0.43842057  0.14410897  0.75368973  1
  Fe  Fe90  1  1.09796219  0.66399715  0.33849278  1
  Fe  Fe91  1  0.72233174  1.06413825  0.83328773  1
  Fe  Fe92  1  0.79775827  0.08682858  0.19955913  1
  Fe  Fe93  1  0.35290164  0.05948955  0.20400084  1
  Fe  Fe94  1  0.93949191  0.71419870  0.11458945  1
  Fe  Fe95  1  0.28087577  0.12359508  0.78623200  1
  Fe  Fe96  1  0.80404667  0.17310726  0.07865718  1
  Fe  Fe97  1  0.07747753  0.80893803  0.76956109  1
  Fe  Fe98  1  -0.02985747  0.31661869  0.16428301  1
  Fe  Fe99  1  0.47894228  0.33443832  0.39700914  1
  Fe  Fe100  1  0.59032370  1.07696454  0.75379764  1
  Fe  Fe101  1  0.06564124  0.68002468  0.51441264  1
  Bi  Bi102  1  -0.08303283  0.88077717  0.00951074  1
  Bi  Bi103  1  0.20681949  0.59528505  0.44630539  1
  Bi  Bi104  1  0.27529723  -0.05977261  0.76110971  1
  Bi  Bi105  1  0.89311286  0.04422124  0.77130402  1
  Bi  Bi106  1  0.97140276  0.20329422  0.02316300  1
  Bi  Bi107  1  0.20014679  0.11307949  0.14390960  1
  Bi  Bi108  1  0.33251052  0.75048533  -0.04977665  1
  Bi  Bi109  1  -0.18549105  0.16343874  0.36209191  1
  Bi  Bi110  1  0.56913486  0.47357272  0.58458824  1
  Bi  Bi111  1  0.67386012  0.42583606  -0.12995774  1
  Bi  Bi112  1  0.30101784  0.56408026  0.69735319  1
  Bi  Bi113  1  0.69600763  0.71330040  0.22473218  1
  Bi  Bi114  1  -0.03160726  0.76618287  0.40277165  1
  Bi  Bi115  1  0.00852786  0.66313777  0.84460314  1
  Bi  Bi116  1  0.12748574  0.36138391  0.73427488  1
  Bi  Bi117  1  0.38579751  0.97759139  0.34436555  1
  Bi  Bi118  1  0.89183310  0.89041533  0.59038001  1
  Bi  Bi119  1  0.11230832  0.57286204  0.17819341  1
  Bi  Bi120  1  0.49316590  0.01621013  0.10599417  1
  Bi  Bi121  1  0.42871737  0.64064734  0.25691798  1
  Bi  Bi122  1  0.62295138  0.73710231  0.84794030  1
  Bi  Bi123  1  0.84955124  0.47485669  0.46603863  1
  Bi  Bi124  1  0.36767019  0.36877237  0.09003399  1
  Bi  Bi125  1  0.58996625  0.73741728  0.54752979  1
  Bi  Bi126  1  0.60112582  0.98988824  0.50253709  1
  Bi  Bi127  1  0.10567495  0.88051635  0.23823771  1
