# generated using pymatgen
data_Ba51Fe51Bi26
_symmetry_space_group_name_H-M   'P 1'
_cell_length_a   17.17968989
_cell_length_b   16.05033800
_cell_length_c   15.82037891
_cell_angle_alpha   90.62618731
_cell_angle_beta   93.42024697
_cell_angle_gamma   88.31453325
_symmetry_Int_Tables_number   1
_chemical_formula_structural   Ba51Fe51Bi26
_chemical_formula_sum   'Ba51 Fe51 Bi26'
_cell_volume   4352.47051177
_cell_formula_units_Z   1
loop_
 _symmetry_equiv_pos_site_id
 _symmetry_equiv_pos_as_xyz
  1  'x, y, z'
loop_
 _atom_site_type_symbol
 _atom_site_label
 _atom_site_symmetry_multiplicity
 _atom_site_fract_x
 _atom_site_fract_y
 _atom_site_fract_z
 _atom_site_occupancy
  Ba  Ba0  1  0.24460417  0.02945021  0.32362352  1
  Ba  Ba1  1  0.40733771  0.52954373  -0.07479945  1
  Ba  Ba2  1  -0.05652230  0.60129221  0.50974817  1
  Ba  Ba3  1  0.48498216  0.52781014  0.64133325  1
  Ba  Ba4  1  0.71544191  0.28071725  -0.06631711  1
  Ba  Ba5  1  -0.04319819  -0.01425319  -0.00178297  1
  Ba  Ba6  1  0.55645097  0.66384251  0.45835305  1
  Ba  Ba7  1  0.26773254  0.76631450  0.24218200  1
  Ba  Ba8  1  0.75028039  0.48174647  0.62239685  1
  Ba  Ba9  1  0.04269360  0.26339479  0.31596717  1
  Ba  Ba10  1  0.83503329  -0.01779904  0.61011487  1
  Ba  Ba11  1  0.53554026  0.92490825  0.81442146  1
  Ba  Ba12  1  0.62618182  0.12636166  0.68821313  1
  Ba  Ba13  1  0.44519588  0.51954428  0.19392721  1
  Ba  Ba14  1  0.73246993  -0.03367013  0.28093266  1
  Ba  Ba15  1  0.07893628  0.17419234  -0.06681006  1
  Ba  Ba16  1  0.66480388  0.53797233  -0.10891980  1
  Ba  Ba17  1  0.56149257  -0.08057677  0.55072495  1
  Ba  Ba18  1  0.20067848  0.80634610  -0.03770560  1
  Ba  Ba19  1  0.50564205  -0.00985954  0.06691099  1
  Ba  Ba20  1  0.20664727  0.51217709  0.25311173  1
  Ba  Ba21  1  0.56144099  0.24071023  0.24719170  1
  Ba  Ba22  1  0.50951901  0.03102814  0.31807501  1
  Ba  Ba23  1  0.88581964  0.63843480  0.77069759  1
  Ba  Ba24  1  0.26835628  0.77506580  0.51708727  1
  Ba  Ba25  1  0.75702946  0.74608234  0.56749646  1
  Ba  Ba26  1  0.07197868  0.32224823  0.57101598  1
  Ba  Ba27  1  0.88604520  0.14924782  0.45125766  1
  Ba  Ba28  1  0.11233397  0.69693667  0.72538854  1
  Ba  Ba29  1  0.74790342  0.72653048  0.26662222  1
  Ba  Ba30  1  0.80519884  0.24751611  0.65127569  1
  Ba  Ba31  1  0.27796946  0.03586745  0.04356424  1
  Ba  Ba32  1  0.50734727  0.32890384  0.79564595  1
  Ba  Ba33  1  0.35858760  0.14932032  0.78585194  1
  Ba  Ba34  1  0.20097572  0.25680388  0.15327776  1
  Ba  Ba35  1  0.26218371  0.15412353  0.55413175  1
  Ba  Ba36  1  0.72612218  0.49884039  0.16928389  1
  Ba  Ba37  1  0.45174039  0.74057048  0.05040939  1
  Ba  Ba38  1  0.38806596  0.75768874  0.76170576  1
  Ba  Ba39  1  0.78887519  -0.08823919  0.84964976  1
  Ba  Ba40  1  0.17172138  -0.02993178  0.75550961  1
  Ba  Ba41  1  -0.00283716  0.72755282  0.24935086  1
  Ba  Ba42  1  0.23079917  0.51976377  0.55387028  1
  Ba  Ba43  1  0.10241190  0.52978553  -0.02474120  1
  Ba  Ba44  1  -0.02675664  -0.01199517  0.27249621  1
  Ba  Ba45  1  0.23264751  0.37257731  0.82886174  1
  Ba  Ba46  1  0.41882133  0.36762675  0.43515651  1
  Ba  Ba47  1  -0.11735883  0.66519750  0.01845368  1
  Ba  Ba48  1  -0.08398710  0.24943640  0.07612308  1
  Ba  Ba49  1  0.70343597  0.34830663  0.40391441  1
  Ba  Ba50  1  0.66527469  0.80068445  0.01605521  1
  Fe  Fe51  1  0.41728805  0.30436571  0.10908552  1
  Fe  Fe52  1  0.64879934  0.12559957  0.06564966  1
  Fe  Fe53  1  0.41855296  0.31394248  0.96605388  1
  Fe  Fe54  1  0.34702680  0.95323121  0.83532877  1
  Fe  Fe55  1  0.66453852  1.01648582  0.96454690  1
  Fe  Fe56  1  1.00471029  0.92458727  0.47863540  1
  Fe  Fe57  1  0.04644745  0.33833695  0.80831872  1
  Fe  Fe58  1  0.87077648  0.53401231  0.32150971  1
  Fe  Fe59  1  0.96221394  0.82973479  0.58403898  1
  Fe  Fe60  1  0.02193640  -0.01716935  0.61643596  1
  Fe  Fe61  1  0.91205340  0.29848736  0.85226194  1
  Fe  Fe62  1  0.31517808  0.24040199  0.00438823  1
  Fe  Fe63  1  0.40276219  0.16841422  0.12055305  1
  Fe  Fe64  1  0.45585627  1.09217339  0.59822807  1
  Fe  Fe65  1  0.08880052  0.85073521  0.61656106  1
  Fe  Fe66  1  0.52615598  0.22084298  1.04808726  1
  Fe  Fe67  1  -0.00330626  0.36956203  0.94205224  1
  Fe  Fe68  1  0.83961766  0.41049304  0.80660984  1
  Fe  Fe69  1  0.66735160  0.64378190  0.71408173  1
  Fe  Fe70  1  0.55388646  0.71396968  0.22580006  1
  Fe  Fe71  1  0.37149104  0.88455702  0.94113088  1
  Fe  Fe72  1  0.77128727  0.09442150  0.98200863  1
  Fe  Fe73  1  0.05642596  0.78131614  0.48896244  1
  Fe  Fe74  1  -0.02202921  0.22116566  0.73861714  1
  Fe  Fe75  1  0.56094724  0.82442044  0.33668847  1
  Fe  Fe76  1  0.77296556  0.11555824  0.13998606  1
  Fe  Fe77  1  0.45420844  0.23297818  0.59086363  1
  Fe  Fe78  1  0.93727217  0.37525293  0.71798090  1
  Fe  Fe79  1  0.40111581  1.02251831  0.49158764  1
  Fe  Fe80  1  0.66327716  0.80237331  0.72762454  1
  Fe  Fe81  1  0.13376976  -0.06559486  0.52275398  1
  Fe  Fe82  1  1.01513876  0.13101753  0.62574794  1
  Fe  Fe83  1  0.45423848  0.84394975  0.22614159  1
  Fe  Fe84  1  0.71402480  0.71803805  0.82530498  1
  Fe  Fe85  1  0.56568175  0.72507626  0.67751995  1
  Fe  Fe86  1  0.98834724  0.06880789  0.74440887  1
  Fe  Fe87  1  0.42034958  0.16341170  0.98034714  1
  Fe  Fe88  1  -0.07678396  0.53984515  0.19668243  1
  Fe  Fe89  1  0.41694911  0.15516453  0.45316913  1
  Fe  Fe90  1  0.45025899  0.72692125  0.30235633  1
  Fe  Fe91  1  0.53915249  0.17223442  0.50340701  1
  Fe  Fe92  1  0.57927489  0.71471512  0.81896826  1
  Fe  Fe93  1  0.58107387  0.84570528  0.20046025  1
  Fe  Fe94  1  0.90292892  0.40371480  0.25296116  1
  Fe  Fe95  1  0.00605519  0.50050692  0.32191388  1
  Fe  Fe96  1  0.74565427  0.98668290  1.07173730  1
  Fe  Fe97  1  0.84700354  0.28329575  0.29418588  1
  Fe  Fe98  1  0.75017571  0.16919288  0.29161028  1
  Fe  Fe99  1  0.86636131  0.15652011  0.24312592  1
  Fe  Fe100  1  0.09167457  0.09270023  0.14946814  1
  Fe  Fe101  1  -0.04182840  0.46036130  0.84243613  1
  Bi  Bi102  1  0.73658535  0.28243684  0.16336712  1
  Bi  Bi103  1  0.29063680  0.41118114  0.05016953  1
  Bi  Bi104  1  0.14198962  0.18939135  0.73405131  1
  Bi  Bi105  1  -0.09281921  0.38522827  0.43422465  1
  Bi  Bi106  1  0.36348744  0.20323119  0.28690549  1
  Bi  Bi107  1  0.55836183  0.13224742  -0.10317172  1
  Bi  Bi108  1  0.07993856  0.09171367  0.46779699  1
  Bi  Bi109  1  0.36597403  -0.04347864  0.65492047  1
  Bi  Bi110  1  -0.12006157  0.82853067  0.41989230  1
  Bi  Bi111  1  -0.14681227  0.45637800  -0.02448484  1
  Bi  Bi112  1  0.06420198  0.49245897  0.71408350  1
  Bi  Bi113  1  0.40534054  0.87009018  0.39745548  1
  Bi  Bi114  1  0.86312720  0.12860616  -0.15900980  1
  Bi  Bi115  1  0.12656251  0.92805391  0.12785853  1
  Bi  Bi116  1  0.84887052  0.85568826  0.12161404  1
  Bi  Bi117  1  0.03826162  0.41931241  0.15574807  1
  Bi  Bi118  1  0.55311414  0.39828739  0.03527878  1
  Bi  Bi119  1  0.36888310  0.59738196  0.39382439  1
  Bi  Bi120  1  0.97896104  0.87324714  0.75945307  1
  Bi  Bi121  1  0.12775714  0.86248013  0.36592968  1
  Bi  Bi122  1  0.27740346  0.62979879  0.06845870  1
  Bi  Bi123  1  0.34084968  0.35206909  0.64205860  1
  Bi  Bi124  1  0.68345486  0.11158875  0.45069678  1
  Bi  Bi125  1  0.59365254  0.33133915  0.59229636  1
  Bi  Bi126  1  0.11188016  0.62933399  0.40855092  1
  Bi  Bi127  1  0.73920090  0.56844727  0.41334270  1
