# generated using pymatgen
data_Ba51Fe51Bi26
_symmetry_space_group_name_H-M   'P 1'
_cell_length_a   16.37671343
_cell_length_b   16.27623832
_cell_length_c   16.61750095
_cell_angle_alpha   90.21693190
_cell_angle_beta   91.21792368
_cell_angle_gamma   89.58033476
_symmetry_Int_Tables_number   1
_chemical_formula_structural   Ba51Fe51Bi26
_chemical_formula_sum   'Ba51 Fe51 Bi26'
_cell_volume   4428.26766130
_cell_formula_units_Z   1
loop_
 _symmetry_equiv_pos_site_id
 _symmetry_equiv_pos_as_xyz
  1  'x, y, z'
loop_
 _atom_site_type_symbol
 _atom_site_label
 _atom_site_symmetry_multiplicity
 _atom_site_fract_x
 _atom_site_fract_y
 _atom_site_fract_z
 _atom_site_occupancy
  Ba  Ba0  1  0.25539955  0.53826652  -0.02111823  1
  Ba  Ba1  1  0.71807705  0.52196075  0.47467718  1
  Ba  Ba2  1  0.10185077  0.43799025  0.13203480  1
  Ba  Ba3  1  0.75997445  0.20729218  -0.00601324  1
  Ba  Ba4  1  0.30259514  0.81995345  0.25422374  1
  Ba  Ba5  1  -0.03180899  0.34450122  0.49504994  1
  Ba  Ba6  1  0.21483562  0.74158528  0.50076466  1
  Ba  Ba7  1  0.46097340  0.25896712  0.12342485  1
  Ba  Ba8  1  0.07654112  0.84187845  0.73939962  1
  Ba  Ba9  1  0.79159213  0.42560701  0.71797872  1
  Ba  Ba10  1  0.48149728  0.73101692  0.65367286  1
  Ba  Ba11  1  0.52942379  0.13586368  0.64298687  1
  Ba  Ba12  1  0.18160164  0.01624041  0.46084792  1
  Ba  Ba13  1  0.22867019  0.42397712  0.76599225  1
  Ba  Ba14  1  0.66255938  0.77115842  0.47100790  1
  Ba  Ba15  1  -0.03831004  0.82043932  0.49282484  1
  Ba  Ba16  1  0.71381160  0.00766248  0.79980936  1
  Ba  Ba17  1  0.07017256  0.20737101  0.82297362  1
  Ba  Ba18  1  0.29976040  0.12317296  0.24935006  1
  Ba  Ba19  1  0.79862263  0.20091569  0.26183632  1
  Ba  Ba20  1  0.43562033  -0.06291797  0.49080935  1
  Ba  Ba21  1  0.47428782  -0.02258125  0.15506367  1
  Ba  Ba22  1  -0.00670985  0.06055947  0.59616390  1
  Ba  Ba23  1  0.33344236  0.17139538  0.80955690  1
  Ba  Ba24  1  0.00160315  -0.09717637  -0.03163904  1
  Ba  Ba25  1  0.73675114  0.71325612  0.21425766  1
  Ba  Ba26  1  0.00521241  0.57361338  0.84152146  1
  Ba  Ba27  1  0.74284842  -0.05153165  0.05073740  1
  Ba  Ba28  1  0.76481070  0.22631313  0.56302595  1
  Ba  Ba29  1  0.42755963  0.50527796  0.54847031  1
  Ba  Ba30  1  0.65511515  0.77400600  0.82772279  1
  Ba  Ba31  1  0.01850945  0.68959118  0.29704569  1
  Ba  Ba32  1  0.57868815  0.50248487  0.76963349  1
  Ba  Ba33  1  0.05905869  0.13725728  0.04821636  1
  Ba  Ba34  1  0.44331651  0.66422719  0.09983419  1
  Ba  Ba35  1  0.56677075  0.49413602  0.25796177  1
  Ba  Ba36  1  0.54519443  0.45575283  -0.00425604  1
  Ba  Ba37  1  0.85148263  0.46938724  0.24088256  1
  Ba  Ba38  1  0.68853117  -0.03757457  0.28692467  1
  Ba  Ba39  1  0.16798464  0.23895686  0.61404870  1
  Ba  Ba40  1  0.13913457  0.50141803  0.55060403  1
  Ba  Ba41  1  0.51565982  0.25958990  0.42714108  1
  Ba  Ba42  1  0.40018048  -0.01340494  -0.07175240  1
  Ba  Ba43  1  -0.01137420  0.68622883  0.07140685  1
  Ba  Ba44  1  0.81880492  0.43392770  -0.01480230  1
  Ba  Ba45  1  0.38791572  0.75397419  -0.11752272  1
  Ba  Ba46  1  0.07416990  -0.06744539  0.24660211  1
  Ba  Ba47  1  0.28767030  0.53149993  0.32642653  1
  Ba  Ba48  1  0.05189055  0.21652232  0.29943119  1
  Ba  Ba49  1  0.76830529  -0.01329594  0.52580813  1
  Ba  Ba50  1  -0.09635376  0.64579711  0.63773429  1
  Fe  Fe51  1  0.62273035  0.32226666  0.86617991  1
  Fe  Fe52  1  0.60533290  0.65382950  0.97897537  1
  Fe  Fe53  1  0.63221236  0.13844759  0.15692978  1
  Fe  Fe54  1  0.20755609  0.02987723  0.72401958  1
  Fe  Fe55  1  0.23541749  0.93184098  0.63918658  1
  Fe  Fe56  1  0.93308762  0.24986835  0.68233568  1
  Fe  Fe57  1  0.34750353  0.23356015  0.53134875  1
  Fe  Fe58  1  0.31972957  0.85192473  0.05456327  1
  Fe  Fe59  1  0.55851105  0.12267496  0.26507231  1
  Fe  Fe60  1  0.22616776  0.87057775  0.94993796  1
  Fe  Fe61  1  0.19409860  0.25364030  0.11614125  1
  Fe  Fe62  1  0.56479901  0.18368145  0.83355146  1
  Fe  Fe63  1  0.18348515  0.35852340  0.40881332  1
  Fe  Fe64  1  0.20765807  0.29552697  0.97705432  1
  Fe  Fe65  1  0.16803715  0.81518045  0.07342816  1
  Fe  Fe66  1  0.21828900  0.63736552  0.79057495  1
  Fe  Fe67  1  0.28427268  0.35758616  0.50779370  1
  Fe  Fe68  1  0.45101481  0.69965069  0.28294880  1
  Fe  Fe69  1  0.58200134  0.30129014  0.73576616  1
  Fe  Fe70  1  0.87572108  0.92608361  0.35542949  1
  Fe  Fe71  1  0.87017276  0.88238246  0.65445322  1
  Fe  Fe72  1  0.72024795  0.60033769  0.92508679  1
  Fe  Fe73  1  0.57538814  0.69276175  0.31636149  1
  Fe  Fe74  1  0.25533542  0.91270912  0.80273709  1
  Fe  Fe75  1  0.32780504  0.29552551  0.39457435  1
  Fe  Fe76  1  -0.01834327  1.00123941  0.40180645  1
  Fe  Fe77  1  0.14152698  0.65203479  0.68434990  1
  Fe  Fe78  1  0.26872205  0.61473599  0.65973645  1
  Fe  Fe79  1  0.87680235  0.07922983  0.39696376  1
  Fe  Fe80  1  0.88758806  0.14512113  0.85059929  1
  Fe  Fe81  1  0.28246509  0.34513527  0.08102217  1
  Fe  Fe82  1  0.67857576  0.58637645  0.07217701  1
  Fe  Fe83  1  0.90025976  0.02664253  0.27127848  1
  Fe  Fe84  1  0.88392907  0.27266263  0.80523495  1
  Fe  Fe85  1  0.47459150  0.31643264  0.81240944  1
  Fe  Fe86  1  0.85443612  0.82837407  0.76913094  1
  Fe  Fe87  1  0.80136321  0.62330476  0.03477421  1
  Fe  Fe88  1  0.33936467  0.14500383  0.43732277  1
  Fe  Fe89  1  0.26375612  0.73313482  0.03122873  1
  Fe  Fe90  1  0.71775968  0.72894207  1.01630609  1
  Fe  Fe91  1  0.34886502  0.95542198  0.71581373  1
  Fe  Fe92  1  0.21873628  0.22509910  0.43261668  1
  Fe  Fe93  1  0.75435844  0.81274540  0.65894713  1
  Fe  Fe94  1  0.55207266  0.79147215  0.21300833  1
  Fe  Fe95  1  0.86613788  0.64833433  0.41881175  1
  Fe  Fe96  1  0.86414318  0.14282895  0.72023755  1
  Fe  Fe97  1  0.50279527  0.82793873  0.32798447  1
  Fe  Fe98  1  0.51365535  0.25586481  0.93247124  1
  Fe  Fe99  1  -0.00187395  0.61333078  0.46751793  1
  Fe  Fe100  1  0.60823504  0.24317286  0.25294955  1
  Fe  Fe101  1  0.91259350  0.52346134  0.42888268  1
  Bi  Bi102  1  -0.07342018  -0.00687961  0.78382817  1
  Bi  Bi103  1  0.36316809  0.35301695  -0.06982332  1
  Bi  Bi104  1  0.42923497  0.71564164  0.44573003  1
  Bi  Bi105  1  0.32387992  0.08139027  0.60411501  1
  Bi  Bi106  1  0.22015730  -0.02547658  0.10555620  1
  Bi  Bi107  1  0.72496850  0.21952867  0.77453343  1
  Bi  Bi108  1  0.05950145  0.47006436  0.34748512  1
  Bi  Bi109  1  0.85472218  0.73087863  -0.09061565  1
  Bi  Bi110  1  0.39610438  0.32665373  0.65941991  1
  Bi  Bi111  1  0.57611844  0.10025099  -0.00827976  1
  Bi  Bi112  1  0.13868684  0.72570310  -0.08506754  1
  Bi  Bi113  1  0.27954015  0.78116905  0.69621735  1
  Bi  Bi114  1  0.24314977  0.32745195  0.25473361  1
  Bi  Bi115  1  0.18918812  0.65784354  0.16308308  1
  Bi  Bi116  1  0.93254740  0.30018457  0.12460072  1
  Bi  Bi117  1  0.57225287  0.81855030  0.03884238  1
  Bi  Bi118  1  0.67876831  0.34605510  0.14304446  1
  Bi  Bi119  1  0.69045192  0.64644046  0.64995775  1
  Bi  Bi120  1  0.60714255  0.90842272  0.63664203  1
  Bi  Bi121  1  0.38241913  0.46532564  0.14635286  1
  Bi  Bi122  1  0.38098348  0.56924721  0.77947882  1
  Bi  Bi123  1  0.16473307  0.02338787  0.88560237  1
  Bi  Bi124  1  0.88462177  0.86452740  0.19197031  1
  Bi  Bi125  1  0.29636491  0.15665738  0.02706410  1
  Bi  Bi126  1  0.01196984  0.39951409  0.70328924  1
  Bi  Bi127  1  0.60973317  0.37423174  0.58661128  1
