# generated using pymatgen
data_Ba51Fe51Bi26
_symmetry_space_group_name_H-M   'P 1'
_cell_length_a   16.09637839
_cell_length_b   16.74160279
_cell_length_c   16.33254051
_cell_angle_alpha   90.37848003
_cell_angle_beta   90.84833181
_cell_angle_gamma   91.07460543
_symmetry_Int_Tables_number   1
_chemical_formula_structural   Ba51Fe51Bi26
_chemical_formula_sum   'Ba51 Fe51 Bi26'
_cell_volume   4399.91879481
_cell_formula_units_Z   1
loop_
 _symmetry_equiv_pos_site_id
 _symmetry_equiv_pos_as_xyz
  1  'x, y, z'
loop_
 _atom_site_type_symbol
 _atom_site_label
 _atom_site_symmetry_multiplicity
 _atom_site_fract_x
 _atom_site_fract_y
 _atom_site_fract_z
 _atom_site_occupancy
  Ba  Ba0  1  0.24845439  -0.01177913  0.09464794  1
  Ba  Ba1  1  0.64724528  0.21032068  0.04419236  1
  Ba  Ba2  1  0.04576012  0.12658918  0.52433760  1
  Ba  Ba3  1  0.71903212  0.78753026  -0.08652406  1
  Ba  Ba4  1  0.73963746  0.46248263  0.56031776  1
  Ba  Ba5  1  0.54791740  -0.06828839  0.27825638  1
  Ba  Ba6  1  0.48576164  0.00625053  0.04143765  1
  Ba  Ba7  1  0.35075273  0.29344401  0.79970090  1
  Ba  Ba8  1  0.22239665  0.30126629  0.04146442  1
  Ba  Ba9  1  0.04775147  0.71871482  0.66286994  1
  Ba  Ba10  1  -0.10863262  0.27280465  0.19498922  1
  Ba  Ba11  1  0.00388407  0.50729190  0.31088291  1
  Ba  Ba12  1  0.46432686  0.44599524  0.45853855  1
  Ba  Ba13  1  -0.14028329  0.04983229  0.30300200  1
  Ba  Ba14  1  0.11839317  0.21352096  0.75967620  1
  Ba  Ba15  1  0.43734027  0.67828141  0.26797610  1
  Ba  Ba16  1  0.19646069  0.02802091  0.35370295  1
  Ba  Ba17  1  -0.02058263  0.76776863  -0.11723194  1
  Ba  Ba18  1  0.29933947  0.01847345  0.83464324  1
  Ba  Ba19  1  0.27975166  0.79589075  0.46228819  1
  Ba  Ba20  1  -0.06025478  0.31799222  -0.06591910  1
  Ba  Ba21  1  0.27074999  0.29425261  0.54519544  1
  Ba  Ba22  1  0.26327943  0.54226356  0.72785443  1
  Ba  Ba23  1  0.77705956  -0.00746193  0.77215117  1
  Ba  Ba24  1  0.66098711  0.26470875  0.41838971  1
  Ba  Ba25  1  0.62252390  0.45909031  0.19860592  1
  Ba  Ba26  1  0.60297755  0.30270101  0.80115228  1
  Ba  Ba27  1  -0.10729414  0.02740405  0.03917632  1
  Ba  Ba28  1  0.24290523  0.48115821  0.22990094  1
  Ba  Ba29  1  0.68772141  0.72068838  0.20765662  1
  Ba  Ba30  1  0.06390857  0.62590564  0.08816868  1
  Ba  Ba31  1  0.16687877  0.52379369  0.50215174  1
  Ba  Ba32  1  0.49455177  0.75400610  0.01449174  1
  Ba  Ba33  1  -0.11449105  -0.06478987  0.55412243  1
  Ba  Ba34  1  0.25133927  0.01863014  0.60322065  1
  Ba  Ba35  1  -0.05301156  0.34091732  0.48342309  1
  Ba  Ba36  1  0.46677339  0.65796894  0.52159095  1
  Ba  Ba37  1  -0.08053361  0.82041524  0.19250887  1
  Ba  Ba38  1  0.28620610  0.24468123  0.27566745  1
  Ba  Ba39  1  0.28652646  0.52126984  -0.03924111  1
  Ba  Ba40  1  0.58475113  0.75413518  0.71139190  1
  Ba  Ba41  1  0.76161581  0.68798013  0.53148195  1
  Ba  Ba42  1  0.83658930  0.23582552  0.68281998  1
  Ba  Ba43  1  0.62193389  0.52910305  -0.05871839  1
  Ba  Ba44  1  0.10659480  0.08030614  0.96382338  1
  Ba  Ba45  1  0.65336158  0.00914889  0.46483716  1
  Ba  Ba46  1  0.19760258  0.79205069  0.21974248  1
  Ba  Ba47  1  0.31319523  0.79314331  0.73898778  1
  Ba  Ba48  1  0.51150642  0.04717555  0.67457798  1
  Ba  Ba49  1  -0.01457823  0.72902052  0.40182204  1
  Ba  Ba50  1  0.87632798  0.54759158  -0.05486806  1
  Fe  Fe51  1  0.42848226  0.29882990  0.12070658  1
  Fe  Fe52  1  0.54737363  0.42987179  0.64241640  1
  Fe  Fe53  1  0.47671423  0.46276817  0.79482057  1
  Fe  Fe54  1  0.44067843  0.24614255  0.43022873  1
  Fe  Fe55  1  0.50092736  0.85623788  0.55812451  1
  Fe  Fe56  1  0.18246276  0.75193752  0.01532442  1
  Fe  Fe57  1  0.05232496  0.50191120  0.67626968  1
  Fe  Fe58  1  0.16270604  0.63859300  0.33030683  1
  Fe  Fe59  1  0.97342012  0.89569159  0.73365153  1
  Fe  Fe60  1  1.04636189  0.02998834  0.73767287  1
  Fe  Fe61  1  0.45398933  0.21943282  1.01599822  1
  Fe  Fe62  1  0.41629439  0.42520413  0.66789774  1
  Fe  Fe63  1  0.13133019  0.39166666  0.65723823  1
  Fe  Fe64  1  0.31386860  0.72010406  0.92707503  1
  Fe  Fe65  1  0.30855918  0.81601671  0.04648874  1
  Fe  Fe66  1  0.47400687  0.55468402  0.69001147  1
  Fe  Fe67  1  0.62425672  0.82743521  0.50964650  1
  Fe  Fe68  1  0.63674412  0.88658011  0.10090067  1
  Fe  Fe69  1  0.97062821  0.44661439  0.79036828  1
  Fe  Fe70  1  0.77714329  0.56348503  0.12044311  1
  Fe  Fe71  1  0.18398047  0.70661532  0.88703625  1
  Fe  Fe72  1  0.35644069  0.16495620  0.10925959  1
  Fe  Fe73  1  0.09475214  -0.07845131  0.67492076  1
  Fe  Fe74  1  0.06780361  0.19791559  0.29634210  1
  Fe  Fe75  1  0.49990271  0.15734237  0.32550989  1
  Fe  Fe76  1  0.70037664  0.00983369  0.13732861  1
  Fe  Fe77  1  0.61187881  0.49249918  0.75090500  1
  Fe  Fe78  1  0.11507354  0.91067976  0.81130971  1
  Fe  Fe79  1  0.74258141  0.91112047  0.21606980  1
  Fe  Fe80  1  0.87807458  0.62549994  0.19009529  1
  Fe  Fe81  1  0.49199605  0.82657203  0.42848604  1
  Fe  Fe82  1  0.37424710  0.11946214  0.40183476  1
  Fe  Fe83  1  0.09335310  0.30308138  0.21719179  1
  Fe  Fe84  1  0.28962845  0.68507415  0.06344569  1
  Fe  Fe85  1  0.33769701  0.15514396  0.97583811  1
  Fe  Fe86  1  0.86269073  0.47591497  0.17350662  1
  Fe  Fe87  1  0.60240816  0.56775400  0.64259093  1
  Fe  Fe88  1  1.00773338  0.34705159  0.68625432  1
  Fe  Fe89  1  0.39268572  0.14500350  0.53488508  1
  Fe  Fe90  1  0.76893880  0.88304475  0.08373149  1
  Fe  Fe91  1  0.10756497  0.41086740  0.79070880  1
  Fe  Fe92  1  0.92003843  0.44777907  0.66177974  1
  Fe  Fe93  1  0.79262067  0.56757893  0.27770331  1
  Fe  Fe94  1  0.98816676  0.96891576  0.84420571  1
  Fe  Fe95  1  0.34671127  0.85790513  0.92789241  1
  Fe  Fe96  1  0.49040508  0.18302598  0.17735327  1
  Fe  Fe97  1  0.51349338  0.13724889  0.47562260  1
  Fe  Fe98  1  0.60535965  0.75795267  0.39691805  1
  Fe  Fe99  1  0.20280097  0.84997465  0.92154658  1
  Fe  Fe100  1  0.10019098  0.16762994  0.17128542  1
  Fe  Fe101  1  0.28076920  0.61992315  0.37174235  1
  Bi  Bi102  1  0.80273562  0.41039601  0.33103592  1
  Bi  Bi103  1  0.46300451  0.38004007  -0.02916572  1
  Bi  Bi104  1  0.83204420  0.79836046  0.71395532  1
  Bi  Bi105  1  0.76437878  0.39802666  0.05093297  1
  Bi  Bi106  1  0.69087743  -0.00835619  -0.03130481  1
  Bi  Bi107  1  0.08072466  0.57196126  0.85182720  1
  Bi  Bi108  1  0.76582775  -0.15471622  0.37448711  1
  Bi  Bi109  1  0.43983870  0.62697135  0.84009905  1
  Bi  Bi110  1  0.07242511  0.86924449  0.04263520  1
  Bi  Bi111  1  0.49035461  0.27171472  0.60393093  1
  Bi  Bi112  1  0.79552589  0.41851889  0.78100421  1
  Bi  Bi113  1  0.38414643  0.05901112  0.23996664  1
  Bi  Bi114  1  0.41907604  -0.02430271  0.47391363  1
  Bi  Bi115  1  0.93377510  0.12580860  0.83825378  1
  Bi  Bi116  1  1.03940793  0.41945053  0.10832493  1
  Bi  Bi117  1  0.95050846  0.55958237  0.53660025  1
  Bi  Bi118  1  0.48074124  0.14014460  0.87164063  1
  Bi  Bi119  1  0.83204851  0.14310809  0.49173743  1
  Bi  Bi120  1  0.48861815  0.89424212  0.84059668  1
  Bi  Bi121  1  0.62649952  0.59229407  0.37512171  1
  Bi  Bi122  1  0.09380678  0.89774532  0.50357546  1
  Bi  Bi123  1  0.73394485  0.60963534  0.75760116  1
  Bi  Bi124  1  0.65232251  0.12517647  0.24725923  1
  Bi  Bi125  1  0.13219093  0.34423759  0.37993347  1
  Bi  Bi126  1  0.04656789  1.01486749  0.19916994  1
  Bi  Bi127  1  0.48756054  0.32324011  0.28264282  1
