# generated using pymatgen
data_Ba51Fe51Bi26
_symmetry_space_group_name_H-M   'P 1'
_cell_length_a   16.51290745
_cell_length_b   16.24394652
_cell_length_c   16.12797757
_cell_angle_alpha   90.14656521
_cell_angle_beta   88.62311732
_cell_angle_gamma   87.39601493
_symmetry_Int_Tables_number   1
_chemical_formula_structural   Ba51Fe51Bi26
_chemical_formula_sum   'Ba51 Fe51 Bi26'
_cell_volume   4320.34089565
_cell_formula_units_Z   1
loop_
 _symmetry_equiv_pos_site_id
 _symmetry_equiv_pos_as_xyz
  1  'x, y, z'
loop_
 _atom_site_type_symbol
 _atom_site_label
 _atom_site_symmetry_multiplicity
 _atom_site_fract_x
 _atom_site_fract_y
 _atom_site_fract_z
 _atom_site_occupancy
  Ba  Ba0  1  0.34678755  0.01923669  -0.03155875  1
  Ba  Ba1  1  0.08987231  0.06399718  0.04602199  1
  Ba  Ba2  1  0.79772740  0.03259145  0.52320179  1
  Ba  Ba3  1  0.18328419  0.07956213  0.25537177  1
  Ba  Ba4  1  0.74352325  0.26144749  0.47586844  1
  Ba  Ba5  1  0.05502009  0.37875354  0.47682472  1
  Ba  Ba6  1  0.31982494  0.64901117  0.69518457  1
  Ba  Ba7  1  0.54494477  0.01104713  0.43706861  1
  Ba  Ba8  1  0.50917973  0.27008833  0.33342163  1
  Ba  Ba9  1  0.52053980  0.52852997  0.28254515  1
  Ba  Ba10  1  0.71141380  0.67517493  0.41983066  1
  Ba  Ba11  1  0.60849398  0.71629111  0.78687650  1
  Ba  Ba12  1  0.35706974  0.75841640  -0.04964398  1
  Ba  Ba13  1  0.87922482  0.06347525  0.25653069  1
  Ba  Ba14  1  0.81379132  0.74373176  0.67516070  1
  Ba  Ba15  1  0.80423216  0.76556577  0.17541386  1
  Ba  Ba16  1  0.05567602  0.78873991  0.21450287  1
  Ba  Ba17  1  -0.04821729  0.03826705  0.86234293  1
  Ba  Ba18  1  -0.07390465  0.42015295  0.77539494  1
  Ba  Ba19  1  0.30443981  0.08610028  0.66181750  1
  Ba  Ba20  1  0.19066663  0.77555226  0.48016787  1
  Ba  Ba21  1  0.15834340  0.47411169  0.78964937  1
  Ba  Ba22  1  0.47745647  0.77466964  0.49228804  1
  Ba  Ba23  1  0.73558007  0.32091830  0.20987845  1
  Ba  Ba24  1  0.46511260  -0.07697764  0.76510147  1
  Ba  Ba25  1  0.21389086  0.25410814  -0.07210781  1
  Ba  Ba26  1  0.77941717  0.47151959  0.58136570  1
  Ba  Ba27  1  0.34790856  0.42988973  0.47889953  1
  Ba  Ba28  1  0.58756630  0.65224445  0.05956956  1
  Ba  Ba29  1  0.55844932  0.49175542  0.67393249  1
  Ba  Ba30  1  0.02437932  0.64845782  0.67165445  1
  Ba  Ba31  1  0.11270512  0.66919304  -0.05071840  1
  Ba  Ba32  1  0.39504962  0.52831127  0.07057663  1
  Ba  Ba33  1  0.78097848  0.52125414  0.01025594  1
  Ba  Ba34  1  0.35616538  0.31984783  0.69336602  1
  Ba  Ba35  1  0.17375909  0.47377292  0.09043164  1
  Ba  Ba36  1  0.52576712  0.35918167  0.87704821  1
  Ba  Ba37  1  0.10824934  0.84892155  0.77064034  1
  Ba  Ba38  1  0.74961478  0.26862607  -0.03322549  1
  Ba  Ba39  1  0.31046600  -0.00793683  0.43616111  1
  Ba  Ba40  1  0.22378155  0.58348874  0.31642171  1
  Ba  Ba41  1  0.00820441  0.94479287  0.41739401  1
  Ba  Ba42  1  0.40932821  0.25800502  0.08755835  1
  Ba  Ba43  1  0.56469240  0.12672401  0.68602508  1
  Ba  Ba44  1  -0.08156524  0.51433729  0.30347564  1
  Ba  Ba45  1  0.57697251  0.01422529  0.17390093  1
  Ba  Ba46  1  0.05431942  0.03393608  0.62430757  1
  Ba  Ba47  1  0.11003951  0.24278365  0.69539383  1
  Ba  Ba48  1  0.79059652  -0.03118259  0.02404431  1
  Ba  Ba49  1  0.31741319  -0.10066802  0.17295395  1
  Ba  Ba50  1  0.72263624  -0.06585337  0.79549043  1
  Fe  Fe51  1  0.23026024  0.30662052  0.39271249  1
  Fe  Fe52  1  0.74659092  0.17859912  0.66793777  1
  Fe  Fe53  1  0.39186721  0.21644131  0.50307356  1
  Fe  Fe54  1  0.17167056  0.90821786  0.94359187  1
  Fe  Fe55  1  0.31549884  0.42707689  0.91636647  1
  Fe  Fe56  1  0.85750111  0.09495975  0.70325034  1
  Fe  Fe57  1  0.72558521  0.86711283  0.45131412  1
  Fe  Fe58  1  -0.06888987  0.73878410  0.38127861  1
  Fe  Fe59  1  0.41176547  0.72220269  0.18702419  1
  Fe  Fe60  1  0.51056403  0.72231860  0.28024914  1
  Fe  Fe61  1  0.51979879  0.81572791  0.15965101  1
  Fe  Fe62  1  0.91568990  0.76734853  0.87491146  1
  Fe  Fe63  1  0.26338921  0.24780479  0.52387740  1
  Fe  Fe64  1  0.68857087  0.24142019  0.78783095  1
  Fe  Fe65  1  0.04954517  0.65189535  0.42968716  1
  Fe  Fe66  1  0.29661204  0.56025552  0.89512666  1
  Fe  Fe67  1  0.96361420  0.16716287  0.45452461  1
  Fe  Fe68  1  0.17899731  0.37999877  0.27294924  1
  Fe  Fe69  1  0.78753964  0.30828315  0.67880939  1
  Fe  Fe70  1  0.65203105  0.30973604  0.67180515  1
  Fe  Fe71  1  -0.01606829  0.44476503  0.09339549  1
  Fe  Fe72  1  0.04598864  0.36452517  0.21279006  1
  Fe  Fe73  1  0.99318897  0.76267379  0.50282951  1
  Fe  Fe74  1  0.96875335  0.52706983  0.96170011  1
  Fe  Fe75  1  0.86041368  0.82938183  0.49797779  1
  Fe  Fe76  1  0.27047344  0.25276319  0.25867692  1
  Fe  Fe77  1  0.48084788  0.88359604  1.04071549  1
  Fe  Fe78  1  0.45301103  0.84592512  0.29760820  1
  Fe  Fe79  1  0.15968968  0.26969331  0.16116628  1
  Fe  Fe80  1  0.02251804  0.21439095  0.19478037  1
  Fe  Fe81  1  0.17179381  0.83835661  0.05241885  1
  Fe  Fe82  1  0.36002024  0.48033665  0.80038654  1
  Fe  Fe83  1  0.92172072  0.32493545  0.14433592  1
  Fe  Fe84  1  0.84751809  0.85346439  0.35584568  1
  Fe  Fe85  1  0.74212347  0.94744561  0.34207866  1
  Fe  Fe86  1  0.72904662  0.37560815  0.78558654  1
  Fe  Fe87  1  0.84401197  0.23000295  0.78282695  1
  Fe  Fe88  1  0.36338432  0.74811569  0.31575233  1
  Fe  Fe89  1  0.11256317  0.25970328  0.31080168  1
  Fe  Fe90  1  0.90943177  0.67969415  -0.02049367  1
  Fe  Fe91  1  0.62496738  0.85152874  0.05032796  1
  Fe  Fe92  1  0.76789388  0.11976838  0.80684431  1
  Fe  Fe93  1  0.04444149  0.29628184  1.06342413  1
  Fe  Fe94  1  0.55719686  0.83513207  0.93746650  1
  Fe  Fe95  1  0.02374622  0.15118389  0.33739536  1
  Fe  Fe96  1  0.88806396  0.95165862  0.67795532  1
  Fe  Fe97  1  -0.04105159  0.86168759  0.60687458  1
  Fe  Fe98  1  0.04672635  0.40421262  0.95279556  1
  Fe  Fe99  1  0.31901631  0.19056518  0.39135881  1
  Fe  Fe100  1  0.92206374  0.37048691  0.99645268  1
  Fe  Fe101  1  0.89758024  0.61855600  -0.14229319  1
  Bi  Bi102  1  -0.00540983  0.25167036  -0.11035253  1
  Bi  Bi103  1  -0.07964374  0.28881028  0.32854156  1
  Bi  Bi104  1  0.92044293  0.22998000  0.60962068  1
  Bi  Bi105  1  0.75394469  0.76244362  -0.04995663  1
  Bi  Bi106  1  0.24930123  0.69875485  0.13321262  1
  Bi  Bi107  1  -0.09764261  0.61780189  0.50172771  1
  Bi  Bi108  1  0.14000578  0.15506619  0.46594064  1
  Bi  Bi109  1  0.34486001  0.40527284  0.25336834  1
  Bi  Bi110  1  0.00598375  -0.13906119  -0.00704356  1
  Bi  Bi111  1  0.75196433  0.54933686  0.78695342  1
  Bi  Bi112  1  -0.01987890  0.61480726  0.11892446  1
  Bi  Bi113  1  0.57644196  0.00231037  -0.04872030  1
  Bi  Bi114  1  0.62416922  0.83928597  0.30760756  1
  Bi  Bi115  1  0.52686549  0.30641085  0.55496454  1
  Bi  Bi116  1  0.72434427  0.56786477  0.22071104  1
  Bi  Bi117  1  0.69716989  0.45495340  0.38178359  1
  Bi  Bi118  1  0.41161763  0.17367078  0.84197425  1
  Bi  Bi119  1  0.17034661  0.56320826  0.53161610  1
  Bi  Bi120  1  0.90301121  0.16996756  0.07307401  1
  Bi  Bi121  1  0.58012871  0.40399628  0.08319760  1
  Bi  Bi122  1  0.46990992  0.58192716  0.86768372  1
  Bi  Bi123  1  0.63162327  0.87930822  0.60256845  1
  Bi  Bi124  1  0.30341290  0.86683164  0.63067307  1
  Bi  Bi125  1  0.16835848  0.04777735  0.83226119  1
  Bi  Bi126  1  0.39121202  0.10663226  0.25368524  1
  Bi  Bi127  1  0.68731516  0.11730594  0.32615251  1
