# generated using pymatgen
data_Ba51Fe51Bi26
_symmetry_space_group_name_H-M   'P 1'
_cell_length_a   16.12873217
_cell_length_b   16.76270884
_cell_length_c   16.20292904
_cell_angle_alpha   90.75937975
_cell_angle_beta   89.95899338
_cell_angle_gamma   88.42893067
_symmetry_Int_Tables_number   1
_chemical_formula_structural   Ba51Fe51Bi26
_chemical_formula_sum   'Ba51 Fe51 Bi26'
_cell_volume   4378.61011043
_cell_formula_units_Z   1
loop_
 _symmetry_equiv_pos_site_id
 _symmetry_equiv_pos_as_xyz
  1  'x, y, z'
loop_
 _atom_site_type_symbol
 _atom_site_label
 _atom_site_symmetry_multiplicity
 _atom_site_fract_x
 _atom_site_fract_y
 _atom_site_fract_z
 _atom_site_occupancy
  Ba  Ba0  1  0.42868302  0.17658453  0.53772209  1
  Ba  Ba1  1  0.77251114  0.33080692  0.19166679  1
  Ba  Ba2  1  0.26934068  0.48143860  0.27021159  1
  Ba  Ba3  1  -0.05205236  0.51917293  0.21506024  1
  Ba  Ba4  1  0.77912172  0.09243060  0.32719413  1
  Ba  Ba5  1  0.07318020  0.28697686  0.16568232  1
  Ba  Ba6  1  -0.03392004  0.25316520  0.39398702  1
  Ba  Ba7  1  0.56962718  0.07120634  0.19308167  1
  Ba  Ba8  1  0.76501220  0.74047438  0.23545538  1
  Ba  Ba9  1  0.77917309  0.76378480  0.81745738  1
  Ba  Ba10  1  0.01394827  -0.01995605  0.24170806  1
  Ba  Ba11  1  0.48067305  0.69452557  0.48409931  1
  Ba  Ba12  1  0.01811880  0.77901876  0.47708894  1
  Ba  Ba13  1  0.03953947  0.73392908  0.24941438  1
  Ba  Ba14  1  0.00588018  0.51960812  0.54473920  1
  Ba  Ba15  1  0.19370405  -0.01667342  0.83490501  1
  Ba  Ba16  1  0.61613143  0.70046230  0.66540193  1
  Ba  Ba17  1  0.65129840  -0.09965005  0.36860538  1
  Ba  Ba18  1  0.31721165  0.43751956  -0.02828226  1
  Ba  Ba19  1  0.53566407  0.68618044  0.06049686  1
  Ba  Ba20  1  0.75200314  0.48116952  0.50302777  1
  Ba  Ba21  1  0.37745403  -0.14911554  -0.04609617  1
  Ba  Ba22  1  0.33516585  0.21232629  0.19079280  1
  Ba  Ba23  1  0.38023036  -0.09736839  0.46797625  1
  Ba  Ba24  1  0.24081772  0.72640509  0.55226475  1
  Ba  Ba25  1  0.15678600  0.03364396  0.50920004  1
  Ba  Ba26  1  0.29810535  -0.01111859  0.24366003  1
  Ba  Ba27  1  0.26467999  0.21519449  -0.11112248  1
  Ba  Ba28  1  0.81155509  0.54815854  -0.05918434  1
  Ba  Ba29  1  0.76977724  0.23251480  -0.03293207  1
  Ba  Ba30  1  0.74727650  -0.00821700  0.03270408  1
  Ba  Ba31  1  0.40867207  0.00710739  0.71353664  1
  Ba  Ba32  1  0.87111407  0.21011608  0.74939882  1
  Ba  Ba33  1  0.25295122  0.76217610  0.77423975  1
  Ba  Ba34  1  -0.05181201  -0.03281264  0.81092214  1
  Ba  Ba35  1  0.13814851  0.07629981  0.06262229  1
  Ba  Ba36  1  0.08780378  0.33708361  0.74201734  1
  Ba  Ba37  1  0.50856269  0.22665129  0.82695302  1
  Ba  Ba38  1  0.21916409  0.66428963  0.03644260  1
  Ba  Ba39  1  0.49903244  0.45156563  0.44542184  1
  Ba  Ba40  1  -0.11388777  0.00160584  0.55734601  1
  Ba  Ba41  1  0.58358363  0.44432072  0.00886491  1
  Ba  Ba42  1  0.49123137  0.48192107  0.74198319  1
  Ba  Ba43  1  0.26777094  0.47918625  0.55423149  1
  Ba  Ba44  1  0.17743939  0.26027827  0.53244479  1
  Ba  Ba45  1  0.31476728  0.73947968  0.25498860  1
  Ba  Ba46  1  0.55142323  0.27300469  0.30290947  1
  Ba  Ba47  1  0.00204852  0.72256042  0.71537113  1
  Ba  Ba48  1  0.69530741  0.23283216  0.57585008  1
  Ba  Ba49  1  0.67393023  0.00327916  0.76488547  1
  Ba  Ba50  1  0.77514509  0.76445912  0.51483104  1
  Fe  Fe51  1  0.44615207  0.12946183  0.01733382  1
  Fe  Fe52  1  0.14024615  0.47437932  0.87716550  1
  Fe  Fe53  1  0.58509761  0.09780973  0.43727449  1
  Fe  Fe54  1  0.02515327  0.76680529  0.05412661  1
  Fe  Fe55  1  0.02470385  0.61934588  0.04292951  1
  Fe  Fe56  1  0.54201550  -0.01599578  0.50284698  1
  Fe  Fe57  1  0.53507703  0.86298116  0.76640179  1
  Fe  Fe58  1  0.54249262  0.89517065  0.61818257  1
  Fe  Fe59  1  0.59316142  0.80073338  0.88970774  1
  Fe  Fe60  1  0.96233163  0.67429597  0.92838867  1
  Fe  Fe61  1  0.43964967  0.79935776  0.67263726  1
  Fe  Fe62  1  -0.01056093  0.25232460  -0.01580136  1
  Fe  Fe63  1  0.66734351  0.93184738  0.57783859  1
  Fe  Fe64  1  0.58151967  0.86463412  0.01954187  1
  Fe  Fe65  1  0.94819916  0.12504008  0.98507600  1
  Fe  Fe66  1  0.74022030  0.57066077  0.31248561  1
  Fe  Fe67  1  0.56828716  0.08659184  0.94922996  1
  Fe  Fe68  1  0.89196971  0.82966266  0.09797554  1
  Fe  Fe69  1  0.96868691  0.39776615  0.03586713  1
  Fe  Fe70  1  0.71749089  0.51361955  0.75341318  1
  Fe  Fe71  1  0.58583184  0.87660800  0.16207198  1
  Fe  Fe72  1  0.45105345  0.55647219  0.17721080  1
  Fe  Fe73  1  0.54235582  0.47332165  0.25075823  1
  Fe  Fe74  1  0.89286201  0.69531340  0.06554715  1
  Fe  Fe75  1  0.68965171  0.04170699  0.50845136  1
  Fe  Fe76  1  0.26805912  0.15961135  0.68851657  1
  Fe  Fe77  1  0.25704553  0.45830037  0.77295913  1
  Fe  Fe78  1  0.37967581  0.02513797  0.05531899  1
  Fe  Fe79  1  0.82841591  0.44027293  0.72310090  1
  Fe  Fe80  1  0.41355240  0.67154488  0.70292977  1
  Fe  Fe81  1  0.54423354  0.94618759  0.89405075  1
  Fe  Fe82  1  0.46958491  0.59562427  0.30563105  1
  Fe  Fe83  1  0.51674289  -0.01133746  0.03494729  1
  Fe  Fe84  1  0.18492845  0.30350411  0.33907932  1
  Fe  Fe85  1  0.90993431  0.80861808  0.96120810  1
  Fe  Fe86  1  1.01068902  0.50827517  0.95253275  1
  Fe  Fe87  1  0.07962840  0.36562072  -0.04291486  1
  Fe  Fe88  1  0.09163990  0.61697057  0.88644052  1
  Fe  Fe89  1  0.30729309  0.57854427  0.72881242  1
  Fe  Fe90  1  0.49176924  0.02787941  0.36627157  1
  Fe  Fe91  1  0.66937827  0.46356609  0.30162424  1
  Fe  Fe92  1  0.23421023  0.57992917  0.85530339  1
  Fe  Fe93  1  0.48584569  0.73796361  0.81035736  1
  Fe  Fe94  1  0.42611968  0.04384726  0.91324250  1
  Fe  Fe95  1  0.48107010  0.91147971  0.26830319  1
  Fe  Fe96  1  0.60201545  0.59544460  0.22843043  1
  Fe  Fe97  1  0.45421982  0.90006922  0.12953103  1
  Fe  Fe98  1  0.60796845  0.58689817  0.36751108  1
  Fe  Fe99  1  0.14482035  0.12692447  0.70406818  1
  Fe  Fe100  1  0.15164745  0.56123241  0.74595203  1
  Fe  Fe101  1  0.58722313  0.05822825  0.60002852  1
  Bi  Bi102  1  -0.03429754  -0.04220856  0.02269652  1
  Bi  Bi103  1  0.08113711  0.79640901  -0.10000233  1
  Bi  Bi104  1  0.57467517  0.23057961  0.05698983  1
  Bi  Bi105  1  0.39027546  0.62591908  0.88614338  1
  Bi  Bi106  1  0.32916415  0.31772402  0.70093028  1
  Bi  Bi107  1  0.12511354  0.47540636  0.08445707  1
  Bi  Bi108  1  -0.08666731  0.36750526  -0.11722178  1
  Bi  Bi109  1  0.53324318  0.74966699  0.27749295  1
  Bi  Bi110  1  0.43054192  0.39247907  0.15505315  1
  Bi  Bi111  1  0.73406833  0.52986987  0.14663986  1
  Bi  Bi112  1  -0.01240804  0.52858534  0.78196290  1
  Bi  Bi113  1  0.73682289  0.78213570  0.02561496  1
  Bi  Bi114  1  0.61819245  0.62101329  0.86121842  1
  Bi  Bi115  1  0.16944910  0.85838073  1.11440003  1
  Bi  Bi116  1  0.89999609  0.34011668  0.58846433  1
  Bi  Bi117  1  0.34244866  0.31706695  0.39793270  1
  Bi  Bi118  1  0.68276011  0.35300857  0.78711805  1
  Bi  Bi119  1  0.90067211  0.15965682  0.14716797  1
  Bi  Bi120  1  0.86928233  0.89534271  0.36866656  1
  Bi  Bi121  1  0.18546857  0.86691108  0.37837506  1
  Bi  Bi122  1  0.09298140  0.89987748  0.65327865  1
  Bi  Bi123  1  0.82068243  0.60890258  0.66257852  1
  Bi  Bi124  1  0.88068870  0.62267730  0.39148087  1
  Bi  Bi125  1  0.14795325  0.14654877  0.31507795  1
  Bi  Bi126  1  0.05659538  0.14920820  0.85464796  1
  Bi  Bi127  1  0.15336370  0.60696250  0.39769217  1
