# generated using pymatgen
data_Ba51Fe51Bi26
_symmetry_space_group_name_H-M   'P 1'
_cell_length_a   16.28244109
_cell_length_b   16.66814117
_cell_length_c   16.22920393
_cell_angle_alpha   89.57808568
_cell_angle_beta   89.65097809
_cell_angle_gamma   88.30527261
_symmetry_Int_Tables_number   1
_chemical_formula_structural   Ba51Fe51Bi26
_chemical_formula_sum   'Ba51 Fe51 Bi26'
_cell_volume   4402.45191400
_cell_formula_units_Z   1
loop_
 _symmetry_equiv_pos_site_id
 _symmetry_equiv_pos_as_xyz
  1  'x, y, z'
loop_
 _atom_site_type_symbol
 _atom_site_label
 _atom_site_symmetry_multiplicity
 _atom_site_fract_x
 _atom_site_fract_y
 _atom_site_fract_z
 _atom_site_occupancy
  Ba  Ba0  1  0.37707292  0.84827349  0.13874762  1
  Ba  Ba1  1  0.18809409  0.24872589  0.56456049  1
  Ba  Ba2  1  0.43571602  0.25319115  0.02441963  1
  Ba  Ba3  1  0.51109768  0.65342984  0.21997010  1
  Ba  Ba4  1  0.38697720  0.51537472  0.51097862  1
  Ba  Ba5  1  0.68776210  0.21476977  0.70764515  1
  Ba  Ba6  1  0.20523127  -0.04506289  0.28354636  1
  Ba  Ba7  1  0.57270155  0.74388567  -0.02383161  1
  Ba  Ba8  1  0.30551060  0.21204405  0.24293871  1
  Ba  Ba9  1  0.32232830  0.55556940  -0.02038150  1
  Ba  Ba10  1  0.08563514  0.47658164  0.46588913  1
  Ba  Ba11  1  0.28987308  0.46527697  0.21658487  1
  Ba  Ba12  1  0.32344076  0.02625555  0.48663876  1
  Ba  Ba13  1  -0.00029763  0.59781431  0.71760162  1
  Ba  Ba14  1  -0.04341797  0.05277264  0.29709298  1
  Ba  Ba15  1  0.42820974  0.18903933  0.77271195  1
  Ba  Ba16  1  0.83032193  0.57584395  -0.06219829  1
  Ba  Ba17  1  0.77731014  -0.10790710  0.44805153  1
  Ba  Ba18  1  0.82655928  0.27002638  0.31078418  1
  Ba  Ba19  1  0.75479525  -0.07054981  0.69608596  1
  Ba  Ba20  1  0.54653087  0.72343553  0.47629863  1
  Ba  Ba21  1  0.10477816  -0.18624265  0.69891893  1
  Ba  Ba22  1  -0.01432191  0.28509026  0.06094573  1
  Ba  Ba23  1  0.59967283  0.22645224  0.26031335  1
  Ba  Ba24  1  0.49937657  0.01882574  0.29563474  1
  Ba  Ba25  1  0.18049981  0.30507805  0.83867584  1
  Ba  Ba26  1  0.80238717  0.62971977  0.49864382  1
  Ba  Ba27  1  0.08331690  0.28152814  0.31984406  1
  Ba  Ba28  1  0.25296594  0.53139093  0.72964288  1
  Ba  Ba29  1  0.83409009  0.44324164  0.69422965  1
  Ba  Ba30  1  0.24115360  0.66738445  0.36024971  1
  Ba  Ba31  1  0.53674475  -0.04586873  0.56598766  1
  Ba  Ba32  1  -0.06021738  0.21298875  0.80584536  1
  Ba  Ba33  1  0.79098749  0.77667453  0.09733671  1
  Ba  Ba34  1  0.72586486  0.37511111  0.09417272  1
  Ba  Ba35  1  0.09862224  0.51098260  0.00532843  1
  Ba  Ba36  1  0.45128228  0.00764552  -0.04283846  1
  Ba  Ba37  1  0.00025048  0.78494458  -0.03115590  1
  Ba  Ba38  1  0.19077860  -0.03179816  0.00504583  1
  Ba  Ba39  1  0.55870645  0.47451778  -0.04196110  1
  Ba  Ba40  1  0.71284432  0.03159107  -0.06423022  1
  Ba  Ba41  1  0.24270362  0.01502744  0.74937173  1
  Ba  Ba42  1  0.31988642  0.78412593  0.57213615  1
  Ba  Ba43  1  -0.08563323  0.24638178  0.54986052  1
  Ba  Ba44  1  -0.05315200  0.05755430  0.03052167  1
  Ba  Ba45  1  0.53214644  0.44760581  0.70717633  1
  Ba  Ba46  1  -0.03795011  -0.00215576  0.59929446  1
  Ba  Ba47  1  0.46863186  0.24232739  0.49827590  1
  Ba  Ba48  1  0.03119306  0.80636308  0.44507186  1
  Ba  Ba49  1  0.81165829  0.54425547  0.26494202  1
  Ba  Ba50  1  0.73387603  -0.01619373  0.21315863  1
  Fe  Fe51  1  0.21674599  0.82865036  0.85877973  1
  Fe  Fe52  1  0.90573164  0.85694773  0.25295996  1
  Fe  Fe53  1  0.47906602  0.48828285  0.32490352  1
  Fe  Fe54  1  0.61792441  0.35879779  0.55398372  1
  Fe  Fe55  1  0.88212754  0.74226988  0.30024787  1
  Fe  Fe56  1  0.97552125  0.44474584  0.17779091  1
  Fe  Fe57  1  0.62493957  0.77561861  0.64600350  1
  Fe  Fe58  1  0.99589396  0.75006428  0.19847374  1
  Fe  Fe59  1  0.24067929  0.76423026  -0.01731782  1
  Fe  Fe60  1  0.64647721  0.49582007  0.54382763  1
  Fe  Fe61  1  0.14512928  0.77361755  0.10254620  1
  Fe  Fe62  1  0.59774154  0.71183311  0.77374347  1
  Fe  Fe63  1  0.45536399  0.77858483  0.81922058  1
  Fe  Fe64  1  0.07573277  0.51859710  0.23249016  1
  Fe  Fe65  1  0.81312622  0.16764481  0.13044041  1
  Fe  Fe66  1  0.27480533  0.13441056  0.92153850  1
  Fe  Fe67  1  0.81796382  0.09288497  0.44325776  1
  Fe  Fe68  1  0.71011467  0.39979181  0.84734897  1
  Fe  Fe69  1  0.08702541  0.99113852  0.43766677  1
  Fe  Fe70  1  0.48026703  0.81255915  0.68219250  1
  Fe  Fe71  1  0.33393728  0.84164331  0.75470267  1
  Fe  Fe72  1  0.45407680  0.36314707  0.33971719  1
  Fe  Fe73  1  0.80543854  0.32854095  0.90427944  1
  Fe  Fe74  1  0.37876863  0.74448038  -0.05289454  1
  Fe  Fe75  1  0.73803354  0.70850122  0.70776221  1
  Fe  Fe76  1  0.58607638  0.85393279  0.77827639  1
  Fe  Fe77  1  0.68254093  0.06253437  0.50884032  1
  Fe  Fe78  1  0.63997939  0.62273130  0.63794841  1
  Fe  Fe79  1  0.50479796  0.67643631  0.67041194  1
  Fe  Fe80  1  0.57012799  0.84958912  0.33221263  1
  Fe  Fe81  1  0.04222246  0.12504010  0.46190202  1
  Fe  Fe82  1  0.13809016  0.06706774  0.55748220  1
  Fe  Fe83  1  0.14657057  0.16729159  0.98415941  1
  Fe  Fe84  1  0.16186959  0.94072955  0.53637962  1
  Fe  Fe85  1  0.69933875  0.08918815  0.37786047  1
  Fe  Fe86  1  0.34522951  0.86572437  0.89607050  1
  Fe  Fe87  1  0.10692832  0.64744417  0.17937306  1
  Fe  Fe88  1  0.80036340  0.20776852  0.99114591  1
  Fe  Fe89  1  0.54714241  0.42211080  0.44667301  1
  Fe  Fe90  1  0.78923364  0.09660592  0.57600279  1
  Fe  Fe91  1  0.26148146  0.15524762  0.05167188  1
  Fe  Fe92  1  0.44399674  -0.07859692  0.77873967  1
  Fe  Fe93  1  0.16186932  0.10386220  0.41249030  1
  Fe  Fe94  1  0.69568149  0.17215605  0.07807024  1
  Fe  Fe95  1  0.58834116  0.84247449  0.20606550  1
  Fe  Fe96  1  0.74626888  0.37857769  0.54470074  1
  Fe  Fe97  1  0.69533482  0.40666150  0.41783420  1
  Fe  Fe98  1  0.13389244  0.77582571  0.23752540  1
  Fe  Fe99  1  0.59909711  0.41227844  0.30373095  1
  Fe  Fe100  1  0.30572283  0.72370878  0.83203983  1
  Fe  Fe101  1  0.10243304  0.40204957  0.17124998  1
  Bi  Bi102  1  0.14876036  0.67025123  0.86550233  1
  Bi  Bi103  1  0.69185978  0.22708773  0.47829913  1
  Bi  Bi104  1  0.87294291  0.42943235  0.44601618  1
  Bi  Bi105  1  -0.04836721  0.61197736  0.11652560  1
  Bi  Bi106  1  0.44597642  0.61897422  0.82027829  1
  Bi  Bi107  1  0.57269884  0.02902687  0.77086636  1
  Bi  Bi108  1  0.62369767  0.55939209  0.38152977  1
  Bi  Bi109  1  0.74332271  0.79324511  0.86086793  1
  Bi  Bi110  1  0.71185456  0.76075547  0.29842064  1
  Bi  Bi111  1  0.28913129  0.35573898  0.40094790  1
  Bi  Bi112  1  0.03551530  0.90386476  0.15110447  1
  Bi  Bi113  1  0.27379508  0.67249813  0.14809342  1
  Bi  Bi114  1  0.21411043  0.32178709  0.06473427  1
  Bi  Bi115  1  0.64112306  0.25645878  0.92138991  1
  Bi  Bi116  1  0.38199582  0.38217960  0.85838811  1
  Bi  Bi117  1  0.04695120  0.37867961  0.67149315  1
  Bi  Bi118  1  0.11947257  0.12623700  0.15672286  1
  Bi  Bi119  1  -0.04445340  0.40710173  0.87952020  1
  Bi  Bi120  1  0.68319929  0.56328024  0.79280121  1
  Bi  Bi121  1  0.67762983  0.59204940  0.09160718  1
  Bi  Bi122  1  0.89105692  0.77591724  0.62535733  1
  Bi  Bi123  1  1.01288181  0.63597465  0.33490645  1
  Bi  Bi124  1  0.49610118  0.40039072  0.16711295  1
  Bi  Bi125  1  0.39588391  0.84652906  0.36604093  1
  Bi  Bi126  1  0.34728434  0.35039442  0.65854656  1
  Bi  Bi127  1  0.16371689  0.64619360  0.56583069  1
