# generated using pymatgen
data_Ba51Fe51Bi26
_symmetry_space_group_name_H-M   'P 1'
_cell_length_a   16.14952773
_cell_length_b   16.30273511
_cell_length_c   16.65803003
_cell_angle_alpha   91.29310976
_cell_angle_beta   87.45528847
_cell_angle_gamma   90.49071266
_symmetry_Int_Tables_number   1
_chemical_formula_structural   Ba51Fe51Bi26
_chemical_formula_sum   'Ba51 Fe51 Bi26'
_cell_volume   4380.18440729
_cell_formula_units_Z   1
loop_
 _symmetry_equiv_pos_site_id
 _symmetry_equiv_pos_as_xyz
  1  'x, y, z'
loop_
 _atom_site_type_symbol
 _atom_site_label
 _atom_site_symmetry_multiplicity
 _atom_site_fract_x
 _atom_site_fract_y
 _atom_site_fract_z
 _atom_site_occupancy
  Ba  Ba0  1  0.25933057  0.59749241  -0.06360889  1
  Ba  Ba1  1  0.01437616  0.48000455  0.24105176  1
  Ba  Ba2  1  0.86083908  0.24263947  0.31247883  1
  Ba  Ba3  1  0.81072656  -0.07022570  0.70888272  1
  Ba  Ba4  1  0.24665098  0.26421721  0.21177663  1
  Ba  Ba5  1  0.72199504  0.23032310  0.01828735  1
  Ba  Ba6  1  0.73962811  -0.05207389  0.07768532  1
  Ba  Ba7  1  0.72730996  0.26607279  0.74822234  1
  Ba  Ba8  1  0.56565088  0.21326917  0.22378594  1
  Ba  Ba9  1  0.53800179  0.01583072  -0.00917808  1
  Ba  Ba10  1  0.44602782  0.27034568  0.02511466  1
  Ba  Ba11  1  0.80587897  0.72282623  0.46367630  1
  Ba  Ba12  1  0.06094122  -0.06095629  0.46931214  1
  Ba  Ba13  1  0.41953602  0.06780229  0.35118782  1
  Ba  Ba14  1  0.22136167  0.21015781  0.76937233  1
  Ba  Ba15  1  0.56821861  -0.04177866  0.74397179  1
  Ba  Ba16  1  0.80802435  0.48737830  0.03525134  1
  Ba  Ba17  1  0.17711289  0.81572891  -0.04621974  1
  Ba  Ba18  1  -0.01015967  0.45273086  0.50735052  1
  Ba  Ba19  1  0.54091436  0.71249499  0.80451936  1
  Ba  Ba20  1  0.57608502  0.74939280  0.05160906  1
  Ba  Ba21  1  0.88931785  0.71573483  -0.06562651  1
  Ba  Ba22  1  -0.04470245  0.99908630  -0.01896883  1
  Ba  Ba23  1  0.25655537  0.02903046  0.56474458  1
  Ba  Ba24  1  0.31302353  -0.08749752  0.77904470  1
  Ba  Ba25  1  0.34103245  0.86506706  0.16104437  1
  Ba  Ba26  1  0.04978835  0.12623741  0.22089870  1
  Ba  Ba27  1  0.51267671  0.46100816  0.28890338  1
  Ba  Ba28  1  0.50984443  0.72315101  0.29058881  1
  Ba  Ba29  1  0.24765528  0.72633227  0.40534322  1
  Ba  Ba30  1  -0.09887933  -0.05999775  0.26499250  1
  Ba  Ba31  1  0.69790648  0.05797784  0.34249157  1
  Ba  Ba32  1  0.49603660  0.20770544  0.53536990  1
  Ba  Ba33  1  0.26974553  0.05697346  -0.01404452  1
  Ba  Ba34  1  0.76528167  0.68467820  0.22310006  1
  Ba  Ba35  1  0.72530121  0.44715899  0.53526110  1
  Ba  Ba36  1  0.47177125  0.45282473  0.81832982  1
  Ba  Ba37  1  0.50333007  0.69136820  0.52734860  1
  Ba  Ba38  1  0.71940960  0.11646315  0.56370818  1
  Ba  Ba39  1  0.22460929  0.47805383  0.73150876  1
  Ba  Ba40  1  0.05546665  0.74349561  0.21325953  1
  Ba  Ba41  1  -0.04914556  0.14519507  0.77055685  1
  Ba  Ba42  1  0.74650995  0.43407320  0.26104189  1
  Ba  Ba43  1  -0.01328399  0.46154320  0.79157678  1
  Ba  Ba44  1  0.43037329  0.46278130  0.51084945  1
  Ba  Ba45  1  0.06252019  0.25341636  -0.02641168  1
  Ba  Ba46  1  0.04080600  0.85654019  0.73811797  1
  Ba  Ba47  1  0.22311303  0.29279092  0.49946129  1
  Ba  Ba48  1  0.06812706  0.66265655  0.60356297  1
  Ba  Ba49  1  0.39825590  0.50024918  0.08701973  1
  Ba  Ba50  1  0.72944353  0.51269161  0.81925692  1
  Fe  Fe51  1  0.58495594  0.88381797  0.39572101  1
  Fe  Fe52  1  0.03109517  0.14703731  0.42996720  1
  Fe  Fe53  1  0.59316046  0.14422891  0.83334208  1
  Fe  Fe54  1  0.67727592  0.90938519  0.51656709  1
  Fe  Fe55  1  0.40606728  0.26109639  0.82465085  1
  Fe  Fe56  1  0.40387549  0.59834304  0.67211810  1
  Fe  Fe57  1  0.60486162  0.42939762  0.10469801  1
  Fe  Fe58  1  0.34381810  0.65608071  0.77495373  1
  Fe  Fe59  1  0.22626035  0.70888487  0.73641899  1
  Fe  Fe60  1  0.72603893  0.87062696  0.38702387  1
  Fe  Fe61  1  0.55188716  0.26778459  0.86409247  1
  Fe  Fe62  1  0.14849915  0.93300477  0.28696029  1
  Fe  Fe63  1  0.28729733  0.64266872  0.62014076  1
  Fe  Fe64  1  0.89732055  0.64120699  0.73884553  1
  Fe  Fe65  1  0.45378097  -0.00570615  0.57632484  1
  Fe  Fe66  1  0.78805997  0.11278112  0.17324439  1
  Fe  Fe67  1  0.37034547  0.74947542  0.67313159  1
  Fe  Fe68  1  0.45594167  0.14005815  0.86029237  1
  Fe  Fe69  1  0.75204453  0.62868911  0.66020666  1
  Fe  Fe70  1  0.91438049  0.23674716  0.61177574  1
  Fe  Fe71  1  0.02197828  0.44425130  1.04948861  1
  Fe  Fe72  1  0.85940087  0.73996579  0.65581404  1
  Fe  Fe73  1  0.30933958  0.54041379  0.37682259  1
  Fe  Fe74  1  0.97981067  0.58805326  0.08368984  1
  Fe  Fe75  1  0.22262098  0.48221758  0.18940475  1
  Fe  Fe76  1  0.13029488  0.44713653  0.95703947  1
  Fe  Fe77  1  0.88221441  0.61304444  0.58908271  1
  Fe  Fe78  1  0.01162343  0.26440708  0.50318629  1
  Fe  Fe79  1  0.61673055  0.55290858  0.14227701  1
  Fe  Fe80  1  0.77114773  0.72388416  0.76211325  1
  Fe  Fe81  1  0.88793578  0.20400707  0.48737059  1
  Fe  Fe82  1  0.18505820  0.45381520  0.34853082  1
  Fe  Fe83  1  0.85289322  0.52386010  0.67190135  1
  Fe  Fe84  1  0.31291985  0.43361539  0.28970318  1
  Fe  Fe85  1  0.04382496  0.15390379  0.57450644  1
  Fe  Fe86  1  0.89415474  0.14245952  0.10758526  1
  Fe  Fe87  1  0.07826966  0.66245638  0.03105829  1
  Fe  Fe88  1  1.04402234  0.55618592  -0.04594826  1
  Fe  Fe89  1  0.33003730  0.57840452  0.25369015  1
  Fe  Fe90  1  0.67534178  0.85392038  0.27281811  1
  Fe  Fe91  1  0.54411633  -0.12302635  0.55042218  1
  Fe  Fe92  1  0.56090840  -0.00249260  0.48690515  1
  Fe  Fe93  1  0.24040093  1.02024931  0.22992588  1
  Fe  Fe94  1  0.19181450  0.57795846  0.28626091  1
  Fe  Fe95  1  0.51403160  0.22667444  0.73793397  1
  Fe  Fe96  1  0.17319019  0.40362294  0.07234111  1
  Fe  Fe97  1  0.92648561  0.08753752  0.55611141  1
  Fe  Fe98  1  0.40274079  0.86756950  0.60142409  1
  Fe  Fe99  1  0.13052543  0.54251970  0.08792175  1
  Fe  Fe100  1  0.91243336  0.08275791  0.41952636  1
  Fe  Fe101  1  0.26199625  0.93742726  0.35111613  1
  Bi  Bi102  1  0.67234306  0.78095006  0.63288385  1
  Bi  Bi103  1  0.21049850  0.52164852  0.51446820  1
  Bi  Bi104  1  0.40529660  0.09712379  0.70721719  1
  Bi  Bi105  1  0.24247972  0.66467959  0.14383659  1
  Bi  Bi106  1  0.40978609  -0.12313285  0.43441380  1
  Bi  Bi107  1  0.28091144  0.36603808  -0.06894438  1
  Bi  Bi108  1  -0.09008726  0.31598028  0.11959203  1
  Bi  Bi109  1  0.22435247  0.81775640  0.60405129  1
  Bi  Bi110  1  0.84340934  -0.05500764  0.48599049  1
  Bi  Bi111  1  0.07681240  0.66116474  -0.17811343  1
  Bi  Bi112  1  0.07225445  0.31071387  0.35291577  1
  Bi  Bi113  1  0.19212143  0.09424693  0.37594749  1
  Bi  Bi114  1  0.06587448  0.30981347  0.65810882  1
  Bi  Bi115  1  0.38203898  0.09888687  0.14868789  1
  Bi  Bi116  1  0.38160098  0.32902414  0.67272346  1
  Bi  Bi117  1  0.55428470  0.93648324  0.20604969  1
  Bi  Bi118  1  0.86562612  0.32392654  0.89201450  1
  Bi  Bi119  1  0.65771476  0.28545085  0.40454217  1
  Bi  Bi120  1  0.11489412  0.94041826  0.12426578  1
  Bi  Bi121  1  0.70833995  0.83128011  0.88823089  1
  Bi  Bi122  1  0.40705512  0.84441605  0.94955411  1
  Bi  Bi123  1  0.39510401  0.29780825  0.35983258  1
  Bi  Bi124  1  0.64910540  0.58593727  0.39487296  1
  Bi  Bi125  1  0.58759326  0.54278747  0.97798076  1
  Bi  Bi126  1  0.12175535  1.02683059  0.84131345  1
  Bi  Bi127  1  0.74326513  0.06899542  0.87020560  1
