# generated using pymatgen
data_Ba51Fe51Bi26
_symmetry_space_group_name_H-M   'P 1'
_cell_length_a   16.63275366
_cell_length_b   15.95549664
_cell_length_c   16.44130873
_cell_angle_alpha   88.52550262
_cell_angle_beta   91.32398828
_cell_angle_gamma   90.58340100
_symmetry_Int_Tables_number   1
_chemical_formula_structural   Ba51Fe51Bi26
_chemical_formula_sum   'Ba51 Fe51 Bi26'
_cell_volume   4360.44779148
_cell_formula_units_Z   1
loop_
 _symmetry_equiv_pos_site_id
 _symmetry_equiv_pos_as_xyz
  1  'x, y, z'
loop_
 _atom_site_type_symbol
 _atom_site_label
 _atom_site_symmetry_multiplicity
 _atom_site_fract_x
 _atom_site_fract_y
 _atom_site_fract_z
 _atom_site_occupancy
  Ba  Ba0  1  0.58114849  0.79352911  0.26941470  1
  Ba  Ba1  1  0.71301979  0.38248179  -0.06682848  1
  Ba  Ba2  1  0.33600779  0.63040895  -0.02896347  1
  Ba  Ba3  1  0.22730970  0.51508440  0.47464652  1
  Ba  Ba4  1  0.68967782  0.61525860  0.43957776  1
  Ba  Ba5  1  0.50608192  0.78042077  0.02757515  1
  Ba  Ba6  1  0.20354912  -0.02498331  0.44500165  1
  Ba  Ba7  1  0.83209824  0.70802475  0.20438783  1
  Ba  Ba8  1  0.50939335  0.02591939  0.14440934  1
  Ba  Ba9  1  0.26737914  0.26933310  0.79636288  1
  Ba  Ba10  1  0.76290175  0.19388061  0.44535079  1
  Ba  Ba11  1  0.70638260  0.63331055  -0.05533184  1
  Ba  Ba12  1  0.46396002  0.74908276  0.48733826  1
  Ba  Ba13  1  0.15627038  -0.12928460  0.05002644  1
  Ba  Ba14  1  0.51741478  0.24173800  0.38022960  1
  Ba  Ba15  1  0.51233352  0.44815107  0.77438753  1
  Ba  Ba16  1  -0.01893351  0.54086215  0.53490971  1
  Ba  Ba17  1  0.90694824  0.65447038  0.82518452  1
  Ba  Ba18  1  0.48464635  0.13190050  0.75947788  1
  Ba  Ba19  1  0.47800693  0.48710620  0.53489916  1
  Ba  Ba20  1  -0.03240619  0.26032856  0.56354237  1
  Ba  Ba21  1  -0.09924916  0.03236178  -0.06230917  1
  Ba  Ba22  1  0.57937369  0.80387555  0.77981275  1
  Ba  Ba23  1  0.15298597  0.72508818  0.82986769  1
  Ba  Ba24  1  0.74312357  0.86772587  0.01810247  1
  Ba  Ba25  1  -0.05262757  0.26370312  0.26645587  1
  Ba  Ba26  1  0.04890519  0.22142231  0.82964744  1
  Ba  Ba27  1  0.22318738  0.25677986  0.29131598  1
  Ba  Ba28  1  0.28845846  0.44890063  0.15562364  1
  Ba  Ba29  1  0.03183889  0.50128926  0.17219121  1
  Ba  Ba30  1  0.09805188  0.46183649  0.91868552  1
  Ba  Ba31  1  0.84444111  -0.00639550  0.27151397  1
  Ba  Ba32  1  0.35836584  -0.04772237  -0.08267330  1
  Ba  Ba33  1  0.29146365  0.52785302  0.74033707  1
  Ba  Ba34  1  0.78380180  0.50864583  0.68993619  1
  Ba  Ba35  1  0.78483807  0.76993408  0.61734923  1
  Ba  Ba36  1  0.69670884  0.02518258  0.73664323  1
  Ba  Ba37  1  0.68004621  -0.03634455  0.50490489  1
  Ba  Ba38  1  0.86308647  0.48384865  0.33686952  1
  Ba  Ba39  1  0.12408505  0.74614882  0.47251443  1
  Ba  Ba40  1  0.55581149  0.47033419  0.27326967  1
  Ba  Ba41  1  0.51029085  0.48135975  0.03099915  1
  Ba  Ba42  1  -0.08667901  0.30381474  0.01814939  1
  Ba  Ba43  1  0.24922802  0.72131605  0.24672989  1
  Ba  Ba44  1  0.19808043  0.27128960  0.52767799  1
  Ba  Ba45  1  0.09184170  0.07967465  0.15347050  1
  Ba  Ba46  1  0.70792208  0.28533730  0.70079586  1
  Ba  Ba47  1  0.31164769  0.80315685  0.65775031  1
  Ba  Ba48  1  0.69088206  0.26833791  0.17236467  1
  Ba  Ba49  1  -0.00125717  -0.05987955  0.71772907  1
  Ba  Ba50  1  0.42338116  0.20838716  -0.00197970  1
  Fe  Fe51  1  0.49658170  0.29668026  0.60792981  1
  Fe  Fe52  1  0.92891279  0.77641743  0.50812574  1
  Fe  Fe53  1  0.88129309  0.03559768  0.56979833  1
  Fe  Fe54  1  0.88239159  0.92626893  0.47299070  1
  Fe  Fe55  1  0.12591681  0.59731511  0.65915645  1
  Fe  Fe56  1  -0.03919469  0.82892695  0.37707263  1
  Fe  Fe57  1  0.52084640  0.94793687  0.39368602  1
  Fe  Fe58  1  0.26848133  0.17964378  0.11641139  1
  Fe  Fe59  1  0.40505386  0.58381758  0.33590857  1
  Fe  Fe60  1  0.42158507  0.16968974  0.57199212  1
  Fe  Fe61  1  0.71642654  0.55322595  0.21892305  1
  Fe  Fe62  1  0.36008522  0.02638055  0.57630285  1
  Fe  Fe63  1  1.03327856  0.54709602  0.73509413  1
  Fe  Fe64  1  0.91471062  0.07195867  0.44247431  1
  Fe  Fe65  1  0.23674812  0.07327063  0.77786230  1
  Fe  Fe66  1  0.38379449  0.30578312  0.50637279  1
  Fe  Fe67  1  0.63318095  0.62210849  0.13908164  1
  Fe  Fe68  1  0.36892260  0.28955727  0.64013026  1
  Fe  Fe69  1  1.02268330  0.72410781  0.12537398  1
  Fe  Fe70  1  0.45585714  0.64812752  0.72741802  1
  Fe  Fe71  1  0.21516776  -0.06138118  0.77002981  1
  Fe  Fe72  1  0.49269230  0.63413722  0.85933855  1
  Fe  Fe73  1  -0.10014657  0.69388415  0.40798073  1
  Fe  Fe74  1  0.34841202  0.99488654  0.71921769  1
  Fe  Fe75  1  0.75323921  0.19331555  -0.01291027  1
  Fe  Fe76  1  0.24124567  0.96062549  0.22379730  1
  Fe  Fe77  1  0.43949282  1.04579411  0.33881500  1
  Fe  Fe78  1  0.71349001  1.07485521  0.92468800  1
  Fe  Fe79  1  0.80804791  0.47005033  0.14370561  1
  Fe  Fe80  1  0.28687172  0.03896430  0.09476848  1
  Fe  Fe81  1  0.64605043  0.19085487  0.87250974  1
  Fe  Fe82  1  0.22981353  0.99259951  0.64672990  1
  Fe  Fe83  1  0.58430022  1.05866337  -0.05641311  1
  Fe  Fe84  1  0.61899789  0.17361808  0.00673434  1
  Fe  Fe85  1  0.68727041  0.49506632  0.10035069  1
  Fe  Fe86  1  1.00686502  -0.03026933  0.39341122  1
  Fe  Fe87  1  0.79372968  0.19644428  0.85878673  1
  Fe  Fe88  1  0.01528074  0.66199432  0.99787130  1
  Fe  Fe89  1  0.30121419  1.13600647  0.65600118  1
  Fe  Fe90  1  0.40081072  0.94767792  0.46240760  1
  Fe  Fe91  1  0.95681269  0.41765507  0.74159522  1
  Fe  Fe92  1  0.23690960  0.27158629  1.01774931  1
  Fe  Fe93  1  0.00689439  0.89952561  0.52128906  1
  Fe  Fe94  1  0.87376939  0.31074054  0.80396287  1
  Fe  Fe95  1  0.40416214  0.72750185  0.82110983  1
  Fe  Fe96  1  0.90877116  0.72786645  1.03074710  1
  Fe  Fe97  1  0.89386525  0.43934666  0.85244816  1
  Fe  Fe98  1  0.01868225  0.04386234  0.52963328  1
  Fe  Fe99  1  0.33283034  0.06968420  0.22677113  1
  Fe  Fe100  1  0.48427748  0.05877322  0.49096385  1
  Fe  Fe101  1  0.33997793  0.92279959  0.14833082  1
  Bi  Bi102  1  -0.11008726  0.52968024  0.00441241  1
  Bi  Bi103  1  0.09681569  -0.11595255  0.27728048  1
  Bi  Bi104  1  0.49059281  -0.07058556  0.62183017  1
  Bi  Bi105  1  0.01384512  0.72573429  0.65316735  1
  Bi  Bi106  1  0.72453593  0.06497587  0.09557138  1
  Bi  Bi107  1  0.02066630  0.66667269  0.30300271  1
  Bi  Bi108  1  0.12066220  0.11660633  0.65564867  1
  Bi  Bi109  1  0.36895070  0.41378867  0.36235688  1
  Bi  Bi110  1  0.21287215  0.10915117  -0.04543995  1
  Bi  Bi111  1  0.33833630  0.13727872  0.43110880  1
  Bi  Bi112  1  0.38454982  -0.11983986  0.30716357  1
  Bi  Bi113  1  0.87484362  0.14234026  0.72172190  1
  Bi  Bi114  1  -0.00790866  0.82744965  -0.08140297  1
  Bi  Bi115  1  0.59741142  0.16067348  0.57359389  1
  Bi  Bi116  1  0.77764787  0.80993992  0.38969479  1
  Bi  Bi117  1  0.62560932  0.06384344  0.31924074  1
  Bi  Bi118  1  0.44455782  0.63252705  0.17722169  1
  Bi  Bi119  1  0.32423754  0.41065866  0.94225613  1
  Bi  Bi120  1  0.06328204  0.13538168  0.38677136  1
  Bi  Bi121  1  0.79128084  0.84213553  0.81599234  1
  Bi  Bi122  1  0.11678914  0.40787534  0.67965965  1
  Bi  Bi123  1  0.10749979  0.30330344  0.11201516  1
  Bi  Bi124  1  0.94257601  0.88364197  0.11285792  1
  Bi  Bi125  1  0.60305678  0.63098987  0.64277891  1
  Bi  Bi126  1  0.16264532  0.63611889  0.06717255  1
  Bi  Bi127  1  0.06215272  0.40028523  0.39045351  1
