# generated using pymatgen
data_Ba51Fe51Bi26
_symmetry_space_group_name_H-M   'P 1'
_cell_length_a   16.18564207
_cell_length_b   16.35476180
_cell_length_c   16.38707730
_cell_angle_alpha   91.59851644
_cell_angle_beta   90.31031780
_cell_angle_gamma   91.03025170
_symmetry_Int_Tables_number   1
_chemical_formula_structural   Ba51Fe51Bi26
_chemical_formula_sum   'Ba51 Fe51 Bi26'
_cell_volume   4335.39615291
_cell_formula_units_Z   1
loop_
 _symmetry_equiv_pos_site_id
 _symmetry_equiv_pos_as_xyz
  1  'x, y, z'
loop_
 _atom_site_type_symbol
 _atom_site_label
 _atom_site_symmetry_multiplicity
 _atom_site_fract_x
 _atom_site_fract_y
 _atom_site_fract_z
 _atom_site_occupancy
  Ba  Ba0  1  0.45497623  -0.05183596  0.76342429  1
  Ba  Ba1  1  0.63033203  0.86972678  -0.00138089  1
  Ba  Ba2  1  0.25413434  0.48073131  0.87014021  1
  Ba  Ba3  1  0.42533936  0.04268528  -0.02562472  1
  Ba  Ba4  1  0.00033431  0.77057185  0.03574626  1
  Ba  Ba5  1  0.03139702  0.51850975  0.48640853  1
  Ba  Ba6  1  0.32257900  -0.12333952  0.52192288  1
  Ba  Ba7  1  0.77084464  -0.00622331  0.47126114  1
  Ba  Ba8  1  0.53074534  0.18378378  0.76006927  1
  Ba  Ba9  1  0.83458179  0.64738165  0.69712189  1
  Ba  Ba10  1  0.31790123  0.62602863  0.60544047  1
  Ba  Ba11  1  0.24694780  0.00506049  0.12534091  1
  Ba  Ba12  1  0.21037100  0.64515598  0.39986493  1
  Ba  Ba13  1  0.39849241  0.30533583  0.03730138  1
  Ba  Ba14  1  0.48098702  0.56060666  -0.00306569  1
  Ba  Ba15  1  0.79277418  0.48331926  0.52689817  1
  Ba  Ba16  1  0.65205181  0.49418166  0.75819867  1
  Ba  Ba17  1  0.17652733  0.24575011  -0.04165287  1
  Ba  Ba18  1  0.54052255  0.26662433  0.23537133  1
  Ba  Ba19  1  0.57559955  0.72978430  0.74577359  1
  Ba  Ba20  1  -0.04501681  0.29750882  0.24280230  1
  Ba  Ba21  1  -0.00236937  0.04704650  -0.02675110  1
  Ba  Ba22  1  0.43505854  0.42209346  0.68538952  1
  Ba  Ba23  1  0.52809776  0.02169175  0.41468302  1
  Ba  Ba24  1  -0.01713758  0.81662502  0.77737310  1
  Ba  Ba25  1  0.49421519  0.76182743  0.25899898  1
  Ba  Ba26  1  0.57453883  0.52478451  0.23268613  1
  Ba  Ba27  1  0.23448720  0.24311169  0.65692859  1
  Ba  Ba28  1  0.06170459  0.49915086  0.71381425  1
  Ba  Ba29  1  0.73901007  0.28201164  0.89414407  1
  Ba  Ba30  1  0.59149383  0.75834426  0.50427450  1
  Ba  Ba31  1  0.25575420  0.70608308  0.03141178  1
  Ba  Ba32  1  0.05624154  -0.07036625  0.56885884  1
  Ba  Ba33  1  -0.03567265  0.13214607  0.50931487  1
  Ba  Ba34  1  0.02630471  -0.02358317  0.22773374  1
  Ba  Ba35  1  0.01345787  0.65737693  0.26555471  1
  Ba  Ba36  1  0.80819471  0.53998797  0.13354947  1
  Ba  Ba37  1  0.46918016  0.24594344  0.47872785  1
  Ba  Ba38  1  0.75498112  -0.00581289  0.76916183  1
  Ba  Ba39  1  0.71366979  0.24699870  0.58911943  1
  Ba  Ba40  1  0.71011058  0.37745931  0.35660093  1
  Ba  Ba41  1  0.18563036  0.02362417  0.77229364  1
  Ba  Ba42  1  0.80074181  0.70812441  0.39569225  1
  Ba  Ba43  1  0.78981611  0.12383923  0.07762650  1
  Ba  Ba44  1  0.54797380  0.01243876  0.17634057  1
  Ba  Ba45  1  0.22864059  0.09730006  0.42527845  1
  Ba  Ba46  1  0.26039917  0.29364740  0.23946660  1
  Ba  Ba47  1  -0.08706390  0.48432571  -0.09180749  1
  Ba  Ba48  1  0.22595168  0.75569667  0.78701473  1
  Ba  Ba49  1  0.09305507  0.44764991  0.07309226  1
  Ba  Ba50  1  0.26935144  0.41194459  0.45410802  1
  Fe  Fe51  1  0.69281678  0.08180853  0.29689764  1
  Fe  Fe52  1  0.37914415  0.59126367  0.16738703  1
  Fe  Fe53  1  0.60649346  0.36425565  0.03952517  1
  Fe  Fe54  1  0.68599538  0.18023805  0.39624483  1
  Fe  Fe55  1  0.29175977  0.48655100  0.13004698  1
  Fe  Fe56  1  0.43146414  0.45310500  0.34707999  1
  Fe  Fe57  1  0.63974427  0.57986789  0.58296475  1
  Fe  Fe58  1  0.36195912  0.32440280  0.84034454  1
  Fe  Fe59  1  0.32555855  0.87748680  0.91999110  1
  Fe  Fe60  1  0.51929011  0.93312939  0.58376248  1
  Fe  Fe61  1  0.32130223  0.84914205  0.21535842  1
  Fe  Fe62  1  0.90435808  0.31114170  0.55693682  1
  Fe  Fe63  1  0.22011300  0.58967387  0.19122864  1
  Fe  Fe64  1  0.77837532  0.72979545  0.01158276  1
  Fe  Fe65  1  0.03930870  0.18309373  0.83780318  1
  Fe  Fe66  1  0.61995567  0.06962699  0.91785746  1
  Fe  Fe67  1  0.13833715  0.83168058  0.40027714  1
  Fe  Fe68  1  0.77171485  0.61781619  0.88595922  1
  Fe  Fe69  1  0.04039202  0.73059367  0.45408986  1
  Fe  Fe70  1  0.64102266  0.91072430  0.62976071  1
  Fe  Fe71  1  0.01561411  0.31903923  0.65329748  1
  Fe  Fe72  1  0.86336546  0.71639725  0.90056290  1
  Fe  Fe73  1  0.05142590  0.68799403  0.60385068  1
  Fe  Fe74  1  0.74726017  0.20469643  0.27063985  1
  Fe  Fe75  1  0.54089765  0.41285779  0.42111449  1
  Fe  Fe76  1  0.28567842  0.80963928  0.34088432  1
  Fe  Fe77  1  0.42373441  0.79633094  0.90763740  1
  Fe  Fe78  1  0.58124924  0.54440529  0.44566287  1
  Fe  Fe79  1  0.75656982  0.98473577  0.21013098  1
  Fe  Fe80  1  0.32099280  0.53451712  0.28293623  1
  Fe  Fe81  1  0.35354151  -0.05176243  0.31318820  1
  Fe  Fe82  1  0.39673191  0.44321606  0.20265604  1
  Fe  Fe83  1  0.50901966  0.58115265  0.57905909  1
  Fe  Fe84  1  0.30479456  0.69582607  0.23781395  1
  Fe  Fe85  1  0.81791334  0.22974091  0.41177254  1
  Fe  Fe86  1  0.09388387  0.30286628  0.78150938  1
  Fe  Fe87  1  0.83822405  0.89464207  0.26661042  1
  Fe  Fe88  1  0.58963616  0.04326884  0.61246777  1
  Fe  Fe89  1  0.90984498  0.34327572  0.42732472  1
  Fe  Fe90  1  0.58935736  0.44796107  0.55874602  1
  Fe  Fe91  1  0.96063782  0.30863268  0.79848757  1
  Fe  Fe92  1  0.95134223  0.76426064  0.55035392  1
  Fe  Fe93  1  0.74249981  0.76321976  0.86233152  1
  Fe  Fe94  1  0.21595160  -0.07613169  0.31802317  1
  Fe  Fe95  1  0.14216740  0.76371965  0.54221118  1
  Fe  Fe96  1  0.89673953  0.22829335  0.68450365  1
  Fe  Fe97  1  0.66134052  0.66856865  0.94063488  1
  Fe  Fe98  1  0.44949648  0.47569230  0.49945463  1
  Fe  Fe99  1  0.90482689  0.17467560  0.81455549  1
  Fe  Fe100  1  0.82914655  0.90547411  0.11702672  1
  Fe  Fe101  1  0.03479784  0.18774129  0.70404329  1
  Bi  Bi102  1  0.41704613  0.85261313  0.07127735  1
  Bi  Bi103  1  0.58159673  0.18651905  0.03117379  1
  Bi  Bi104  1  0.84100270  0.89059667  -0.05672536  1
  Bi  Bi105  1  0.42887104  0.61695906  0.41352054  1
  Bi  Bi106  1  0.68998740  0.49394817  -0.03258234  1
  Bi  Bi107  1  -0.14974456  0.39945050  0.70960879  1
  Bi  Bi108  1  -0.04440956  0.86162400  0.39130192  1
  Bi  Bi109  1  0.86775973  0.09705301  0.30220845  1
  Bi  Bi110  1  0.83546797  0.74985504  0.17550435  1
  Bi  Bi111  1  0.14668980  0.46915223  0.28024043  1
  Bi  Bi112  1  0.15871457  -0.20173735  0.20948929  1
  Bi  Bi113  1  -0.03289414  0.03686914  0.73715439  1
  Bi  Bi114  1  -0.04839619  0.26875114  -0.03537562  1
  Bi  Bi115  1  0.63754550  0.68639471  0.10663320  1
  Bi  Bi116  1  0.07666256  0.30988308  0.49278342  1
  Bi  Bi117  1  0.15721999  0.89690344  0.93977734  1
  Bi  Bi118  1  0.33407299  0.16302436  0.83608613  1
  Bi  Bi119  1  0.10178898  0.17252594  0.14366749  1
  Bi  Bi120  1  0.88723571  0.49066126  0.33309048  1
  Bi  Bi121  1  0.66943051  0.88426824  0.31709620  1
  Bi  Bi122  1  0.79828619  0.83295393  0.60930249  1
  Bi  Bi123  1  0.38411294  0.11655940  0.28212612  1
  Bi  Bi124  1  0.40257326  0.07295551  0.59177408  1
  Bi  Bi125  1  0.51868967  0.37384389  0.87929012  1
  Bi  Bi126  1  0.73545993  0.32704997  0.14803556  1
  Bi  Bi127  1  0.08920340  0.61811954  0.89690931  1
