# generated using pymatgen
data_Ba51Fe51Bi26
_symmetry_space_group_name_H-M   'P 1'
_cell_length_a   16.36244338
_cell_length_b   16.30438121
_cell_length_c   16.03063526
_cell_angle_alpha   87.51837027
_cell_angle_beta   92.90320163
_cell_angle_gamma   89.44287927
_symmetry_Int_Tables_number   1
_chemical_formula_structural   Ba51Fe51Bi26
_chemical_formula_sum   'Ba51 Fe51 Bi26'
_cell_volume   4266.84612364
_cell_formula_units_Z   1
loop_
 _symmetry_equiv_pos_site_id
 _symmetry_equiv_pos_as_xyz
  1  'x, y, z'
loop_
 _atom_site_type_symbol
 _atom_site_label
 _atom_site_symmetry_multiplicity
 _atom_site_fract_x
 _atom_site_fract_y
 _atom_site_fract_z
 _atom_site_occupancy
  Ba  Ba0  1  0.00169108  0.54514228  0.69264703  1
  Ba  Ba1  1  0.00083627  0.41904163  -0.07226538  1
  Ba  Ba2  1  -0.03235811  0.68583229  0.44789646  1
  Ba  Ba3  1  0.47885451  0.21186307  0.74537452  1
  Ba  Ba4  1  0.40076121  0.57108212  0.54650562  1
  Ba  Ba5  1  0.30875719  0.84283887  0.29823684  1
  Ba  Ba6  1  -0.07432152  0.46144706  0.20641642  1
  Ba  Ba7  1  0.62450155  0.35716846  -0.05511420  1
  Ba  Ba8  1  0.68175471  0.18883489  0.62313437  1
  Ba  Ba9  1  0.13446021  0.02038437  0.22987858  1
  Ba  Ba10  1  0.26767973  -0.03542459  0.51370307  1
  Ba  Ba11  1  0.48934750  0.83686445  0.58283577  1
  Ba  Ba12  1  0.75037858  0.23679599  0.20371877  1
  Ba  Ba13  1  0.42418530  0.03353968  -0.06100270  1
  Ba  Ba14  1  -0.01066226  0.30552271  0.63497323  1
  Ba  Ba15  1  0.18618018  0.58748089  0.16699643  1
  Ba  Ba16  1  0.85492792  0.25242540  -0.18188942  1
  Ba  Ba17  1  0.74369996  0.52377331  0.04813562  1
  Ba  Ba18  1  0.83082156  0.47263130  0.47210617  1
  Ba  Ba19  1  0.13585348  0.18788760  -0.02646012  1
  Ba  Ba20  1  0.29877989  0.53867895  -0.05943927  1
  Ba  Ba21  1  0.17534373  0.76302131  0.98477711  1
  Ba  Ba22  1  0.83850543  0.00582139  0.73003558  1
  Ba  Ba23  1  0.19247471  0.73207634  0.58228590  1
  Ba  Ba24  1  0.59757243  0.39059045  0.47558379  1
  Ba  Ba25  1  0.43202783  0.75808586  0.91418058  1
  Ba  Ba26  1  0.49225224  0.05986349  0.23597212  1
  Ba  Ba27  1  0.37352393  0.29799016  0.02813423  1
  Ba  Ba28  1  0.71050377  0.75573315  -0.06820906  1
  Ba  Ba29  1  0.34747334  0.31100798  0.51433863  1
  Ba  Ba30  1  0.19189819  0.14234107  0.65731004  1
  Ba  Ba31  1  0.84495712  0.19954216  0.45142786  1
  Ba  Ba32  1  0.53018510  0.83585724  0.13520056  1
  Ba  Ba33  1  0.02086932  -0.10009038  0.84834457  1
  Ba  Ba34  1  0.22809644  0.37912689  0.29411129  1
  Ba  Ba35  1  0.69339807  -0.00303777  0.04294833  1
  Ba  Ba36  1  0.09784025  0.17282399  0.42751350  1
  Ba  Ba37  1  0.52544407  0.33596225  0.24069130  1
  Ba  Ba38  1  0.71988836  -0.00944205  0.30647831  1
  Ba  Ba39  1  0.48613640  0.06405191  0.47494522  1
  Ba  Ba40  1  -0.06034527  0.71155767  0.01318481  1
  Ba  Ba41  1  -0.01980105  -0.03407736  0.51286072  1
  Ba  Ba42  1  0.60370988  -0.03008202  0.79701765  1
  Ba  Ba43  1  0.02260886  0.25418783  0.19126309  1
  Ba  Ba44  1  0.15061400  0.48700655  0.48851485  1
  Ba  Ba45  1  0.48418518  0.64806322  0.29762765  1
  Ba  Ba46  1  0.45663930  0.45578701  0.75553590  1
  Ba  Ba47  1  0.63528846  0.67620905  0.70576498  1
  Ba  Ba48  1  0.68762192  0.67398864  0.46589619  1
  Ba  Ba49  1  -0.08223003  0.08657995  0.01538927  1
  Ba  Ba50  1  -0.07614593  -0.12140583  0.23477288  1
  Fe  Fe51  1  0.84412801  0.67765271  0.66928728  1
  Fe  Fe52  1  0.29564960  0.31572342  0.71184309  1
  Fe  Fe53  1  0.26977462  0.36309806  0.83514098  1
  Fe  Fe54  1  0.81120361  0.67768845  0.16671099  1
  Fe  Fe55  1  0.68538991  0.49277856  0.78905814  1
  Fe  Fe56  1  0.77960593  0.54222528  0.66407377  1
  Fe  Fe57  1  0.80808606  0.43809341  0.76157427  1
  Fe  Fe58  1  0.18030878  0.03639247  0.85217338  1
  Fe  Fe59  1  0.73459024  0.09918474  0.86801840  1
  Fe  Fe60  1  0.29075734  0.00968523  0.78397645  1
  Fe  Fe61  1  0.66802731  0.69538009  0.13067091  1
  Fe  Fe62  1  0.67234699  0.87763803  0.51345644  1
  Fe  Fe63  1  0.80586177  0.73211307  0.29744462  1
  Fe  Fe64  1  0.18434865  0.34701379  0.63636799  1
  Fe  Fe65  1  0.71311065  0.86022509  0.67029708  1
  Fe  Fe66  1  0.67622471  0.35070612  0.74564465  1
  Fe  Fe67  1  0.30545470  0.90445324  0.04157989  1
  Fe  Fe68  1  0.31507271  1.07892079  0.30396929  1
  Fe  Fe69  1  0.58673564  0.56242556  0.16003905  1
  Fe  Fe70  1  0.68657235  0.63205775  0.25732541  1
  Fe  Fe71  1  0.10358667  0.79284511  0.21013779  1
  Fe  Fe72  1  0.66650763  1.21232961  0.82010974  1
  Fe  Fe73  1  0.59955735  0.13790752  0.91223144  1
  Fe  Fe74  1  0.76767616  0.38689587  0.64092699  1
  Fe  Fe75  1  0.22847393  0.18884287  0.29236703  1
  Fe  Fe76  1  0.75012520  0.80443247  0.16028531  1
  Fe  Fe77  1  0.65968713  0.46795635  0.65207822  1
  Fe  Fe78  1  0.26175946  0.90404430  0.88062989  1
  Fe  Fe79  1  0.50726331  0.50500662  0.04879832  1
  Fe  Fe80  1  0.12990603  0.70922149  0.31562757  1
  Fe  Fe81  1  0.29533857  0.13996984  0.42241293  1
  Fe  Fe82  1  0.15482360  0.33324979  0.77041811  1
  Fe  Fe83  1  0.56650587  0.64683499  0.04139531  1
  Fe  Fe84  1  0.22598303  0.22342279  0.15612478  1
  Fe  Fe85  1  0.38023510  0.48605584  0.34902195  1
  Fe  Fe86  1  0.81959592  0.59505604  0.29321344  1
  Fe  Fe87  1  0.72493211  0.18568734  -0.02782529  1
  Fe  Fe88  1  0.37623536  0.21495677  0.34576238  1
  Fe  Fe89  1  0.23096443  0.78406980  0.78606584  1
  Fe  Fe90  1  0.19697965  0.97434260  0.99319535  1
  Fe  Fe91  1  0.32785615  0.87548699  0.74450486  1
  Fe  Fe92  1  0.67481361  0.77624066  0.26857111  1
  Fe  Fe93  1  0.80365106  0.80159997  0.59196631  1
  Fe  Fe94  1  0.95166261  0.71023663  0.79529370  1
  Fe  Fe95  1  0.09647773  0.73586325  0.77226054  1
  Fe  Fe96  1  0.64798114  -0.01968943  0.60814787  1
  Fe  Fe97  1  0.82592352  0.78528048  0.75110478  1
  Fe  Fe98  1  0.78441943  -0.05058422  0.55288875  1
  Fe  Fe99  1  0.44917498  0.61611331  1.09599859  1
  Fe  Fe100  1  0.69038356  0.03807544  0.49392457  1
  Fe  Fe101  1  0.34916988  0.19755601  0.21024964  1
  Bi  Bi102  1  0.81987222  -0.15857133  0.42566943  1
  Bi  Bi103  1  0.34284855  0.74368836  0.11650626  1
  Bi  Bi104  1  0.82741596  0.59762831  0.83554694  1
  Bi  Bi105  1  0.16459245  -0.07762887  0.69784508  1
  Bi  Bi106  1  0.55325465  0.85630461  0.36463390  1
  Bi  Bi107  1  -0.02021964  0.66532847  0.23149391  1
  Bi  Bi108  1  0.24026702  0.49078300  0.70172841  1
  Bi  Bi109  1  0.38306813  0.47987563  0.17306661  1
  Bi  Bi110  1  0.57258836  0.57270782  -0.10713268  1
  Bi  Bi111  1  0.30046577  0.06931993  0.10786757  1
  Bi  Bi112  1  -0.02274855  0.78511835  0.64390831  1
  Bi  Bi113  1  0.70475888  0.46153793  0.27747982  1
  Bi  Bi114  1  0.29383892  0.19067416  0.84231111  1
  Bi  Bi115  1  0.57379525  0.18120466  0.07390438  1
  Bi  Bi116  1  0.02283981  0.11662554  0.79779371  1
  Bi  Bi117  1  0.05210666  0.90732437  0.06903113  1
  Bi  Bi118  1  0.11245150  0.85807878  0.38826490  1
  Bi  Bi119  1  0.27405456  0.61913598  0.37185100  1
  Bi  Bi120  1  0.99806107  0.36091353  0.39972673  1
  Bi  Bi121  1  0.16631278  0.37593001  0.07816808  1
  Bi  Bi122  1  0.63830339  0.18443047  0.39019946  1
  Bi  Bi123  1  0.92535023  0.08915360  0.29185451  1
  Bi  Bi124  1  0.08086494  0.60791597  0.88578385  1
  Bi  Bi125  1  0.84660086  0.30662220  0.03054356  1
  Bi  Bi126  1  0.41768655  0.01493338  0.67963933  1
  Bi  Bi127  1  0.37400498  0.70525150  0.71548904  1
