# generated using pymatgen
data_Ba51Fe51Bi26
_symmetry_space_group_name_H-M   'P 1'
_cell_length_a   16.37582462
_cell_length_b   16.52880397
_cell_length_c   16.21259012
_cell_angle_alpha   88.81529191
_cell_angle_beta   88.63181570
_cell_angle_gamma   91.19946071
_symmetry_Int_Tables_number   1
_chemical_formula_structural   Ba51Fe51Bi26
_chemical_formula_sum   'Ba51 Fe51 Bi26'
_cell_volume   4385.11023420
_cell_formula_units_Z   1
loop_
 _symmetry_equiv_pos_site_id
 _symmetry_equiv_pos_as_xyz
  1  'x, y, z'
loop_
 _atom_site_type_symbol
 _atom_site_label
 _atom_site_symmetry_multiplicity
 _atom_site_fract_x
 _atom_site_fract_y
 _atom_site_fract_z
 _atom_site_occupancy
  Ba  Ba0  1  0.83163476  0.06136422  -0.07210881  1
  Ba  Ba1  1  0.86133489  -0.01907705  0.49552195  1
  Ba  Ba2  1  0.08266292  0.23339459  0.75884491  1
  Ba  Ba3  1  0.63224246  0.73588294  0.58116169  1
  Ba  Ba4  1  0.24063950  0.24494670  0.20881099  1
  Ba  Ba5  1  0.17216200  -0.00307396  0.07641510  1
  Ba  Ba6  1  0.17156709  0.72492971  0.05893668  1
  Ba  Ba7  1  0.77060113  0.63116775  0.41647928  1
  Ba  Ba8  1  0.46668838  0.19697186  0.84993466  1
  Ba  Ba9  1  0.37068069  0.70041416  0.25123464  1
  Ba  Ba10  1  0.29343578  0.71935321  0.47696890  1
  Ba  Ba11  1  -0.10056047  0.58367641  0.63076628  1
  Ba  Ba12  1  0.63237323  0.57094468  0.05806426  1
  Ba  Ba13  1  0.74786930  0.25262997  0.36414450  1
  Ba  Ba14  1  0.48825362  0.23027596  0.30623550  1
  Ba  Ba15  1  0.43957764  0.19781052  0.55176296  1
  Ba  Ba16  1  0.05216120  0.48292391  0.44956043  1
  Ba  Ba17  1  0.00235271  0.32682041  0.01676121  1
  Ba  Ba18  1  0.06662699  0.51549932  0.78567707  1
  Ba  Ba19  1  -0.01062797  0.86974634  0.22863309  1
  Ba  Ba20  1  0.74968714  -0.07838287  0.75502344  1
  Ba  Ba21  1  0.43677570  -0.00226425  0.20106783  1
  Ba  Ba22  1  0.73342842  0.46720375  0.25531922  1
  Ba  Ba23  1  0.47541355  -0.08582113  0.44415648  1
  Ba  Ba24  1  0.10082096  0.07733620  0.32511785  1
  Ba  Ba25  1  0.47136062  0.37006917  0.02044768  1
  Ba  Ba26  1  0.41614028  0.68820917  -0.04850254  1
  Ba  Ba27  1  0.16393938  -0.06128866  0.51507224  1
  Ba  Ba28  1  -0.01369790  0.57206789  0.23195183  1
  Ba  Ba29  1  0.64956904  0.55509471  0.81343574  1
  Ba  Ba30  1  0.70259325  0.84777782  0.30366514  1
  Ba  Ba31  1  0.23493780  0.40088041  0.57202071  1
  Ba  Ba32  1  0.25829321  0.72857186  0.75064228  1
  Ba  Ba33  1  0.48483027  0.47438990  0.28650051  1
  Ba  Ba34  1  0.70403789  0.41804776  0.58743995  1
  Ba  Ba35  1  0.21619300  0.47212590  -0.00146760  1
  Ba  Ba36  1  0.62587747  0.83409986  0.04947930  1
  Ba  Ba37  1  0.70892884  0.17396872  0.59440623  1
  Ba  Ba38  1  0.42853982  0.46600699  0.73402103  1
  Ba  Ba39  1  0.23007701  0.20849177  -0.05962829  1
  Ba  Ba40  1  -0.02954681  0.32594225  0.27323542  1
  Ba  Ba41  1  0.81884829  0.31901592  0.79127107  1
  Ba  Ba42  1  -0.03994272  0.83303471  -0.05082499  1
  Ba  Ba43  1  -0.11466769  0.57572473  0.01836525  1
  Ba  Ba44  1  0.75089423  0.07415770  0.20907812  1
  Ba  Ba45  1  0.49725708  0.01815824  0.69324743  1
  Ba  Ba46  1  0.02266719  0.74507225  0.47412364  1
  Ba  Ba47  1  -0.00677917  0.19457610  0.53995220  1
  Ba  Ba48  1  0.61092695  0.16343026  0.03259381  1
  Ba  Ba49  1  0.01350893  -0.05716287  0.72652569  1
  Ba  Ba50  1  0.36014280  -0.02300633  -0.09120781  1
  Fe  Fe51  1  0.86052741  0.44870578  0.40233523  1
  Fe  Fe52  1  0.46898004  0.80131208  0.66280372  1
  Fe  Fe53  1  0.49939442  0.71315127  0.76948014  1
  Fe  Fe54  1  0.28354594  0.11502386  0.73287154  1
  Fe  Fe55  1  0.94116942  1.06418390  0.10696586  1
  Fe  Fe56  1  0.58998033  0.05803141  0.32953655  1
  Fe  Fe57  1  0.45992699  0.57023631  0.47388019  1
  Fe  Fe58  1  0.14212374  0.45237916  0.18933334  1
  Fe  Fe59  1  0.74933009  0.26532709  0.16563848  1
  Fe  Fe60  1  0.16174219  0.87024941  0.33407549  1
  Fe  Fe61  1  0.32519261  0.36749218  0.87415711  1
  Fe  Fe62  1  0.29039435  0.45034862  0.23558990  1
  Fe  Fe63  1  0.15977840  0.08699939  0.65109435  1
  Fe  Fe64  1  0.87826412  0.36446782  0.49622843  1
  Fe  Fe65  1  0.75386730  0.65574775  0.19217496  1
  Fe  Fe66  1  0.83993780  0.61575145  0.81826464  1
  Fe  Fe67  1  0.61191233  0.40066599  0.41841742  1
  Fe  Fe68  1  0.41937061  0.84025178  0.78016238  1
  Fe  Fe69  1  0.24889888  -0.02061493  0.26414944  1
  Fe  Fe70  1  0.83218635  0.36125089  0.12548741  1
  Fe  Fe71  1  0.58667640  0.10246242  0.45442487  1
  Fe  Fe72  1  0.55650515  0.54481419  0.56256495  1
  Fe  Fe73  1  0.21992418  0.39065838  0.81095219  1
  Fe  Fe74  1  0.29491283  0.05818375  0.59670387  1
  Fe  Fe75  1  0.29928384  0.35098947  0.36571131  1
  Fe  Fe76  1  0.57180314  0.84882885  0.74200374  1
  Fe  Fe77  1  0.52246516  0.83013199  -0.13085048  1
  Fe  Fe78  1  0.88655796  0.75507477  0.77071750  1
  Fe  Fe79  1  0.88271581  0.21069342  0.13899491  1
  Fe  Fe80  1  0.24411226  0.19948248  0.60361693  1
  Fe  Fe81  1  0.23658066  0.85213615  0.21753328  1
  Fe  Fe82  1  0.76773882  0.42204659  1.01183173  1
  Fe  Fe83  1  0.66254497  0.37013019  0.95067992  1
  Fe  Fe84  1  0.18091998  0.41515922  0.31765031  1
  Fe  Fe85  1  0.16546337  0.05534673  0.80955380  1
  Fe  Fe86  1  0.94026336  0.12734970  0.23341874  1
  Fe  Fe87  1  1.03109345  0.16239822  1.12517798  1
  Fe  Fe88  1  0.67619106  0.35981454  0.09859913  1
  Fe  Fe89  1  0.59937293  0.52795124  0.43241583  1
  Fe  Fe90  1  0.81957858  0.74677945  0.11258827  1
  Fe  Fe91  1  0.22471414  0.56254839  0.17127411  1
  Fe  Fe92  1  0.28626037  0.23268200  0.44626624  1
  Fe  Fe93  1  0.63205240  0.74859786  0.81400044  1
  Fe  Fe94  1  -0.04362661  0.66865342  0.84448907  1
  Fe  Fe95  1  0.18304537  0.55135710  0.29893665  1
  Fe  Fe96  1  0.70166010  1.05207022  0.40174612  1
  Fe  Fe97  1  0.29488757  0.89516085  0.35571775  1
  Fe  Fe98  1  0.23168693  0.97627090  0.72331387  1
  Fe  Fe99  1  0.75940861  0.71274525  0.74741139  1
  Fe  Fe100  1  0.20097482  0.12974575  0.49889054  1
  Fe  Fe101  1  0.85402060  0.71410932  0.24502319  1
  Bi  Bi102  1  0.04515214  0.73257627  0.71244227  1
  Bi  Bi103  1  0.55144779  0.68599740  0.38193591  1
  Bi  Bi104  1  0.14385308  0.71185345  0.28372096  1
  Bi  Bi105  1  0.76200919  0.72330848  0.92376855  1
  Bi  Bi106  1  0.58119637  -0.01713485  -0.10018253  1
  Bi  Bi107  1  0.30835971  0.51885132  0.40031955  1
  Bi  Bi108  1  0.32392368  0.07486812  0.38741787  1
  Bi  Bi109  1  0.47649186  0.40284687  0.51730248  1
  Bi  Bi110  1  0.79944125  0.25678524  -0.00352971  1
  Bi  Bi111  1  0.33833946  -0.10879443  0.62376985  1
  Bi  Bi112  1  0.03791905  0.11049044  0.95533199  1
  Bi  Bi113  1  0.31671529  0.28028723  0.72997452  1
  Bi  Bi114  1  0.13436492  0.27757535  0.40350644  1
  Bi  Bi115  1  0.66926875  0.13423437  0.80183727  1
  Bi  Bi116  1  0.43141436  0.64494643  0.62641503  1
  Bi  Bi117  1  0.60386493  0.35208024  0.79411658  1
  Bi  Bi118  1  0.84405794  0.78986641  0.60383668  1
  Bi  Bi119  1  0.39366204  0.16418589  0.07362423  1
  Bi  Bi120  1  0.82755214  0.91688243  0.09937537  1
  Bi  Bi121  1  0.65460060  0.96628163  0.54382410  1
  Bi  Bi122  1  0.34969843  0.84463343  0.08571807  1
  Bi  Bi123  1  0.38496618  0.54226176  0.10675500  1
  Bi  Bi124  1  0.88149781  0.10743787  0.70377237  1
  Bi  Bi125  1  0.14454771  0.60451733  0.59882747  1
  Bi  Bi126  1  -0.02879606  0.38245618  0.63801359  1
  Bi  Bi127  1  0.16540933  0.89324147  0.87376724  1
