# generated using pymatgen
data_In38.4Cu12.8Se64
_symmetry_space_group_name_H-M   'P 1'
_cell_length_a   11.52000000
_cell_length_b   11.52000000
_cell_length_c   23.08000000
_cell_angle_alpha   90.00000000
_cell_angle_beta   90.00000000
_cell_angle_gamma   90.00000000
_symmetry_Int_Tables_number   1
_chemical_formula_structural   In38.4Cu12.8Se64
_chemical_formula_sum   'In38.4 Cu12.8 Se64'
_cell_volume   3062.95603200
_cell_formula_units_Z   1
loop_
 _symmetry_equiv_pos_site_id
 _symmetry_equiv_pos_as_xyz
  1  'x, y, z'
loop_
 _atom_site_type_symbol
 _atom_site_label
 _atom_site_symmetry_multiplicity
 _atom_site_fract_x
 _atom_site_fract_y
 _atom_site_fract_z
 _atom_site_occupancy
  In  In2  1  0.00000000  0.25000000  0.12500000  1.0
  In  In2  1  0.00000000  0.25000000  0.62500000  1.0
  In  In2  1  0.00000000  0.75000000  0.12500000  1.0
  In  In2  1  0.00000000  0.75000000  0.62500000  1.0
  In  In2  1  0.50000000  0.25000000  0.12500000  1.0
  In  In2  1  0.50000000  0.25000000  0.62500000  1.0
  In  In2  1  0.50000000  0.75000000  0.12500000  1.0
  In  In2  1  0.50000000  0.75000000  0.62500000  1.0
  In  In2  1  0.25000000  0.00000000  0.37500000  1.0
  In  In2  1  0.25000000  0.00000000  0.87500000  1.0
  In  In2  1  0.25000000  0.50000000  0.37500000  1.0
  In  In2  1  0.25000000  0.50000000  0.87500000  1.0
  In  In2  1  0.75000000  0.00000000  0.37500000  1.0
  In  In2  1  0.75000000  0.00000000  0.87500000  1.0
  In  In2  1  0.75000000  0.50000000  0.37500000  1.0
  In  In2  1  0.75000000  0.50000000  0.87500000  1.0
  In  In2  1  0.00000000  0.25000000  0.37500000  1.0
  In  In2  1  0.00000000  0.25000000  0.87500000  1.0
  In  In2  1  0.00000000  0.75000000  0.37500000  1.0
  In  In2  1  0.00000000  0.75000000  0.87500000  1.0
  In  In2  1  0.50000000  0.25000000  0.37500000  1.0
  In  In2  1  0.50000000  0.25000000  0.87500000  1.0
  In  In2  1  0.50000000  0.75000000  0.37500000  1.0
  In  In2  1  0.50000000  0.75000000  0.87500000  1.0
  In  In2  1  0.25000000  0.00000000  0.12500000  1.0
  In  In2  1  0.25000000  0.00000000  0.62500000  1.0
  In  In2  1  0.25000000  0.50000000  0.12500000  1.0
  In  In2  1  0.25000000  0.50000000  0.62500000  1.0
  In  In2  1  0.75000000  0.00000000  0.12500000  1.0
  In  In2  1  0.75000000  0.00000000  0.62500000  1.0
  In  In2  1  0.75000000  0.50000000  0.12500000  1.0
  In  In2  1  0.75000000  0.50000000  0.62500000  1.0
  In  In  1  0.25000000  0.25000000  0.00000000  0.4
  In  In  1  0.25000000  0.25000000  0.50000000  0.4
  In  In  1  0.25000000  0.75000000  0.00000000  0.4
  In  In  1  0.25000000  0.75000000  0.50000000  0.4
  In  In  1  0.75000000  0.25000000  0.00000000  0.4
  In  In  1  0.75000000  0.25000000  0.50000000  0.4
  In  In  1  0.75000000  0.75000000  0.00000000  0.4
  In  In  1  0.75000000  0.75000000  0.50000000  0.4
  In  In  1  0.00000000  0.00000000  0.25000000  0.4
  In  In  1  0.00000000  0.00000000  0.75000000  0.4
  In  In  1  0.00000000  0.50000000  0.25000000  0.4
  In  In  1  0.00000000  0.50000000  0.75000000  0.4
  In  In  1  0.50000000  0.00000000  0.25000000  0.4
  In  In  1  0.50000000  0.00000000  0.75000000  0.4
  In  In  1  0.50000000  0.50000000  0.25000000  0.4
  In  In  1  0.50000000  0.50000000  0.75000000  0.4
  Cu  Cu  1  0.00000000  0.00000000  0.00000000  0.8
  Cu  Cu  1  0.00000000  0.00000000  0.50000000  0.8
  Cu  Cu  1  0.00000000  0.50000000  0.00000000  0.8
  Cu  Cu  1  0.00000000  0.50000000  0.50000000  0.8
  Cu  Cu  1  0.50000000  0.00000000  0.00000000  0.8
  Cu  Cu  1  0.50000000  0.00000000  0.50000000  0.8
  Cu  Cu  1  0.50000000  0.50000000  0.00000000  0.8
  Cu  Cu  1  0.50000000  0.50000000  0.50000000  0.8
  Cu  Cu  1  0.25000000  0.25000000  0.25000000  0.8
  Cu  Cu  1  0.25000000  0.25000000  0.75000000  0.8
  Cu  Cu  1  0.25000000  0.75000000  0.25000000  0.8
  Cu  Cu  1  0.25000000  0.75000000  0.75000000  0.8
  Cu  Cu  1  0.75000000  0.25000000  0.25000000  0.8
  Cu  Cu  1  0.75000000  0.25000000  0.75000000  0.8
  Cu  Cu  1  0.75000000  0.75000000  0.25000000  0.8
  Cu  Cu  1  0.75000000  0.75000000  0.75000000  0.8
  Se  Se64  1  0.12500000  0.12500000  0.06250000  1.0
  Se  Se65  1  0.12500000  0.12500000  0.56250000  1.0
  Se  Se66  1  0.12500000  0.62500000  0.06250000  1.0
  Se  Se67  1  0.12500000  0.62500000  0.56250000  1.0
  Se  Se68  1  0.62500000  0.12500000  0.06250000  1.0
  Se  Se69  1  0.62500000  0.12500000  0.56250000  1.0
  Se  Se70  1  0.62500000  0.62500000  0.06250000  1.0
  Se  Se71  1  0.62500000  0.62500000  0.56250000  1.0
  Se  Se72  1  0.37500000  0.37500000  0.06250000  1.0
  Se  Se73  1  0.37500000  0.37500000  0.56250000  1.0
  Se  Se74  1  0.37500000  0.87500000  0.06250000  1.0
  Se  Se75  1  0.37500000  0.87500000  0.56250000  1.0
  Se  Se76  1  0.87500000  0.37500000  0.06250000  1.0
  Se  Se77  1  0.87500000  0.37500000  0.56250000  1.0
  Se  Se78  1  0.87500000  0.87500000  0.06250000  1.0
  Se  Se79  1  0.87500000  0.87500000  0.56250000  1.0
  Se  Se80  1  0.12500000  0.37500000  0.43750000  1.0
  Se  Se81  1  0.12500000  0.37500000  0.93750000  1.0
  Se  Se82  1  0.12500000  0.87500000  0.43750000  1.0
  Se  Se83  1  0.12500000  0.87500000  0.93750000  1.0
  Se  Se84  1  0.62500000  0.37500000  0.43750000  1.0
  Se  Se85  1  0.62500000  0.37500000  0.93750000  1.0
  Se  Se86  1  0.62500000  0.87500000  0.43750000  1.0
  Se  Se87  1  0.62500000  0.87500000  0.93750000  1.0
  Se  Se88  1  0.37500000  0.12500000  0.43750000  1.0
  Se  Se89  1  0.37500000  0.12500000  0.93750000  1.0
  Se  Se90  1  0.37500000  0.62500000  0.43750000  1.0
  Se  Se91  1  0.37500000  0.62500000  0.93750000  1.0
  Se  Se92  1  0.87500000  0.12500000  0.43750000  1.0
  Se  Se93  1  0.87500000  0.12500000  0.93750000  1.0
  Se  Se94  1  0.87500000  0.62500000  0.43750000  1.0
  Se  Se95  1  0.87500000  0.62500000  0.93750000  1.0
  Se  Se96  1  0.37500000  0.37500000  0.31250000  1.0
  Se  Se97  1  0.37500000  0.37500000  0.81250000  1.0
  Se  Se98  1  0.37500000  0.87500000  0.31250000  1.0
  Se  Se99  1  0.37500000  0.87500000  0.81250000  1.0
  Se  Se100  1  0.87500000  0.37500000  0.31250000  1.0
  Se  Se101  1  0.87500000  0.37500000  0.81250000  1.0
  Se  Se102  1  0.87500000  0.87500000  0.31250000  1.0
  Se  Se103  1  0.87500000  0.87500000  0.81250000  1.0
  Se  Se104  1  0.12500000  0.12500000  0.31250000  1.0
  Se  Se105  1  0.12500000  0.12500000  0.81250000  1.0
  Se  Se106  1  0.12500000  0.62500000  0.31250000  1.0
  Se  Se107  1  0.12500000  0.62500000  0.81250000  1.0
  Se  Se108  1  0.62500000  0.12500000  0.31250000  1.0
  Se  Se109  1  0.62500000  0.12500000  0.81250000  1.0
  Se  Se110  1  0.62500000  0.62500000  0.31250000  1.0
  Se  Se111  1  0.62500000  0.62500000  0.81250000  1.0
  Se  Se112  1  0.37500000  0.12500000  0.18750000  1.0
  Se  Se113  1  0.37500000  0.12500000  0.68750000  1.0
  Se  Se114  1  0.37500000  0.62500000  0.18750000  1.0
  Se  Se115  1  0.37500000  0.62500000  0.68750000  1.0
  Se  Se116  1  0.87500000  0.12500000  0.18750000  1.0
  Se  Se117  1  0.87500000  0.12500000  0.68750000  1.0
  Se  Se118  1  0.87500000  0.62500000  0.18750000  1.0
  Se  Se119  1  0.87500000  0.62500000  0.68750000  1.0
  Se  Se120  1  0.12500000  0.37500000  0.18750000  1.0
  Se  Se121  1  0.12500000  0.37500000  0.68750000  1.0
  Se  Se122  1  0.12500000  0.87500000  0.18750000  1.0
  Se  Se123  1  0.12500000  0.87500000  0.68750000  1.0
  Se  Se124  1  0.62500000  0.37500000  0.18750000  1.0
  Se  Se125  1  0.62500000  0.37500000  0.68750000  1.0
  Se  Se126  1  0.62500000  0.87500000  0.18750000  1.0
  Se  Se127  1  0.62500000  0.87500000  0.68750000  1.0

