# generated using pymatgen
data_Sr7Ca15Pr50Mn72O216
_symmetry_space_group_name_H-M   'P 1'
_cell_length_a   16.55472521
_cell_length_b   16.60301590
_cell_length_c   15.58974696
_cell_angle_alpha   90.00226494
_cell_angle_beta   89.99986009
_cell_angle_gamma   90.00114089
_symmetry_Int_Tables_number   1
_chemical_formula_structural   Sr7Ca15Pr50Mn72O216
_chemical_formula_sum   'Sr7 Ca15 Pr50 Mn72 O216'
_cell_volume   4284.97236951
_cell_formula_units_Z   1
loop_
 _symmetry_equiv_pos_site_id
 _symmetry_equiv_pos_as_xyz
  1  'x, y, z'
loop_
 _atom_type_symbol
 _atom_type_oxidation_number
  Sr2+  2.0
  Ca2+  2.0
  Pr3+  3.0
  Mn3.30+  3.3
  O2-  -2.0
loop_
 _atom_site_type_symbol
 _atom_site_label
 _atom_site_symmetry_multiplicity
 _atom_site_fract_x
 _atom_site_fract_y
 _atom_site_fract_z
 _atom_site_occupancy
  Sr2+  Sr0  1  0.16352288  0.48828992  0.87590265  1
  Sr2+  Sr1  1  1.00053154  0.98810017  0.37750306  1
  Sr2+  Sr2  1  -0.00361560  0.67444346  0.12414049  1
  Sr2+  Sr3  1  0.33517774  0.98924512  0.87464369  1
  Sr2+  Sr4  1  1.00325944  0.32442531  0.87534268  1
  Sr2+  Sr5  1  0.50208602  0.49304951  0.37506685  1
  Sr2+  Sr6  1  0.66400928  0.00866833  0.62465762  1
  Ca2+  Ca7  1  0.50449815  0.84924622  0.62587659  1
  Ca2+  Ca8  1  0.66248561  0.01350795  0.12565310  1
  Ca2+  Ca9  1  -0.00406469  0.01296159  0.62332093  1
  Ca2+  Ca10  1  0.83594023  0.51716971  0.12495502  1
  Ca2+  Ca11  1  0.50481910  0.84894952  0.12428839  1
  Ca2+  Ca12  1  0.16620390  0.84739022  0.62397877  1
  Ca2+  Ca13  1  0.67014332  0.65279679  0.37446148  1
  Ca2+  Ca14  1  0.66015262  0.68423108  0.62400081  1
  Ca2+  Ca15  1  0.16957913  0.18032999  0.12484241  1
  Ca2+  Ca16  1  -0.00426883  0.68100887  0.62553300  1
  Ca2+  Ca17  1  0.49796031  0.15111467  0.37428529  1
  Ca2+  Ca18  1  0.67017940  0.65388966  0.87527155  1
  Ca2+  Ca19  1  1.00390945  0.31811965  0.37459681  1
  Ca2+  Ca20  1  0.66361817  0.68065735  0.12616344  1
  Ca2+  Ca21  1  0.67272564  0.31857697  0.87603420  1
  Pr3+  Pr22  1  -0.00190828  0.01156148  0.12650910  1
  Pr3+  Pr23  1  0.49970677  0.82177058  0.37693244  1
  Pr3+  Pr24  1  0.50482126  0.51667437  0.12680491  1
  Pr3+  Pr25  1  -0.00326708  0.34739469  0.12586098  1
  Pr3+  Pr26  1  0.33006466  0.34543537  0.12574059  1
  Pr3+  Pr27  1  0.34093754  0.31719264  0.37459010  1
  Pr3+  Pr28  1  0.83397100  0.84270713  0.12467849  1
  Pr3+  Pr29  1  1.00308663  0.98760762  0.87301252  1
  Pr3+  Pr30  1  0.83570509  0.17603759  0.62382230  1
  Pr3+  Pr31  1  0.50579121  0.17653928  0.62422809  1
  Pr3+  Pr32  1  0.16253145  0.15432283  0.87583620  1
  Pr3+  Pr33  1  0.83461427  0.17729481  0.12585910  1
  Pr3+  Pr34  1  0.33195478  0.34490112  0.62487114  1
  Pr3+  Pr35  1  0.16761739  0.84309320  0.12521500  1
  Pr3+  Pr36  1  0.83642646  0.51676898  0.62549179  1
  Pr3+  Pr37  1  0.33678188  0.65485383  0.87370845  1
  Pr3+  Pr38  1  0.33705659  0.98845328  0.37522929  1
  Pr3+  Pr39  1  0.66475886  0.34521861  0.62584967  1
  Pr3+  Pr40  1  0.82888302  0.48583831  0.87699917  1
  Pr3+  Pr41  1  -0.00366294  0.34485165  0.62423992  1
  Pr3+  Pr42  1  0.66591056  0.34908298  0.12344974  1
  Pr3+  Pr43  1  0.16150056  0.48513704  0.37490162  1
  Pr3+  Pr44  1  0.82896848  0.48891370  0.37314973  1
  Pr3+  Pr45  1  0.66942953  0.98633592  0.87607474  1
  Pr3+  Pr46  1  0.82758249  0.81832139  0.37563498  1
  Pr3+  Pr47  1  0.49769154  0.82169394  0.87311533  1
  Pr3+  Pr48  1  0.83290247  0.15307966  0.37398582  1
  Pr3+  Pr49  1  0.33450327  0.32114761  0.87572293  1
  Pr3+  Pr50  1  0.33384206  0.00898949  0.62639201  1
  Pr3+  Pr51  1  0.83173341  0.15519098  0.87587878  1
  Pr3+  Pr52  1  0.16544903  0.82228922  0.87247378  1
  Pr3+  Pr53  1  0.16668200  0.17510242  0.62380358  1
  Pr3+  Pr54  1  0.16261646  0.15193856  0.37350947  1
  Pr3+  Pr55  1  0.99889786  0.65613956  0.37519761  1
  Pr3+  Pr56  1  0.16783107  0.51286014  0.12312389  1
  Pr3+  Pr57  1  0.16257537  0.82193252  0.37675432  1
  Pr3+  Pr58  1  0.50059412  0.48920373  0.87509928  1
  Pr3+  Pr59  1  0.33015424  0.01317486  0.12383631  1
  Pr3+  Pr60  1  0.49901115  0.15282132  0.87665521  1
  Pr3+  Pr61  1  0.50589824  0.51515932  0.62336238  1
  Pr3+  Pr62  1  0.33146830  0.67971823  0.12547070  1
  Pr3+  Pr63  1  0.33102296  0.68200645  0.62445350  1
  Pr3+  Pr64  1  0.66890677  0.98728385  0.37383288  1
  Pr3+  Pr65  1  0.50366354  0.17911689  0.12593670  1
  Pr3+  Pr66  1  0.66747489  0.32145376  0.37351661  1
  Pr3+  Pr67  1  0.33682499  0.65362696  0.37623777  1
  Pr3+  Pr68  1  0.83586266  0.84766162  0.62561989  1
  Pr3+  Pr69  1  1.00109396  0.65312974  0.87433701  1
  Pr3+  Pr70  1  0.16732319  0.51189261  0.62701818  1
  Pr3+  Pr71  1  0.82777740  0.81763813  0.87459676  1
  Mn3.30+  Mn72  1  0.16660488  -0.00021252  -0.00026166  1
  Mn3.30+  Mn73  1  0.16556232  -0.00208280  0.50255393  1
  Mn3.30+  Mn74  1  0.16562149  0.33208993  0.00159378  1
  Mn3.30+  Mn75  1  0.16622764  0.33213698  0.49851029  1
  Mn3.30+  Mn76  1  0.16642825  0.66723416  -0.00095044  1
  Mn3.30+  Mn77  1  0.16462475  0.66774486  0.50253563  1
  Mn3.30+  Mn78  1  0.50162455  -0.00200116  0.00260347  1
  Mn3.30+  Mn79  1  0.50138161  -0.00014081  0.49883802  1
  Mn3.30+  Mn80  1  0.50243153  0.33439211  -0.00119477  1
  Mn3.30+  Mn81  1  0.50022847  0.33297446  0.49893415  1
  Mn3.30+  Mn82  1  0.50397198  0.66929488  0.00017951  1
  Mn3.30+  Mn83  1  0.50257365  0.66866347  0.50028932  1
  Mn3.30+  Mn84  1  0.83205809  -0.00094084  0.00145778  1
  Mn3.30+  Mn85  1  0.83402587  -0.00079243  0.50001801  1
  Mn3.30+  Mn86  1  0.83241357  0.33379757  0.00075915  1
  Mn3.30+  Mn87  1  0.83428401  0.33320283  0.49775101  1
  Mn3.30+  Mn88  1  0.82948987  0.66546433  0.00078085  1
  Mn3.30+  Mn89  1  0.83037462  0.66792497  0.50273626  1
  Mn3.30+  Mn90  1  0.00220218  0.16705970  0.24933509  1
  Mn3.30+  Mn91  1  -0.00020892  0.16650371  0.74960214  1
  Mn3.30+  Mn92  1  -0.00294664  0.49985060  0.25097975  1
  Mn3.30+  Mn93  1  -0.00051280  0.50077643  0.74882547  1
  Mn3.30+  Mn94  1  -0.00161825  0.83221624  0.25061467  1
  Mn3.30+  Mn95  1  -0.00036565  0.83301215  0.74705615  1
  Mn3.30+  Mn96  1  0.33353313  0.16558347  0.24979676  1
  Mn3.30+  Mn97  1  0.33454409  0.16590090  0.74998837  1
  Mn3.30+  Mn98  1  0.33381339  0.49996195  0.25069789  1
  Mn3.30+  Mn99  1  0.33470651  0.49996144  0.75002434  1
  Mn3.30+  Mn100  1  0.33564629  0.83410437  0.24941459  1
  Mn3.30+  Mn101  1  0.33301380  0.83396674  0.74761135  1
  Mn3.30+  Mn102  1  0.66515541  0.16591217  0.24995598  1
  Mn3.30+  Mn103  1  0.66753416  0.16681545  0.75098924  1
  Mn3.30+  Mn104  1  0.66839884  0.50357914  0.24858631  1
  Mn3.30+  Mn105  1  0.66764924  0.50188510  0.75058696  1
  Mn3.30+  Mn106  1  0.66422703  0.83164007  0.24795681  1
  Mn3.30+  Mn107  1  0.66474160  0.83123334  0.74937589  1
  Mn3.30+  Mn108  1  0.16656587  -0.00039896  0.24966048  1
  Mn3.30+  Mn109  1  0.16533674  -0.00149717  0.74720636  1
  Mn3.30+  Mn110  1  0.16623845  0.33182357  0.25065385  1
  Mn3.30+  Mn111  1  0.16571426  0.33266913  0.74942328  1
  Mn3.30+  Mn112  1  0.16652441  0.66655314  0.25094146  1
  Mn3.30+  Mn113  1  0.16465985  0.66813763  0.74727364  1
  Mn3.30+  Mn114  1  0.50139909  -0.00056977  0.24841708  1
  Mn3.30+  Mn115  1  0.50124678  -0.00130211  0.75015698  1
  Mn3.30+  Mn116  1  0.50032033  0.33409920  0.25023582  1
  Mn3.30+  Mn117  1  0.50255599  0.33324450  0.75239149  1
  Mn3.30+  Mn118  1  0.50243280  0.66979904  0.25022795  1
  Mn3.30+  Mn119  1  0.50387272  0.66828264  0.74886774  1
  Mn3.30+  Mn120  1  0.83131722  -0.00177255  0.24878475  1
  Mn3.30+  Mn121  1  0.83460689  0.00032134  0.74929723  1
  Mn3.30+  Mn122  1  0.83501534  0.33392711  0.25067937  1
  Mn3.30+  Mn123  1  0.83188032  0.33275640  0.75084269  1
  Mn3.30+  Mn124  1  0.82985197  0.66601477  0.24847539  1
  Mn3.30+  Mn125  1  0.83038949  0.66750185  0.74849360  1
  Mn3.30+  Mn126  1  0.00136720  0.16752645  0.00237939  1
  Mn3.30+  Mn127  1  0.00068086  0.16600411  0.49847392  1
  Mn3.30+  Mn128  1  -0.00245122  0.50008458  0.00105129  1
  Mn3.30+  Mn129  1  -0.00133076  0.50065727  0.49974102  1
  Mn3.30+  Mn130  1  -0.00147845  0.83238149  -0.00085376  1
  Mn3.30+  Mn131  1  -0.00040049  0.83283349  0.50285063  1
  Mn3.30+  Mn132  1  0.33277976  0.16643988  0.00046679  1
  Mn3.30+  Mn133  1  0.33545869  0.16493436  0.50012933  1
  Mn3.30+  Mn134  1  0.33485987  0.49994127  -0.00091252  1
  Mn3.30+  Mn135  1  0.33366378  0.49997649  0.50073009  1
  Mn3.30+  Mn136  1  0.33604071  0.83376412  0.00013252  1
  Mn3.30+  Mn137  1  0.33252772  0.83433005  0.50169817  1
  Mn3.30+  Mn138  1  0.66694211  0.16675342  0.00120629  1
  Mn3.30+  Mn139  1  0.66567821  0.16610173  0.49767531  1
  Mn3.30+  Mn140  1  0.66778677  0.50340057  0.00067801  1
  Mn3.30+  Mn141  1  0.66800924  0.50231304  0.49983750  1
  Mn3.30+  Mn142  1  0.66445073  0.83140016  0.00187247  1
  Mn3.30+  Mn143  1  0.66465320  0.83144488  0.50116819  1
  O2-  O144  1  0.02749520  0.15928184  0.12634441  1
  O2-  O145  1  0.02228149  0.16185832  0.62301098  1
  O2-  O146  1  0.02414587  0.49635121  0.12875899  1
  O2-  O147  1  0.02341726  0.49243481  0.62275455  1
  O2-  O148  1  0.02287453  0.83006407  0.12372386  1
  O2-  O149  1  0.02522310  0.82233129  0.62600935  1
  O2-  O150  1  0.35933499  0.16350751  0.12497930  1
  O2-  O151  1  0.36160477  0.16130883  0.62493187  1
  O2-  O152  1  0.35893297  0.49463180  0.12452097  1
  O2-  O153  1  0.36013401  0.49368207  0.62653970  1
  O2-  O154  1  0.36148559  0.82649278  0.12737805  1
  O2-  O155  1  0.36205889  0.82941007  0.62444688  1
  O2-  O156  1  0.69071731  0.16089364  0.12563638  1
  O2-  O157  1  0.69046887  0.16626383  0.62197006  1
  O2-  O158  1  0.69480869  0.49401302  0.12434725  1
  O2-  O159  1  0.69327330  0.49014009  0.62569863  1
  O2-  O160  1  0.69199431  0.82318508  0.12497956  1
  O2-  O161  1  0.69153721  0.82861471  0.62542074  1
  O2-  O162  1  0.14214737  0.32625011  0.12723497  1
  O2-  O163  1  0.14148329  0.32442741  0.62180000  1
  O2-  O164  1  0.14783403  0.66336027  0.12584689  1
  O2-  O165  1  0.13689456  0.65717271  0.62445121  1
  O2-  O166  1  0.14133972  0.98962408  0.12364953  1
  O2-  O167  1  0.13850993  0.99633378  0.62512763  1
  O2-  O168  1  0.47467526  0.32872928  0.12563216  1
  O2-  O169  1  0.47612303  0.32542637  0.62700183  1
  O2-  O170  1  0.47355178  0.66226575  0.12544909  1
  O2-  O171  1  0.47446403  0.66073352  0.62454227  1
  O2-  O172  1  0.47385550  0.99383568  0.12538487  1
  O2-  O173  1  0.47886548  0.99765868  0.62356772  1
  O2-  O174  1  0.80808720  0.32433731  0.12597757  1
  O2-  O175  1  0.80815778  0.32483246  0.62295397  1
  O2-  O176  1  0.80641195  0.66321745  0.12371801  1
  O2-  O177  1  0.80215225  0.66351747  0.62631577  1
  O2-  O178  1  0.80532372  0.99310281  0.12553217  1
  O2-  O179  1  0.81304815  0.99904434  0.62524493  1
  O2-  O180  1  0.30685222  0.16795164  0.37530362  1
  O2-  O181  1  0.30729777  0.17206164  0.87536338  1
  O2-  O182  1  0.30662163  0.50547246  0.37576047  1
  O2-  O183  1  0.31356266  0.50566479  0.87340249  1
  O2-  O184  1  0.30638065  0.84017330  0.37574775  1
  O2-  O185  1  0.30968159  0.83263587  0.87172192  1
  O2-  O186  1  0.63958223  0.17387568  0.37314390  1
  O2-  O187  1  0.64287031  0.17299125  0.87837133  1
  O2-  O188  1  0.65051176  0.50572124  0.37504329  1
  O2-  O189  1  0.64162634  0.51125027  0.87473011  1
  O2-  O190  1  0.64311467  0.84073100  0.37335786  1
  O2-  O191  1  0.64141820  0.84045777  0.87658309  1
  O2-  O192  1  0.97724675  0.17238030  0.37331501  1
  O2-  O193  1  0.97674837  0.16809048  0.87745223  1
  O2-  O194  1  0.97321980  0.50818638  0.37658100  1
  O2-  O195  1  0.97531372  0.50331922  0.87262993  1
  O2-  O196  1  0.97410816  0.83247283  0.37660396  1
  O2-  O197  1  0.97304098  0.84017621  0.87340246  1
  O2-  O198  1  0.19258738  0.00304903  0.37657689  1
  O2-  O199  1  0.18555254  0.00562207  0.87410831  1
  O2-  O200  1  0.19626051  0.33898733  0.37542835  1
  O2-  O201  1  0.18982839  0.33257217  0.87557663  1
  O2-  O202  1  0.19275155  0.67296713  0.37695096  1
  O2-  O203  1  0.19252623  0.67347743  0.87245951  1
  O2-  O204  1  0.52408004  0.00590065  0.37259299  1
  O2-  O205  1  0.52464142  0.00423300  0.87826052  1
  O2-  O206  1  0.52376094  0.33875519  0.37242576  1
  O2-  O207  1  0.53096917  0.34148307  0.87527251  1
  O2-  O208  1  0.52699239  0.67467401  0.37604362  1
  O2-  O209  1  0.52780816  0.67428560  0.87397549  1
  O2-  O210  1  0.85109019  0.00246930  0.37348832  1
  O2-  O211  1  0.85890584  0.00473699  0.87513047  1
  O2-  O212  1  0.86261952  0.34161668  0.37413242  1
  O2-  O213  1  0.85446135  0.33717835  0.87741646  1
  O2-  O214  1  0.85557442  0.67062440  0.37778498  1
  O2-  O215  1  0.85737216  0.67068798  0.87263376  1
  O2-  O216  1  0.23673488  0.09309692  0.02164105  1
  O2-  O217  1  0.24190400  0.09284366  0.52269184  1
  O2-  O218  1  0.23944444  0.42450160  0.02225898  1
  O2-  O219  1  0.23648251  0.42664921  0.52212725  1
  O2-  O220  1  0.24084124  0.76082076  0.01959165  1
  O2-  O221  1  0.23689652  0.76142275  0.52300503  1
  O2-  O222  1  0.57000215  0.09619340  0.01851206  1
  O2-  O223  1  0.57025419  0.09672096  0.51591673  1
  O2-  O224  1  0.57247745  0.43285121  0.02124707  1
  O2-  O225  1  0.57531190  0.42796207  0.52117220  1
  O2-  O226  1  0.56693901  0.76748751  0.01879140  1
  O2-  O227  1  0.56763930  0.76610693  0.51987884  1
  O2-  O228  1  0.90695063  0.09434391  0.02275575  1
  O2-  O229  1  0.90480191  0.09530546  0.51379969  1
  O2-  O230  1  0.90303803  0.42723721  0.02215695  1
  O2-  O231  1  0.90400644  0.42762249  0.52236814  1
  O2-  O232  1  0.89983596  0.76165725  0.01473920  1
  O2-  O233  1  0.89995111  0.76308267  0.51896933  1
  O2-  O234  1  0.26567627  0.26287255  0.23350107  1
  O2-  O235  1  0.26201567  0.25950085  0.72885548  1
  O2-  O236  1  0.26103874  0.59353054  0.23031308  1
  O2-  O237  1  0.25973742  0.59556442  0.72780549  1
  O2-  O238  1  0.26291644  0.92711125  0.22849005  1
  O2-  O239  1  0.25931702  0.92649950  0.72860288  1
  O2-  O240  1  0.59633348  0.26262363  0.22785160  1
  O2-  O241  1  0.59404403  0.26103205  0.72895011  1
  O2-  O242  1  0.59356518  0.59726868  0.22789002  1
  O2-  O243  1  0.59591158  0.59499247  0.72471384  1
  O2-  O244  1  0.59846105  0.93164063  0.23161457  1
  O2-  O245  1  0.59528007  0.92747722  0.73739066  1
  O2-  O246  1  0.92712538  0.25940621  0.22775578  1
  O2-  O247  1  0.92786458  0.25980171  0.72843743  1
  O2-  O248  1  0.92602238  0.59513192  0.23698439  1
  O2-  O249  1  0.92631286  0.59784616  0.72803713  1
  O2-  O250  1  0.92488540  0.92598830  0.22758661  1
  O2-  O251  1  0.93023651  0.92879546  0.72795064  1
  O2-  O252  1  0.09820050  0.23947438  0.27123279  1
  O2-  O253  1  0.09714718  0.23464477  0.76494925  1
  O2-  O254  1  0.09336481  0.57055690  0.27106918  1
  O2-  O255  1  0.09221615  0.57462014  0.76860726  1
  O2-  O256  1  0.09683550  0.90267178  0.26669153  1
  O2-  O257  1  0.09290210  0.90586719  0.77169595  1
  O2-  O258  1  0.42780178  0.23464416  0.27106868  1
  O2-  O259  1  0.42932336  0.24153145  0.77429021  1
  O2-  O260  1  0.42679379  0.57672579  0.26776373  1
  O2-  O261  1  0.43160843  0.57421572  0.76996753  1
  O2-  O262  1  0.42758715  0.90681312  0.27388027  1
  O2-  O263  1  0.42733494  0.90542534  0.76654037  1
  O2-  O264  1  0.76277182  0.23985329  0.27159907  1
  O2-  O265  1  0.76307591  0.23646008  0.76786903  1
  O2-  O266  1  0.76268020  0.57180239  0.26864046  1
  O2-  O267  1  0.76549959  0.56796408  0.76764903  1
  O2-  O268  1  0.75997957  0.90274777  0.26926768  1
  O2-  O269  1  0.76089967  0.90444757  0.76915623  1
  O2-  O270  1  0.07787554  0.07517041  0.48093372  1
  O2-  O271  1  0.07032168  0.07064338  0.98109900  1
  O2-  O272  1  0.07258228  0.40251683  0.47772597  1
  O2-  O273  1  0.07264290  0.40488471  0.99046919  1
  O2-  O274  1  0.07150220  0.73866377  0.47773777  1
  O2-  O275  1  0.07334242  0.74193404  0.97566589  1
  O2-  O276  1  0.40369564  0.06954800  0.48236777  1
  O2-  O277  1  0.40731389  0.07430170  0.98430080  1
  O2-  O278  1  0.40434805  0.40079547  0.48451767  1
  O2-  O279  1  0.40746003  0.40528476  0.97848854  1
  O2-  O280  1  0.40229115  0.74041578  0.47899609  1
  O2-  O281  1  0.40584511  0.73672883  0.97830644  1
  O2-  O282  1  0.73843651  0.07569143  0.47688381  1
  O2-  O283  1  0.74161552  0.07298012  0.97824243  1
  O2-  O284  1  0.73975595  0.40380175  0.47874034  1
  O2-  O285  1  0.73538145  0.40466959  0.97961492  1
  O2-  O286  1  0.73601137  0.73794255  0.47727829  1
  O2-  O287  1  0.73646824  0.73814011  0.97699016  1
  O2-  O288  1  0.09859826  0.23709575  0.48045884  1
  O2-  O289  1  0.09727954  0.23584667  0.98343642  1
  O2-  O290  1  0.09499996  0.57156908  0.47824183  1
  O2-  O291  1  0.09152383  0.57563556  0.98380076  1
  O2-  O292  1  0.09645639  0.90260226  0.48263447  1
  O2-  O293  1  0.09502445  0.90584317  0.97864955  1
  O2-  O294  1  0.42866535  0.23512023  0.47824566  1
  O2-  O295  1  0.42865362  0.24081979  0.97773327  1
  O2-  O296  1  0.42638166  0.57652290  0.48273160  1
  O2-  O297  1  0.43218141  0.57419852  0.97997420  1
  O2-  O298  1  0.42620384  0.90817200  0.47792159  1
  O2-  O299  1  0.42996604  0.90429464  0.98137282  1
  O2-  O300  1  0.76201853  0.23977638  0.47536814  1
  O2-  O301  1  0.76405285  0.23730648  0.98407206  1
  O2-  O302  1  0.76638165  0.56842193  0.48499807  1
  O2-  O303  1  0.76151688  0.57093922  0.97847911  1
  O2-  O304  1  0.75986820  0.90423310  0.48258053  1
  O2-  O305  1  0.76042896  0.90247849  0.97955769  1
  O2-  O306  1  0.07368634  0.07251791  0.26851046  1
  O2-  O307  1  0.07253323  0.07371431  0.76985530  1
  O2-  O308  1  0.06997638  0.40409229  0.27210935  1
  O2-  O309  1  0.07407657  0.40373195  0.76003035  1
  O2-  O310  1  0.07388509  0.73913415  0.27192855  1
  O2-  O311  1  0.07184460  0.74088777  0.77399355  1
  O2-  O312  1  0.40165448  0.06896050  0.26515105  1
  O2-  O313  1  0.40875813  0.07542756  0.76798572  1
  O2-  O314  1  0.40168562  0.40403295  0.26691624  1
  O2-  O315  1  0.40894955  0.40367358  0.77147318  1
  O2-  O316  1  0.40420032  0.73931644  0.27380825  1
  O2-  O317  1  0.40462370  0.73697710  0.76874109  1
  O2-  O318  1  0.73987707  0.07412263  0.27073661  1
  O2-  O319  1  0.74043570  0.07362519  0.77302359  1
  O2-  O320  1  0.74010747  0.40383584  0.27010889  1
  O2-  O321  1  0.73593748  0.40454085  0.77160556  1
  O2-  O322  1  0.73602889  0.73821809  0.27251661  1
  O2-  O323  1  0.73656311  0.73851937  0.77349562  1
  O2-  O324  1  0.23867233  0.09530189  0.22770743  1
  O2-  O325  1  0.23916579  0.09160463  0.72806722  1
  O2-  O326  1  0.23499375  0.42763574  0.22877583  1
  O2-  O327  1  0.24063973  0.42337244  0.72730345  1
  O2-  O328  1  0.24153617  0.76221324  0.23038782  1
  O2-  O329  1  0.23762671  0.76129575  0.72532987  1
  O2-  O330  1  0.56907152  0.09470394  0.22945316  1
  O2-  O331  1  0.57221823  0.09756422  0.73576295  1
  O2-  O332  1  0.57663805  0.43025168  0.22770473  1
  O2-  O333  1  0.57131856  0.42968477  0.72899683  1
  O2-  O334  1  0.56618190  0.76804914  0.23177213  1
  O2-  O335  1  0.56802581  0.76515478  0.72968549  1
  O2-  O336  1  0.90537241  0.09247723  0.23015028  1
  O2-  O337  1  0.90508790  0.09795378  0.73339855  1
  O2-  O338  1  0.90399791  0.42879626  0.22667887  1
  O2-  O339  1  0.90384037  0.42723177  0.72925207  1
  O2-  O340  1  0.89991781  0.76120495  0.23448498  1
  O2-  O341  1  0.90110505  0.76391241  0.73237615  1
  O2-  O342  1  0.26355055  0.26268050  0.01848714  1
  O2-  O343  1  0.26352254  0.25978890  0.52037990  1
  O2-  O344  1  0.26214275  0.59363207  0.01904669  1
  O2-  O345  1  0.25851656  0.59543513  0.52268793  1
  O2-  O346  1  0.25998626  0.92532230  0.02136802  1
  O2-  O347  1  0.26299882  0.92868254  0.52094367  1
  O2-  O348  1  0.59350058  0.26216832  0.02359754  1
  O2-  O349  1  0.59576815  0.26246660  0.51897938  1
  O2-  O350  1  0.59476578  0.59746555  0.02499751  1
  O2-  O351  1  0.59596754  0.59420440  0.52223649  1
  O2-  O352  1  0.59947301  0.93166786  0.01990798  1
  O2-  O353  1  0.59418858  0.92810532  0.51152255  1
  O2-  O354  1  0.92847529  0.25906904  0.02443199  1
  O2-  O355  1  0.92602861  0.25997530  0.52019691  1
  O2-  O356  1  0.92419995  0.59440126  0.01308702  1
  O2-  O357  1  0.92664205  0.59893918  0.52248444  1
  O2-  O358  1  0.92731804  0.92818772  0.02043464  1
  O2-  O359  1  0.92913543  0.92503645  0.52334560  1
