# generated using pymatgen
data_Sr7Ca15Pr50Mn72O216
_symmetry_space_group_name_H-M   'P 1'
_cell_length_a   16.55912964
_cell_length_b   16.60825941
_cell_length_c   15.59202652
_cell_angle_alpha   90.00038720
_cell_angle_beta   89.99835444
_cell_angle_gamma   89.99785018
_symmetry_Int_Tables_number   1
_chemical_formula_structural   Sr7Ca15Pr50Mn72O216
_chemical_formula_sum   'Sr7 Ca15 Pr50 Mn72 O216'
_cell_volume   4288.09294561
_cell_formula_units_Z   1
loop_
 _symmetry_equiv_pos_site_id
 _symmetry_equiv_pos_as_xyz
  1  'x, y, z'
loop_
 _atom_type_symbol
 _atom_type_oxidation_number
  Sr2+  2.0
  Ca2+  2.0
  Pr3+  3.0
  Mn3.30+  3.3
  O2-  -2.0
loop_
 _atom_site_type_symbol
 _atom_site_label
 _atom_site_symmetry_multiplicity
 _atom_site_fract_x
 _atom_site_fract_y
 _atom_site_fract_z
 _atom_site_occupancy
  Sr2+  Sr0  1  0.16226339  0.48999736  0.87333568  1
  Sr2+  Sr1  1  0.99854165  0.65815644  0.87400191  1
  Sr2+  Sr2  1  0.83485793  0.17469791  0.62513657  1
  Sr2+  Sr3  1  -0.00043576  0.67450791  0.62711530  1
  Sr2+  Sr4  1  0.16603205  0.49056139  0.37695602  1
  Sr2+  Sr5  1  0.83382191  0.51032284  0.12523039  1
  Sr2+  Sr6  1  0.83216805  0.82386465  0.37472917  1
  Ca2+  Ca7  1  1.00132185  0.32203638  0.87293978  1
  Ca2+  Ca8  1  0.66504890  0.01141372  0.12557058  1
  Ca2+  Ca9  1  0.67427031  0.98220468  0.87685081  1
  Ca2+  Ca10  1  0.66168190  0.34979195  0.62338114  1
  Ca2+  Ca11  1  0.17011086  0.84801659  0.62617404  1
  Ca2+  Ca12  1  0.67070396  0.31826278  0.37706857  1
  Ca2+  Ca13  1  0.83431980  0.84584206  0.12230168  1
  Ca2+  Ca14  1  0.32689834  0.68290093  0.62378501  1
  Ca2+  Ca15  1  -0.00319952  0.01220908  0.62480501  1
  Ca2+  Ca16  1  0.33075845  0.01293804  0.62506428  1
  Ca2+  Ca17  1  0.49609570  0.82001017  0.37508808  1
  Ca2+  Ca18  1  0.49937102  0.15114534  0.37591701  1
  Ca2+  Ca19  1  0.50220474  0.51714842  0.62444773  1
  Ca2+  Ca20  1  0.83106758  0.81946049  0.87483906  1
  Ca2+  Ca21  1  0.50787048  0.85167059  0.12597490  1
  Pr3+  Pr22  1  0.83869456  0.84572692  0.62600817  1
  Pr3+  Pr23  1  0.33135330  0.34599354  0.62454972  1
  Pr3+  Pr24  1  0.67050488  0.32121240  0.87309024  1
  Pr3+  Pr25  1  0.66482081  0.34717371  0.12628641  1
  Pr3+  Pr26  1  0.16302647  0.15562083  0.87348996  1
  Pr3+  Pr27  1  0.66347639  0.68018446  0.62480145  1
  Pr3+  Pr28  1  0.33517851  0.65329666  0.87247802  1
  Pr3+  Pr29  1  0.16474946  0.15271789  0.37620037  1
  Pr3+  Pr30  1  0.16965954  0.51587088  0.62485746  1
  Pr3+  Pr31  1  0.33903695  0.31675942  0.37653354  1
  Pr3+  Pr32  1  0.50587279  0.17906480  0.62327367  1
  Pr3+  Pr33  1  -0.00337710  0.34727172  0.12412180  1
  Pr3+  Pr34  1  0.33631095  0.32024050  0.87360446  1
  Pr3+  Pr35  1  0.67060145  0.65528119  0.87375493  1
  Pr3+  Pr36  1  0.16823984  0.84545827  0.12327685  1
  Pr3+  Pr37  1  0.66643508  0.98752588  0.37444639  1
  Pr3+  Pr38  1  0.82939489  0.15386479  0.37590139  1
  Pr3+  Pr39  1  0.82789586  0.48674673  0.37647286  1
  Pr3+  Pr40  1  -0.00374284  0.34445475  0.62584377  1
  Pr3+  Pr41  1  0.83324688  0.48904415  0.87368269  1
  Pr3+  Pr42  1  1.00182670  0.32116696  0.37559265  1
  Pr3+  Pr43  1  0.83312744  0.17730685  0.12520082  1
  Pr3+  Pr44  1  -0.00511624  0.01043165  0.12490109  1
  Pr3+  Pr45  1  0.16767132  0.51329623  0.12501827  1
  Pr3+  Pr46  1  0.33679754  0.65509149  0.37732626  1
  Pr3+  Pr47  1  1.00122017  0.98701511  0.87160151  1
  Pr3+  Pr48  1  0.50467795  0.51453851  0.12571614  1
  Pr3+  Pr49  1  0.49992672  0.15160606  0.87461143  1
  Pr3+  Pr50  1  0.16336485  0.82053355  0.87345664  1
  Pr3+  Pr51  1  1.00144698  0.98661446  0.37806658  1
  Pr3+  Pr52  1  0.50047683  0.84586696  0.62352290  1
  Pr3+  Pr53  1  0.17011377  0.17989895  0.12476661  1
  Pr3+  Pr54  1  0.50597202  0.17710669  0.12704809  1
  Pr3+  Pr55  1  0.33411386  0.01155022  0.12447585  1
  Pr3+  Pr56  1  0.49670052  0.48735611  0.37753076  1
  Pr3+  Pr57  1  0.66549901  0.01083767  0.62500850  1
  Pr3+  Pr58  1  0.83042807  0.15162558  0.87408194  1
  Pr3+  Pr59  1  0.83421888  0.51125584  0.62527153  1
  Pr3+  Pr60  1  1.00124209  0.65462868  0.37631007  1
  Pr3+  Pr61  1  0.34014373  0.98522002  0.37708547  1
  Pr3+  Pr62  1  0.66742962  0.65715185  0.37623512  1
  Pr3+  Pr63  1  0.16802410  0.17651524  0.62535302  1
  Pr3+  Pr64  1  0.33165509  0.34617710  0.12554375  1
  Pr3+  Pr65  1  0.66408330  0.68319688  0.12504681  1
  Pr3+  Pr66  1  -0.00678644  0.67957889  0.12346647  1
  Pr3+  Pr67  1  0.49546288  0.48717294  0.87259140  1
  Pr3+  Pr68  1  0.49985178  0.82146599  0.87548056  1
  Pr3+  Pr69  1  0.16366668  0.82230802  0.37640487  1
  Pr3+  Pr70  1  0.33152061  0.68059177  0.12515068  1
  Pr3+  Pr71  1  0.33654957  0.98660097  0.87302625  1
  Mn3.30+  Mn72  1  0.16633452  0.00033212  -0.00087636  1
  Mn3.30+  Mn73  1  0.16878581  -0.00131997  0.50335381  1
  Mn3.30+  Mn74  1  0.16509717  0.33401873  -0.00138210  1
  Mn3.30+  Mn75  1  0.16713624  0.33316452  0.49954275  1
  Mn3.30+  Mn76  1  0.16483588  0.66669736  -0.00038612  1
  Mn3.30+  Mn77  1  0.16798362  0.66992760  0.50175498  1
  Mn3.30+  Mn78  1  0.50505682  -0.00166755  -0.00069750  1
  Mn3.30+  Mn79  1  0.49842822  -0.00003667  0.50054140  1
  Mn3.30+  Mn80  1  0.50100710  0.33270100  -0.00000209  1
  Mn3.30+  Mn81  1  0.50350903  0.33281850  0.49963217  1
  Mn3.30+  Mn82  1  0.50067626  0.66931949  -0.00013780  1
  Mn3.30+  Mn83  1  0.49784621  0.66819238  0.50218195  1
  Mn3.30+  Mn84  1  0.83039882  -0.00364206  0.00042998  1
  Mn3.30+  Mn85  1  0.83397090  -0.00046157  0.50026394  1
  Mn3.30+  Mn86  1  0.83485409  0.33302898  -0.00185864  1
  Mn3.30+  Mn87  1  0.82952909  0.33201901  0.50233474  1
  Mn3.30+  Mn88  1  0.83179702  0.66798301  0.00019798  1
  Mn3.30+  Mn89  1  0.83317079  0.66738499  0.49989099  1
  Mn3.30+  Mn90  1  -0.00026445  0.16575072  0.24976543  1
  Mn3.30+  Mn91  1  -0.00121669  0.16641413  0.75018279  1
  Mn3.30+  Mn92  1  -0.00090097  0.50023036  0.25104549  1
  Mn3.30+  Mn93  1  0.00069392  0.49968313  0.75050140  1
  Mn3.30+  Mn94  1  -0.00215440  0.83331048  0.24983694  1
  Mn3.30+  Mn95  1  0.00082295  0.83311343  0.74791158  1
  Mn3.30+  Mn96  1  0.33628249  0.16502417  0.25094195  1
  Mn3.30+  Mn97  1  0.33457195  0.16537224  0.74839475  1
  Mn3.30+  Mn98  1  0.33445848  0.49989390  0.25128462  1
  Mn3.30+  Mn99  1  0.33379172  0.50101235  0.74742208  1
  Mn3.30+  Mn100  1  0.33660404  0.83393160  0.24879195  1
  Mn3.30+  Mn101  1  0.33202840  0.83342849  0.74803908  1
  Mn3.30+  Mn102  1  0.66539503  0.16623078  0.25229554  1
  Mn3.30+  Mn103  1  0.66736793  0.16618982  0.74880660  1
  Mn3.30+  Mn104  1  0.66578323  0.50058842  0.25157102  1
  Mn3.30+  Mn105  1  0.66345875  0.49941639  0.74785614  1
  Mn3.30+  Mn106  1  0.66520612  0.83528932  0.24903509  1
  Mn3.30+  Mn107  1  0.66867586  0.83464000  0.75090302  1
  Mn3.30+  Mn108  1  0.16762501  -0.00039031  0.25006850  1
  Mn3.30+  Mn109  1  0.16758393  -0.00063926  0.74690391  1
  Mn3.30+  Mn110  1  0.16737283  0.33387992  0.25146954  1
  Mn3.30+  Mn111  1  0.16493729  0.33386514  0.75011116  1
  Mn3.30+  Mn112  1  0.16573559  0.66760517  0.25003837  1
  Mn3.30+  Mn113  1  0.16703691  0.66906488  0.74808644  1
  Mn3.30+  Mn114  1  0.50183231  -0.00124743  0.24994789  1
  Mn3.30+  Mn115  1  0.50116347  -0.00103348  0.75028604  1
  Mn3.30+  Mn116  1  0.50230119  0.33126768  0.25361242  1
  Mn3.30+  Mn117  1  0.50231027  0.33419529  0.74687305  1
  Mn3.30+  Mn118  1  0.50006597  0.67082642  0.25029216  1
  Mn3.30+  Mn119  1  0.49829662  0.66722938  0.74704192  1
  Mn3.30+  Mn120  1  0.83038080  -0.00234566  0.24825994  1
  Mn3.30+  Mn121  1  0.83392442  -0.00201508  0.75121640  1
  Mn3.30+  Mn122  1  0.83191211  0.33275783  0.25134559  1
  Mn3.30+  Mn123  1  0.83277031  0.33183756  0.74863018  1
  Mn3.30+  Mn124  1  0.83170230  0.66803049  0.24952706  1
  Mn3.30+  Mn125  1  0.83288442  0.66749742  0.75052323  1
  Mn3.30+  Mn126  1  -0.00053719  0.16726852  -0.00066945  1
  Mn3.30+  Mn127  1  -0.00092803  0.16477905  0.50104274  1
  Mn3.30+  Mn128  1  -0.00011038  0.49999373  -0.00155864  1
  Mn3.30+  Mn129  1  -0.00056753  0.49984165  0.50036016  1
  Mn3.30+  Mn130  1  -0.00321531  0.83375479  -0.00161134  1
  Mn3.30+  Mn131  1  0.00188680  0.83273017  0.50359160  1
  Mn3.30+  Mn132  1  0.33475638  0.16619499  -0.00056299  1
  Mn3.30+  Mn133  1  0.33609200  0.16405324  0.50113963  1
  Mn3.30+  Mn134  1  0.33313938  0.49962651  -0.00063802  1
  Mn3.30+  Mn135  1  0.33492014  0.50085734  0.50171692  1
  Mn3.30+  Mn136  1  0.33612580  0.83373209  0.00067586  1
  Mn3.30+  Mn137  1  0.33239692  0.83374434  0.50175271  1
  Mn3.30+  Mn138  1  0.66746155  0.16382740  -0.00033750  1
  Mn3.30+  Mn139  1  0.66559300  0.16874565  0.49947032  1
  Mn3.30+  Mn140  1  0.66624210  0.50088296  -0.00076092  1
  Mn3.30+  Mn141  1  0.66318090  0.49870696  0.50130690  1
  Mn3.30+  Mn142  1  0.66836671  0.83602008  0.00138891  1
  Mn3.30+  Mn143  1  0.66558252  0.83391308  0.49840848  1
  O2-  O144  1  0.02672429  0.15783116  0.12536025  1
  O2-  O145  1  0.02397515  0.15996055  0.62455687  1
  O2-  O146  1  0.02334968  0.49474608  0.12441784  1
  O2-  O147  1  0.02359003  0.49245470  0.62367328  1
  O2-  O148  1  0.02507558  0.83003873  0.12456905  1
  O2-  O149  1  0.02776683  0.82821540  0.62495841  1
  O2-  O150  1  0.36069766  0.16118865  0.12579106  1
  O2-  O151  1  0.36106416  0.16036329  0.62652350  1
  O2-  O152  1  0.36047448  0.49444173  0.12571525  1
  O2-  O153  1  0.36036541  0.49236498  0.62423619  1
  O2-  O154  1  0.36383644  0.82781406  0.12205666  1
  O2-  O155  1  0.35912199  0.82552273  0.62585824  1
  O2-  O156  1  0.68921575  0.15984017  0.12565838  1
  O2-  O157  1  0.68582761  0.15679642  0.62548820  1
  O2-  O158  1  0.68387978  0.49508755  0.12601332  1
  O2-  O159  1  0.69105234  0.49536578  0.62445770  1
  O2-  O160  1  0.69355016  0.82785476  0.12564851  1
  O2-  O161  1  0.69213788  0.83012934  0.62582755  1
  O2-  O162  1  0.14210360  0.32733084  0.12540642  1
  O2-  O163  1  0.14157764  0.32528507  0.62378960  1
  O2-  O164  1  0.14025969  0.66333059  0.12633229  1
  O2-  O165  1  0.14855566  0.66265129  0.62465644  1
  O2-  O166  1  0.14004635  0.99403957  0.12351721  1
  O2-  O167  1  0.13929140  0.99608725  0.62585810  1
  O2-  O168  1  0.47545549  0.32574365  0.12807385  1
  O2-  O169  1  0.47338512  0.32402608  0.62345433  1
  O2-  O170  1  0.47436521  0.65967288  0.12497398  1
  O2-  O171  1  0.47098018  0.66350640  0.62631324  1
  O2-  O172  1  0.47653485  0.99674678  0.12369186  1
  O2-  O173  1  0.47334062  0.99382299  0.62590527  1
  O2-  O174  1  0.80839563  0.32731732  0.12436989  1
  O2-  O175  1  0.80490175  0.33156050  0.62457343  1
  O2-  O176  1  0.80741840  0.66164675  0.12502954  1
  O2-  O177  1  0.80749331  0.66066181  0.62454551  1
  O2-  O178  1  0.80743296  0.99445127  0.12425133  1
  O2-  O179  1  0.80927163  0.99418831  0.62640781  1
  O2-  O180  1  0.30843402  0.16939582  0.37452845  1
  O2-  O181  1  0.30844613  0.17176756  0.87327349  1
  O2-  O182  1  0.31532657  0.50604050  0.37621503  1
  O2-  O183  1  0.31379466  0.50348126  0.87378560  1
  O2-  O184  1  0.30734846  0.83885877  0.37598401  1
  O2-  O185  1  0.30811090  0.83960885  0.87581281  1
  O2-  O186  1  0.64043001  0.17375719  0.37605996  1
  O2-  O187  1  0.64213520  0.17544854  0.87288830  1
  O2-  O188  1  0.63906446  0.50996733  0.37684941  1
  O2-  O189  1  0.63825464  0.50574058  0.87288273  1
  O2-  O190  1  0.63839988  0.83837179  0.37373273  1
  O2-  O191  1  0.64258217  0.83674775  0.87468241  1
  O2-  O192  1  0.97483361  0.17287428  0.37377931  1
  O2-  O193  1  0.97504686  0.17545175  0.87682304  1
  O2-  O194  1  0.97410307  0.50499443  0.37731765  1
  O2-  O195  1  0.97746493  0.50231095  0.87469819  1
  O2-  O196  1  0.98200337  0.83886995  0.37621613  1
  O2-  O197  1  0.97426440  0.84035826  0.87448339  1
  O2-  O198  1  0.19521119  0.00417915  0.37567657  1
  O2-  O199  1  0.19292164  0.00663341  0.87455495  1
  O2-  O200  1  0.19383517  0.33361421  0.37573985  1
  O2-  O201  1  0.19298452  0.33342807  0.87486928  1
  O2-  O202  1  0.19237219  0.67407809  0.37483681  1
  O2-  O203  1  0.19132426  0.67174579  0.87392902  1
  O2-  O204  1  0.52258225  0.00652011  0.37514200  1
  O2-  O205  1  0.52992097  0.00382951  0.87500132  1
  O2-  O206  1  0.52984043  0.34245553  0.37657846  1
  O2-  O207  1  0.52620818  0.33991835  0.87199889  1
  O2-  O208  1  0.52311170  0.67483424  0.37464637  1
  O2-  O209  1  0.52597362  0.67314251  0.87391325  1
  O2-  O210  1  0.85720854  0.00503026  0.37349942  1
  O2-  O211  1  0.85872527  0.00471979  0.87635780  1
  O2-  O212  1  0.85809533  0.33732691  0.37661934  1
  O2-  O213  1  0.85856199  0.33981103  0.87446540  1
  O2-  O214  1  0.85657280  0.66893524  0.37551910  1
  O2-  O215  1  0.84843100  0.67235729  0.87536638  1
  O2-  O216  1  0.23908377  0.09369273  0.02117378  1
  O2-  O217  1  0.23628742  0.09481961  0.51931190  1
  O2-  O218  1  0.23908924  0.42630480  0.02304995  1
  O2-  O219  1  0.24025865  0.42631270  0.52229214  1
  O2-  O220  1  0.24077673  0.76099929  0.02104258  1
  O2-  O221  1  0.23592082  0.76777951  0.51814667  1
  O2-  O222  1  0.56889928  0.09795987  0.01627414  1
  O2-  O223  1  0.57272926  0.09300356  0.51989767  1
  O2-  O224  1  0.57053039  0.42830510  0.01943557  1
  O2-  O225  1  0.56715958  0.43213361  0.52109199  1
  O2-  O226  1  0.57077877  0.76600312  0.02061367  1
  O2-  O227  1  0.57106867  0.76002662  0.52297557  1
  O2-  O228  1  0.90397157  0.09318234  0.02049723  1
  O2-  O229  1  0.90694550  0.09199902  0.51334444  1
  O2-  O230  1  0.90715102  0.42570681  0.01777122  1
  O2-  O231  1  0.90243801  0.42636538  0.52001914  1
  O2-  O232  1  0.90566623  0.76087867  0.02193593  1
  O2-  O233  1  0.90544668  0.76045405  0.51920048  1
  O2-  O234  1  0.26393198  0.25967972  0.22949556  1
  O2-  O235  1  0.26141854  0.26188156  0.72916415  1
  O2-  O236  1  0.25866629  0.59635255  0.22873485  1
  O2-  O237  1  0.26297553  0.59701874  0.72979919  1
  O2-  O238  1  0.26404938  0.92643642  0.22704587  1
  O2-  O239  1  0.26565909  0.93139249  0.73200259  1
  O2-  O240  1  0.59577310  0.26095446  0.22697841  1
  O2-  O241  1  0.59518258  0.26490709  0.72800982  1
  O2-  O242  1  0.59292793  0.59736090  0.23069953  1
  O2-  O243  1  0.59394327  0.59773890  0.72972428  1
  O2-  O244  1  0.59757831  0.93262966  0.23075369  1
  O2-  O245  1  0.59425830  0.92648877  0.72736268  1
  O2-  O246  1  0.92890910  0.25919495  0.22885080  1
  O2-  O247  1  0.92937435  0.26082933  0.73069977  1
  O2-  O248  1  0.92861107  0.59734030  0.23395619  1
  O2-  O249  1  0.91994695  0.58887110  0.73312038  1
  O2-  O250  1  0.92947337  0.92883833  0.23316511  1
  O2-  O251  1  0.93075398  0.92866765  0.72759729  1
  O2-  O252  1  0.09696723  0.23852242  0.26963974  1
  O2-  O253  1  0.09714434  0.23641146  0.76636987  1
  O2-  O254  1  0.09255122  0.57458181  0.26860143  1
  O2-  O255  1  0.09506304  0.57329721  0.75953062  1
  O2-  O256  1  0.09707375  0.90688938  0.26881891  1
  O2-  O257  1  0.09541450  0.90837456  0.77343090  1
  O2-  O258  1  0.43192469  0.23708434  0.27428012  1
  O2-  O259  1  0.42993027  0.23905220  0.77074620  1
  O2-  O260  1  0.42983123  0.57318133  0.26963952  1
  O2-  O261  1  0.42829913  0.57408558  0.77245931  1
  O2-  O262  1  0.42971793  0.90516816  0.27213126  1
  O2-  O263  1  0.42952089  0.90468566  0.77153098  1
  O2-  O264  1  0.76291617  0.23634622  0.26678207  1
  O2-  O265  1  0.76206611  0.23969698  0.77318620  1
  O2-  O266  1  0.75911469  0.57357214  0.27323456  1
  O2-  O267  1  0.75736962  0.57103082  0.76948432  1
  O2-  O268  1  0.75657551  0.90898105  0.27179303  1
  O2-  O269  1  0.76576044  0.90111311  0.76831509  1
  O2-  O270  1  0.07601053  0.07242817  0.47676733  1
  O2-  O271  1  0.06942747  0.07366430  0.97735478  1
  O2-  O272  1  0.06846790  0.40407860  0.48197368  1
  O2-  O273  1  0.06989176  0.39975478  0.98352773  1
  O2-  O274  1  0.07370346  0.74028140  0.47686374  1
  O2-  O275  1  0.07402583  0.74357561  0.98285375  1
  O2-  O276  1  0.40523600  0.07063086  0.48093161  1
  O2-  O277  1  0.40713145  0.07031355  0.97896358  1
  O2-  O278  1  0.40662063  0.40186988  0.47919032  1
  O2-  O279  1  0.40548921  0.40350738  0.98070359  1
  O2-  O280  1  0.40257136  0.73887573  0.48069825  1
  O2-  O281  1  0.40428489  0.73826613  0.97712206  1
  O2-  O282  1  0.73728708  0.07425364  0.47939092  1
  O2-  O283  1  0.74041187  0.07073356  0.97687562  1
  O2-  O284  1  0.73728812  0.40663668  0.47633389  1
  O2-  O285  1  0.73758310  0.40608904  0.97956165  1
  O2-  O286  1  0.73599451  0.73710926  0.48377574  1
  O2-  O287  1  0.73288585  0.73621132  0.98468704  1
  O2-  O288  1  0.09474396  0.23827975  0.47941602  1
  O2-  O289  1  0.09874838  0.23579692  0.98445046  1
  O2-  O290  1  0.09171146  0.57589098  0.48441733  1
  O2-  O291  1  0.09416622  0.57058937  0.98810150  1
  O2-  O292  1  0.09657576  0.90808143  0.47847939  1
  O2-  O293  1  0.09475286  0.90678878  0.97879528  1
  O2-  O294  1  0.43213459  0.23769843  0.47796846  1
  O2-  O295  1  0.42974140  0.23896510  0.97801025  1
  O2-  O296  1  0.42890474  0.57445464  0.47884471  1
  O2-  O297  1  0.42819565  0.57232498  0.97981985  1
  O2-  O298  1  0.42894248  0.90271705  0.47962579  1
  O2-  O299  1  0.42917897  0.90735006  0.97649898  1
  O2-  O300  1  0.76146213  0.23815306  0.47863911  1
  O2-  O301  1  0.76201858  0.23794133  0.98028199  1
  O2-  O302  1  0.75851703  0.57171321  0.48074955  1
  O2-  O303  1  0.75827093  0.57188560  0.97688632  1
  O2-  O304  1  0.75731516  0.90916405  0.48311469  1
  O2-  O305  1  0.76499555  0.90101815  0.97841340  1
  O2-  O306  1  0.07115644  0.07240488  0.27258165  1
  O2-  O307  1  0.07365031  0.07505327  0.77283731  1
  O2-  O308  1  0.07090821  0.40327303  0.26722665  1
  O2-  O309  1  0.07000909  0.40032804  0.76590265  1
  O2-  O310  1  0.07181098  0.73896765  0.26977074  1
  O2-  O311  1  0.07532456  0.74375874  0.77127811  1
  O2-  O312  1  0.40283949  0.06763168  0.26579146  1
  O2-  O313  1  0.40879166  0.07178584  0.77425787  1
  O2-  O314  1  0.40786719  0.40121994  0.27141525  1
  O2-  O315  1  0.40518219  0.40286784  0.76901764  1
  O2-  O316  1  0.40127676  0.73596297  0.26759337  1
  O2-  O317  1  0.40608417  0.74080072  0.77408383  1
  O2-  O318  1  0.73825726  0.07484699  0.27349431  1
  O2-  O319  1  0.73908897  0.06843383  0.77113091  1
  O2-  O320  1  0.73707592  0.40494086  0.27122073  1
  O2-  O321  1  0.73968190  0.40718857  0.77241332  1
  O2-  O322  1  0.73364021  0.73714734  0.26736111  1
  O2-  O323  1  0.73439752  0.73642699  0.76454511  1
  O2-  O324  1  0.23740923  0.09313530  0.22845251  1
  O2-  O325  1  0.23720645  0.09506675  0.73066789  1
  O2-  O326  1  0.24030470  0.42557626  0.22771924  1
  O2-  O327  1  0.23840287  0.42682804  0.72658690  1
  O2-  O328  1  0.23823630  0.76233167  0.22769025  1
  O2-  O329  1  0.23743877  0.76617230  0.73331800  1
  O2-  O330  1  0.57039419  0.09556801  0.23333587  1
  O2-  O331  1  0.57015794  0.09414910  0.72996882  1
  O2-  O332  1  0.57005198  0.42834016  0.23022694  1
  O2-  O333  1  0.56787421  0.43219666  0.72948325  1
  O2-  O334  1  0.57085060  0.76325872  0.22569110  1
  O2-  O335  1  0.57062045  0.76236267  0.72904943  1
  O2-  O336  1  0.90356418  0.09248924  0.22843031  1
  O2-  O337  1  0.90598822  0.09303868  0.73902909  1
  O2-  O338  1  0.90682852  0.42493402  0.23438869  1
  O2-  O339  1  0.90355268  0.42558995  0.72860688  1
  O2-  O340  1  0.90410334  0.75989179  0.22675768  1
  O2-  O341  1  0.90446624  0.76165445  0.73174326  1
  O2-  O342  1  0.26182718  0.26215791  0.02079278  1
  O2-  O343  1  0.26458652  0.25840020  0.52045893  1
  O2-  O344  1  0.26143050  0.59421979  0.02080032  1
  O2-  O345  1  0.26106245  0.59678544  0.51936707  1
  O2-  O346  1  0.26369212  0.92585599  0.02115744  1
  O2-  O347  1  0.26583151  0.93166649  0.52031595  1
  O2-  O348  1  0.59592363  0.26283116  0.02002845  1
  O2-  O349  1  0.59593238  0.26269337  0.52468863  1
  O2-  O350  1  0.59393338  0.59646359  0.01960745  1
  O2-  O351  1  0.59415098  0.59707587  0.51950642  1
  O2-  O352  1  0.59928831  0.93064607  0.02060374  1
  O2-  O353  1  0.59249128  0.92911119  0.52058307  1
  O2-  O354  1  0.92790109  0.25722119  0.02501307  1
  O2-  O355  1  0.92862458  0.26331470  0.51708481  1
  O2-  O356  1  0.92605092  0.59538720  0.01711359  1
  O2-  O357  1  0.92328792  0.59055864  0.51807549  1
  O2-  O358  1  0.92985771  0.93018639  0.01875877  1
  O2-  O359  1  0.92992696  0.92602055  0.52039405  1
