# generated using pymatgen
data_Sr7Ca15Pr50Mn72O216
_symmetry_space_group_name_H-M   'P 1'
_cell_length_a   16.55712982
_cell_length_b   16.59997154
_cell_length_c   15.59038226
_cell_angle_alpha   89.99605727
_cell_angle_beta   90.00512514
_cell_angle_gamma   90.00245365
_symmetry_Int_Tables_number   1
_chemical_formula_structural   Sr7Ca15Pr50Mn72O216
_chemical_formula_sum   'Sr7 Ca15 Pr50 Mn72 O216'
_cell_volume   4284.98354071
_cell_formula_units_Z   1
loop_
 _symmetry_equiv_pos_site_id
 _symmetry_equiv_pos_as_xyz
  1  'x, y, z'
loop_
 _atom_type_symbol
 _atom_type_oxidation_number
  Sr2+  2.0
  Ca2+  2.0
  Pr3+  3.0
  Mn3.30+  3.3
  O2-  -2.0
loop_
 _atom_site_type_symbol
 _atom_site_label
 _atom_site_symmetry_multiplicity
 _atom_site_fract_x
 _atom_site_fract_y
 _atom_site_fract_z
 _atom_site_occupancy
  Sr2+  Sr0  1  0.50439964  0.84428893  0.62514653  1
  Sr2+  Sr1  1  0.00073946  0.01032269  0.12445480  1
  Sr2+  Sr2  1  0.32928499  0.34310231  0.12574873  1
  Sr2+  Sr3  1  0.16716809  0.51104400  0.62510471  1
  Sr2+  Sr4  1  1.00190808  0.98672837  0.87422535  1
  Sr2+  Sr5  1  1.00286119  0.65972160  0.87664806  1
  Sr2+  Sr6  1  0.49981636  0.82261156  0.87494445  1
  Ca2+  Ca7  1  0.16230393  0.48907192  0.87705675  1
  Ca2+  Ca8  1  0.66356152  0.01177168  0.62666639  1
  Ca2+  Ca9  1  0.16197575  0.48269753  0.37298679  1
  Ca2+  Ca10  1  -0.00160393  0.68143518  0.62736906  1
  Ca2+  Ca11  1  -0.00319814  0.68088273  0.12334674  1
  Ca2+  Ca12  1  0.50502545  0.84583138  0.12515396  1
  Ca2+  Ca13  1  -0.00337018  0.01349094  0.62522260  1
  Ca2+  Ca14  1  0.83320818  0.81864241  0.87699286  1
  Ca2+  Ca15  1  0.50130812  0.51499344  0.12570313  1
  Ca2+  Ca16  1  0.84092604  0.51902018  0.12543733  1
  Ca2+  Ca17  1  0.16055213  0.81835407  0.87534584  1
  Ca2+  Ca18  1  0.83190501  0.81827506  0.37344660  1
  Ca2+  Ca19  1  0.49687556  0.81856460  0.37509897  1
  Ca2+  Ca20  1  1.00315334  0.31986474  0.37461632  1
  Ca2+  Ca21  1  0.16856405  0.18173738  0.12424783  1
  Pr3+  Pr22  1  0.50082172  0.51352190  0.62428994  1
  Pr3+  Pr23  1  1.00188157  0.98631430  0.37544424  1
  Pr3+  Pr24  1  1.00462861  0.65341733  0.37303796  1
  Pr3+  Pr25  1  0.66913012  0.31961258  0.37382242  1
  Pr3+  Pr26  1  0.66149927  0.35052366  0.12543885  1
  Pr3+  Pr27  1  0.16525162  0.84128648  0.62786810  1
  Pr3+  Pr28  1  0.16169266  0.15535202  0.37270240  1
  Pr3+  Pr29  1  0.67020321  0.32057227  0.87584153  1
  Pr3+  Pr30  1  0.49744489  0.48895399  0.37299554  1
  Pr3+  Pr31  1  0.32808354  0.34657883  0.62474511  1
  Pr3+  Pr32  1  0.16508663  0.82043893  0.37404505  1
  Pr3+  Pr33  1  0.66410677  0.34590440  0.62435390  1
  Pr3+  Pr34  1  0.67031884  0.98320853  0.37627042  1
  Pr3+  Pr35  1  0.83196857  0.49039448  0.87680050  1
  Pr3+  Pr36  1  0.66961464  0.65699042  0.37519285  1
  Pr3+  Pr37  1  0.33822073  0.98383851  0.37518557  1
  Pr3+  Pr38  1  0.32840026  0.01138179  0.12379577  1
  Pr3+  Pr39  1  0.33191326  0.00882730  0.62648955  1
  Pr3+  Pr40  1  0.32971314  0.67986129  0.62566238  1
  Pr3+  Pr41  1  0.50121419  0.17970329  0.12492814  1
  Pr3+  Pr42  1  0.49824672  0.49268020  0.87716121  1
  Pr3+  Pr43  1  0.33199341  0.32374642  0.87618206  1
  Pr3+  Pr44  1  0.33200957  0.65653891  0.87517928  1
  Pr3+  Pr45  1  0.83286197  0.15448773  0.37480233  1
  Pr3+  Pr46  1  0.67285274  0.65818216  0.87530804  1
  Pr3+  Pr47  1  0.49586603  0.15292176  0.87600796  1
  Pr3+  Pr48  1  0.83935502  0.84515565  0.12494900  1
  Pr3+  Pr49  1  0.50360122  0.17761752  0.62539683  1
  Pr3+  Pr50  1  0.66629013  0.68036984  0.62429839  1
  Pr3+  Pr51  1  -0.00274185  0.34797258  0.62331039  1
  Pr3+  Pr52  1  0.33559364  0.65418702  0.37511662  1
  Pr3+  Pr53  1  0.67322900  0.98144441  0.87349227  1
  Pr3+  Pr54  1  0.16612628  0.17729048  0.62602032  1
  Pr3+  Pr55  1  0.16101907  0.15453523  0.87705881  1
  Pr3+  Pr56  1  0.16964223  0.51247650  0.12489201  1
  Pr3+  Pr57  1  0.49495400  0.15286978  0.37429317  1
  Pr3+  Pr58  1  0.33230098  0.32161778  0.37401408  1
  Pr3+  Pr59  1  0.66423914  0.68099721  0.12566752  1
  Pr3+  Pr60  1  0.83186071  0.48702463  0.37314532  1
  Pr3+  Pr61  1  -0.00204000  0.34654454  0.12664210  1
  Pr3+  Pr62  1  0.83526678  0.17724112  0.62500867  1
  Pr3+  Pr63  1  0.83977102  0.84701114  0.62479953  1
  Pr3+  Pr64  1  0.84179136  0.51782282  0.62433670  1
  Pr3+  Pr65  1  0.83185237  0.15244206  0.87512906  1
  Pr3+  Pr66  1  0.33445256  0.67829118  0.12459900  1
  Pr3+  Pr67  1  1.00292418  0.32576271  0.87536249  1
  Pr3+  Pr68  1  0.66374227  0.00962189  0.12409380  1
  Pr3+  Pr69  1  0.16462540  0.84106529  0.12180443  1
  Pr3+  Pr70  1  0.33379445  0.98481061  0.87480050  1
  Pr3+  Pr71  1  0.83699083  0.17745574  0.12493959  1
  Mn3.30+  Mn72  1  0.16529643  -0.00118589  0.00000600  1
  Mn3.30+  Mn73  1  0.16543704  -0.00120761  0.50137269  1
  Mn3.30+  Mn74  1  0.16587525  0.33471819  0.00070823  1
  Mn3.30+  Mn75  1  0.16404068  0.33386248  0.49872578  1
  Mn3.30+  Mn76  1  0.16459591  0.66666118  0.00047020  1
  Mn3.30+  Mn77  1  0.16522516  0.66460523  0.50029499  1
  Mn3.30+  Mn78  1  0.49919341  -0.00243301  0.00022936  1
  Mn3.30+  Mn79  1  0.50280800  -0.00220264  0.50056247  1
  Mn3.30+  Mn80  1  0.49953351  0.33620813  0.00086727  1
  Mn3.30+  Mn81  1  0.49895472  0.33343889  0.49965022  1
  Mn3.30+  Mn82  1  0.50105528  0.66750334  0.00078675  1
  Mn3.30+  Mn83  1  0.50109412  0.66862436  0.49933438  1
  Mn3.30+  Mn84  1  0.83450691  -0.00220806  -0.00121085  1
  Mn3.30+  Mn85  1  0.83313790  -0.00118595  0.50124076  1
  Mn3.30+  Mn86  1  0.83328992  0.33571658  0.00249165  1
  Mn3.30+  Mn87  1  0.83394603  0.33343789  0.49828373  1
  Mn3.30+  Mn88  1  0.83594375  0.66675200  0.00151047  1
  Mn3.30+  Mn89  1  0.83675617  0.66899958  0.49817762  1
  Mn3.30+  Mn90  1  0.00036285  0.16752811  0.24898684  1
  Mn3.30+  Mn91  1  -0.00079784  0.16617538  0.74961581  1
  Mn3.30+  Mn92  1  0.00035246  0.50003348  0.24983662  1
  Mn3.30+  Mn93  1  0.00203680  0.50357321  0.75061319  1
  Mn3.30+  Mn94  1  -0.00172930  0.83215091  0.25074570  1
  Mn3.30+  Mn95  1  0.00038306  0.83308684  0.75108996  1
  Mn3.30+  Mn96  1  0.32998106  0.16609152  0.24920416  1
  Mn3.30+  Mn97  1  0.33245513  0.16601348  0.75029079  1
  Mn3.30+  Mn98  1  0.33224992  0.49946291  0.24923683  1
  Mn3.30+  Mn99  1  0.33070818  0.50093813  0.75199411  1
  Mn3.30+  Mn100  1  0.33712862  0.83252203  0.24775303  1
  Mn3.30+  Mn101  1  0.33236313  0.83250941  0.75141616  1
  Mn3.30+  Mn102  1  0.66620017  0.16545544  0.24987839  1
  Mn3.30+  Mn103  1  0.66643543  0.16467748  0.74984676  1
  Mn3.30+  Mn104  1  0.66783154  0.50255288  0.24788820  1
  Mn3.30+  Mn105  1  0.66792353  0.50069611  0.74924971  1
  Mn3.30+  Mn106  1  0.66645425  0.83270154  0.25152888  1
  Mn3.30+  Mn107  1  0.66996843  0.83294181  0.74902498  1
  Mn3.30+  Mn108  1  0.16748600  -0.00015280  0.24908400  1
  Mn3.30+  Mn109  1  0.16333409  -0.00214823  0.74944117  1
  Mn3.30+  Mn110  1  0.16413950  0.33315289  0.25039166  1
  Mn3.30+  Mn111  1  0.16562962  0.33545306  0.75040217  1
  Mn3.30+  Mn112  1  0.16638034  0.66525105  0.24901640  1
  Mn3.30+  Mn113  1  0.16369962  0.66587154  0.75039543  1
  Mn3.30+  Mn114  1  0.49975431  -0.00338560  0.24953530  1
  Mn3.30+  Mn115  1  0.50193649  -0.00131695  0.74990504  1
  Mn3.30+  Mn116  1  0.49910529  0.33524581  0.24837871  1
  Mn3.30+  Mn117  1  0.49943741  0.33442665  0.75122891  1
  Mn3.30+  Mn118  1  0.50107126  0.66823199  0.24922597  1
  Mn3.30+  Mn119  1  0.50101149  0.66765382  0.75094002  1
  Mn3.30+  Mn120  1  0.83367441  -0.00159283  0.25104861  1
  Mn3.30+  Mn121  1  0.83415660  -0.00210472  0.74850901  1
  Mn3.30+  Mn122  1  0.83388915  0.33462196  0.24951316  1
  Mn3.30+  Mn123  1  0.83330812  0.33439166  0.74985626  1
  Mn3.30+  Mn124  1  0.83571769  0.66677024  0.24942021  1
  Mn3.30+  Mn125  1  0.83698546  0.66916016  0.75103835  1
  Mn3.30+  Mn126  1  0.00082503  0.16694579  0.00167194  1
  Mn3.30+  Mn127  1  -0.00078443  0.16645428  0.49982483  1
  Mn3.30+  Mn128  1  0.00034466  0.50288100  0.00126774  1
  Mn3.30+  Mn129  1  0.00224704  0.50112154  0.49812292  1
  Mn3.30+  Mn130  1  -0.00020188  0.83260038  -0.00192469  1
  Mn3.30+  Mn131  1  -0.00095910  0.83238364  0.49968460  1
  Mn3.30+  Mn132  1  0.33022742  0.16690428  -0.00008870  1
  Mn3.30+  Mn133  1  0.33225270  0.16505711  0.50069094  1
  Mn3.30+  Mn134  1  0.33235446  0.50017084  0.00106307  1
  Mn3.30+  Mn135  1  0.33057556  0.50018403  0.49823904  1
  Mn3.30+  Mn136  1  0.33461784  0.83225679  0.00011116  1
  Mn3.30+  Mn137  1  0.33480599  0.83256842  0.50057956  1
  Mn3.30+  Mn138  1  0.66648285  0.16608616  0.00028310  1
  Mn3.30+  Mn139  1  0.66609906  0.16405466  0.49971434  1
  Mn3.30+  Mn140  1  0.66734060  0.50259416  0.00293684  1
  Mn3.30+  Mn141  1  0.66819505  0.50045518  0.49956430  1
  Mn3.30+  Mn142  1  0.66789078  0.83213729  0.00064229  1
  Mn3.30+  Mn143  1  0.66837065  0.83385788  0.49893396  1
  O2-  O144  1  0.02470414  0.16668986  0.12522373  1
  O2-  O145  1  0.02226648  0.16144142  0.62470622  1
  O2-  O146  1  0.02673934  0.49246479  0.12704460  1
  O2-  O147  1  0.01835469  0.49381941  0.62221998  1
  O2-  O148  1  0.02035824  0.82911729  0.12696940  1
  O2-  O149  1  0.02267075  0.82607934  0.62265616  1
  O2-  O150  1  0.35844192  0.16044525  0.12383426  1
  O2-  O151  1  0.36022266  0.15978398  0.62547543  1
  O2-  O152  1  0.35837490  0.49836362  0.12561838  1
  O2-  O153  1  0.35743224  0.49480415  0.62509625  1
  O2-  O154  1  0.36377240  0.82781226  0.12518889  1
  O2-  O155  1  0.35384776  0.82876869  0.62580731  1
  O2-  O156  1  0.69227337  0.15847835  0.12496222  1
  O2-  O157  1  0.69077390  0.16096981  0.62358982  1
  O2-  O158  1  0.69804423  0.49619186  0.12634491  1
  O2-  O159  1  0.69582677  0.49309976  0.62387449  1
  O2-  O160  1  0.69444518  0.83127471  0.12632916  1
  O2-  O161  1  0.69514878  0.82718945  0.62332203  1
  O2-  O162  1  0.14234989  0.32825249  0.12551465  1
  O2-  O163  1  0.14181644  0.32649927  0.62438132  1
  O2-  O164  1  0.14008569  0.66066344  0.12743635  1
  O2-  O165  1  0.14142966  0.66522871  0.62239700  1
  O2-  O166  1  0.14929924  0.98872503  0.12543243  1
  O2-  O167  1  0.13844350  0.99070256  0.62458492  1
  O2-  O168  1  0.47930057  0.32691002  0.12557423  1
  O2-  O169  1  0.47240038  0.32681883  0.62687727  1
  O2-  O170  1  0.47729089  0.65821250  0.12611570  1
  O2-  O171  1  0.47526143  0.66080844  0.62578217  1
  O2-  O172  1  0.47421103  0.99293180  0.12483100  1
  O2-  O173  1  0.47653778  1.00034640  0.62470491  1
  O2-  O174  1  0.80458450  0.32378811  0.12518505  1
  O2-  O175  1  0.80701941  0.32706174  0.62345876  1
  O2-  O176  1  0.80849705  0.66248433  0.12699396  1
  O2-  O177  1  0.81026108  0.66263354  0.62291538  1
  O2-  O178  1  0.80775998  0.99500049  0.12425294  1
  O2-  O179  1  0.80459492  0.99440349  0.62414834  1
  O2-  O180  1  0.30690754  0.17039529  0.37663760  1
  O2-  O181  1  0.30580183  0.17285538  0.87420782  1
  O2-  O182  1  0.30649991  0.50637834  0.37368462  1
  O2-  O183  1  0.30545374  0.50755098  0.87596454  1
  O2-  O184  1  0.30904010  0.83629255  0.37455326  1
  O2-  O185  1  0.30541062  0.83628821  0.87471978  1
  O2-  O186  1  0.63890148  0.17203273  0.37426600  1
  O2-  O187  1  0.64011249  0.17350705  0.87660001  1
  O2-  O188  1  0.64178441  0.50655806  0.37473635  1
  O2-  O189  1  0.64309589  0.50741824  0.87477743  1
  O2-  O190  1  0.63872900  0.83641942  0.37523786  1
  O2-  O191  1  0.64923331  0.83253026  0.87503880  1
  O2-  O192  1  0.97585292  0.17328057  0.37539495  1
  O2-  O193  1  0.97534790  0.17619339  0.87502841  1
  O2-  O194  1  0.97321268  0.50731310  0.37372819  1
  O2-  O195  1  0.97504581  0.49849599  0.87750231  1
  O2-  O196  1  0.97459679  0.83901614  0.37549474  1
  O2-  O197  1  0.97501049  0.83361535  0.87463743  1
  O2-  O198  1  0.19340126  0.00567988  0.37507162  1
  O2-  O199  1  0.19098951  0.00795048  0.87458798  1
  O2-  O200  1  0.18939258  0.33550099  0.37600487  1
  O2-  O201  1  0.18787150  0.34100778  0.87459604  1
  O2-  O202  1  0.19282233  0.67453148  0.37261683  1
  O2-  O203  1  0.18953192  0.67457418  0.87721233  1
  O2-  O204  1  0.52552038  0.00818750  0.37498649  1
  O2-  O205  1  0.52696305  0.00611823  0.87550531  1
  O2-  O206  1  0.52575529  0.33949991  0.37213528  1
  O2-  O207  1  0.52722131  0.34199152  0.87557108  1
  O2-  O208  1  0.52486433  0.67190331  0.37357674  1
  O2-  O209  1  0.52698656  0.66397272  0.87438946  1
  O2-  O210  1  0.85902313  0.00779539  0.37705583  1
  O2-  O211  1  0.85225578  0.00666655  0.87433096  1
  O2-  O212  1  0.85967733  0.33857003  0.37381010  1
  O2-  O213  1  0.85788445  0.34125353  0.87763955  1
  O2-  O214  1  0.85997196  0.67217783  0.37374825  1
  O2-  O215  1  0.85138750  0.67021654  0.87619693  1
  O2-  O216  1  0.23833098  0.09410984  0.02096207  1
  O2-  O217  1  0.23756149  0.09135641  0.52450172  1
  O2-  O218  1  0.23719665  0.42833457  0.01846868  1
  O2-  O219  1  0.24093773  0.42219639  0.51788743  1
  O2-  O220  1  0.24269290  0.75822719  0.02484674  1
  O2-  O221  1  0.23716334  0.76006451  0.51916872  1
  O2-  O222  1  0.56918212  0.09441084  0.02144078  1
  O2-  O223  1  0.56838147  0.09721675  0.51693112  1
  O2-  O224  1  0.57359172  0.43265763  0.02235744  1
  O2-  O225  1  0.57061696  0.42656698  0.52112094  1
  O2-  O226  1  0.57354382  0.76140354  0.02313259  1
  O2-  O227  1  0.57773684  0.75822277  0.51926654  1
  O2-  O228  1  0.90173442  0.09740630  0.01546721  1
  O2-  O229  1  0.90161003  0.09637268  0.51819687  1
  O2-  O230  1  0.90294103  0.42944096  0.02345117  1
  O2-  O231  1  0.90333726  0.43045182  0.51851987  1
  O2-  O232  1  0.90444570  0.76077971  0.01916781  1
  O2-  O233  1  0.90511827  0.76296301  0.51827349  1
  O2-  O234  1  0.25948991  0.26046597  0.23736166  1
  O2-  O235  1  0.26124268  0.25890893  0.72905383  1
  O2-  O236  1  0.26245491  0.59471940  0.22817898  1
  O2-  O237  1  0.26399350  0.59687751  0.73279858  1
  O2-  O238  1  0.26606451  0.92597726  0.23186233  1
  O2-  O239  1  0.25956203  0.92716963  0.72953725  1
  O2-  O240  1  0.59529397  0.26090206  0.22927486  1
  O2-  O241  1  0.59547649  0.26108137  0.72926397  1
  O2-  O242  1  0.59784659  0.59741971  0.23292988  1
  O2-  O243  1  0.59514527  0.59157735  0.72625370  1
  O2-  O244  1  0.59928330  0.92949586  0.23219503  1
  O2-  O245  1  0.60149122  0.92925390  0.73462526  1
  O2-  O246  1  0.92549634  0.26038840  0.22780702  1
  O2-  O247  1  0.92688911  0.26246064  0.72935904  1
  O2-  O248  1  0.93323356  0.59783482  0.23132582  1
  O2-  O249  1  0.92841441  0.59589564  0.72921426  1
  O2-  O250  1  0.92561795  0.92777707  0.23303241  1
  O2-  O251  1  0.92890960  0.92928285  0.72519591  1
  O2-  O252  1  0.09361832  0.23861609  0.26952730  1
  O2-  O253  1  0.09499580  0.24062793  0.76941758  1
  O2-  O254  1  0.09619474  0.56814331  0.27224066  1
  O2-  O255  1  0.09739458  0.56973942  0.77085132  1
  O2-  O256  1  0.09482615  0.90597090  0.27024715  1
  O2-  O257  1  0.09778679  0.90138402  0.76821029  1
  O2-  O258  1  0.42433398  0.23665017  0.26977643  1
  O2-  O259  1  0.42811519  0.24119245  0.77336285  1
  O2-  O260  1  0.42779260  0.57405944  0.27228913  1
  O2-  O261  1  0.42736301  0.57124315  0.76951201  1
  O2-  O262  1  0.42963953  0.90448761  0.27469643  1
  O2-  O263  1  0.42332420  0.91017720  0.76849017  1
  O2-  O264  1  0.76003848  0.23849504  0.27178758  1
  O2-  O265  1  0.76059818  0.23861998  0.77088524  1
  O2-  O266  1  0.76217267  0.57391541  0.27370242  1
  O2-  O267  1  0.76356563  0.57274507  0.76826461  1
  O2-  O268  1  0.76085338  0.90300071  0.27292752  1
  O2-  O269  1  0.76612095  0.90215432  0.77082997  1
  O2-  O270  1  0.07276353  0.07242005  0.47771155  1
  O2-  O271  1  0.07373575  0.07698111  0.98040823  1
  O2-  O272  1  0.06730884  0.40164664  0.48162765  1
  O2-  O273  1  0.06788875  0.40414304  0.98542197  1
  O2-  O274  1  0.07460134  0.73909824  0.47588595  1
  O2-  O275  1  0.07578929  0.74130217  0.98821277  1
  O2-  O276  1  0.40477466  0.07136883  0.47939862  1
  O2-  O277  1  0.40313836  0.07336555  0.97851496  1
  O2-  O278  1  0.40566891  0.40578460  0.47906236  1
  O2-  O279  1  0.40536731  0.40923004  0.97520386  1
  O2-  O280  1  0.40414329  0.73765076  0.48196210  1
  O2-  O281  1  0.40379511  0.73714244  0.98144030  1
  O2-  O282  1  0.73964979  0.07210277  0.47640912  1
  O2-  O283  1  0.73685405  0.07108600  0.97985070  1
  O2-  O284  1  0.73809529  0.40444281  0.47767638  1
  O2-  O285  1  0.73680924  0.40563406  0.97968471  1
  O2-  O286  1  0.73883716  0.73746020  0.48081537  1
  O2-  O287  1  0.73721139  0.73614666  0.98666032  1
  O2-  O288  1  0.09714041  0.23620298  0.48346805  1
  O2-  O289  1  0.09230382  0.24282821  0.97766971  1
  O2-  O290  1  0.09622030  0.57041655  0.47367983  1
  O2-  O291  1  0.09846569  0.56785880  0.98408827  1
  O2-  O292  1  0.09504299  0.90414588  0.47799111  1
  O2-  O293  1  0.09700934  0.90315768  0.98332126  1
  O2-  O294  1  0.42765318  0.23984007  0.47818081  1
  O2-  O295  1  0.42525675  0.23896450  0.97905683  1
  O2-  O296  1  0.42938418  0.57164035  0.47998531  1
  O2-  O297  1  0.42539363  0.57440036  0.97873703  1
  O2-  O298  1  0.43058773  0.90700254  0.47820100  1
  O2-  O299  1  0.42387642  0.90910709  0.97794924  1
  O2-  O300  1  0.75930489  0.23864976  0.47821344  1
  O2-  O301  1  0.76204885  0.23968128  0.97879147  1
  O2-  O302  1  0.76528292  0.57385947  0.47905286  1
  O2-  O303  1  0.76105573  0.57314837  0.97913044  1
  O2-  O304  1  0.76438671  0.90295189  0.47593337  1
  O2-  O305  1  0.76245005  0.90356365  0.97986704  1
  O2-  O306  1  0.07108806  0.07392076  0.27302598  1
  O2-  O307  1  0.07543065  0.07624561  0.76807952  1
  O2-  O308  1  0.06622902  0.40147485  0.26873926  1
  O2-  O309  1  0.06814166  0.40472287  0.76468291  1
  O2-  O310  1  0.07476477  0.74054395  0.27119731  1
  O2-  O311  1  0.07430079  0.73982648  0.76399080  1
  O2-  O312  1  0.40311071  0.07114497  0.26975837  1
  O2-  O313  1  0.40419634  0.07390392  0.77231523  1
  O2-  O314  1  0.40471016  0.40767673  0.27421740  1
  O2-  O315  1  0.40462081  0.40809440  0.77210312  1
  O2-  O316  1  0.40360582  0.73638167  0.26815863  1
  O2-  O317  1  0.40376904  0.73750885  0.76833065  1
  O2-  O318  1  0.73802412  0.07090620  0.27069980  1
  O2-  O319  1  0.73772381  0.07190417  0.77123226  1
  O2-  O320  1  0.73684316  0.40506266  0.27144261  1
  O2-  O321  1  0.73801222  0.40538120  0.77105861  1
  O2-  O322  1  0.73581423  0.73732779  0.26811672  1
  O2-  O323  1  0.73897980  0.73582680  0.76406025  1
  O2-  O324  1  0.23764523  0.09531218  0.22749432  1
  O2-  O325  1  0.23837408  0.09088704  0.72729983  1
  O2-  O326  1  0.23479502  0.42745096  0.23342942  1
  O2-  O327  1  0.24285512  0.42314138  0.73040961  1
  O2-  O328  1  0.24122379  0.76195683  0.22740680  1
  O2-  O329  1  0.23974613  0.75786528  0.72870966  1
  O2-  O330  1  0.56963352  0.09432152  0.22836423  1
  O2-  O331  1  0.56918490  0.09744316  0.73315615  1
  O2-  O332  1  0.57413253  0.43301292  0.22831069  1
  O2-  O333  1  0.57190872  0.42723441  0.72758926  1
  O2-  O334  1  0.57269223  0.76201728  0.22621093  1
  O2-  O335  1  0.57850231  0.75766699  0.73054021  1
  O2-  O336  1  0.90340314  0.09808666  0.23402821  1
  O2-  O337  1  0.90068722  0.09605518  0.73273241  1
  O2-  O338  1  0.90287652  0.43148910  0.22793044  1
  O2-  O339  1  0.90453398  0.42987498  0.73056729  1
  O2-  O340  1  0.90334695  0.76090521  0.23140301  1
  O2-  O341  1  0.90526569  0.76281745  0.73064292  1
  O2-  O342  1  0.25902613  0.26037421  0.01337211  1
  O2-  O343  1  0.26092503  0.25906415  0.52131111  1
  O2-  O344  1  0.26161640  0.59476959  0.02168738  1
  O2-  O345  1  0.26391647  0.59761325  0.51717643  1
  O2-  O346  1  0.26317107  0.92562259  0.01923414  1
  O2-  O347  1  0.26244386  0.92684574  0.51919168  1
  O2-  O348  1  0.59559324  0.26153549  0.02053096  1
  O2-  O349  1  0.59353634  0.26172888  0.52054855  1
  O2-  O350  1  0.59767083  0.59616209  0.01929480  1
  O2-  O351  1  0.59496039  0.59332496  0.52068859  1
  O2-  O352  1  0.59851113  0.92788332  0.01625700  1
  O2-  O353  1  0.60158187  0.93260615  0.51761771  1
  O2-  O354  1  0.92642526  0.26270026  0.02100723  1
  O2-  O355  1  0.92509315  0.26081926  0.52230110  1
  O2-  O356  1  0.92978428  0.59514066  0.02163490  1
  O2-  O357  1  0.93142263  0.59769255  0.51877762  1
  O2-  O358  1  0.92501406  0.92534408  0.01936915  1
  O2-  O359  1  0.92925006  0.93127994  0.52172040  1
