# generated using pymatgen
data_Sr7Ca15Pr50Mn72O216
_symmetry_space_group_name_H-M   'P 1'
_cell_length_a   16.55641003
_cell_length_b   16.60423243
_cell_length_c   15.59382400
_cell_angle_alpha   89.99571806
_cell_angle_beta   90.00131812
_cell_angle_gamma   89.99477461
_symmetry_Int_Tables_number   1
_chemical_formula_structural   Sr7Ca15Pr50Mn72O216
_chemical_formula_sum   'Sr7 Ca15 Pr50 Mn72 O216'
_cell_volume   4286.84324166
_cell_formula_units_Z   1
loop_
 _symmetry_equiv_pos_site_id
 _symmetry_equiv_pos_as_xyz
  1  'x, y, z'
loop_
 _atom_type_symbol
 _atom_type_oxidation_number
  Sr2+  2.0
  Ca2+  2.0
  Pr3+  3.0
  Mn3.30+  3.3
  O2-  -2.0
loop_
 _atom_site_type_symbol
 _atom_site_label
 _atom_site_symmetry_multiplicity
 _atom_site_fract_x
 _atom_site_fract_y
 _atom_site_fract_z
 _atom_site_occupancy
  Sr2+  Sr0  1  0.49842191  0.82300486  0.87585989  1
  Sr2+  Sr1  1  -0.00233445  0.67475542  0.12565440  1
  Sr2+  Sr2  1  0.32961253  0.32675881  0.37530658  1
  Sr2+  Sr3  1  0.83711736  0.17657584  0.12306547  1
  Sr2+  Sr4  1  0.66940024  0.32589426  0.37574986  1
  Sr2+  Sr5  1  0.99638172  0.99202062  0.87548081  1
  Sr2+  Sr6  1  0.16252290  0.82010196  0.37549327  1
  Ca2+  Ca7  1  0.15890556  0.48355765  0.87303990  1
  Ca2+  Ca8  1  0.83184010  0.81813851  0.87591492  1
  Ca2+  Ca9  1  1.00420106  0.31872969  0.87300757  1
  Ca2+  Ca10  1  1.00682519  0.98564247  0.37328543  1
  Ca2+  Ca11  1  0.33224770  0.65140492  0.37412380  1
  Ca2+  Ca12  1  1.00818340  0.64681744  0.37517636  1
  Ca2+  Ca13  1  0.17022226  0.18338680  0.62572665  1
  Ca2+  Ca14  1  0.16747767  0.51224661  0.62316240  1
  Ca2+  Ca15  1  0.16775107  0.49155422  0.37736323  1
  Ca2+  Ca16  1  0.33292103  0.32134587  0.87376305  1
  Ca2+  Ca17  1  0.32484357  0.68193993  0.12594591  1
  Ca2+  Ca18  1  0.16078189  0.15118898  0.37617495  1
  Ca2+  Ca19  1  1.00374530  0.65198419  0.87472322  1
  Ca2+  Ca20  1  0.83580755  0.15534930  0.87465701  1
  Ca2+  Ca21  1  0.00420267  0.34875908  0.62835472  1
  Pr3+  Pr22  1  0.49303195  0.48752105  0.37528728  1
  Pr3+  Pr23  1  0.50131356  0.84571310  0.62648282  1
  Pr3+  Pr24  1  0.67548605  0.98548803  0.87495212  1
  Pr3+  Pr25  1  0.83865211  0.51149149  0.12515233  1
  Pr3+  Pr26  1  0.66395099  0.67895959  0.62486974  1
  Pr3+  Pr27  1  0.66541767  0.34714670  0.62458240  1
  Pr3+  Pr28  1  0.50407614  0.18044507  0.12582071  1
  Pr3+  Pr29  1  -0.00068291  0.67646062  0.62415801  1
  Pr3+  Pr30  1  0.32940731  0.34622846  0.12393299  1
  Pr3+  Pr31  1  0.16686107  0.84570718  0.62431448  1
  Pr3+  Pr32  1  -0.00267153  0.01274912  0.12579590  1
  Pr3+  Pr33  1  0.33001547  0.01226052  0.12431735  1
  Pr3+  Pr34  1  0.33365877  0.65433747  0.87677717  1
  Pr3+  Pr35  1  0.66608316  0.01421808  0.12592175  1
  Pr3+  Pr36  1  0.16815508  0.17915744  0.12398327  1
  Pr3+  Pr37  1  0.32573614  0.01633773  0.62533296  1
  Pr3+  Pr38  1  0.83485102  0.15683288  0.37554590  1
  Pr3+  Pr39  1  0.49889992  0.51294420  0.12540982  1
  Pr3+  Pr40  1  0.50092018  0.18120557  0.62433003  1
  Pr3+  Pr41  1  0.49994884  0.84537409  0.12381318  1
  Pr3+  Pr42  1  0.66908749  0.65591763  0.87554109  1
  Pr3+  Pr43  1  0.16959432  0.51507747  0.12509687  1
  Pr3+  Pr44  1  0.32647823  0.67760772  0.62417465  1
  Pr3+  Pr45  1  1.01029828  0.32261575  0.37673941  1
  Pr3+  Pr46  1  0.49703719  0.15447889  0.87450873  1
  Pr3+  Pr47  1  0.49404031  0.48593976  0.87480975  1
  Pr3+  Pr48  1  0.67362309  0.31818066  0.87391933  1
  Pr3+  Pr49  1  0.83998744  0.84613012  0.12428050  1
  Pr3+  Pr50  1  0.66663879  0.34533117  0.12574477  1
  Pr3+  Pr51  1  0.16595400  0.84429882  0.12561290  1
  Pr3+  Pr52  1  -0.00033098  0.01295748  0.62341638  1
  Pr3+  Pr53  1  -0.00154454  0.34550062  0.12163729  1
  Pr3+  Pr54  1  0.16436432  0.15545707  0.87335831  1
  Pr3+  Pr55  1  0.83856091  0.51076072  0.62537812  1
  Pr3+  Pr56  1  0.49956711  0.51210051  0.62448139  1
  Pr3+  Pr57  1  0.32570703  0.34886447  0.62605919  1
  Pr3+  Pr58  1  0.83568884  0.48927530  0.87595029  1
  Pr3+  Pr59  1  0.15971514  0.81913086  0.87437577  1
  Pr3+  Pr60  1  0.33580895  0.98667824  0.87493604  1
  Pr3+  Pr61  1  0.84062074  0.18360354  0.62622188  1
  Pr3+  Pr62  1  0.33211486  0.98926182  0.37497664  1
  Pr3+  Pr63  1  0.66444574  0.01404774  0.62449791  1
  Pr3+  Pr64  1  0.66551811  0.67936571  0.12501960  1
  Pr3+  Pr65  1  0.49123925  0.81765912  0.37468802  1
  Pr3+  Pr66  1  0.66782808  0.65379665  0.37436252  1
  Pr3+  Pr67  1  0.83637652  0.48878415  0.37438691  1
  Pr3+  Pr68  1  0.49562684  0.15633031  0.37556260  1
  Pr3+  Pr69  1  0.83592249  0.82102649  0.37532809  1
  Pr3+  Pr70  1  0.83685313  0.84667556  0.62595798  1
  Pr3+  Pr71  1  0.66962000  0.98914525  0.37495198  1
  Mn3.30+  Mn72  1  0.16526915  -0.00056810  -0.00109794  1
  Mn3.30+  Mn73  1  0.16396854  0.00257360  0.49918094  1
  Mn3.30+  Mn74  1  0.16596770  0.33467961  -0.00449766  1
  Mn3.30+  Mn75  1  0.16599659  0.33381160  0.50227781  1
  Mn3.30+  Mn76  1  0.16536071  0.66555771  -0.00016942  1
  Mn3.30+  Mn77  1  0.16489381  0.66351564  0.49762630  1
  Mn3.30+  Mn78  1  0.50095505  0.00047712  -0.00034617  1
  Mn3.30+  Mn79  1  0.49815710  0.00025477  0.50051510  1
  Mn3.30+  Mn80  1  0.49924882  0.33350669  -0.00142890  1
  Mn3.30+  Mn81  1  0.49780495  0.33389854  0.50003153  1
  Mn3.30+  Mn82  1  0.49696066  0.66756559  0.00153192  1
  Mn3.30+  Mn83  1  0.49670302  0.66623740  0.49952166  1
  Mn3.30+  Mn84  1  0.83441522  0.00016364  -0.00119053  1
  Mn3.30+  Mn85  1  0.83608031  0.00114405  0.49873324  1
  Mn3.30+  Mn86  1  0.83593129  0.33142354  -0.00239974  1
  Mn3.30+  Mn87  1  0.83855378  0.33485045  0.50103313  1
  Mn3.30+  Mn88  1  0.83572981  0.66713056  -0.00206797  1
  Mn3.30+  Mn89  1  0.83521719  0.66616512  0.49859797  1
  Mn3.30+  Mn90  1  0.00200143  0.16669885  0.25120755  1
  Mn3.30+  Mn91  1  0.00276344  0.16937722  0.74904130  1
  Mn3.30+  Mn92  1  0.00355427  0.49935045  0.25083408  1
  Mn3.30+  Mn93  1  0.00372518  0.49911521  0.75069677  1
  Mn3.30+  Mn94  1  0.00214132  0.83062678  0.25120410  1
  Mn3.30+  Mn95  1  -0.00194223  0.83202064  0.75248953  1
  Mn3.30+  Mn96  1  0.33117658  0.16758337  0.25172779  1
  Mn3.30+  Mn97  1  0.33178013  0.16998629  0.75037817  1
  Mn3.30+  Mn98  1  0.33117802  0.50246884  0.24983621  1
  Mn3.30+  Mn99  1  0.32758453  0.49930436  0.75255926  1
  Mn3.30+  Mn100  1  0.33054468  0.83112098  0.25056387  1
  Mn3.30+  Mn101  1  0.33196526  0.83277024  0.74993409  1
  Mn3.30+  Mn102  1  0.66816768  0.16900665  0.25183935  1
  Mn3.30+  Mn103  1  0.66930726  0.16672638  0.74917034  1
  Mn3.30+  Mn104  1  0.66706399  0.50035427  0.24957493  1
  Mn3.30+  Mn105  1  0.66656141  0.50035112  0.75120424  1
  Mn3.30+  Mn106  1  0.66634821  0.83392057  0.25104139  1
  Mn3.30+  Mn107  1  0.66836544  0.83265706  0.75055892  1
  Mn3.30+  Mn108  1  0.16448604  0.00066583  0.25099489  1
  Mn3.30+  Mn109  1  0.16503209  0.00125865  0.75017881  1
  Mn3.30+  Mn110  1  0.16659477  0.33373498  0.25103448  1
  Mn3.30+  Mn111  1  0.16529224  0.33507337  0.75081183  1
  Mn3.30+  Mn112  1  0.16622986  0.66587283  0.25186495  1
  Mn3.30+  Mn113  1  0.16395419  0.66271715  0.75078445  1
  Mn3.30+  Mn114  1  0.49958153  0.00013790  0.25056810  1
  Mn3.30+  Mn115  1  0.49947822  0.00018951  0.74982637  1
  Mn3.30+  Mn116  1  0.49876483  0.33403989  0.25069134  1
  Mn3.30+  Mn117  1  0.49818317  0.33373100  0.75074890  1
  Mn3.30+  Mn118  1  0.49527503  0.66696666  0.24794826  1
  Mn3.30+  Mn119  1  0.49795740  0.66675880  0.75168106  1
  Mn3.30+  Mn120  1  0.83687556  0.00054966  0.25306916  1
  Mn3.30+  Mn121  1  0.83403260  0.00143804  0.74943328  1
  Mn3.30+  Mn122  1  0.83628186  0.33240332  0.24996898  1
  Mn3.30+  Mn123  1  0.83868290  0.33356864  0.75140686  1
  Mn3.30+  Mn124  1  0.83599050  0.66644689  0.25219091  1
  Mn3.30+  Mn125  1  0.83506794  0.66700645  0.75132156  1
  Mn3.30+  Mn126  1  0.00012356  0.16761565  -0.00360479  1
  Mn3.30+  Mn127  1  0.00481091  0.16856397  0.50211273  1
  Mn3.30+  Mn128  1  0.00283209  0.50025423  -0.00333045  1
  Mn3.30+  Mn129  1  0.00439603  0.49858567  0.50242748  1
  Mn3.30+  Mn130  1  -0.00164976  0.83076693  -0.00261265  1
  Mn3.30+  Mn131  1  0.00154308  0.83246175  0.49874029  1
  Mn3.30+  Mn132  1  0.33405416  0.16856680  -0.00069820  1
  Mn3.30+  Mn133  1  0.32857266  0.16895691  0.49818017  1
  Mn3.30+  Mn134  1  0.32944580  0.49962056  -0.00237112  1
  Mn3.30+  Mn135  1  0.32946977  0.50116655  0.49964845  1
  Mn3.30+  Mn136  1  0.33170738  0.83182553  0.00077888  1
  Mn3.30+  Mn137  1  0.33082003  0.83215810  0.49878337  1
  Mn3.30+  Mn138  1  0.66919933  0.16682623  -0.00018842  1
  Mn3.30+  Mn139  1  0.66843076  0.16890326  0.49912913  1
  Mn3.30+  Mn140  1  0.66623730  0.50008094  -0.00035755  1
  Mn3.30+  Mn141  1  0.66751977  0.50046634  0.49953502  1
  Mn3.30+  Mn142  1  0.66904459  0.83319195  0.00056502  1
  Mn3.30+  Mn143  1  0.66556444  0.83353009  0.49835699  1
  O2-  O144  1  0.02404561  0.16208717  0.12274360  1
  O2-  O145  1  0.02970185  0.15795852  0.62474013  1
  O2-  O146  1  0.02401189  0.49456516  0.12126330  1
  O2-  O147  1  0.02553915  0.49710513  0.62767995  1
  O2-  O148  1  0.02169966  0.82866185  0.12466709  1
  O2-  O149  1  0.02310039  0.82523742  0.62567360  1
  O2-  O150  1  0.36023556  0.16048183  0.12427201  1
  O2-  O151  1  0.35799981  0.16291776  0.62557752  1
  O2-  O152  1  0.35653241  0.49220038  0.12178989  1
  O2-  O153  1  0.35683477  0.49761030  0.62789681  1
  O2-  O154  1  0.35643830  0.82863701  0.12751402  1
  O2-  O155  1  0.35724566  0.82667038  0.62434213  1
  O2-  O156  1  0.68667404  0.16330817  0.12493347  1
  O2-  O157  1  0.69441028  0.16202843  0.62220568  1
  O2-  O158  1  0.69352852  0.49530327  0.12455276  1
  O2-  O159  1  0.69240719  0.49685793  0.62708373  1
  O2-  O160  1  0.69505763  0.82785361  0.12581347  1
  O2-  O161  1  0.69213323  0.82730986  0.62212986  1
  O2-  O162  1  0.14244378  0.32645792  0.12224923  1
  O2-  O163  1  0.14411807  0.32461626  0.62769063  1
  O2-  O164  1  0.14517255  0.66278565  0.12485878  1
  O2-  O165  1  0.14233738  0.65914663  0.62591381  1
  O2-  O166  1  0.14237617  0.99544279  0.12357259  1
  O2-  O167  1  0.14404645  0.99387846  0.62494787  1
  O2-  O168  1  0.47492247  0.32826107  0.12377971  1
  O2-  O169  1  0.47273008  0.32984589  0.62568804  1
  O2-  O170  1  0.46847665  0.66090603  0.12491140  1
  O2-  O171  1  0.47261778  0.66083498  0.62684625  1
  O2-  O172  1  0.47536596  0.99552656  0.12483461  1
  O2-  O173  1  0.47128824  0.99339439  0.62347194  1
  O2-  O174  1  0.81027663  0.33193922  0.12278605  1
  O2-  O175  1  0.80868469  0.33211727  0.62764777  1
  O2-  O176  1  0.80971442  0.66049864  0.12719256  1
  O2-  O177  1  0.80751965  0.65961183  0.62336110  1
  O2-  O178  1  0.80956843  0.99384113  0.12817048  1
  O2-  O179  1  0.80733856  0.99490194  0.62311186  1
  O2-  O180  1  0.30484575  0.16777927  0.37459223  1
  O2-  O181  1  0.30960892  0.17359780  0.87540747  1
  O2-  O182  1  0.31123784  0.50521150  0.37455808  1
  O2-  O183  1  0.30148760  0.50887320  0.87563873  1
  O2-  O184  1  0.31274477  0.84292026  0.37439728  1
  O2-  O185  1  0.30601846  0.83916330  0.87370527  1
  O2-  O186  1  0.64083618  0.16968010  0.37732206  1
  O2-  O187  1  0.64101194  0.17042991  0.87562450  1
  O2-  O188  1  0.63836085  0.50577883  0.37317178  1
  O2-  O189  1  0.63904181  0.50681089  0.87498287  1
  O2-  O190  1  0.63602393  0.84046919  0.37608546  1
  O2-  O191  1  0.64664648  0.83754816  0.87674561  1
  O2-  O192  1  0.97620035  0.17727559  0.37903792  1
  O2-  O193  1  0.97667133  0.17323511  0.87210395  1
  O2-  O194  1  0.98007825  0.49809190  0.37684716  1
  O2-  O195  1  0.97680700  0.50852196  0.87437913  1
  O2-  O196  1  0.97760825  0.84260813  0.37591388  1
  O2-  O197  1  0.97253067  0.83869336  0.87327232  1
  O2-  O198  1  0.18971948  0.00628215  0.37578344  1
  O2-  O199  1  0.19244996  0.00462065  0.87512049  1
  O2-  O200  1  0.18099632  0.34624106  0.37577688  1
  O2-  O201  1  0.19409444  0.34028163  0.87463890  1
  O2-  O202  1  0.19231305  0.66696144  0.37438600  1
  O2-  O203  1  0.19173766  0.67483083  0.87511779  1
  O2-  O204  1  0.52500193  0.00727725  0.37656715  1
  O2-  O205  1  0.52823474  0.00660479  0.87576306  1
  O2-  O206  1  0.51919893  0.33941584  0.37583375  1
  O2-  O207  1  0.52824922  0.33812185  0.87482106  1
  O2-  O208  1  0.52484453  0.67059818  0.37257457  1
  O2-  O209  1  0.52460147  0.66778982  0.87619339  1
  O2-  O210  1  0.86429380  0.00855950  0.37755710  1
  O2-  O211  1  0.84689487  0.00999344  0.87105377  1
  O2-  O212  1  0.86363598  0.34037786  0.37577873  1
  O2-  O213  1  0.86144850  0.34250545  0.87368992  1
  O2-  O214  1  0.86221108  0.67207828  0.37598195  1
  O2-  O215  1  0.85915570  0.67251321  0.87323273  1
  O2-  O216  1  0.24255187  0.09484998  0.01993109  1
  O2-  O217  1  0.23833230  0.09571013  0.52347872  1
  O2-  O218  1  0.23792843  0.42661111  0.02337910  1
  O2-  O219  1  0.23839869  0.42780418  0.52270847  1
  O2-  O220  1  0.23449767  0.76285631  0.01726238  1
  O2-  O221  1  0.23579179  0.75887628  0.52257057  1
  O2-  O222  1  0.57180346  0.09546585  0.02118373  1
  O2-  O223  1  0.56953336  0.09216896  0.52201923  1
  O2-  O224  1  0.57084724  0.42723968  0.02091356  1
  O2-  O225  1  0.57412361  0.42845555  0.52148888  1
  O2-  O226  1  0.57457428  0.76140752  0.02447541  1
  O2-  O227  1  0.56814687  0.76003402  0.52047245  1
  O2-  O228  1  0.90896877  0.08844023  0.01638903  1
  O2-  O229  1  0.90596607  0.09736123  0.52277247  1
  O2-  O230  1  0.90508113  0.42836434  0.01866257  1
  O2-  O231  1  0.90522830  0.43096993  0.51854923  1
  O2-  O232  1  0.90190789  0.76234213  0.01792906  1
  O2-  O233  1  0.90249066  0.76168439  0.51966734  1
  O2-  O234  1  0.26076783  0.26075716  0.22673808  1
  O2-  O235  1  0.26443402  0.26452307  0.73339839  1
  O2-  O236  1  0.26179093  0.59452485  0.22668052  1
  O2-  O237  1  0.26335012  0.59782593  0.73316428  1
  O2-  O238  1  0.26149675  0.92857421  0.23012668  1
  O2-  O239  1  0.26063142  0.92857999  0.72973104  1
  O2-  O240  1  0.59303638  0.26168144  0.22924280  1
  O2-  O241  1  0.59951426  0.26053407  0.72910042  1
  O2-  O242  1  0.59264456  0.59582431  0.22704031  1
  O2-  O243  1  0.59273059  0.59398038  0.72884054  1
  O2-  O244  1  0.59596171  0.92717216  0.22872535  1
  O2-  O245  1  0.59612555  0.92704288  0.72855546  1
  O2-  O246  1  0.93239739  0.26287903  0.23233751  1
  O2-  O247  1  0.93156105  0.26211931  0.72473639  1
  O2-  O248  1  0.92549966  0.58714746  0.23483514  1
  O2-  O249  1  0.92662010  0.59302804  0.72770860  1
  O2-  O250  1  0.92774808  0.92607695  0.22916581  1
  O2-  O251  1  0.92651220  0.92732039  0.72617166  1
  O2-  O252  1  0.09850951  0.23578390  0.26899099  1
  O2-  O253  1  0.09865763  0.23918896  0.77141827  1
  O2-  O254  1  0.09876107  0.56635206  0.26678961  1
  O2-  O255  1  0.09594229  0.56981219  0.77157892  1
  O2-  O256  1  0.09397524  0.90280124  0.26245070  1
  O2-  O257  1  0.09453960  0.90118124  0.76519824  1
  O2-  O258  1  0.42855858  0.23568891  0.26683532  1
  O2-  O259  1  0.43223901  0.23678411  0.76737567  1
  O2-  O260  1  0.43058697  0.57021096  0.26715514  1
  O2-  O261  1  0.42521308  0.56994528  0.77184547  1
  O2-  O262  1  0.42901334  0.90606003  0.26861210  1
  O2-  O263  1  0.42670749  0.90875599  0.76815382  1
  O2-  O264  1  0.76519120  0.24087109  0.27050777  1
  O2-  O265  1  0.76704210  0.23891383  0.77084118  1
  O2-  O266  1  0.75918669  0.57492639  0.27262287  1
  O2-  O267  1  0.76210547  0.57380405  0.77247333  1
  O2-  O268  1  0.76398036  0.90976130  0.27591757  1
  O2-  O269  1  0.76196757  0.90232502  0.76856601  1
  O2-  O270  1  0.06787102  0.06843302  0.48026369  1
  O2-  O271  1  0.07616701  0.07551216  0.98156389  1
  O2-  O272  1  0.06928359  0.40093380  0.48977312  1
  O2-  O273  1  0.06911771  0.40143648  0.97982552  1
  O2-  O274  1  0.06851628  0.73101538  0.48364326  1
  O2-  O275  1  0.07078044  0.73717856  0.97631427  1
  O2-  O276  1  0.40302370  0.07259687  0.47978572  1
  O2-  O277  1  0.40497411  0.07399040  0.97758314  1
  O2-  O278  1  0.40600349  0.40944259  0.48484355  1
  O2-  O279  1  0.40242745  0.40522697  0.97647847  1
  O2-  O280  1  0.40318541  0.73704277  0.47849859  1
  O2-  O281  1  0.40354793  0.73929498  0.98146508  1
  O2-  O282  1  0.74076965  0.07199594  0.47800463  1
  O2-  O283  1  0.73419746  0.06926618  0.98678298  1
  O2-  O284  1  0.74306716  0.41006487  0.48315771  1
  O2-  O285  1  0.74066208  0.40373034  0.97875764  1
  O2-  O286  1  0.73647121  0.73961529  0.47737223  1
  O2-  O287  1  0.73649712  0.73575476  0.98327709  1
  O2-  O288  1  0.09822125  0.23723591  0.47728783  1
  O2-  O289  1  0.09931884  0.23820240  0.98065053  1
  O2-  O290  1  0.09672413  0.56756510  0.48080579  1
  O2-  O291  1  0.09957292  0.56797684  0.98241255  1
  O2-  O292  1  0.09424521  0.90467669  0.48861089  1
  O2-  O293  1  0.09423745  0.90106318  0.98339112  1
  O2-  O294  1  0.42795775  0.23507890  0.48325096  1
  O2-  O295  1  0.43222060  0.23660015  0.98257338  1
  O2-  O296  1  0.42996617  0.57057489  0.48366932  1
  O2-  O297  1  0.42565156  0.56899169  0.97825856  1
  O2-  O298  1  0.42922657  0.90593497  0.47995021  1
  O2-  O299  1  0.42522077  0.90883474  0.98358646  1
  O2-  O300  1  0.77000640  0.24112926  0.48353772  1
  O2-  O301  1  0.76206867  0.23804353  0.97490778  1
  O2-  O302  1  0.76100870  0.57415258  0.47646489  1
  O2-  O303  1  0.76009629  0.57417156  0.97885438  1
  O2-  O304  1  0.76135089  0.90765868  0.47669301  1
  O2-  O305  1  0.76355519  0.90405433  0.98023075  1
  O2-  O306  1  0.06999424  0.07013118  0.26715819  1
  O2-  O307  1  0.07450756  0.07368912  0.76937884  1
  O2-  O308  1  0.06888076  0.40046584  0.26019091  1
  O2-  O309  1  0.06957377  0.40269332  0.77113345  1
  O2-  O310  1  0.06875509  0.73370034  0.27053422  1
  O2-  O311  1  0.06970574  0.73565523  0.76997406  1
  O2-  O312  1  0.40399314  0.07290526  0.27122235  1
  O2-  O313  1  0.40337927  0.07381691  0.77115662  1
  O2-  O314  1  0.40778094  0.40926531  0.26484230  1
  O2-  O315  1  0.40069628  0.40696465  0.77309153  1
  O2-  O316  1  0.40333126  0.73856012  0.27411358  1
  O2-  O317  1  0.40254718  0.73739190  0.76845183  1
  O2-  O318  1  0.74021719  0.07303468  0.27159706  1
  O2-  O319  1  0.73364002  0.06935704  0.76314533  1
  O2-  O320  1  0.74550065  0.40874206  0.26788568  1
  O2-  O321  1  0.73848139  0.40585781  0.77114115  1
  O2-  O322  1  0.73615235  0.74053372  0.27279119  1
  O2-  O323  1  0.73629848  0.73542798  0.76626405  1
  O2-  O324  1  0.24127180  0.09339039  0.22586386  1
  O2-  O325  1  0.24036584  0.09780111  0.73084607  1
  O2-  O326  1  0.23984654  0.42581833  0.22755291  1
  O2-  O327  1  0.23573118  0.42914391  0.72561384  1
  O2-  O328  1  0.23567243  0.76181243  0.23024932  1
  O2-  O329  1  0.23534530  0.76022829  0.72944123  1
  O2-  O330  1  0.57151498  0.09283411  0.23138603  1
  O2-  O331  1  0.56915927  0.09382036  0.72679545  1
  O2-  O332  1  0.57481956  0.42773809  0.22736107  1
  O2-  O333  1  0.57023764  0.42688657  0.72892315  1
  O2-  O334  1  0.56682192  0.75928778  0.22774701  1
  O2-  O335  1  0.57428540  0.76096034  0.72775538  1
  O2-  O336  1  0.90774204  0.09323321  0.23300296  1
  O2-  O337  1  0.90840071  0.09428566  0.72678998  1
  O2-  O338  1  0.90720148  0.42683838  0.22890176  1
  O2-  O339  1  0.90374214  0.43217892  0.73357116  1
  O2-  O340  1  0.90127761  0.76435442  0.23527004  1
  O2-  O341  1  0.90460026  0.75962184  0.72587449  1
  O2-  O342  1  0.26213763  0.25975754  0.02095372  1
  O2-  O343  1  0.26225182  0.26453219  0.51986064  1
  O2-  O344  1  0.26283808  0.59701159  0.02116036  1
  O2-  O345  1  0.26190342  0.59541684  0.51896265  1
  O2-  O346  1  0.26071810  0.92752748  0.02022840  1
  O2-  O347  1  0.26106539  0.92957791  0.51940267  1
  O2-  O348  1  0.59847967  0.26163122  0.01966667  1
  O2-  O349  1  0.59253584  0.26137502  0.52347159  1
  O2-  O350  1  0.59106748  0.59550875  0.02307718  1
  O2-  O351  1  0.59434393  0.59516603  0.52000373  1
  O2-  O352  1  0.59724606  0.92726277  0.02211883  1
  O2-  O353  1  0.59378910  0.92788700  0.52207372  1
  O2-  O354  1  0.92985907  0.26169290  0.01681400  1
  O2-  O355  1  0.93377604  0.26332891  0.52515041  1
  O2-  O356  1  0.92304736  0.59024222  0.01723885  1
  O2-  O357  1  0.92908250  0.59092266  0.52061163  1
  O2-  O358  1  0.92755973  0.92598309  0.02205068  1
  O2-  O359  1  0.92499280  0.92666690  0.52343783  1
