# generated using pymatgen
data_Sr7Ca15Pr50Mn72O216
_symmetry_space_group_name_H-M   'P 1'
_cell_length_a   16.55850348
_cell_length_b   16.60654906
_cell_length_c   15.59288691
_cell_angle_alpha   89.99331501
_cell_angle_beta   89.99671462
_cell_angle_gamma   89.99609510
_symmetry_Int_Tables_number   1
_chemical_formula_structural   Sr7Ca15Pr50Mn72O216
_chemical_formula_sum   'Sr7 Ca15 Pr50 Mn72 O216'
_cell_volume   4287.72576491
_cell_formula_units_Z   1
loop_
 _symmetry_equiv_pos_site_id
 _symmetry_equiv_pos_as_xyz
  1  'x, y, z'
loop_
 _atom_type_symbol
 _atom_type_oxidation_number
  Sr2+  2.0
  Ca2+  2.0
  Pr3+  3.0
  Mn3.30+  3.3
  O2-  -2.0
loop_
 _atom_site_type_symbol
 _atom_site_label
 _atom_site_symmetry_multiplicity
 _atom_site_fract_x
 _atom_site_fract_y
 _atom_site_fract_z
 _atom_site_occupancy
  Sr2+  Sr0  1  0.83476896  0.17663551  0.12706658  1
  Sr2+  Sr1  1  0.83564645  0.50942151  0.62537237  1
  Sr2+  Sr2  1  0.33386196  0.65521845  0.87236451  1
  Sr2+  Sr3  1  0.83520190  0.17585609  0.62292980  1
  Sr2+  Sr4  1  0.66807320  0.99062339  0.37588613  1
  Sr2+  Sr5  1  -0.00345430  0.67843504  0.12734810  1
  Sr2+  Sr6  1  0.16836292  0.51127017  0.62530745  1
  Ca2+  Ca7  1  0.33014908  0.34778376  0.62291390  1
  Ca2+  Ca8  1  0.50396660  0.18187224  0.12713465  1
  Ca2+  Ca9  1  0.50681238  0.18415741  0.62328410  1
  Ca2+  Ca10  1  1.00345033  0.65277039  0.37830714  1
  Ca2+  Ca11  1  0.32834725  0.67772566  0.62524150  1
  Ca2+  Ca12  1  0.83574475  0.84743131  0.12653089  1
  Ca2+  Ca13  1  -0.00440768  0.01352824  0.62345480  1
  Ca2+  Ca14  1  0.33176623  0.34608266  0.12632178  1
  Ca2+  Ca15  1  0.33854478  0.31805279  0.37748791  1
  Ca2+  Ca16  1  0.66498699  0.34707322  0.62455962  1
  Ca2+  Ca17  1  0.82978113  0.48552891  0.87261541  1
  Ca2+  Ca18  1  1.00216128  0.31983131  0.37789007  1
  Ca2+  Ca19  1  0.49815823  0.81924242  0.37673380  1
  Ca2+  Ca20  1  -0.00571698  0.68074695  0.62139963  1
  Ca2+  Ca21  1  0.83807126  0.84855297  0.62318491  1
  Pr3+  Pr22  1  0.16752817  0.15642794  0.37628653  1
  Pr3+  Pr23  1  0.16430088  0.15576721  0.87403725  1
  Pr3+  Pr24  1  0.49728904  0.15419445  0.87384246  1
  Pr3+  Pr25  1  0.16934453  0.18048210  0.62442678  1
  Pr3+  Pr26  1  0.16867376  0.51121670  0.12576928  1
  Pr3+  Pr27  1  0.66406033  0.01517062  0.12628695  1
  Pr3+  Pr28  1  0.33132816  0.01262997  0.62462372  1
  Pr3+  Pr29  1  0.49617349  0.48688678  0.87360668  1
  Pr3+  Pr30  1  0.83052824  0.15429305  0.87387725  1
  Pr3+  Pr31  1  0.66846358  0.32125048  0.37788622  1
  Pr3+  Pr32  1  0.32900313  0.67850000  0.12498432  1
  Pr3+  Pr33  1  0.33920994  0.98468957  0.37599153  1
  Pr3+  Pr34  1  0.15998880  0.81750017  0.37617677  1
  Pr3+  Pr35  1  0.33129530  0.01487091  0.12545177  1
  Pr3+  Pr36  1  0.99969981  0.32342846  0.87182191  1
  Pr3+  Pr37  1  1.00201564  0.65264294  0.87326735  1
  Pr3+  Pr38  1  1.00130545  0.98721058  0.87315937  1
  Pr3+  Pr39  1  0.16188622  0.81830596  0.87417254  1
  Pr3+  Pr40  1  0.49393994  0.48256356  0.37642786  1
  Pr3+  Pr41  1  0.49653635  0.15440338  0.37595758  1
  Pr3+  Pr42  1  0.50082350  0.84169025  0.62379807  1
  Pr3+  Pr43  1  0.66592522  0.67969423  0.12596952  1
  Pr3+  Pr44  1  0.67180787  0.64996745  0.87367680  1
  Pr3+  Pr45  1  0.50168114  0.51109885  0.62428534  1
  Pr3+  Pr46  1  0.16700081  0.84191321  0.62510317  1
  Pr3+  Pr47  1  1.00026623  0.98901508  0.37753121  1
  Pr3+  Pr48  1  -0.00429721  0.34538613  0.12750703  1
  Pr3+  Pr49  1  0.66736040  0.67782871  0.62373235  1
  Pr3+  Pr50  1  0.33541587  0.98698930  0.87385532  1
  Pr3+  Pr51  1  0.50296950  0.84461057  0.12596974  1
  Pr3+  Pr52  1  -0.00361641  0.34649387  0.62168746  1
  Pr3+  Pr53  1  0.67004205  0.32240477  0.87217960  1
  Pr3+  Pr54  1  0.83678785  0.51195166  0.12523111  1
  Pr3+  Pr55  1  0.17126699  0.18241774  0.12562727  1
  Pr3+  Pr56  1  0.16255306  0.48424036  0.37698738  1
  Pr3+  Pr57  1  0.16568886  0.48767888  0.87331379  1
  Pr3+  Pr58  1  0.16850879  0.84668636  0.12537082  1
  Pr3+  Pr59  1  0.66414505  0.34440704  0.12610953  1
  Pr3+  Pr60  1  0.50104068  0.51168904  0.12582376  1
  Pr3+  Pr61  1  0.67116341  0.98682988  0.87415730  1
  Pr3+  Pr62  1  0.83093008  0.81966745  0.87448596  1
  Pr3+  Pr63  1  0.66401043  0.01313423  0.62357167  1
  Pr3+  Pr64  1  0.66759556  0.65659333  0.37615719  1
  Pr3+  Pr65  1  -0.00367927  0.01247543  0.12626385  1
  Pr3+  Pr66  1  0.49822811  0.81923752  0.87424949  1
  Pr3+  Pr67  1  0.83479149  0.49007294  0.37683028  1
  Pr3+  Pr68  1  0.83152866  0.15384759  0.37619478  1
  Pr3+  Pr69  1  0.33558393  0.65285619  0.37762791  1
  Pr3+  Pr70  1  0.33632935  0.32338787  0.87274031  1
  Pr3+  Pr71  1  0.83007231  0.82177405  0.37577875  1
  Mn3.30+  Mn72  1  0.16629977  0.00083086  -0.00055662  1
  Mn3.30+  Mn73  1  0.16630898  -0.00041088  0.50138078  1
  Mn3.30+  Mn74  1  0.16742907  0.33385527  0.00057112  1
  Mn3.30+  Mn75  1  0.16911525  0.33313668  0.49900807  1
  Mn3.30+  Mn76  1  0.16517806  0.66566599  0.00006199  1
  Mn3.30+  Mn77  1  0.16496820  0.66536462  0.50249137  1
  Mn3.30+  Mn78  1  0.50040909  0.00116937  0.00051382  1
  Mn3.30+  Mn79  1  0.49971037  -0.00096246  0.50028226  1
  Mn3.30+  Mn80  1  0.49919533  0.33252309  0.00148418  1
  Mn3.30+  Mn81  1  0.49847925  0.33187161  0.50278247  1
  Mn3.30+  Mn82  1  0.50010441  0.66577108  -0.00028604  1
  Mn3.30+  Mn83  1  0.49813914  0.66693139  0.50052617  1
  Mn3.30+  Mn84  1  0.83369161  -0.00073677  0.00082457  1
  Mn3.30+  Mn85  1  0.83415801  -0.00092165  0.50184879  1
  Mn3.30+  Mn86  1  0.83291252  0.33351200  -0.00023209  1
  Mn3.30+  Mn87  1  0.83416067  0.33369502  0.50001110  1
  Mn3.30+  Mn88  1  0.83417859  0.66622486  0.00020071  1
  Mn3.30+  Mn89  1  0.83679835  0.66751796  0.50017271  1
  Mn3.30+  Mn90  1  0.00115121  0.16811889  0.25198117  1
  Mn3.30+  Mn91  1  -0.00096803  0.16587373  0.74793236  1
  Mn3.30+  Mn92  1  0.00101624  0.50020197  0.25249381  1
  Mn3.30+  Mn93  1  -0.00189647  0.50122767  0.74823757  1
  Mn3.30+  Mn94  1  -0.00245086  0.83209364  0.25046388  1
  Mn3.30+  Mn95  1  -0.00299820  0.83252818  0.74712313  1
  Mn3.30+  Mn96  1  0.33496824  0.16969981  0.24899186  1
  Mn3.30+  Mn97  1  0.33549458  0.16861123  0.74700078  1
  Mn3.30+  Mn98  1  0.33263323  0.49662836  0.25092191  1
  Mn3.30+  Mn99  1  0.33265252  0.50005199  0.74754017  1
  Mn3.30+  Mn100  1  0.33394247  0.83252057  0.25148404  1
  Mn3.30+  Mn101  1  0.33278482  0.83131605  0.74878356  1
  Mn3.30+  Mn102  1  0.66521887  0.16766927  0.25030243  1
  Mn3.30+  Mn103  1  0.66512211  0.16838809  0.74747881  1
  Mn3.30+  Mn104  1  0.66635123  0.50037211  0.25202808  1
  Mn3.30+  Mn105  1  0.66799352  0.49867588  0.74755501  1
  Mn3.30+  Mn106  1  0.66700926  0.83439345  0.25110903  1
  Mn3.30+  Mn107  1  0.66899429  0.83262117  0.74722310  1
  Mn3.30+  Mn108  1  0.16725500  0.00060888  0.25165956  1
  Mn3.30+  Mn109  1  0.16512492  -0.00013824  0.74765870  1
  Mn3.30+  Mn110  1  0.16840081  0.33293346  0.25221810  1
  Mn3.30+  Mn111  1  0.16856553  0.33388999  0.74806252  1
  Mn3.30+  Mn112  1  0.16480974  0.66574672  0.25086222  1
  Mn3.30+  Mn113  1  0.16533400  0.66525133  0.74719502  1
  Mn3.30+  Mn114  1  0.49971832  -0.00070785  0.25063126  1
  Mn3.30+  Mn115  1  0.50060042  0.00056363  0.74871732  1
  Mn3.30+  Mn116  1  0.49679868  0.33147496  0.24893979  1
  Mn3.30+  Mn117  1  0.50071289  0.33300223  0.74634197  1
  Mn3.30+  Mn118  1  0.49903482  0.66686336  0.25157208  1
  Mn3.30+  Mn119  1  0.49917636  0.66577679  0.74806057  1
  Mn3.30+  Mn120  1  0.83276585  -0.00111369  0.24973614  1
  Mn3.30+  Mn121  1  0.83530240  -0.00111739  0.74771092  1
  Mn3.30+  Mn122  1  0.83433103  0.33313315  0.25279597  1
  Mn3.30+  Mn123  1  0.83282364  0.33381059  0.74704674  1
  Mn3.30+  Mn124  1  0.83544326  0.66787379  0.25162847  1
  Mn3.30+  Mn125  1  0.83588226  0.66646640  0.74732443  1
  Mn3.30+  Mn126  1  -0.00023431  0.16777989  0.00011531  1
  Mn3.30+  Mn127  1  0.00071763  0.16668753  0.50009972  1
  Mn3.30+  Mn128  1  -0.00207879  0.49957090  -0.00178787  1
  Mn3.30+  Mn129  1  0.00066432  0.50206430  0.50030638  1
  Mn3.30+  Mn130  1  -0.00273108  0.83273750  0.00174435  1
  Mn3.30+  Mn131  1  -0.00242241  0.83208983  0.50140211  1
  Mn3.30+  Mn132  1  0.33505092  0.16920194  0.00100014  1
  Mn3.30+  Mn133  1  0.33553085  0.16913838  0.50304593  1
  Mn3.30+  Mn134  1  0.33360544  0.49852593  0.00040905  1
  Mn3.30+  Mn135  1  0.33135144  0.49789990  0.50117810  1
  Mn3.30+  Mn136  1  0.33377390  0.83322949  -0.00032537  1
  Mn3.30+  Mn137  1  0.33301951  0.83085583  0.50018236  1
  Mn3.30+  Mn138  1  0.66478575  0.16804093  0.00063991  1
  Mn3.30+  Mn139  1  0.66550133  0.16826552  0.50215317  1
  Mn3.30+  Mn140  1  0.66794462  0.49909928  -0.00020489  1
  Mn3.30+  Mn141  1  0.66627821  0.49959791  0.50019419  1
  Mn3.30+  Mn142  1  0.66846365  0.83300018  0.00137600  1
  Mn3.30+  Mn143  1  0.66746287  0.83402750  0.49975325  1
  O2-  O144  1  0.02601590  0.16112969  0.12674741  1
  O2-  O145  1  0.02537546  0.15956375  0.62462628  1
  O2-  O146  1  0.02408879  0.49219525  0.12787490  1
  O2-  O147  1  0.01974803  0.49253718  0.62411000  1
  O2-  O148  1  0.02565207  0.83383586  0.12607646  1
  O2-  O149  1  0.02502044  0.82431624  0.62458658  1
  O2-  O150  1  0.36235249  0.15872186  0.12247878  1
  O2-  O151  1  0.36494763  0.15677961  0.62663746  1
  O2-  O152  1  0.35749558  0.49201008  0.12714203  1
  O2-  O153  1  0.35831080  0.49134100  0.62413798  1
  O2-  O154  1  0.35784268  0.82792987  0.12561891  1
  O2-  O155  1  0.35641229  0.82647705  0.62503712  1
  O2-  O156  1  0.68568509  0.16488791  0.12476639  1
  O2-  O157  1  0.68671318  0.15994348  0.62558205  1
  O2-  O158  1  0.69211778  0.49392277  0.12833647  1
  O2-  O159  1  0.68524511  0.49612761  0.62297177  1
  O2-  O160  1  0.69375826  0.82658360  0.12559688  1
  O2-  O161  1  0.69518308  0.82637667  0.62538047  1
  O2-  O162  1  0.13942210  0.33033813  0.12689434  1
  O2-  O163  1  0.14061482  0.32793055  0.62493333  1
  O2-  O164  1  0.14666980  0.66038308  0.12477013  1
  O2-  O165  1  0.13812808  0.66900468  0.62487010  1
  O2-  O166  1  0.14157295  0.99589679  0.12663092  1
  O2-  O167  1  0.13913138  0.99336177  0.62546592  1
  O2-  O168  1  0.47358734  0.32764298  0.12610001  1
  O2-  O169  1  0.47186281  0.32868812  0.62479701  1
  O2-  O170  1  0.47415844  0.66104564  0.12671456  1
  O2-  O171  1  0.47246715  0.66103444  0.62416666  1
  O2-  O172  1  0.47297924  0.99030619  0.12550159  1
  O2-  O173  1  0.47373858  0.98863491  0.62458568  1
  O2-  O174  1  0.80889125  0.33276166  0.12822490  1
  O2-  O175  1  0.80878999  0.33070805  0.62323893  1
  O2-  O176  1  0.80796633  0.65813578  0.12649047  1
  O2-  O177  1  0.80905880  0.66215058  0.62456872  1
  O2-  O178  1  0.80944083  0.99449707  0.12458467  1
  O2-  O179  1  0.80844429  0.99505728  0.62638018  1
  O2-  O180  1  0.31091578  0.17251589  0.37712168  1
  O2-  O181  1  0.30735545  0.17431306  0.87348692  1
  O2-  O182  1  0.30741549  0.50732000  0.37522878  1
  O2-  O183  1  0.31108732  0.49936381  0.87380067  1
  O2-  O184  1  0.30551134  0.83768677  0.37513144  1
  O2-  O185  1  0.30779997  0.83947292  0.87428768  1
  O2-  O186  1  0.64098722  0.17181151  0.37658987  1
  O2-  O187  1  0.64093153  0.17223564  0.87332906  1
  O2-  O188  1  0.63821795  0.50703890  0.37523161  1
  O2-  O189  1  0.64008870  0.50286092  0.87301900  1
  O2-  O190  1  0.64066790  0.83346410  0.37504560  1
  O2-  O191  1  0.64184172  0.83832557  0.87366599  1
  O2-  O192  1  0.97703937  0.17260726  0.37505889  1
  O2-  O193  1  0.97565373  0.17458460  0.87366848  1
  O2-  O194  1  0.97821438  0.50814388  0.37519668  1
  O2-  O195  1  0.97245613  0.50458819  0.87188218  1
  O2-  O196  1  0.97370419  0.84275705  0.37586742  1
  O2-  O197  1  0.97427983  0.83978803  0.87450086  1
  O2-  O198  1  0.19513044  0.00585562  0.37555162  1
  O2-  O199  1  0.19209186  0.00602777  0.87252082  1
  O2-  O200  1  0.19675571  0.33451094  0.37477890  1
  O2-  O201  1  0.19145409  0.33570998  0.87334718  1
  O2-  O202  1  0.19203748  0.67061645  0.37531105  1
  O2-  O203  1  0.18425017  0.66973775  0.87531423  1
  O2-  O204  1  0.51860544  0.00772294  0.37588723  1
  O2-  O205  1  0.52716953  0.00593074  0.87422054  1
  O2-  O206  1  0.52410242  0.33510582  0.37570740  1
  O2-  O207  1  0.52562106  0.33942346  0.87343466  1
  O2-  O208  1  0.52307676  0.67187662  0.37503090  1
  O2-  O209  1  0.52672755  0.67044258  0.87366245  1
  O2-  O210  1  0.85506422  0.00323044  0.37533541  1
  O2-  O211  1  0.85616636  0.00433643  0.87420635  1
  O2-  O212  1  0.85983651  0.34069177  0.37508803  1
  O2-  O213  1  0.85590791  0.33841593  0.87292425  1
  O2-  O214  1  0.86092892  0.67512097  0.37515940  1
  O2-  O215  1  0.85833558  0.67441731  0.87321185  1
  O2-  O216  1  0.24041840  0.09731713  0.01947811  1
  O2-  O217  1  0.24138715  0.09544874  0.52279957  1
  O2-  O218  1  0.23557455  0.42837253  0.01702314  1
  O2-  O219  1  0.23734215  0.42793991  0.51502384  1
  O2-  O220  1  0.23848186  0.76108310  0.02001869  1
  O2-  O221  1  0.23435393  0.76217008  0.51710471  1
  O2-  O222  1  0.56930849  0.09508632  0.02149312  1
  O2-  O223  1  0.57031388  0.09369922  0.52093553  1
  O2-  O224  1  0.57245314  0.42858190  0.02213958  1
  O2-  O225  1  0.56736237  0.42770110  0.51576043  1
  O2-  O226  1  0.57293325  0.76141346  0.02017135  1
  O2-  O227  1  0.57544386  0.75966551  0.52284205  1
  O2-  O228  1  0.90774842  0.09349056  0.01623923  1
  O2-  O229  1  0.90858503  0.09314307  0.51192318  1
  O2-  O230  1  0.90594659  0.42694354  0.02132701  1
  O2-  O231  1  0.90749717  0.42770070  0.51478265  1
  O2-  O232  1  0.90115958  0.76709405  0.01769025  1
  O2-  O233  1  0.90131471  0.76665630  0.51886421  1
  O2-  O234  1  0.26240756  0.26196387  0.22475296  1
  O2-  O235  1  0.26313810  0.26103410  0.72651332  1
  O2-  O236  1  0.26396538  0.59342206  0.22995513  1
  O2-  O237  1  0.26220423  0.59529689  0.73056247  1
  O2-  O238  1  0.26175452  0.92874581  0.22915964  1
  O2-  O239  1  0.26081374  0.92730388  0.72874623  1
  O2-  O240  1  0.59468593  0.26375788  0.23305279  1
  O2-  O241  1  0.59560630  0.26599178  0.73006392  1
  O2-  O242  1  0.59402054  0.59410155  0.22883857  1
  O2-  O243  1  0.59596381  0.59460768  0.72892442  1
  O2-  O244  1  0.59427817  0.92678405  0.22576009  1
  O2-  O245  1  0.59671407  0.92623947  0.72878129  1
  O2-  O246  1  0.93010524  0.26179669  0.23265039  1
  O2-  O247  1  0.93203290  0.26262687  0.73186442  1
  O2-  O248  1  0.92307397  0.59076017  0.23176193  1
  O2-  O249  1  0.93208453  0.60203289  0.73183868  1
  O2-  O250  1  0.93036033  0.92997964  0.23289808  1
  O2-  O251  1  0.93221692  0.93183057  0.73116038  1
  O2-  O252  1  0.10136280  0.23660768  0.26776994  1
  O2-  O253  1  0.09598442  0.23898298  0.76869973  1
  O2-  O254  1  0.09795169  0.56910313  0.26714341  1
  O2-  O255  1  0.09353546  0.57234855  0.77185849  1
  O2-  O256  1  0.09375720  0.90441932  0.27079492  1
  O2-  O257  1  0.09346435  0.90361455  0.77117581  1
  O2-  O258  1  0.43014922  0.23606244  0.26957187  1
  O2-  O259  1  0.42858649  0.24012556  0.77330928  1
  O2-  O260  1  0.42754567  0.56864404  0.26999490  1
  O2-  O261  1  0.43051657  0.56845489  0.76613523  1
  O2-  O262  1  0.42939835  0.90299685  0.27211461  1
  O2-  O263  1  0.42906974  0.90712499  0.77106180  1
  O2-  O264  1  0.76077362  0.24266367  0.27397490  1
  O2-  O265  1  0.76096247  0.24006437  0.77213904  1
  O2-  O266  1  0.76115277  0.57492776  0.27327333  1
  O2-  O267  1  0.76165238  0.57293989  0.77166653  1
  O2-  O268  1  0.76119552  0.90476220  0.26838478  1
  O2-  O269  1  0.76064804  0.90622779  0.77198248  1
  O2-  O270  1  0.07617855  0.07395982  0.47698684  1
  O2-  O271  1  0.07273274  0.07315375  0.97857506  1
  O2-  O272  1  0.07303238  0.40356214  0.47843707  1
  O2-  O273  1  0.07112400  0.40586332  0.97775060  1
  O2-  O274  1  0.07022417  0.73947091  0.47657600  1
  O2-  O275  1  0.06998928  0.74095460  0.97935860  1
  O2-  O276  1  0.40295031  0.07044490  0.48097467  1
  O2-  O277  1  0.40349572  0.07212774  0.97685357  1
  O2-  O278  1  0.40520866  0.40334556  0.47776548  1
  O2-  O279  1  0.40681165  0.40577231  0.97887935  1
  O2-  O280  1  0.40545873  0.73795604  0.48009093  1
  O2-  O281  1  0.40891483  0.74040759  0.98217312  1
  O2-  O282  1  0.74098135  0.07634198  0.48447182  1
  O2-  O283  1  0.73737081  0.07273124  0.98045427  1
  O2-  O284  1  0.73953732  0.41007886  0.47641369  1
  O2-  O285  1  0.73611743  0.40329118  0.98302563  1
  O2-  O286  1  0.73875208  0.73844364  0.47895951  1
  O2-  O287  1  0.73768267  0.73543500  0.97948762  1
  O2-  O288  1  0.09973157  0.23683971  0.48348757  1
  O2-  O289  1  0.09648787  0.23914532  0.98062807  1
  O2-  O290  1  0.09695550  0.57128426  0.48033910  1
  O2-  O291  1  0.09251378  0.57027106  0.98007405  1
  O2-  O292  1  0.09368634  0.90366804  0.47942300  1
  O2-  O293  1  0.09380005  0.90431255  0.97968203  1
  O2-  O294  1  0.43134007  0.23596880  0.48160853  1
  O2-  O295  1  0.42695341  0.23943416  0.97471296  1
  O2-  O296  1  0.42717228  0.56890964  0.47945017  1
  O2-  O297  1  0.43142010  0.56935853  0.98476538  1
  O2-  O298  1  0.42809130  0.90348953  0.47941166  1
  O2-  O299  1  0.42921922  0.90636541  0.97817334  1
  O2-  O300  1  0.76130251  0.24160232  0.47575922  1
  O2-  O301  1  0.76059728  0.24023108  0.97810172  1
  O2-  O302  1  0.76014384  0.57672973  0.47641353  1
  O2-  O303  1  0.76085821  0.56891599  0.97858205  1
  O2-  O304  1  0.76099821  0.90477372  0.48241769  1
  O2-  O305  1  0.75989245  0.90596947  0.97771431  1
  O2-  O306  1  0.07461869  0.07230271  0.27259759  1
  O2-  O307  1  0.07393480  0.07482061  0.77329231  1
  O2-  O308  1  0.07248882  0.40203360  0.27396874  1
  O2-  O309  1  0.07445300  0.40645960  0.77037798  1
  O2-  O310  1  0.06971063  0.73982929  0.27325067  1
  O2-  O311  1  0.07017842  0.74084728  0.77248201  1
  O2-  O312  1  0.40272346  0.07028527  0.26939528  1
  O2-  O313  1  0.40360183  0.07250212  0.77254621  1
  O2-  O314  1  0.40412229  0.40336558  0.27408034  1
  O2-  O315  1  0.40802977  0.40553760  0.77065682  1
  O2-  O316  1  0.40206713  0.73550190  0.26757994  1
  O2-  O317  1  0.41079404  0.74333544  0.76970347  1
  O2-  O318  1  0.74184035  0.07543883  0.26557599  1
  O2-  O319  1  0.73883907  0.07165565  0.76975796  1
  O2-  O320  1  0.73830709  0.40766158  0.27335318  1
  O2-  O321  1  0.73746484  0.40647353  0.76778711  1
  O2-  O322  1  0.73774505  0.73796937  0.27110243  1
  O2-  O323  1  0.73758529  0.73702255  0.77080917  1
  O2-  O324  1  0.24112352  0.09750679  0.22909037  1
  O2-  O325  1  0.24038566  0.09529717  0.72814468  1
  O2-  O326  1  0.23461273  0.43010457  0.23253027  1
  O2-  O327  1  0.23995477  0.42689402  0.73581216  1
  O2-  O328  1  0.23716193  0.76156035  0.22960478  1
  O2-  O329  1  0.23490212  0.76116338  0.73379873  1
  O2-  O330  1  0.56977696  0.09292822  0.22969355  1
  O2-  O331  1  0.56943422  0.09426982  0.72830298  1
  O2-  O332  1  0.56904115  0.42563496  0.23067832  1
  O2-  O333  1  0.56884089  0.42920686  0.73082730  1
  O2-  O334  1  0.57440482  0.76048983  0.22744447  1
  O2-  O335  1  0.57421840  0.76071113  0.72806414  1
  O2-  O336  1  0.90922948  0.09086661  0.23489648  1
  O2-  O337  1  0.90554832  0.09484592  0.73676982  1
  O2-  O338  1  0.90489614  0.42784787  0.23138213  1
  O2-  O339  1  0.90966663  0.42358979  0.73101112  1
  O2-  O340  1  0.90068398  0.76640455  0.23141646  1
  O2-  O341  1  0.90005434  0.76781829  0.73221417  1
  O2-  O342  1  0.26347052  0.26228173  0.02219616  1
  O2-  O343  1  0.26322863  0.25951100  0.52568655  1
  O2-  O344  1  0.26140219  0.59098176  0.02091854  1
  O2-  O345  1  0.26429210  0.59843798  0.51808559  1
  O2-  O346  1  0.26098885  0.92885473  0.02042174  1
  O2-  O347  1  0.26082862  0.92762048  0.52131554  1
  O2-  O348  1  0.59486395  0.26413124  0.01787570  1
  O2-  O349  1  0.59735799  0.26519412  0.51933095  1
  O2-  O350  1  0.59643624  0.59434145  0.02085793  1
  O2-  O351  1  0.59275419  0.59487199  0.52018924  1
  O2-  O352  1  0.59596680  0.92826542  0.02116218  1
  O2-  O353  1  0.59360260  0.92581119  0.52368328  1
  O2-  O354  1  0.93068990  0.26429373  0.01639132  1
  O2-  O355  1  0.93159255  0.26090233  0.51738083  1
  O2-  O356  1  0.92576700  0.59386724  0.01827200  1
  O2-  O357  1  0.92968645  0.59851741  0.51626310  1
  O2-  O358  1  0.93178725  0.93076767  0.01709026  1
  O2-  O359  1  0.93224878  0.92991710  0.51913261  1
