# generated using pymatgen
data_Sr7Ca15Pr50Mn72O216
_symmetry_space_group_name_H-M   'P 1'
_cell_length_a   16.55904209
_cell_length_b   16.60464561
_cell_length_c   15.59364371
_cell_angle_alpha   89.99728863
_cell_angle_beta   90.00289879
_cell_angle_gamma   90.00594742
_symmetry_Int_Tables_number   1
_chemical_formula_structural   Sr7Ca15Pr50Mn72O216
_chemical_formula_sum   'Sr7 Ca15 Pr50 Mn72 O216'
_cell_volume   4287.58185593
_cell_formula_units_Z   1
loop_
 _symmetry_equiv_pos_site_id
 _symmetry_equiv_pos_as_xyz
  1  'x, y, z'
loop_
 _atom_type_symbol
 _atom_type_oxidation_number
  Sr2+  2.0
  Ca2+  2.0
  Pr3+  3.0
  Mn3.30+  3.3
  O2-  -2.0
loop_
 _atom_site_type_symbol
 _atom_site_label
 _atom_site_symmetry_multiplicity
 _atom_site_fract_x
 _atom_site_fract_y
 _atom_site_fract_z
 _atom_site_occupancy
  Sr2+  Sr0  1  0.49827965  0.82477103  0.37337705  1
  Sr2+  Sr1  1  0.83381430  0.15843871  0.37359278  1
  Sr2+  Sr2  1  0.66458282  0.00835345  0.12508708  1
  Sr2+  Sr3  1  0.49920414  0.82391735  0.87634972  1
  Sr2+  Sr4  1  0.82984028  0.15708140  0.87673492  1
  Sr2+  Sr5  1  0.50086286  0.15671340  0.87465508  1
  Sr2+  Sr6  1  0.66566052  0.34236554  0.62505879  1
  Ca2+  Ca7  1  0.33403779  0.68205801  0.62531945  1
  Ca2+  Ca8  1  0.33000998  0.34684672  0.12630560  1
  Ca2+  Ca9  1  0.50130731  0.84493414  0.62565267  1
  Ca2+  Ca10  1  0.83646109  0.17834080  0.12493028  1
  Ca2+  Ca11  1  0.16238279  0.15154464  0.87555567  1
  Ca2+  Ca12  1  0.82417758  0.81519392  0.87733818  1
  Ca2+  Ca13  1  0.66898175  0.65471896  0.87824078  1
  Ca2+  Ca14  1  0.33760152  0.31894177  0.37353263  1
  Ca2+  Ca15  1  0.16908518  0.84872230  0.12392593  1
  Ca2+  Ca16  1  0.50608369  0.84784925  0.12406179  1
  Ca2+  Ca17  1  1.00425258  0.31757018  0.37349549  1
  Ca2+  Ca18  1  0.83588174  0.51638909  0.12537785  1
  Ca2+  Ca19  1  1.00401147  0.65262417  0.37342801  1
  Ca2+  Ca20  1  0.66219667  0.68185283  0.12283952  1
  Ca2+  Ca21  1  0.33108786  0.34709332  0.62409446  1
  Pr3+  Pr22  1  0.50370610  0.51243845  0.12571814  1
  Pr3+  Pr23  1  0.33115704  0.68383361  0.12455194  1
  Pr3+  Pr24  1  0.66990599  0.33990485  0.12497238  1
  Pr3+  Pr25  1  0.83308680  0.84549584  0.12338460  1
  Pr3+  Pr26  1  0.16421780  0.48781540  0.87588995  1
  Pr3+  Pr27  1  0.66196822  0.67894659  0.62604148  1
  Pr3+  Pr28  1  0.66212019  0.01062742  0.62554774  1
  Pr3+  Pr29  1  0.33649595  0.98897872  0.87513255  1
  Pr3+  Pr30  1  0.50223916  0.17813830  0.12368537  1
  Pr3+  Pr31  1  0.66885411  0.32036387  0.37536459  1
  Pr3+  Pr32  1  0.16275806  0.81834953  0.37332485  1
  Pr3+  Pr33  1  0.16517604  0.82082417  0.87725738  1
  Pr3+  Pr34  1  0.17149143  0.18233037  0.62653068  1
  Pr3+  Pr35  1  0.33593410  0.98756975  0.37492556  1
  Pr3+  Pr36  1  -0.00628465  0.34644207  0.12739997  1
  Pr3+  Pr37  1  0.50164016  0.50993347  0.62428931  1
  Pr3+  Pr38  1  -0.00318569  0.34730833  0.62238745  1
  Pr3+  Pr39  1  0.16945632  0.84435586  0.62585819  1
  Pr3+  Pr40  1  0.50166923  0.49177423  0.87566959  1
  Pr3+  Pr41  1  1.00147297  0.98856741  0.37433626  1
  Pr3+  Pr42  1  1.00475865  0.31723248  0.87508379  1
  Pr3+  Pr43  1  1.00037529  0.98770685  0.87596518  1
  Pr3+  Pr44  1  0.66697586  0.65530027  0.37196121  1
  Pr3+  Pr45  1  0.16363234  0.15547534  0.37464327  1
  Pr3+  Pr46  1  0.67059660  0.98368888  0.87696249  1
  Pr3+  Pr47  1  -0.00342322  0.01349008  0.62510805  1
  Pr3+  Pr48  1  0.17337101  0.51534425  0.62447412  1
  Pr3+  Pr49  1  0.83414590  0.51245044  0.62364157  1
  Pr3+  Pr50  1  0.33661100  0.32084902  0.87540592  1
  Pr3+  Pr51  1  0.83002606  0.82129450  0.37321727  1
  Pr3+  Pr52  1  0.49686072  0.15552492  0.37498688  1
  Pr3+  Pr53  1  0.82801358  0.48926594  0.87748248  1
  Pr3+  Pr54  1  -0.00346480  0.67951919  0.12645647  1
  Pr3+  Pr55  1  0.83534472  0.18088308  0.62515863  1
  Pr3+  Pr56  1  0.49613239  0.48532945  0.37418170  1
  Pr3+  Pr57  1  0.99890850  0.65477913  0.87657128  1
  Pr3+  Pr58  1  0.83579382  0.84610708  0.62695433  1
  Pr3+  Pr59  1  0.33871025  0.65490867  0.37556482  1
  Pr3+  Pr60  1  -0.00501597  0.01437812  0.12492781  1
  Pr3+  Pr61  1  0.17145816  0.18108060  0.12332316  1
  Pr3+  Pr62  1  0.66896490  0.98582755  0.37359480  1
  Pr3+  Pr63  1  0.33343316  0.00918587  0.12329958  1
  Pr3+  Pr64  1  0.33887969  0.65516745  0.87463013  1
  Pr3+  Pr65  1  0.16295349  0.48393500  0.37408422  1
  Pr3+  Pr66  1  -0.00386238  0.67921577  0.62433232  1
  Pr3+  Pr67  1  0.50177386  0.18163656  0.62646784  1
  Pr3+  Pr68  1  0.66934806  0.32021767  0.87515153  1
  Pr3+  Pr69  1  0.83434349  0.48805137  0.37197772  1
  Pr3+  Pr70  1  0.33380159  0.01010738  0.62613244  1
  Pr3+  Pr71  1  0.17068437  0.51120673  0.12552632  1
  Mn3.30+  Mn72  1  0.16570194  0.00028376  0.00020078  1
  Mn3.30+  Mn73  1  0.16684671  -0.00031930  0.50046460  1
  Mn3.30+  Mn74  1  0.16761515  0.33241940  0.00041131  1
  Mn3.30+  Mn75  1  0.16875125  0.33323101  0.49853222  1
  Mn3.30+  Mn76  1  0.16675862  0.66760129  0.00128683  1
  Mn3.30+  Mn77  1  0.16795910  0.66664203  0.49964883  1
  Mn3.30+  Mn78  1  0.50123451  -0.00033160  -0.00073676  1
  Mn3.30+  Mn79  1  0.49922208  -0.00124006  0.50091864  1
  Mn3.30+  Mn80  1  0.49877500  0.33426751  0.00175441  1
  Mn3.30+  Mn81  1  0.49659694  0.33357082  0.49987520  1
  Mn3.30+  Mn82  1  0.50284493  0.66844614  0.00068953  1
  Mn3.30+  Mn83  1  0.49866958  0.66780980  0.50126567  1
  Mn3.30+  Mn84  1  0.83269290  0.00039325  0.00002223  1
  Mn3.30+  Mn85  1  0.83234350  0.00046104  0.49946097  1
  Mn3.30+  Mn86  1  0.83449132  0.33326136  0.00152968  1
  Mn3.30+  Mn87  1  0.83474728  0.33414105  0.49767793  1
  Mn3.30+  Mn88  1  0.82987906  0.66669393  0.00294665  1
  Mn3.30+  Mn89  1  0.83425808  0.66656053  0.49724148  1
  Mn3.30+  Mn90  1  0.00016436  0.16785453  0.24991694  1
  Mn3.30+  Mn91  1  0.00153714  0.16610108  0.75078979  1
  Mn3.30+  Mn92  1  0.00000385  0.50030670  0.25070825  1
  Mn3.30+  Mn93  1  0.00029203  0.50038508  0.74981326  1
  Mn3.30+  Mn94  1  0.00098824  0.83286344  0.24849628  1
  Mn3.30+  Mn95  1  -0.00220541  0.83274176  0.75337760  1
  Mn3.30+  Mn96  1  0.33264797  0.16868217  0.24916440  1
  Mn3.30+  Mn97  1  0.33217026  0.16766592  0.75136975  1
  Mn3.30+  Mn98  1  0.33338424  0.49851220  0.24969952  1
  Mn3.30+  Mn99  1  0.33384831  0.50040287  0.74888117  1
  Mn3.30+  Mn100  1  0.33270199  0.83437779  0.24813253  1
  Mn3.30+  Mn101  1  0.33504532  0.83231890  0.74909340  1
  Mn3.30+  Mn102  1  0.66789789  0.16584417  0.24844799  1
  Mn3.30+  Mn103  1  0.66685346  0.16567795  0.75074934  1
  Mn3.30+  Mn104  1  0.66830914  0.50018894  0.24752310  1
  Mn3.30+  Mn105  1  0.66668486  0.50092824  0.75045136  1
  Mn3.30+  Mn106  1  0.66445396  0.83114279  0.24827265  1
  Mn3.30+  Mn107  1  0.66648337  0.83045789  0.75117800  1
  Mn3.30+  Mn108  1  0.16638420  -0.00069318  0.24798630  1
  Mn3.30+  Mn109  1  0.16615882  0.00069263  0.75125079  1
  Mn3.30+  Mn110  1  0.16781728  0.33260386  0.25050051  1
  Mn3.30+  Mn111  1  0.16844085  0.33350463  0.74977115  1
  Mn3.30+  Mn112  1  0.16659682  0.66684716  0.24915100  1
  Mn3.30+  Mn113  1  0.16814733  0.66730271  0.75029742  1
  Mn3.30+  Mn114  1  0.50020926  -0.00057580  0.24910036  1
  Mn3.30+  Mn115  1  0.50034319  -0.00127971  0.75073283  1
  Mn3.30+  Mn116  1  0.49747811  0.33318716  0.24830301  1
  Mn3.30+  Mn117  1  0.49867167  0.33465729  0.75031721  1
  Mn3.30+  Mn118  1  0.50098505  0.66824403  0.24818415  1
  Mn3.30+  Mn119  1  0.50054494  0.66800700  0.74991404  1
  Mn3.30+  Mn120  1  0.83281334  0.00204605  0.24878020  1
  Mn3.30+  Mn121  1  0.83221358  -0.00095013  0.75177262  1
  Mn3.30+  Mn122  1  0.83497039  0.33266934  0.25087479  1
  Mn3.30+  Mn123  1  0.83407940  0.33475972  0.74967510  1
  Mn3.30+  Mn124  1  0.83380995  0.66592267  0.24889819  1
  Mn3.30+  Mn125  1  0.83046041  0.66698245  0.75131291  1
  Mn3.30+  Mn126  1  0.00051971  0.16634592  -0.00018982  1
  Mn3.30+  Mn127  1  0.00116922  0.16746950  0.49935117  1
  Mn3.30+  Mn128  1  -0.00220855  0.49988692  0.00156831  1
  Mn3.30+  Mn129  1  0.00253302  0.50070268  0.49785223  1
  Mn3.30+  Mn130  1  -0.00160855  0.83309889  -0.00039514  1
  Mn3.30+  Mn131  1  0.00000470  0.83176384  0.49887567  1
  Mn3.30+  Mn132  1  0.33258869  0.16752521  -0.00127940  1
  Mn3.30+  Mn133  1  0.33232301  0.16935225  0.50058163  1
  Mn3.30+  Mn134  1  0.33414299  0.49969396  0.00135807  1
  Mn3.30+  Mn135  1  0.33292248  0.49883731  0.49960655  1
  Mn3.30+  Mn136  1  0.33380913  0.83465800  0.00116962  1
  Mn3.30+  Mn137  1  0.33401946  0.83220750  0.50130260  1
  Mn3.30+  Mn138  1  0.66843746  0.16502441  0.00163417  1
  Mn3.30+  Mn139  1  0.66606078  0.16618995  0.49957532  1
  Mn3.30+  Mn140  1  0.66843452  0.50183519  0.00406351  1
  Mn3.30+  Mn141  1  0.66640717  0.49987894  0.49804680  1
  Mn3.30+  Mn142  1  0.66551205  0.82998896  0.00014309  1
  Mn3.30+  Mn143  1  0.66507967  0.83192829  0.50036809  1
  O2-  O144  1  0.02717211  0.16323984  0.12382103  1
  O2-  O145  1  0.02608190  0.16178448  0.62533778  1
  O2-  O146  1  0.02689479  0.49372470  0.12523574  1
  O2-  O147  1  0.02783058  0.49511423  0.62234982  1
  O2-  O148  1  0.02719367  0.82674042  0.12403944  1
  O2-  O149  1  0.02479671  0.82698768  0.62652078  1
  O2-  O150  1  0.35887461  0.15710061  0.12455333  1
  O2-  O151  1  0.35855661  0.15816601  0.62589007  1
  O2-  O152  1  0.35858902  0.49149695  0.12393273  1
  O2-  O153  1  0.35819720  0.48957866  0.62213881  1
  O2-  O154  1  0.36125922  0.83187956  0.12481236  1
  O2-  O155  1  0.35700252  0.82958501  0.62619270  1
  O2-  O156  1  0.69258464  0.16826596  0.12598286  1
  O2-  O157  1  0.69067723  0.16035253  0.62506702  1
  O2-  O158  1  0.69600245  0.48725469  0.12714769  1
  O2-  O159  1  0.69034315  0.49836214  0.62115525  1
  O2-  O160  1  0.69054341  0.82817972  0.12478360  1
  O2-  O161  1  0.69359846  0.82739439  0.62533580  1
  O2-  O162  1  0.13866268  0.32988270  0.12448440  1
  O2-  O163  1  0.14001111  0.33041657  0.62559225  1
  O2-  O164  1  0.14027874  0.65874018  0.12494426  1
  O2-  O165  1  0.13962900  0.66394118  0.62684295  1
  O2-  O166  1  0.13937785  0.99381550  0.12597381  1
  O2-  O167  1  0.13981482  0.99184445  0.62784002  1
  O2-  O168  1  0.47126311  0.32751235  0.12472613  1
  O2-  O169  1  0.47365670  0.33073783  0.62457376  1
  O2-  O170  1  0.47314807  0.65793947  0.12491533  1
  O2-  O171  1  0.47432843  0.65552167  0.62430058  1
  O2-  O172  1  0.47766193  0.99699029  0.12556834  1
  O2-  O173  1  0.47782251  0.99288403  0.62605288  1
  O2-  O174  1  0.81414681  0.32424187  0.12744472  1
  O2-  O175  1  0.81666284  0.33157413  0.62298121  1
  O2-  O176  1  0.80619070  0.66186868  0.12657294  1
  O2-  O177  1  0.80761750  0.66025895  0.62170448  1
  O2-  O178  1  0.81432832  0.99233116  0.12462568  1
  O2-  O179  1  0.80749985  0.99276081  0.62614253  1
  O2-  O180  1  0.30678891  0.17339040  0.37490473  1
  O2-  O181  1  0.30354897  0.17421684  0.87414520  1
  O2-  O182  1  0.30671485  0.50997852  0.37595758  1
  O2-  O183  1  0.30760396  0.50837724  0.87732630  1
  O2-  O184  1  0.30693748  0.83822823  0.37373949  1
  O2-  O185  1  0.30838275  0.83826641  0.87503518  1
  O2-  O186  1  0.64127860  0.17161553  0.37406086  1
  O2-  O187  1  0.65031355  0.17178768  0.87546104  1
  O2-  O188  1  0.64060603  0.50619985  0.37256184  1
  O2-  O189  1  0.64559452  0.50698108  0.87910374  1
  O2-  O190  1  0.64869182  0.83525567  0.37507707  1
  O2-  O191  1  0.64767030  0.83685728  0.87518444  1
  O2-  O192  1  0.98465827  0.16900561  0.37649357  1
  O2-  O193  1  0.97982413  0.16995163  0.87474109  1
  O2-  O194  1  0.97765471  0.50932813  0.37519117  1
  O2-  O195  1  0.97322456  0.50595134  0.87741580  1
  O2-  O196  1  0.97378764  0.84144438  0.37359810  1
  O2-  O197  1  0.96856560  0.83869741  0.87585859  1
  O2-  O198  1  0.19172900  0.00697338  0.37271168  1
  O2-  O199  1  0.19198621  0.00625068  0.87350058  1
  O2-  O200  1  0.19628068  0.33618217  0.37489121  1
  O2-  O201  1  0.19234763  0.34171319  0.87480797  1
  O2-  O202  1  0.19509000  0.67219561  0.37245902  1
  O2-  O203  1  0.19348605  0.67141059  0.87596552  1
  O2-  O204  1  0.52352228  0.00747030  0.37554567  1
  O2-  O205  1  0.52498624  0.00252443  0.87297564  1
  O2-  O206  1  0.52511137  0.33604237  0.37266131  1
  O2-  O207  1  0.52561847  0.34129290  0.87790250  1
  O2-  O208  1  0.52243764  0.66931002  0.37434600  1
  O2-  O209  1  0.52551648  0.66574789  0.87631261  1
  O2-  O210  1  0.85761647  0.00074204  0.37366989  1
  O2-  O211  1  0.85765089  0.00490222  0.87560327  1
  O2-  O212  1  0.86155304  0.33973070  0.37448953  1
  O2-  O213  1  0.85952731  0.34111846  0.87492774  1
  O2-  O214  1  0.86224193  0.67458034  0.37415380  1
  O2-  O215  1  0.85640654  0.66947029  0.87786689  1
  O2-  O216  1  0.23974158  0.09407575  0.02190096  1
  O2-  O217  1  0.23884759  0.09575289  0.52109055  1
  O2-  O218  1  0.23613655  0.42908666  0.01716582  1
  O2-  O219  1  0.23446879  0.43109155  0.51728999  1
  O2-  O220  1  0.23774356  0.76415104  0.02162691  1
  O2-  O221  1  0.23452703  0.76375133  0.51728295  1
  O2-  O222  1  0.57244737  0.09553245  0.01874207  1
  O2-  O223  1  0.56968474  0.09365833  0.52139811  1
  O2-  O224  1  0.57426705  0.42739212  0.02256856  1
  O2-  O225  1  0.56746932  0.42826270  0.51424775  1
  O2-  O226  1  0.56964162  0.76134396  0.02271039  1
  O2-  O227  1  0.57252729  0.75987836  0.52418365  1
  O2-  O228  1  0.90735944  0.09559989  0.02244243  1
  O2-  O229  1  0.90539431  0.09283460  0.52248285  1
  O2-  O230  1  0.90455794  0.43022138  0.02348222  1
  O2-  O231  1  0.90685110  0.42942935  0.51898783  1
  O2-  O232  1  0.90469741  0.75913613  0.02343436  1
  O2-  O233  1  0.90401202  0.76164874  0.52110532  1
  O2-  O234  1  0.26188502  0.26080871  0.22456478  1
  O2-  O235  1  0.26224545  0.26434710  0.72698066  1
  O2-  O236  1  0.26244594  0.59532587  0.22719752  1
  O2-  O237  1  0.26372479  0.59566008  0.72775120  1
  O2-  O238  1  0.26067750  0.92969163  0.23015464  1
  O2-  O239  1  0.25913056  0.92746404  0.72949895  1
  O2-  O240  1  0.59243508  0.26165323  0.22856951  1
  O2-  O241  1  0.58893708  0.25968201  0.73413209  1
  O2-  O242  1  0.59704951  0.59376071  0.22802571  1
  O2-  O243  1  0.59322261  0.59277458  0.72879263  1
  O2-  O244  1  0.59212301  0.92681008  0.23804944  1
  O2-  O245  1  0.59837204  0.92608664  0.73331039  1
  O2-  O246  1  0.93085495  0.26116291  0.23340906  1
  O2-  O247  1  0.93066463  0.26189282  0.73075825  1
  O2-  O248  1  0.92785156  0.59613769  0.22962582  1
  O2-  O249  1  0.92814164  0.59536312  0.72995740  1
  O2-  O250  1  0.92833782  0.92776596  0.22989996  1
  O2-  O251  1  0.92841299  0.92865691  0.72889860  1
  O2-  O252  1  0.10029243  0.23733353  0.26679418  1
  O2-  O253  1  0.09895351  0.23826013  0.77023084  1
  O2-  O254  1  0.09840035  0.56997213  0.26732516  1
  O2-  O255  1  0.09436635  0.57239808  0.77104288  1
  O2-  O256  1  0.09366399  0.90710905  0.27308642  1
  O2-  O257  1  0.09436661  0.90538663  0.77356217  1
  O2-  O258  1  0.42962905  0.23708225  0.26838561  1
  O2-  O259  1  0.42428928  0.24216358  0.76914837  1
  O2-  O260  1  0.42934792  0.57180957  0.26885151  1
  O2-  O261  1  0.42902612  0.57203633  0.77068765  1
  O2-  O262  1  0.42153195  0.91121618  0.26970126  1
  O2-  O263  1  0.42250702  0.90933029  0.76904871  1
  O2-  O264  1  0.75609126  0.24408000  0.27069845  1
  O2-  O265  1  0.75995372  0.24204127  0.76323453  1
  O2-  O266  1  0.76193966  0.57373883  0.27415404  1
  O2-  O267  1  0.76486205  0.56954969  0.76544668  1
  O2-  O268  1  0.76098377  0.90546771  0.26767940  1
  O2-  O269  1  0.76429071  0.90114826  0.77018244  1
  O2-  O270  1  0.07274767  0.06983094  0.48173925  1
  O2-  O271  1  0.06998510  0.07006017  0.98273278  1
  O2-  O272  1  0.07247354  0.40152597  0.47676121  1
  O2-  O273  1  0.07076961  0.40474372  0.97884243  1
  O2-  O274  1  0.07085851  0.73634680  0.47799665  1
  O2-  O275  1  0.06907823  0.74029223  0.97721154  1
  O2-  O276  1  0.40269147  0.07475047  0.48021828  1
  O2-  O277  1  0.40232084  0.07307751  0.98143515  1
  O2-  O278  1  0.40401410  0.40506332  0.47409557  1
  O2-  O279  1  0.40735074  0.40966719  0.97610320  1
  O2-  O280  1  0.40336330  0.73662771  0.48277414  1
  O2-  O281  1  0.40122330  0.73694026  0.98368505  1
  O2-  O282  1  0.73548885  0.06919852  0.48283352  1
  O2-  O283  1  0.73869870  0.06861125  0.98236736  1
  O2-  O284  1  0.74160623  0.40832929  0.47530925  1
  O2-  O285  1  0.73803690  0.40569431  0.97970141  1
  O2-  O286  1  0.73852660  0.73740900  0.47928660  1
  O2-  O287  1  0.73597243  0.73544494  0.98197626  1
  O2-  O288  1  0.10103598  0.23719411  0.48427761  1
  O2-  O289  1  0.09834432  0.23714530  0.97867268  1
  O2-  O290  1  0.10001872  0.57059782  0.48173220  1
  O2-  O291  1  0.09279404  0.57138720  0.97953927  1
  O2-  O292  1  0.09426573  0.90372577  0.47896269  1
  O2-  O293  1  0.09159149  0.90622701  0.97576400  1
  O2-  O294  1  0.42834929  0.23729675  0.48212677  1
  O2-  O295  1  0.42427674  0.24154295  0.98012706  1
  O2-  O296  1  0.42870083  0.57010167  0.47884268  1
  O2-  O297  1  0.42920047  0.57338381  0.98080444  1
  O2-  O298  1  0.42289319  0.91021958  0.48146238  1
  O2-  O299  1  0.42214674  0.91069568  0.98111159  1
  O2-  O300  1  0.75873548  0.24240958  0.48370056  1
  O2-  O301  1  0.75727206  0.24398713  0.98328256  1
  O2-  O302  1  0.76341222  0.57390623  0.47570443  1
  O2-  O303  1  0.76431058  0.57021640  0.98382126  1
  O2-  O304  1  0.76240664  0.90404398  0.48079816  1
  O2-  O305  1  0.76239283  0.90166472  0.98159053  1
  O2-  O306  1  0.07228316  0.07123821  0.26851492  1
  O2-  O307  1  0.06957428  0.06896299  0.76777200  1
  O2-  O308  1  0.07183385  0.40235016  0.27189803  1
  O2-  O309  1  0.07126591  0.40481388  0.77082207  1
  O2-  O310  1  0.07148817  0.73673409  0.27206615  1
  O2-  O311  1  0.07070283  0.73942536  0.77319572  1
  O2-  O312  1  0.40383310  0.07418003  0.27103778  1
  O2-  O313  1  0.40208948  0.07245422  0.76721370  1
  O2-  O314  1  0.40540989  0.40571690  0.27326235  1
  O2-  O315  1  0.40628527  0.40827260  0.77376021  1
  O2-  O316  1  0.40004535  0.73681227  0.26529033  1
  O2-  O317  1  0.40397425  0.73663983  0.76834285  1
  O2-  O318  1  0.73760402  0.07089221  0.26995552  1
  O2-  O319  1  0.73695287  0.06598676  0.76597255  1
  O2-  O320  1  0.73844876  0.40580655  0.27239565  1
  O2-  O321  1  0.73920430  0.40800083  0.77199386  1
  O2-  O322  1  0.74194166  0.73909908  0.27170080  1
  O2-  O323  1  0.73401186  0.73290001  0.76720602  1
  O2-  O324  1  0.23790579  0.09415761  0.22841879  1
  O2-  O325  1  0.23904216  0.09332279  0.72699908  1
  O2-  O326  1  0.23492781  0.42908301  0.23219972  1
  O2-  O327  1  0.23599447  0.43121761  0.73358237  1
  O2-  O328  1  0.23611383  0.76359278  0.22687344  1
  O2-  O329  1  0.23627538  0.76396684  0.73339457  1
  O2-  O330  1  0.56926983  0.09749780  0.23311225  1
  O2-  O331  1  0.57261589  0.09246258  0.72723384  1
  O2-  O332  1  0.57167694  0.42651458  0.22944547  1
  O2-  O333  1  0.57022468  0.43036458  0.73471465  1
  O2-  O334  1  0.57074878  0.76016362  0.22878741  1
  O2-  O335  1  0.57046040  0.75974505  0.72497975  1
  O2-  O336  1  0.90633637  0.09390891  0.22809171  1
  O2-  O337  1  0.90469543  0.09336156  0.72664464  1
  O2-  O338  1  0.90405040  0.43025189  0.22970576  1
  O2-  O339  1  0.90680697  0.42983583  0.72829799  1
  O2-  O340  1  0.90460221  0.76183034  0.22733850  1
  O2-  O341  1  0.90370118  0.75796705  0.72821150  1
  O2-  O342  1  0.26256100  0.26305973  0.02303021  1
  O2-  O343  1  0.26205561  0.26200781  0.52561899  1
  O2-  O344  1  0.26327082  0.59310509  0.02269981  1
  O2-  O345  1  0.26366520  0.59697125  0.52330881  1
  O2-  O346  1  0.25980651  0.92928397  0.01742138  1
  O2-  O347  1  0.25944092  0.92864688  0.52065958  1
  O2-  O348  1  0.59228602  0.26095706  0.02027738  1
  O2-  O349  1  0.58971426  0.25863972  0.51737148  1
  O2-  O350  1  0.59540711  0.59153243  0.02623064  1
  O2-  O351  1  0.59404635  0.59515349  0.51793257  1
  O2-  O352  1  0.59539305  0.92438642  0.01323690  1
  O2-  O353  1  0.59782336  0.92699454  0.51580783  1
  O2-  O354  1  0.93362468  0.26366021  0.01521998  1
  O2-  O355  1  0.92785611  0.25964579  0.52048015  1
  O2-  O356  1  0.92993357  0.59723893  0.01961427  1
  O2-  O357  1  0.92656463  0.59448853  0.52245373  1
  O2-  O358  1  0.92914782  0.92776095  0.02093580  1
  O2-  O359  1  0.92828084  0.92776352  0.52046895  1
