# generated using pymatgen
data_Sr7Ca15Pr50Mn72O216
_symmetry_space_group_name_H-M   'P 1'
_cell_length_a   16.55776090
_cell_length_b   16.60661941
_cell_length_c   15.59255474
_cell_angle_alpha   90.00498696
_cell_angle_beta   89.99356288
_cell_angle_gamma   90.00182561
_symmetry_Int_Tables_number   1
_chemical_formula_structural   Sr7Ca15Pr50Mn72O216
_chemical_formula_sum   'Sr7 Ca15 Pr50 Mn72 O216'
_cell_volume   4287.46030792
_cell_formula_units_Z   1
loop_
 _symmetry_equiv_pos_site_id
 _symmetry_equiv_pos_as_xyz
  1  'x, y, z'
loop_
 _atom_type_symbol
 _atom_type_oxidation_number
  Sr2+  2.0
  Ca2+  2.0
  Pr3+  3.0
  Mn3.30+  3.3
  O2-  -2.0
loop_
 _atom_site_type_symbol
 _atom_site_label
 _atom_site_symmetry_multiplicity
 _atom_site_fract_x
 _atom_site_fract_y
 _atom_site_fract_z
 _atom_site_occupancy
  Sr2+  Sr0  1  0.83507234  0.17556295  0.62548727  1
  Sr2+  Sr1  1  -0.00431136  0.67855748  0.62552007  1
  Sr2+  Sr2  1  -0.00164583  0.01150540  0.12338841  1
  Sr2+  Sr3  1  0.33180650  0.34264455  0.12568731  1
  Sr2+  Sr4  1  0.16748544  0.82505104  0.87440782  1
  Sr2+  Sr5  1  0.66924150  0.32260537  0.37487122  1
  Sr2+  Sr6  1  0.33624223  0.32428382  0.87645176  1
  Ca2+  Ca7  1  0.66355867  0.68054874  0.62447828  1
  Ca2+  Ca8  1  0.33153503  0.68072761  0.12412550  1
  Ca2+  Ca9  1  0.33935399  0.31747430  0.37431328  1
  Ca2+  Ca10  1  0.83668142  0.84710877  0.62723874  1
  Ca2+  Ca11  1  0.33605262  0.98381300  0.87386500  1
  Ca2+  Ca12  1  0.83584065  0.17952363  0.12500878  1
  Ca2+  Ca13  1  0.83576900  0.51479881  0.12591198  1
  Ca2+  Ca14  1  0.50278915  0.17996546  0.62605689  1
  Ca2+  Ca15  1  -0.00451847  0.01216657  0.62695484  1
  Ca2+  Ca16  1  0.50775050  0.51575599  0.62616609  1
  Ca2+  Ca17  1  0.32956553  0.01384132  0.62782283  1
  Ca2+  Ca18  1  0.67011389  0.65148849  0.37628814  1
  Ca2+  Ca19  1  0.50135094  0.84659093  0.12400344  1
  Ca2+  Ca20  1  0.49559232  0.48466347  0.87337535  1
  Ca2+  Ca21  1  0.82932735  0.81911833  0.87210393  1
  Pr3+  Pr22  1  0.50200444  0.18025005  0.12455492  1
  Pr3+  Pr23  1  0.33695624  0.98658027  0.37644122  1
  Pr3+  Pr24  1  1.00188703  0.98649607  0.87265830  1
  Pr3+  Pr25  1  0.16714569  0.15388729  0.87536425  1
  Pr3+  Pr26  1  1.00175580  0.65776208  0.87424466  1
  Pr3+  Pr27  1  0.16962422  0.51270787  0.62578788  1
  Pr3+  Pr28  1  1.00069270  0.98937458  0.37735185  1
  Pr3+  Pr29  1  0.66665142  0.32215425  0.87546113  1
  Pr3+  Pr30  1  0.83299737  0.51307257  0.62416313  1
  Pr3+  Pr31  1  0.16299433  0.82126530  0.37552997  1
  Pr3+  Pr32  1  0.83083646  0.15315922  0.87454598  1
  Pr3+  Pr33  1  0.16666192  0.15541250  0.37461148  1
  Pr3+  Pr34  1  0.16812118  0.84859940  0.62616110  1
  Pr3+  Pr35  1  0.33880658  0.65217648  0.87491336  1
  Pr3+  Pr36  1  0.33763305  0.65323454  0.37474531  1
  Pr3+  Pr37  1  0.66312724  0.68131442  0.12610609  1
  Pr3+  Pr38  1  0.49841245  0.15599615  0.37667880  1
  Pr3+  Pr39  1  0.66987101  0.98358234  0.87306840  1
  Pr3+  Pr40  1  0.82790884  0.48768087  0.37398131  1
  Pr3+  Pr41  1  0.66280508  0.01199164  0.12396390  1
  Pr3+  Pr42  1  -0.00336064  0.67910187  0.12491572  1
  Pr3+  Pr43  1  0.49951948  0.48509370  0.37616619  1
  Pr3+  Pr44  1  0.33263593  0.67780210  0.62503742  1
  Pr3+  Pr45  1  0.66954120  0.98951822  0.37716693  1
  Pr3+  Pr46  1  0.17527171  0.51478304  0.12438332  1
  Pr3+  Pr47  1  -0.00436821  0.34539848  0.62494944  1
  Pr3+  Pr48  1  0.16981976  0.17943066  0.12478841  1
  Pr3+  Pr49  1  0.83593707  0.84653130  0.12296414  1
  Pr3+  Pr50  1  0.66593444  0.34628932  0.12616610  1
  Pr3+  Pr51  1  0.82867807  0.15401077  0.37558039  1
  Pr3+  Pr52  1  0.50313000  0.84458912  0.62551258  1
  Pr3+  Pr53  1  1.00090051  0.31987468  0.37549228  1
  Pr3+  Pr54  1  0.49964082  0.81850032  0.37478326  1
  Pr3+  Pr55  1  0.83101828  0.49020560  0.87553738  1
  Pr3+  Pr56  1  0.82721253  0.81941899  0.37591177  1
  Pr3+  Pr57  1  1.00536598  0.32024706  0.87410349  1
  Pr3+  Pr58  1  0.16585844  0.48873382  0.87433964  1
  Pr3+  Pr59  1  0.66350427  0.01448277  0.62635924  1
  Pr3+  Pr60  1  1.00115016  0.65372430  0.37605726  1
  Pr3+  Pr61  1  0.16890558  0.17644901  0.62536847  1
  Pr3+  Pr62  1  -0.00375677  0.34677183  0.12471889  1
  Pr3+  Pr63  1  0.66721420  0.65489246  0.87408939  1
  Pr3+  Pr64  1  0.33096206  0.00975620  0.12277815  1
  Pr3+  Pr65  1  0.49301593  0.15149644  0.87344398  1
  Pr3+  Pr66  1  0.16565961  0.48565244  0.37560918  1
  Pr3+  Pr67  1  0.49477242  0.82087799  0.87523641  1
  Pr3+  Pr68  1  0.16915573  0.84468293  0.12384688  1
  Pr3+  Pr69  1  0.50028989  0.50987844  0.12312780  1
  Pr3+  Pr70  1  0.33584445  0.34431549  0.62491018  1
  Pr3+  Pr71  1  0.66057766  0.34615873  0.62392006  1
  Mn3.30+  Mn72  1  0.16704598  -0.00070781  -0.00166326  1
  Mn3.30+  Mn73  1  0.16691535  0.00088092  0.50224699  1
  Mn3.30+  Mn74  1  0.16725737  0.33372157  -0.00009604  1
  Mn3.30+  Mn75  1  0.16896063  0.33205973  0.49975674  1
  Mn3.30+  Mn76  1  0.16860731  0.66780449  -0.00095623  1
  Mn3.30+  Mn77  1  0.16644795  0.66739435  0.50132058  1
  Mn3.30+  Mn78  1  0.49865240  -0.00215475  -0.00069160  1
  Mn3.30+  Mn79  1  0.49898462  0.00086020  0.50300083  1
  Mn3.30+  Mn80  1  0.49985930  0.33471475  -0.00012243  1
  Mn3.30+  Mn81  1  0.49919301  0.33240084  0.49977738  1
  Mn3.30+  Mn82  1  0.49894342  0.66674329  0.00259193  1
  Mn3.30+  Mn83  1  0.50419397  0.66435495  0.49947674  1
  Mn3.30+  Mn84  1  0.83281591  -0.00040483  -0.00100926  1
  Mn3.30+  Mn85  1  0.83478683  -0.00153593  0.50316649  1
  Mn3.30+  Mn86  1  0.83435105  0.33400006  0.00019964  1
  Mn3.30+  Mn87  1  0.83159194  0.33270871  0.50093382  1
  Mn3.30+  Mn88  1  0.83228699  0.66712758  -0.00015923  1
  Mn3.30+  Mn89  1  0.82993081  0.66842750  0.50166405  1
  Mn3.30+  Mn90  1  -0.00223761  0.16631581  0.24880697  1
  Mn3.30+  Mn91  1  -0.00055526  0.16497692  0.74936058  1
  Mn3.30+  Mn92  1  -0.00013503  0.50001832  0.24883937  1
  Mn3.30+  Mn93  1  -0.00118613  0.50160608  0.75004306  1
  Mn3.30+  Mn94  1  -0.00185632  0.83427471  0.25068919  1
  Mn3.30+  Mn95  1  -0.00285765  0.83354500  0.74897308  1
  Mn3.30+  Mn96  1  0.33375028  0.16620939  0.25099108  1
  Mn3.30+  Mn97  1  0.33531172  0.16484374  0.74826179  1
  Mn3.30+  Mn98  1  0.33425567  0.49894089  0.25094994  1
  Mn3.30+  Mn99  1  0.33874335  0.49924049  0.74799758  1
  Mn3.30+  Mn100  1  0.33505469  0.83149266  0.24849015  1
  Mn3.30+  Mn101  1  0.33342800  0.83452600  0.74997485  1
  Mn3.30+  Mn102  1  0.66836184  0.16696551  0.24868060  1
  Mn3.30+  Mn103  1  0.66387976  0.16750501  0.75002063  1
  Mn3.30+  Mn104  1  0.66808494  0.50201606  0.24828376  1
  Mn3.30+  Mn105  1  0.66353766  0.50127611  0.75120067  1
  Mn3.30+  Mn106  1  0.66473383  0.83342414  0.25009392  1
  Mn3.30+  Mn107  1  0.66843106  0.83125426  0.74777141  1
  Mn3.30+  Mn108  1  0.16672291  -0.00010003  0.24999501  1
  Mn3.30+  Mn109  1  0.16732405  0.00016732  0.74957904  1
  Mn3.30+  Mn110  1  0.16813414  0.33303677  0.25160531  1
  Mn3.30+  Mn111  1  0.16806483  0.33270366  0.74880762  1
  Mn3.30+  Mn112  1  0.16846488  0.66681579  0.25032171  1
  Mn3.30+  Mn113  1  0.16699283  0.66859912  0.74976226  1
  Mn3.30+  Mn114  1  0.50018460  -0.00152608  0.24996322  1
  Mn3.30+  Mn115  1  0.49650362  0.00005948  0.74797411  1
  Mn3.30+  Mn116  1  0.49953826  0.33317283  0.25062203  1
  Mn3.30+  Mn117  1  0.49960332  0.33400607  0.74953083  1
  Mn3.30+  Mn118  1  0.50025301  0.66639569  0.24880194  1
  Mn3.30+  Mn119  1  0.50236609  0.66458804  0.74875559  1
  Mn3.30+  Mn120  1  0.83350770  0.00100759  0.24860564  1
  Mn3.30+  Mn121  1  0.83435476  -0.00291285  0.74941986  1
  Mn3.30+  Mn122  1  0.83332126  0.33322056  0.24759933  1
  Mn3.30+  Mn123  1  0.83284450  0.33354656  0.75113387  1
  Mn3.30+  Mn124  1  0.83133725  0.66614129  0.24956685  1
  Mn3.30+  Mn125  1  0.83124524  0.66965304  0.74867649  1
  Mn3.30+  Mn126  1  -0.00200886  0.16650449  0.00073539  1
  Mn3.30+  Mn127  1  -0.00079166  0.16515859  0.50080150  1
  Mn3.30+  Mn128  1  -0.00023711  0.50103340  0.00147719  1
  Mn3.30+  Mn129  1  -0.00112250  0.50025127  0.49956448  1
  Mn3.30+  Mn130  1  -0.00146377  0.83353568  -0.00244201  1
  Mn3.30+  Mn131  1  -0.00371169  0.83421986  0.50232567  1
  Mn3.30+  Mn132  1  0.33378095  0.16533310  -0.00187702  1
  Mn3.30+  Mn133  1  0.33507572  0.16581251  0.50246938  1
  Mn3.30+  Mn134  1  0.33597556  0.50002108  0.00014808  1
  Mn3.30+  Mn135  1  0.33660355  0.49830704  0.50096270  1
  Mn3.30+  Mn136  1  0.33461143  0.83179053  0.00087385  1
  Mn3.30+  Mn137  1  0.33384905  0.83373619  0.50083865  1
  Mn3.30+  Mn138  1  0.66710921  0.16631485  -0.00055041  1
  Mn3.30+  Mn139  1  0.66523547  0.16784543  0.50192439  1
  Mn3.30+  Mn140  1  0.66690812  0.50107254  0.00027654  1
  Mn3.30+  Mn141  1  0.66547515  0.50233843  0.50053574  1
  Mn3.30+  Mn142  1  0.66539106  0.83289834  -0.00064091  1
  Mn3.30+  Mn143  1  0.66799891  0.83129285  0.50251364  1
  O2-  O144  1  0.02580207  0.16716628  0.12512148  1
  O2-  O145  1  0.02431512  0.16114889  0.62615779  1
  O2-  O146  1  0.03037989  0.49540571  0.12502884  1
  O2-  O147  1  0.02473289  0.49422945  0.62322224  1
  O2-  O148  1  0.02380936  0.82754385  0.12443654  1
  O2-  O149  1  0.02491462  0.82993249  0.62433583  1
  O2-  O150  1  0.35750008  0.15753837  0.12368607  1
  O2-  O151  1  0.36091218  0.15793744  0.62486867  1
  O2-  O152  1  0.35592863  0.49586210  0.12710531  1
  O2-  O153  1  0.36431954  0.49318256  0.62351755  1
  O2-  O154  1  0.35965257  0.82671286  0.12679067  1
  O2-  O155  1  0.35956943  0.82475978  0.62322452  1
  O2-  O156  1  0.69306847  0.15925901  0.12150890  1
  O2-  O157  1  0.68537972  0.16435326  0.62695343  1
  O2-  O158  1  0.69473666  0.49494801  0.12351291  1
  O2-  O159  1  0.69072470  0.49219092  0.62721190  1
  O2-  O160  1  0.69229455  0.83025880  0.12509092  1
  O2-  O161  1  0.69404975  0.82589703  0.62435187  1
  O2-  O162  1  0.14151408  0.32935067  0.12483959  1
  O2-  O163  1  0.13938491  0.32681442  0.62395025  1
  O2-  O164  1  0.14115670  0.66187496  0.12588834  1
  O2-  O165  1  0.14644897  0.66030527  0.62465787  1
  O2-  O166  1  0.14845113  0.99399732  0.12481267  1
  O2-  O167  1  0.13820370  0.99776046  0.62459057  1
  O2-  O168  1  0.48155111  0.32960879  0.12644650  1
  O2-  O169  1  0.47821487  0.32502583  0.62390934  1
  O2-  O170  1  0.47131268  0.65626197  0.12603726  1
  O2-  O171  1  0.47533512  0.66087707  0.62346255  1
  O2-  O172  1  0.47510057  0.99389811  0.12387492  1
  O2-  O173  1  0.47066565  0.98989611  0.62430631  1
  O2-  O174  1  0.80879060  0.32325692  0.12276824  1
  O2-  O175  1  0.80705482  0.33247360  0.62867963  1
  O2-  O176  1  0.80819716  0.66154328  0.12466409  1
  O2-  O177  1  0.80471690  0.65807573  0.62503440  1
  O2-  O178  1  0.80644623  0.99278616  0.12273626  1
  O2-  O179  1  0.80728511  0.99316322  0.62727977  1
  O2-  O180  1  0.31030403  0.17074374  0.37764200  1
  O2-  O181  1  0.31096088  0.17141365  0.87356645  1
  O2-  O182  1  0.30802791  0.50775546  0.37617539  1
  O2-  O183  1  0.30983316  0.50471813  0.87297577  1
  O2-  O184  1  0.30753809  0.83805348  0.37644772  1
  O2-  O185  1  0.31690447  0.83692723  0.87408899  1
  O2-  O186  1  0.64398302  0.16349543  0.37697003  1
  O2-  O187  1  0.63871281  0.17158072  0.87495065  1
  O2-  O188  1  0.64351344  0.50604831  0.37367995  1
  O2-  O189  1  0.63769812  0.50645092  0.87568321  1
  O2-  O190  1  0.64170971  0.84323851  0.37628199  1
  O2-  O191  1  0.63845144  0.83616919  0.87416744  1
  O2-  O192  1  0.97292730  0.17212771  0.37374893  1
  O2-  O193  1  0.97513597  0.17314968  0.87472380  1
  O2-  O194  1  0.97367525  0.50402006  0.37475272  1
  O2-  O195  1  0.97561040  0.50722041  0.87696989  1
  O2-  O196  1  0.97264061  0.84091475  0.37698473  1
  O2-  O197  1  0.97232938  0.83822032  0.87390581  1
  O2-  O198  1  0.19323793  0.00504967  0.37570898  1
  O2-  O199  1  0.19370947  0.00529478  0.87450849  1
  O2-  O200  1  0.19601239  0.33780171  0.37786656  1
  O2-  O201  1  0.18536431  0.33976570  0.87390187  1
  O2-  O202  1  0.19250751  0.67248995  0.37648075  1
  O2-  O203  1  0.19336291  0.66737917  0.87326540  1
  O2-  O204  1  0.52570293  0.00662985  0.37813405  1
  O2-  O205  1  0.52540490  0.00315610  0.87380354  1
  O2-  O206  1  0.52057310  0.33564269  0.37435949  1
  O2-  O207  1  0.52258259  0.33852917  0.87559498  1
  O2-  O208  1  0.52836312  0.67185583  0.37322839  1
  O2-  O209  1  0.52431585  0.67553071  0.87669901  1
  O2-  O210  1  0.85576257  0.00547520  0.37515054  1
  O2-  O211  1  0.85745754  0.00618480  0.87477284  1
  O2-  O212  1  0.85732157  0.34035300  0.37266186  1
  O2-  O213  1  0.86196754  0.34336534  0.87575812  1
  O2-  O214  1  0.85798969  0.67225692  0.37436349  1
  O2-  O215  1  0.85717709  0.67164158  0.87612942  1
  O2-  O216  1  0.23918773  0.09397639  0.01976708  1
  O2-  O217  1  0.23761349  0.09592922  0.51830755  1
  O2-  O218  1  0.23739789  0.43149927  0.01492913  1
  O2-  O219  1  0.23838789  0.42703801  0.52358726  1
  O2-  O220  1  0.23873885  0.76102667  0.02087349  1
  O2-  O221  1  0.23909123  0.76249850  0.52065827  1
  O2-  O222  1  0.56945687  0.09351373  0.02019586  1
  O2-  O223  1  0.56986414  0.09351206  0.52316540  1
  O2-  O224  1  0.57817733  0.42730874  0.02275672  1
  O2-  O225  1  0.57018633  0.42960209  0.51843647  1
  O2-  O226  1  0.56972398  0.76207041  0.02390856  1
  O2-  O227  1  0.56992658  0.76384815  0.51771123  1
  O2-  O228  1  0.90222486  0.10035667  0.01667912  1
  O2-  O229  1  0.90601459  0.09302758  0.51411941  1
  O2-  O230  1  0.90487982  0.43067010  0.02377075  1
  O2-  O231  1  0.90590841  0.42700289  0.52031649  1
  O2-  O232  1  0.90593570  0.75952607  0.02219332  1
  O2-  O233  1  0.89757603  0.76547743  0.51718812  1
  O2-  O234  1  0.25622270  0.25678760  0.23172539  1
  O2-  O235  1  0.26199291  0.25797830  0.72563234  1
  O2-  O236  1  0.26387848  0.59682241  0.23021463  1
  O2-  O237  1  0.26495895  0.59127970  0.72864217  1
  O2-  O238  1  0.26403580  0.92525051  0.23026296  1
  O2-  O239  1  0.25863617  0.92751363  0.72611467  1
  O2-  O240  1  0.59565136  0.25878647  0.22859804  1
  O2-  O241  1  0.59574524  0.26648640  0.73515302  1
  O2-  O242  1  0.59295784  0.59318322  0.22482797  1
  O2-  O243  1  0.59809523  0.59905045  0.73087184  1
  O2-  O244  1  0.59613946  0.92979323  0.23230968  1
  O2-  O245  1  0.59592728  0.92728211  0.72857650  1
  O2-  O246  1  0.93119348  0.26488979  0.23267909  1
  O2-  O247  1  0.93150161  0.26373501  0.73365426  1
  O2-  O248  1  0.93139847  0.59589007  0.23242684  1
  O2-  O249  1  0.92307368  0.59272970  0.73346967  1
  O2-  O250  1  0.92401699  0.92837934  0.23181740  1
  O2-  O251  1  0.93031437  0.93078312  0.73120230  1
  O2-  O252  1  0.09319399  0.23903977  0.27196048  1
  O2-  O253  1  0.09537872  0.23830813  0.76967825  1
  O2-  O254  1  0.09682426  0.57240488  0.27211362  1
  O2-  O255  1  0.09439201  0.57358118  0.76931522  1
  O2-  O256  1  0.09450533  0.90711338  0.27100838  1
  O2-  O257  1  0.09241870  0.90827168  0.76753862  1
  O2-  O258  1  0.42867503  0.23454456  0.26605511  1
  O2-  O259  1  0.43047855  0.23588349  0.76641256  1
  O2-  O260  1  0.42966399  0.57064380  0.27291529  1
  O2-  O261  1  0.43054848  0.57207145  0.77285729  1
  O2-  O262  1  0.42717533  0.90492200  0.27355726  1
  O2-  O263  1  0.43111076  0.90266126  0.76677419  1
  O2-  O264  1  0.76348478  0.23774435  0.26785015  1
  O2-  O265  1  0.76245535  0.24334666  0.77562951  1
  O2-  O266  1  0.76210886  0.57296955  0.26962504  1
  O2-  O267  1  0.75988591  0.57188039  0.77186955  1
  O2-  O268  1  0.76048019  0.90572183  0.26950601  1
  O2-  O269  1  0.75971493  0.90464454  0.77300747  1
  O2-  O270  1  0.07506980  0.07477551  0.47566717  1
  O2-  O271  1  0.07185637  0.07518350  0.97747328  1
  O2-  O272  1  0.07412571  0.40477231  0.47867072  1
  O2-  O273  1  0.07023526  0.40732911  0.97974563  1
  O2-  O274  1  0.06943590  0.74294722  0.47696571  1
  O2-  O275  1  0.06944339  0.73779454  0.98236083  1
  O2-  O276  1  0.40634529  0.07310254  0.47605782  1
  O2-  O277  1  0.40394285  0.06792615  0.97856457  1
  O2-  O278  1  0.40317540  0.40259321  0.47854365  1
  O2-  O279  1  0.40928199  0.40853927  0.98541123  1
  O2-  O280  1  0.40779066  0.73646393  0.47926407  1
  O2-  O281  1  0.40498946  0.73760663  0.97923497  1
  O2-  O282  1  0.73956893  0.07112084  0.48491057  1
  O2-  O283  1  0.73624581  0.07101982  0.97659352  1
  O2-  O284  1  0.73997689  0.40944347  0.48330455  1
  O2-  O285  1  0.74045062  0.40591912  0.97825100  1
  O2-  O286  1  0.73659895  0.73798609  0.47416611  1
  O2-  O287  1  0.73313132  0.73773359  0.98355231  1
  O2-  O288  1  0.09584588  0.23916498  0.47851668  1
  O2-  O289  1  0.09342355  0.23834593  0.97964523  1
  O2-  O290  1  0.09328194  0.57198973  0.47891141  1
  O2-  O291  1  0.09639509  0.57252855  0.97914470  1
  O2-  O292  1  0.09532809  0.90682153  0.47910545  1
  O2-  O293  1  0.09029892  0.90828112  0.98144431  1
  O2-  O294  1  0.42782947  0.23775189  0.48107830  1
  O2-  O295  1  0.43001223  0.23366739  0.98533644  1
  O2-  O296  1  0.43025873  0.57274478  0.47592127  1
  O2-  O297  1  0.43031339  0.57095527  0.97787254  1
  O2-  O298  1  0.42898083  0.90481313  0.47746013  1
  O2-  O299  1  0.42953586  0.90344156  0.98304991  1
  O2-  O300  1  0.76321379  0.23925251  0.48187691  1
  O2-  O301  1  0.76115775  0.24142998  0.97476202  1
  O2-  O302  1  0.76340760  0.57052544  0.48148612  1
  O2-  O303  1  0.75873872  0.57347988  0.97685093  1
  O2-  O304  1  0.76009145  0.90657603  0.47879132  1
  O2-  O305  1  0.75960554  0.90253978  0.97726065  1
  O2-  O306  1  0.07147539  0.07551806  0.27241953  1
  O2-  O307  1  0.07481826  0.07449771  0.77428754  1
  O2-  O308  1  0.07240597  0.40500588  0.27264445  1
  O2-  O309  1  0.07176404  0.40811624  0.76825958  1
  O2-  O310  1  0.07170645  0.73859573  0.27142848  1
  O2-  O311  1  0.06876272  0.74105120  0.76898914  1
  O2-  O312  1  0.40601907  0.06972853  0.27024982  1
  O2-  O313  1  0.40296811  0.06956411  0.77414456  1
  O2-  O314  1  0.40554889  0.40663686  0.27277311  1
  O2-  O315  1  0.40537776  0.40304217  0.76385364  1
  O2-  O316  1  0.40587268  0.73866552  0.27389518  1
  O2-  O317  1  0.40657299  0.73546653  0.76712341  1
  O2-  O318  1  0.73817239  0.07078734  0.26951830  1
  O2-  O319  1  0.73866836  0.07111934  0.76894104  1
  O2-  O320  1  0.74124796  0.40717081  0.26559608  1
  O2-  O321  1  0.73804496  0.40823176  0.77390479  1
  O2-  O322  1  0.73415200  0.73935404  0.26990919  1
  O2-  O323  1  0.73650597  0.73769775  0.77181481  1
  O2-  O324  1  0.23949003  0.09323848  0.23078255  1
  O2-  O325  1  0.23687232  0.09634935  0.73091486  1
  O2-  O326  1  0.23563765  0.43226450  0.23449250  1
  O2-  O327  1  0.23975476  0.42738610  0.72767353  1
  O2-  O328  1  0.23620216  0.76373026  0.23283270  1
  O2-  O329  1  0.24064645  0.76014380  0.72735097  1
  O2-  O330  1  0.57238537  0.09423071  0.22878413  1
  O2-  O331  1  0.56622182  0.09193102  0.72909616  1
  O2-  O332  1  0.57426876  0.42920090  0.23062631  1
  O2-  O333  1  0.57246330  0.42847677  0.72789928  1
  O2-  O334  1  0.56926373  0.76284946  0.22708215  1
  O2-  O335  1  0.57036747  0.76253128  0.73075007  1
  O2-  O336  1  0.90181007  0.09887189  0.23227866  1
  O2-  O337  1  0.90636526  0.09387360  0.73672327  1
  O2-  O338  1  0.90525296  0.42810409  0.22625576  1
  O2-  O339  1  0.90451724  0.42812359  0.72945776  1
  O2-  O340  1  0.90232075  0.76068112  0.23006124  1
  O2-  O341  1  0.90064398  0.76319910  0.73085197  1
  O2-  O342  1  0.25680626  0.25612199  0.01869841  1
  O2-  O343  1  0.26103885  0.25825493  0.52512596  1
  O2-  O344  1  0.26434940  0.59515229  0.01969088  1
  O2-  O345  1  0.26474745  0.59104270  0.52105731  1
  O2-  O346  1  0.26165395  0.92323941  0.02105696  1
  O2-  O347  1  0.26053480  0.93015127  0.52251180  1
  O2-  O348  1  0.59654831  0.26102248  0.01997618  1
  O2-  O349  1  0.59375937  0.26280625  0.51755411  1
  O2-  O350  1  0.59389270  0.59607053  0.02298474  1
  O2-  O351  1  0.59721135  0.59648213  0.52074417  1
  O2-  O352  1  0.59710774  0.92986511  0.01646525  1
  O2-  O353  1  0.59512501  0.92807967  0.52315187  1
  O2-  O354  1  0.93138989  0.26593491  0.01576698  1
  O2-  O355  1  0.93129140  0.26360488  0.51650631  1
  O2-  O356  1  0.93132561  0.59511503  0.01932304  1
  O2-  O357  1  0.92358521  0.59500390  0.51631113  1
  O2-  O358  1  0.92481415  0.92595930  0.01776703  1
  O2-  O359  1  0.93106242  0.93185744  0.51915735  1
