# generated using pymatgen
data_Sr7Ca15Pr50Mn72O216
_symmetry_space_group_name_H-M   'P 1'
_cell_length_a   16.55794488
_cell_length_b   16.60572281
_cell_length_c   15.59430939
_cell_angle_alpha   90.00650648
_cell_angle_beta   90.00021171
_cell_angle_gamma   90.00447257
_symmetry_Int_Tables_number   1
_chemical_formula_structural   Sr7Ca15Pr50Mn72O216
_chemical_formula_sum   'Sr7 Ca15 Pr50 Mn72 O216'
_cell_volume   4287.75891715
_cell_formula_units_Z   1
loop_
 _symmetry_equiv_pos_site_id
 _symmetry_equiv_pos_as_xyz
  1  'x, y, z'
loop_
 _atom_type_symbol
 _atom_type_oxidation_number
  Sr2+  2.0
  Ca2+  2.0
  Pr3+  3.0
  Mn3.30+  3.3
  O2-  -2.0
loop_
 _atom_site_type_symbol
 _atom_site_label
 _atom_site_symmetry_multiplicity
 _atom_site_fract_x
 _atom_site_fract_y
 _atom_site_fract_z
 _atom_site_occupancy
  Sr2+  Sr0  1  0.33456516  0.33931535  0.12586389  1
  Sr2+  Sr1  1  1.00029208  0.32525905  0.37717046  1
  Sr2+  Sr2  1  0.33464647  0.65819181  0.87712704  1
  Sr2+  Sr3  1  0.33353165  0.67582398  0.62425577  1
  Sr2+  Sr4  1  0.33054664  0.00838337  0.12593508  1
  Sr2+  Sr5  1  0.17051934  0.84237184  0.12354366  1
  Sr2+  Sr6  1  1.00271686  0.32547884  0.87306645  1
  Ca2+  Ca7  1  0.82933693  0.48401523  0.37407414  1
  Ca2+  Ca8  1  0.83659855  0.18249760  0.12550441  1
  Ca2+  Ca9  1  0.33662414  0.98642800  0.37287510  1
  Ca2+  Ca10  1  0.66853839  0.65234184  0.87550443  1
  Ca2+  Ca11  1  0.83764490  0.51333829  0.12669504  1
  Ca2+  Ca12  1  0.33727763  0.65285188  0.37287606  1
  Ca2+  Ca13  1  0.49407858  0.14895937  0.37255721  1
  Ca2+  Ca14  1  -0.00532372  0.35141843  0.62332873  1
  Ca2+  Ca15  1  0.32983652  0.67998609  0.12581896  1
  Ca2+  Ca16  1  0.50113055  0.18020050  0.12732476  1
  Ca2+  Ca17  1  0.49476219  0.81673629  0.87435893  1
  Ca2+  Ca18  1  0.50089892  0.84600491  0.62654267  1
  Ca2+  Ca19  1  0.33076222  0.34845437  0.62407574  1
  Ca2+  Ca20  1  0.83719657  0.51306709  0.62334072  1
  Ca2+  Ca21  1  1.00356228  0.98568225  0.87605692  1
  Pr3+  Pr22  1  0.83786274  0.18212579  0.62423275  1
  Pr3+  Pr23  1  0.49858677  0.49047900  0.87440949  1
  Pr3+  Pr24  1  0.82807692  0.82024960  0.37486621  1
  Pr3+  Pr25  1  -0.00256377  0.01292784  0.62665190  1
  Pr3+  Pr26  1  0.66395390  0.34629685  0.12491084  1
  Pr3+  Pr27  1  0.49716465  0.48792250  0.37540972  1
  Pr3+  Pr28  1  0.50148048  0.51373824  0.62520874  1
  Pr3+  Pr29  1  0.66072700  0.01567537  0.12465813  1
  Pr3+  Pr30  1  0.16726326  0.50893971  0.62386546  1
  Pr3+  Pr31  1  0.83457123  0.84561784  0.62562101  1
  Pr3+  Pr32  1  0.49688891  0.15560901  0.87671443  1
  Pr3+  Pr33  1  0.83123228  0.15607095  0.37351075  1
  Pr3+  Pr34  1  0.66643896  0.98733417  0.37461988  1
  Pr3+  Pr35  1  0.16438292  0.48852926  0.87301891  1
  Pr3+  Pr36  1  0.17102815  0.17954709  0.12564792  1
  Pr3+  Pr37  1  0.67026373  0.32030569  0.37501281  1
  Pr3+  Pr38  1  -0.00191423  0.67957093  0.12497787  1
  Pr3+  Pr39  1  0.16996696  0.82184132  0.37376241  1
  Pr3+  Pr40  1  0.17079050  0.18247912  0.62419045  1
  Pr3+  Pr41  1  0.49807774  0.84460515  0.12192956  1
  Pr3+  Pr42  1  0.49307324  0.82058923  0.37486891  1
  Pr3+  Pr43  1  0.66135079  0.01172771  0.62532097  1
  Pr3+  Pr44  1  0.50202790  0.18002884  0.62365583  1
  Pr3+  Pr45  1  1.00273498  0.98901725  0.37501722  1
  Pr3+  Pr46  1  0.66559919  0.34949917  0.62516771  1
  Pr3+  Pr47  1  0.67041774  0.65141126  0.37422618  1
  Pr3+  Pr48  1  0.66496132  0.67790169  0.12376519  1
  Pr3+  Pr49  1  0.83283098  0.15459696  0.87625780  1
  Pr3+  Pr50  1  0.66781327  0.98579057  0.87544741  1
  Pr3+  Pr51  1  0.33670500  0.98435111  0.87677763  1
  Pr3+  Pr52  1  -0.00276622  0.01547956  0.12335440  1
  Pr3+  Pr53  1  0.17307079  0.51082467  0.12653265  1
  Pr3+  Pr54  1  0.66050593  0.68052190  0.62646934  1
  Pr3+  Pr55  1  0.83100498  0.48792706  0.87518218  1
  Pr3+  Pr56  1  0.33277788  0.00850715  0.62415129  1
  Pr3+  Pr57  1  -0.00350621  0.34674850  0.12659227  1
  Pr3+  Pr58  1  0.17038628  0.84424251  0.62583355  1
  Pr3+  Pr59  1  0.16555018  0.15444213  0.37326648  1
  Pr3+  Pr60  1  0.16091698  0.15293061  0.87672917  1
  Pr3+  Pr61  1  0.83688872  0.84613281  0.12449335  1
  Pr3+  Pr62  1  0.33860708  0.31756391  0.37595109  1
  Pr3+  Pr63  1  0.67136681  0.32129187  0.87488915  1
  Pr3+  Pr64  1  0.50064938  0.51280120  0.12467509  1
  Pr3+  Pr65  1  0.33452453  0.32285561  0.87374584  1
  Pr3+  Pr66  1  1.00119343  0.65339786  0.37456555  1
  Pr3+  Pr67  1  0.16517228  0.81994845  0.87617472  1
  Pr3+  Pr68  1  0.16686498  0.48827880  0.37702002  1
  Pr3+  Pr69  1  -0.00420316  0.67674433  0.62487248  1
  Pr3+  Pr70  1  1.00429412  0.65312838  0.87555285  1
  Pr3+  Pr71  1  0.82951311  0.81750423  0.87499617  1
  Mn3.30+  Mn72  1  0.16579101  -0.00119959  0.00000366  1
  Mn3.30+  Mn73  1  0.16821393  -0.00001888  0.49889337  1
  Mn3.30+  Mn74  1  0.16647987  0.33362646  -0.00007630  1
  Mn3.30+  Mn75  1  0.16697637  0.33324220  0.50137138  1
  Mn3.30+  Mn76  1  0.16895146  0.66531147  0.00112810  1
  Mn3.30+  Mn77  1  0.16826752  0.66655841  0.49856479  1
  Mn3.30+  Mn78  1  0.49984483  0.00090345  0.00054561  1
  Mn3.30+  Mn79  1  0.49785122  -0.00070093  0.49951047  1
  Mn3.30+  Mn80  1  0.50073659  0.33298101  0.00063316  1
  Mn3.30+  Mn81  1  0.49998330  0.33261932  0.50055081  1
  Mn3.30+  Mn82  1  0.49971956  0.66751110  -0.00110863  1
  Mn3.30+  Mn83  1  0.49893841  0.66804335  0.49969566  1
  Mn3.30+  Mn84  1  0.83357114  0.00140422  -0.00051202  1
  Mn3.30+  Mn85  1  0.83242689  0.00058904  0.50026388  1
  Mn3.30+  Mn86  1  0.83437616  0.33350379  0.00165903  1
  Mn3.30+  Mn87  1  0.83470094  0.33606243  0.49960084  1
  Mn3.30+  Mn88  1  0.83232847  0.66467167  -0.00026318  1
  Mn3.30+  Mn89  1  0.83130819  0.66412060  0.50047784  1
  Mn3.30+  Mn90  1  -0.00109839  0.16830187  0.25014168  1
  Mn3.30+  Mn91  1  0.00081681  0.16860424  0.74983299  1
  Mn3.30+  Mn92  1  -0.00090664  0.49968298  0.25160200  1
  Mn3.30+  Mn93  1  -0.00231378  0.49951577  0.74748114  1
  Mn3.30+  Mn94  1  0.00019874  0.83410847  0.25025379  1
  Mn3.30+  Mn95  1  -0.00034366  0.83391077  0.75070011  1
  Mn3.30+  Mn96  1  0.33581727  0.16387045  0.24973132  1
  Mn3.30+  Mn97  1  0.33247337  0.16688059  0.74932665  1
  Mn3.30+  Mn98  1  0.33447939  0.49980178  0.25007647  1
  Mn3.30+  Mn99  1  0.33311618  0.50005636  0.74943364  1
  Mn3.30+  Mn100  1  0.33265897  0.83225903  0.25046041  1
  Mn3.30+  Mn101  1  0.33659284  0.83165373  0.74899778  1
  Mn3.30+  Mn102  1  0.66459964  0.16724513  0.24960883  1
  Mn3.30+  Mn103  1  0.66709323  0.16667867  0.74991885  1
  Mn3.30+  Mn104  1  0.66933523  0.49978923  0.24874645  1
  Mn3.30+  Mn105  1  0.66851662  0.50243954  0.74978740  1
  Mn3.30+  Mn106  1  0.66495991  0.83327071  0.24842444  1
  Mn3.30+  Mn107  1  0.66322582  0.83174019  0.75263366  1
  Mn3.30+  Mn108  1  0.16864608  -0.00122242  0.25012512  1
  Mn3.30+  Mn109  1  0.16531537  -0.00015481  0.75053869  1
  Mn3.30+  Mn110  1  0.16732102  0.33319756  0.25207199  1
  Mn3.30+  Mn111  1  0.16627437  0.33362901  0.74661354  1
  Mn3.30+  Mn112  1  0.17006879  0.66613638  0.25155672  1
  Mn3.30+  Mn113  1  0.16711466  0.66597504  0.74862459  1
  Mn3.30+  Mn114  1  0.49784352  0.00173161  0.24919521  1
  Mn3.30+  Mn115  1  0.49933130  -0.00195519  0.75125514  1
  Mn3.30+  Mn116  1  0.50092622  0.33118446  0.24997254  1
  Mn3.30+  Mn117  1  0.49974599  0.33401246  0.74893849  1
  Mn3.30+  Mn118  1  0.49762015  0.66691347  0.24872040  1
  Mn3.30+  Mn119  1  0.50027272  0.66902402  0.75173669  1
  Mn3.30+  Mn120  1  0.83227594  0.00189003  0.24844907  1
  Mn3.30+  Mn121  1  0.83384604  0.00000966  0.75219830  1
  Mn3.30+  Mn122  1  0.83295241  0.33407365  0.24958904  1
  Mn3.30+  Mn123  1  0.83633869  0.33484075  0.74881219  1
  Mn3.30+  Mn124  1  0.83336789  0.66402313  0.24966797  1
  Mn3.30+  Mn125  1  0.83067443  0.66475154  0.74961664  1
  Mn3.30+  Mn126  1  -0.00127562  0.16817463  -0.00024442  1
  Mn3.30+  Mn127  1  0.00095005  0.16887792  0.50041468  1
  Mn3.30+  Mn128  1  -0.00008809  0.50005831  0.00247031  1
  Mn3.30+  Mn129  1  -0.00322032  0.49915359  0.49846182  1
  Mn3.30+  Mn130  1  -0.00009204  0.83499134  -0.00053437  1
  Mn3.30+  Mn131  1  -0.00016510  0.83309435  0.49934457  1
  Mn3.30+  Mn132  1  0.33269723  0.16622342  0.00104667  1
  Mn3.30+  Mn133  1  0.33564588  0.16456015  0.49990379  1
  Mn3.30+  Mn134  1  0.33391799  0.50005056  0.00048594  1
  Mn3.30+  Mn135  1  0.33368247  0.49979243  0.50048709  1
  Mn3.30+  Mn136  1  0.33413874  0.83099701  -0.00045683  1
  Mn3.30+  Mn137  1  0.33516595  0.83279765  0.50090590  1
  Mn3.30+  Mn138  1  0.66707470  0.16764788  0.00216550  1
  Mn3.30+  Mn139  1  0.66478840  0.16662368  0.49850055  1
  Mn3.30+  Mn140  1  0.66857497  0.50153592  0.00071695  1
  Mn3.30+  Mn141  1  0.66952569  0.50083388  0.50033006  1
  Mn3.30+  Mn142  1  0.66559085  0.83158965  -0.00205686  1
  Mn3.30+  Mn143  1  0.66315158  0.83320308  0.50072589  1
  O2-  O144  1  0.02632013  0.16261974  0.12492414  1
  O2-  O145  1  0.02652616  0.15768329  0.62497154  1
  O2-  O146  1  0.02776213  0.49623659  0.12895277  1
  O2-  O147  1  0.02231625  0.50160931  0.62250700  1
  O2-  O148  1  0.01917687  0.82804452  0.12538500  1
  O2-  O149  1  0.02485602  0.82637266  0.62465351  1
  O2-  O150  1  0.35774433  0.16442323  0.12494686  1
  O2-  O151  1  0.36027044  0.15553991  0.62493544  1
  O2-  O152  1  0.35794342  0.49219779  0.12534289  1
  O2-  O153  1  0.35819265  0.49355828  0.62397321  1
  O2-  O154  1  0.35456579  0.82642126  0.12491335  1
  O2-  O155  1  0.35855281  0.83375543  0.62563223  1
  O2-  O156  1  0.69459681  0.16176252  0.12492837  1
  O2-  O157  1  0.69231854  0.15970251  0.62540103  1
  O2-  O158  1  0.69538806  0.49514951  0.12508244  1
  O2-  O159  1  0.69430139  0.49754211  0.62470783  1
  O2-  O160  1  0.69369304  0.82678638  0.12295485  1
  O2-  O161  1  0.69175347  0.82908884  0.62781452  1
  O2-  O162  1  0.14260946  0.32916219  0.12814881  1
  O2-  O163  1  0.13843209  0.32936166  0.62413690  1
  O2-  O164  1  0.14129733  0.65969294  0.12744076  1
  O2-  O165  1  0.13976756  0.66219071  0.62300174  1
  O2-  O166  1  0.14126332  0.99853065  0.12581298  1
  O2-  O167  1  0.14041694  0.99227101  0.62553729  1
  O2-  O168  1  0.48363607  0.32796492  0.12457739  1
  O2-  O169  1  0.47340045  0.32756030  0.62496480  1
  O2-  O170  1  0.47333459  0.66045437  0.12592322  1
  O2-  O171  1  0.48297850  0.65951846  0.62456203  1
  O2-  O172  1  0.48027623  0.99208899  0.12370263  1
  O2-  O173  1  0.47664171  0.99321972  0.62746860  1
  O2-  O174  1  0.80713139  0.32527034  0.12576920  1
  O2-  O175  1  0.80725556  0.32710493  0.62454764  1
  O2-  O176  1  0.80919420  0.66076939  0.12509106  1
  O2-  O177  1  0.80494412  0.65963238  0.62458611  1
  O2-  O178  1  0.80504501  0.99225570  0.12421372  1
  O2-  O179  1  0.80656701  0.99457394  0.62709904  1
  O2-  O180  1  0.30847004  0.17187344  0.37732756  1
  O2-  O181  1  0.30583576  0.17404035  0.87256089  1
  O2-  O182  1  0.31185164  0.50629302  0.37631362  1
  O2-  O183  1  0.30904941  0.50158878  0.87475906  1
  O2-  O184  1  0.31327513  0.84157858  0.37673815  1
  O2-  O185  1  0.30926462  0.83646042  0.87310649  1
  O2-  O186  1  0.63782296  0.17247458  0.37549328  1
  O2-  O187  1  0.64173319  0.17263417  0.87433208  1
  O2-  O188  1  0.64104336  0.50368620  0.37463781  1
  O2-  O189  1  0.64286249  0.50407573  0.87532463  1
  O2-  O190  1  0.63958926  0.83793277  0.37338899  1
  O2-  O191  1  0.63679981  0.84028621  0.87559417  1
  O2-  O192  1  0.97522948  0.16711925  0.37621129  1
  O2-  O193  1  0.97542072  0.17357279  0.87410869  1
  O2-  O194  1  0.97111899  0.50607685  0.37429930  1
  O2-  O195  1  0.97590118  0.50512363  0.87406056  1
  O2-  O196  1  0.97102223  0.84022354  0.37518733  1
  O2-  O197  1  0.97361637  0.83764118  0.87451073  1
  O2-  O198  1  0.19336908  0.00726710  0.37611793  1
  O2-  O199  1  0.19199908  0.00639027  0.87305125  1
  O2-  O200  1  0.19325393  0.33783229  0.37692330  1
  O2-  O201  1  0.18975461  0.33923007  0.87129486  1
  O2-  O202  1  0.19491600  0.67215910  0.37629643  1
  O2-  O203  1  0.18298098  0.66883323  0.87337031  1
  O2-  O204  1  0.52436446  0.00364195  0.37274556  1
  O2-  O205  1  0.52581676  0.01015614  0.87639536  1
  O2-  O206  1  0.52670600  0.34121555  0.37615475  1
  O2-  O207  1  0.52713959  0.33959481  0.87382277  1
  O2-  O208  1  0.52684954  0.67185501  0.37367219  1
  O2-  O209  1  0.52698516  0.66960896  0.87574428  1
  O2-  O210  1  0.85782972  0.00641462  0.37373695  1
  O2-  O211  1  0.86073583  0.00701825  0.87516976  1
  O2-  O212  1  0.85107899  0.33791745  0.37514826  1
  O2-  O213  1  0.85340621  0.34026980  0.87410058  1
  O2-  O214  1  0.85705493  0.67574839  0.37527817  1
  O2-  O215  1  0.86041193  0.67062128  0.87468912  1
  O2-  O216  1  0.23573800  0.09611771  0.01592762  1
  O2-  O217  1  0.23796746  0.09416064  0.52256247  1
  O2-  O218  1  0.23784014  0.42917181  0.01520894  1
  O2-  O219  1  0.23863822  0.42663118  0.51867852  1
  O2-  O220  1  0.23914501  0.75741901  0.01213951  1
  O2-  O221  1  0.23700317  0.76408474  0.51739077  1
  O2-  O222  1  0.57208150  0.09768934  0.02159405  1
  O2-  O223  1  0.57040857  0.09284701  0.52239760  1
  O2-  O224  1  0.57498282  0.42979062  0.02025284  1
  O2-  O225  1  0.57399765  0.43025640  0.52212590  1
  O2-  O226  1  0.57428129  0.75902964  0.02488535  1
  O2-  O227  1  0.57012336  0.76364021  0.52099613  1
  O2-  O228  1  0.90390611  0.09869261  0.02199090  1
  O2-  O229  1  0.90614359  0.09513309  0.52085516  1
  O2-  O230  1  0.90616521  0.43053097  0.02297759  1
  O2-  O231  1  0.90363905  0.42934885  0.52050851  1
  O2-  O232  1  0.90328367  0.76101723  0.01890205  1
  O2-  O233  1  0.90117095  0.75939182  0.52160342  1
  O2-  O234  1  0.25974062  0.25811180  0.23557315  1
  O2-  O235  1  0.26326143  0.26280530  0.72576274  1
  O2-  O236  1  0.26280781  0.59254049  0.22817043  1
  O2-  O237  1  0.25416473  0.58955578  0.72938809  1
  O2-  O238  1  0.25890821  0.92560342  0.23670106  1
  O2-  O239  1  0.26165089  0.92744396  0.73118477  1
  O2-  O240  1  0.59846655  0.26299821  0.23170523  1
  O2-  O241  1  0.59535204  0.26199888  0.72894186  1
  O2-  O242  1  0.59640446  0.59523679  0.22959948  1
  O2-  O243  1  0.59509525  0.59392792  0.73011393  1
  O2-  O244  1  0.59557469  0.92892406  0.22980875  1
  O2-  O245  1  0.59770137  0.93098625  0.73337812  1
  O2-  O246  1  0.92693807  0.26242905  0.23142073  1
  O2-  O247  1  0.92960100  0.26259407  0.72512345  1
  O2-  O248  1  0.93188187  0.59723472  0.23167649  1
  O2-  O249  1  0.92792085  0.59670762  0.73181657  1
  O2-  O250  1  0.92727377  0.92940532  0.22884962  1
  O2-  O251  1  0.92659390  0.92589302  0.72731630  1
  O2-  O252  1  0.09602459  0.23781310  0.26804487  1
  O2-  O253  1  0.09930502  0.23477306  0.76604711  1
  O2-  O254  1  0.09665107  0.57395063  0.27385844  1
  O2-  O255  1  0.09071791  0.57332391  0.76813529  1
  O2-  O256  1  0.09249570  0.90859048  0.27524610  1
  O2-  O257  1  0.09775253  0.90450370  0.76894083  1
  O2-  O258  1  0.42728935  0.23751814  0.27264854  1
  O2-  O259  1  0.42867007  0.23829303  0.77099694  1
  O2-  O260  1  0.43195203  0.56918394  0.26766106  1
  O2-  O261  1  0.43115525  0.57145654  0.76573681  1
  O2-  O262  1  0.43066639  0.90222013  0.26397096  1
  O2-  O263  1  0.42887988  0.90757887  0.77514368  1
  O2-  O264  1  0.75948425  0.23868862  0.27294474  1
  O2-  O265  1  0.76416257  0.23947977  0.76937182  1
  O2-  O266  1  0.76159105  0.57122647  0.27332009  1
  O2-  O267  1  0.76228183  0.57208880  0.77250849  1
  O2-  O268  1  0.76071101  0.90558563  0.27049885  1
  O2-  O269  1  0.75969366  0.90294222  0.77268486  1
  O2-  O270  1  0.07286478  0.07106952  0.48010994  1
  O2-  O271  1  0.06814020  0.07179588  0.98007463  1
  O2-  O272  1  0.07499199  0.41245154  0.48184968  1
  O2-  O273  1  0.07379263  0.40828204  0.98414834  1
  O2-  O274  1  0.07181229  0.74019808  0.47731522  1
  O2-  O275  1  0.07155159  0.73874826  0.98199842  1
  O2-  O276  1  0.40132213  0.06610998  0.48256058  1
  O2-  O277  1  0.40466318  0.07479543  0.97600285  1
  O2-  O278  1  0.40756792  0.40513542  0.47822363  1
  O2-  O279  1  0.40769230  0.40755701  0.97696804  1
  O2-  O280  1  0.40531838  0.73734289  0.47639079  1
  O2-  O281  1  0.41042063  0.74125441  0.98340833  1
  O2-  O282  1  0.73734622  0.07298052  0.47822773  1
  O2-  O283  1  0.73750432  0.07148778  0.97828934  1
  O2-  O284  1  0.73537422  0.40319266  0.48328676  1
  O2-  O285  1  0.73867809  0.40606222  0.97996046  1
  O2-  O286  1  0.73671877  0.73738946  0.48055686  1
  O2-  O287  1  0.73698743  0.73804122  0.97747702  1
  O2-  O288  1  0.09917553  0.23622504  0.48243478  1
  O2-  O289  1  0.09574700  0.23657937  0.98374134  1
  O2-  O290  1  0.09108504  0.57446623  0.47699799  1
  O2-  O291  1  0.09518583  0.57150145  0.98109176  1
  O2-  O292  1  0.09639692  0.90751951  0.47781173  1
  O2-  O293  1  0.09369148  0.90601518  0.97838520  1
  O2-  O294  1  0.43058067  0.23323857  0.47890508  1
  O2-  O295  1  0.42454159  0.24100014  0.97682150  1
  O2-  O296  1  0.43160755  0.57079312  0.48384134  1
  O2-  O297  1  0.43163335  0.56952663  0.98278917  1
  O2-  O298  1  0.43035293  0.90378473  0.48254164  1
  O2-  O299  1  0.42908807  0.90497785  0.97985262  1
  O2-  O300  1  0.76231881  0.23851474  0.48026736  1
  O2-  O301  1  0.76021960  0.23871008  0.97706703  1
  O2-  O302  1  0.76199079  0.57136106  0.47399140  1
  O2-  O303  1  0.76217951  0.57161161  0.97964536  1
  O2-  O304  1  0.75933882  0.90387364  0.48022944  1
  O2-  O305  1  0.76070455  0.90355357  0.97715316  1
  O2-  O306  1  0.07184802  0.07195558  0.26985220  1
  O2-  O307  1  0.06941314  0.06999188  0.77116697  1
  O2-  O308  1  0.07497492  0.40877004  0.27014788  1
  O2-  O309  1  0.07569215  0.41082182  0.76495642  1
  O2-  O310  1  0.07213952  0.73983069  0.27174033  1
  O2-  O311  1  0.07035477  0.73940042  0.76925687  1
  O2-  O312  1  0.40404239  0.06946583  0.27140425  1
  O2-  O313  1  0.40454388  0.07160551  0.77138929  1
  O2-  O314  1  0.40738289  0.40568008  0.27260546  1
  O2-  O315  1  0.40836183  0.40656428  0.77189316  1
  O2-  O316  1  0.40608309  0.73824507  0.27261399  1
  O2-  O317  1  0.40814679  0.73981917  0.76816740  1
  O2-  O318  1  0.73595372  0.07292030  0.27174931  1
  O2-  O319  1  0.73870273  0.07221051  0.77221347  1
  O2-  O320  1  0.73588190  0.40281661  0.26766355  1
  O2-  O321  1  0.73760221  0.40595526  0.76891999  1
  O2-  O322  1  0.73715367  0.73858800  0.26934728  1
  O2-  O323  1  0.73639695  0.73739402  0.77234179  1
  O2-  O324  1  0.23615602  0.09627977  0.23307032  1
  O2-  O325  1  0.23650127  0.09361674  0.72816544  1
  O2-  O326  1  0.23817014  0.42952487  0.23652449  1
  O2-  O327  1  0.23806595  0.42684822  0.73020259  1
  O2-  O328  1  0.23843780  0.76024559  0.23661036  1
  O2-  O329  1  0.23574993  0.76198511  0.73330707  1
  O2-  O330  1  0.57163992  0.09507722  0.22677442  1
  O2-  O331  1  0.57011213  0.09428991  0.72954535  1
  O2-  O332  1  0.57398292  0.42998312  0.22942811  1
  O2-  O333  1  0.57432366  0.42937640  0.72818781  1
  O2-  O334  1  0.57055341  0.76112202  0.22679980  1
  O2-  O335  1  0.57208104  0.76222322  0.72660093  1
  O2-  O336  1  0.90400331  0.09576888  0.22783385  1
  O2-  O337  1  0.90585428  0.09732235  0.72886145  1
  O2-  O338  1  0.90536304  0.42675252  0.22654090  1
  O2-  O339  1  0.90261683  0.43120746  0.72999305  1
  O2-  O340  1  0.90370368  0.76123740  0.23051403  1
  O2-  O341  1  0.90124190  0.75934087  0.72898467  1
  O2-  O342  1  0.25890317  0.25897386  0.01649714  1
  O2-  O343  1  0.26620027  0.25978313  0.52208391  1
  O2-  O344  1  0.26181882  0.59174615  0.02399143  1
  O2-  O345  1  0.25516904  0.58835136  0.52024251  1
  O2-  O346  1  0.26178385  0.92580141  0.01080311  1
  O2-  O347  1  0.25907605  0.92635993  0.52251756  1
  O2-  O348  1  0.59845326  0.26278811  0.01540079  1
  O2-  O349  1  0.59593286  0.26254609  0.52313384  1
  O2-  O350  1  0.59437981  0.59315334  0.02293093  1
  O2-  O351  1  0.59779240  0.59605184  0.51738077  1
  O2-  O352  1  0.59727036  0.92800388  0.01991568  1
  O2-  O353  1  0.59628671  0.93162536  0.51659751  1
  O2-  O354  1  0.92927034  0.26320393  0.02073556  1
  O2-  O355  1  0.92729053  0.26206012  0.52231393  1
  O2-  O356  1  0.93241583  0.59632144  0.01839922  1
  O2-  O357  1  0.92840876  0.59820453  0.51725866  1
  O2-  O358  1  0.92560563  0.92880246  0.02215890  1
  O2-  O359  1  0.92772400  0.92753894  0.52116946  1
