# generated using pymatgen
data_Sr7Ca15Pr50Mn72O216
_symmetry_space_group_name_H-M   'P 1'
_cell_length_a   16.55529950
_cell_length_b   16.59746473
_cell_length_c   15.58898137
_cell_angle_alpha   90.00306776
_cell_angle_beta   90.00377331
_cell_angle_gamma   89.99993457
_symmetry_Int_Tables_number   1
_chemical_formula_structural   Sr7Ca15Pr50Mn72O216
_chemical_formula_sum   'Sr7 Ca15 Pr50 Mn72 O216'
_cell_volume   4283.47792512
_cell_formula_units_Z   1
loop_
 _symmetry_equiv_pos_site_id
 _symmetry_equiv_pos_as_xyz
  1  'x, y, z'
loop_
 _atom_type_symbol
 _atom_type_oxidation_number
  Sr2+  2.0
  Ca2+  2.0
  Pr3+  3.0
  Mn3.30+  3.3
  O2-  -2.0
loop_
 _atom_site_type_symbol
 _atom_site_label
 _atom_site_symmetry_multiplicity
 _atom_site_fract_x
 _atom_site_fract_y
 _atom_site_fract_z
 _atom_site_occupancy
  Sr2+  Sr0  1  0.16549682  0.82562315  0.37702184  1
  Sr2+  Sr1  1  0.83686462  0.17694329  0.62638017  1
  Sr2+  Sr2  1  0.83339839  0.84565489  0.12380111  1
  Sr2+  Sr3  1  -0.00005033  0.00879743  0.12513979  1
  Sr2+  Sr4  1  0.16578804  0.48921727  0.87404583  1
  Sr2+  Sr5  1  0.33398220  0.32194843  0.37578965  1
  Sr2+  Sr6  1  0.66690977  0.98945665  0.87532969  1
  Ca2+  Ca7  1  0.17200226  0.84791779  0.62467537  1
  Ca2+  Ca8  1  0.16412102  0.15245551  0.37476319  1
  Ca2+  Ca9  1  0.34146888  0.98097064  0.87391713  1
  Ca2+  Ca10  1  0.50513212  0.85113670  0.12166930  1
  Ca2+  Ca11  1  0.17226260  0.18312231  0.62369846  1
  Ca2+  Ca12  1  0.83592607  0.84852215  0.62642629  1
  Ca2+  Ca13  1  0.49568236  0.82060273  0.87356796  1
  Ca2+  Ca14  1  0.33020505  0.34513820  0.62558011  1
  Ca2+  Ca15  1  0.17225518  0.18263322  0.12626751  1
  Ca2+  Ca16  1  -0.00012874  0.34540781  0.62637822  1
  Ca2+  Ca17  1  0.32782718  0.68545355  0.62667048  1
  Ca2+  Ca18  1  0.33007051  0.34526435  0.12410926  1
  Ca2+  Ca19  1  0.50029536  0.84751472  0.62794111  1
  Ca2+  Ca20  1  0.67094862  0.31723293  0.87453882  1
  Ca2+  Ca21  1  0.66249582  0.01211724  0.12220882  1
  Pr3+  Pr22  1  0.32839819  0.01381680  0.12299865  1
  Pr3+  Pr23  1  0.82746578  0.82352304  0.87436270  1
  Pr3+  Pr24  1  0.16500573  0.48642186  0.37604243  1
  Pr3+  Pr25  1  0.66064653  0.68283691  0.12493155  1
  Pr3+  Pr26  1  0.00162542  0.01032359  0.62504507  1
  Pr3+  Pr27  1  0.16762787  0.82444594  0.87304846  1
  Pr3+  Pr28  1  0.33435524  0.65430039  0.37819302  1
  Pr3+  Pr29  1  0.33284737  0.98903725  0.37533546  1
  Pr3+  Pr30  1  0.66807772  0.65485199  0.37523223  1
  Pr3+  Pr31  1  1.00268600  0.65458940  0.87489733  1
  Pr3+  Pr32  1  0.83075981  0.15390708  0.87341386  1
  Pr3+  Pr33  1  0.50170440  0.17815017  0.62539795  1
  Pr3+  Pr34  1  0.66476946  0.65939964  0.87479391  1
  Pr3+  Pr35  1  0.33086103  0.68094725  0.12393678  1
  Pr3+  Pr36  1  0.49926586  0.51089115  0.62462989  1
  Pr3+  Pr37  1  1.00566167  0.32033045  0.87243870  1
  Pr3+  Pr38  1  0.16892088  0.84742080  0.12508805  1
  Pr3+  Pr39  1  0.33464314  0.32051140  0.87358147  1
  Pr3+  Pr40  1  1.00875211  0.31669792  0.37706869  1
  Pr3+  Pr41  1  0.49663290  0.48629214  0.87441012  1
  Pr3+  Pr42  1  0.82842515  0.48475630  0.87483068  1
  Pr3+  Pr43  1  0.66261182  0.68206390  0.62478433  1
  Pr3+  Pr44  1  0.00046582  0.34113122  0.12384595  1
  Pr3+  Pr45  1  0.66779783  0.98761835  0.37477862  1
  Pr3+  Pr46  1  0.66535556  0.34482565  0.62677833  1
  Pr3+  Pr47  1  0.49424827  0.15210476  0.37496351  1
  Pr3+  Pr48  1  0.33732168  0.65437593  0.87190313  1
  Pr3+  Pr49  1  0.17134402  0.51104528  0.12404052  1
  Pr3+  Pr50  1  -0.00323779  0.68150883  0.62589459  1
  Pr3+  Pr51  1  0.83419266  0.15266581  0.37718395  1
  Pr3+  Pr52  1  0.83627198  0.51217866  0.12489068  1
  Pr3+  Pr53  1  0.50215047  0.17737985  0.12468421  1
  Pr3+  Pr54  1  0.32782704  0.01115556  0.62680426  1
  Pr3+  Pr55  1  0.16612660  0.15486636  0.87441127  1
  Pr3+  Pr56  1  0.49408079  0.82233587  0.37588145  1
  Pr3+  Pr57  1  -0.00265784  0.67978514  0.12384986  1
  Pr3+  Pr58  1  0.83139304  0.82332580  0.37532058  1
  Pr3+  Pr59  1  0.83780709  0.50928706  0.62547431  1
  Pr3+  Pr60  1  0.66348678  0.34489270  0.12361110  1
  Pr3+  Pr61  1  1.00483467  0.65584480  0.37505457  1
  Pr3+  Pr62  1  0.49561699  0.48591843  0.37553258  1
  Pr3+  Pr63  1  0.49974644  0.51075919  0.12572803  1
  Pr3+  Pr64  1  1.00455399  0.98782053  0.37506646  1
  Pr3+  Pr65  1  0.66373086  0.01155726  0.62687196  1
  Pr3+  Pr66  1  0.66930194  0.31905602  0.37565166  1
  Pr3+  Pr67  1  0.83517272  0.17168529  0.12339610  1
  Pr3+  Pr68  1  0.99971606  0.98978919  0.87535031  1
  Pr3+  Pr69  1  0.49652268  0.14953961  0.87439992  1
  Pr3+  Pr70  1  0.83220189  0.48549388  0.37553213  1
  Pr3+  Pr71  1  0.17004199  0.51165399  0.62625173  1
  Mn3.30+  Mn72  1  0.16937939  0.00206290  -0.00191625  1
  Mn3.30+  Mn73  1  0.16658295  0.00159053  0.50165689  1
  Mn3.30+  Mn74  1  0.16939963  0.33252458  0.00020897  1
  Mn3.30+  Mn75  1  0.16822688  0.33069945  0.50233121  1
  Mn3.30+  Mn76  1  0.16696027  0.66778029  -0.00134384  1
  Mn3.30+  Mn77  1  0.16800068  0.66909082  0.50268495  1
  Mn3.30+  Mn78  1  0.49868107  -0.00300955  -0.00087020  1
  Mn3.30+  Mn79  1  0.49826823  -0.00158009  0.50213839  1
  Mn3.30+  Mn80  1  0.50025187  0.33152865  -0.00119282  1
  Mn3.30+  Mn81  1  0.49783880  0.33239971  0.50135314  1
  Mn3.30+  Mn82  1  0.49900426  0.66866925  -0.00027652  1
  Mn3.30+  Mn83  1  0.49801277  0.66855497  0.50277410  1
  Mn3.30+  Mn84  1  0.83124562  -0.00059848  0.00102484  1
  Mn3.30+  Mn85  1  0.83436247  -0.00090916  0.50173769  1
  Mn3.30+  Mn86  1  0.83219490  0.33123227  -0.00020277  1
  Mn3.30+  Mn87  1  0.83753212  0.33188999  0.50108233  1
  Mn3.30+  Mn88  1  0.83207633  0.66698680  -0.00045364  1
  Mn3.30+  Mn89  1  0.83362989  0.66796897  0.50105588  1
  Mn3.30+  Mn90  1  0.00348096  0.16548543  0.24854788  1
  Mn3.30+  Mn91  1  0.00257426  0.16749932  0.74739361  1
  Mn3.30+  Mn92  1  0.00090187  0.49858712  0.24931640  1
  Mn3.30+  Mn93  1  0.00098354  0.49905429  0.74994844  1
  Mn3.30+  Mn94  1  -0.00067814  0.83399078  0.24982917  1
  Mn3.30+  Mn95  1  -0.00009463  0.83440859  0.74891420  1
  Mn3.30+  Mn96  1  0.33055017  0.16819501  0.25018395  1
  Mn3.30+  Mn97  1  0.33184522  0.16571713  0.74872335  1
  Mn3.30+  Mn98  1  0.33319228  0.49869800  0.24979568  1
  Mn3.30+  Mn99  1  0.33314513  0.49899661  0.74845389  1
  Mn3.30+  Mn100  1  0.33474441  0.83418356  0.24906082  1
  Mn3.30+  Mn101  1  0.33424279  0.83331752  0.74860750  1
  Mn3.30+  Mn102  1  0.66658855  0.16462366  0.24991720  1
  Mn3.30+  Mn103  1  0.66676182  0.16747896  0.75050374  1
  Mn3.30+  Mn104  1  0.66674358  0.49977022  0.25034050  1
  Mn3.30+  Mn105  1  0.66626499  0.50020626  0.75057850  1
  Mn3.30+  Mn106  1  0.66340043  0.83587418  0.24847739  1
  Mn3.30+  Mn107  1  0.66373977  0.83453205  0.74906054  1
  Mn3.30+  Mn108  1  0.16650749  0.00351136  0.24864043  1
  Mn3.30+  Mn109  1  0.16910100  0.00035994  0.75198576  1
  Mn3.30+  Mn110  1  0.16943564  0.33050341  0.24993986  1
  Mn3.30+  Mn111  1  0.16796159  0.33274752  0.74703107  1
  Mn3.30+  Mn112  1  0.16713597  0.66779716  0.25056562  1
  Mn3.30+  Mn113  1  0.16791536  0.66890702  0.74833117  1
  Mn3.30+  Mn114  1  0.49992570  -0.00089713  0.24742566  1
  Mn3.30+  Mn115  1  0.49709591  -0.00401881  0.75080523  1
  Mn3.30+  Mn116  1  0.49788753  0.33196588  0.24882295  1
  Mn3.30+  Mn117  1  0.50056338  0.33201599  0.75075303  1
  Mn3.30+  Mn118  1  0.49879308  0.66840756  0.25022794  1
  Mn3.30+  Mn119  1  0.49789832  0.66923741  0.74658175  1
  Mn3.30+  Mn120  1  0.83285443  -0.00043733  0.24897387  1
  Mn3.30+  Mn121  1  0.83299666  -0.00098432  0.74830577  1
  Mn3.30+  Mn122  1  0.83464390  0.33040536  0.25023453  1
  Mn3.30+  Mn123  1  0.83501843  0.33245918  0.74974436  1
  Mn3.30+  Mn124  1  0.83299935  0.66741065  0.25032766  1
  Mn3.30+  Mn125  1  0.83238014  0.66763447  0.74883218  1
  Mn3.30+  Mn126  1  0.00245587  0.16597080  0.00117937  1
  Mn3.30+  Mn127  1  0.00432289  0.16717485  0.50306716  1
  Mn3.30+  Mn128  1  0.00064189  0.49859508  -0.00019266  1
  Mn3.30+  Mn129  1  0.00117956  0.49899577  0.50099451  1
  Mn3.30+  Mn130  1  -0.00128723  0.83450393  -0.00183221  1
  Mn3.30+  Mn131  1  0.00058923  0.83380269  0.50321659  1
  Mn3.30+  Mn132  1  0.33269919  0.16645437  -0.00015218  1
  Mn3.30+  Mn133  1  0.32984944  0.16768196  0.50045219  1
  Mn3.30+  Mn134  1  0.33356817  0.49833436  -0.00084258  1
  Mn3.30+  Mn135  1  0.33249785  0.49947191  0.50276474  1
  Mn3.30+  Mn136  1  0.33724260  0.83418267  -0.00043112  1
  Mn3.30+  Mn137  1  0.33200805  0.83338083  0.50272121  1
  Mn3.30+  Mn138  1  0.66621398  0.16558635  -0.00065824  1
  Mn3.30+  Mn139  1  0.66662329  0.16644993  0.50084909  1
  Mn3.30+  Mn140  1  0.66574906  0.50005215  -0.00077929  1
  Mn3.30+  Mn141  1  0.66703654  0.49983820  0.50035939  1
  Mn3.30+  Mn142  1  0.66206905  0.83598732  -0.00044799  1
  Mn3.30+  Mn143  1  0.66518774  0.83427402  0.50192098  1
  O2-  O144  1  0.02738229  0.16710260  0.12426248  1
  O2-  O145  1  0.03067563  0.15677725  0.62598187  1
  O2-  O146  1  0.02640521  0.49239354  0.12455029  1
  O2-  O147  1  0.02400643  0.49386535  0.62412776  1
  O2-  O148  1  0.02428441  0.82781309  0.12172147  1
  O2-  O149  1  0.02891752  0.82908117  0.62677521  1
  O2-  O150  1  0.35989140  0.15967673  0.12352508  1
  O2-  O151  1  0.35991482  0.15784914  0.62603906  1
  O2-  O152  1  0.35638324  0.49472977  0.12298277  1
  O2-  O153  1  0.35702079  0.49025722  0.62519029  1
  O2-  O154  1  0.36099205  0.82775565  0.12445157  1
  O2-  O155  1  0.35858653  0.83182331  0.62509653  1
  O2-  O156  1  0.69022861  0.16092020  0.12670152  1
  O2-  O157  1  0.68528416  0.16180362  0.62438632  1
  O2-  O158  1  0.69277144  0.49406568  0.12566729  1
  O2-  O159  1  0.69362703  0.49367751  0.62531034  1
  O2-  O160  1  0.68593537  0.82683543  0.12605828  1
  O2-  O161  1  0.69430757  0.82845388  0.62352829  1
  O2-  O162  1  0.14340431  0.32962436  0.12523435  1
  O2-  O163  1  0.14025390  0.32846511  0.62455277  1
  O2-  O164  1  0.14212215  0.66116808  0.12272419  1
  O2-  O165  1  0.13966596  0.65916789  0.62507264  1
  O2-  O166  1  0.14944156  0.99308388  0.12252714  1
  O2-  O167  1  0.14460476  0.99044173  0.62945643  1
  O2-  O168  1  0.47384894  0.32659376  0.12267756  1
  O2-  O169  1  0.47412496  0.32710149  0.62553657  1
  O2-  O170  1  0.47350345  0.65693983  0.12740036  1
  O2-  O171  1  0.47043511  0.65662751  0.62375950  1
  O2-  O172  1  0.47237327  0.99654429  0.12331288  1
  O2-  O173  1  0.47311200  0.99520782  0.62628962  1
  O2-  O174  1  0.80652873  0.32283474  0.12680887  1
  O2-  O175  1  0.80921713  0.33617591  0.62580764  1
  O2-  O176  1  0.80570423  0.65948664  0.12681884  1
  O2-  O177  1  0.80607485  0.65595587  0.62556899  1
  O2-  O178  1  0.80734395  1.00444756  0.12626494  1
  O2-  O179  1  0.80816200  0.99442755  0.62335746  1
  O2-  O180  1  0.30736536  0.16645908  0.37605376  1
  O2-  O181  1  0.30918217  0.17477100  0.87381248  1
  O2-  O182  1  0.30914222  0.50654396  0.37799465  1
  O2-  O183  1  0.31513372  0.50538074  0.87383132  1
  O2-  O184  1  0.31483119  0.83907644  0.37571514  1
  O2-  O185  1  0.31063529  0.83394519  0.87476013  1
  O2-  O186  1  0.63977591  0.17143803  0.37592801  1
  O2-  O187  1  0.64194371  0.17280976  0.87393162  1
  O2-  O188  1  0.64002366  0.50508323  0.37539459  1
  O2-  O189  1  0.63913926  0.51084791  0.87398923  1
  O2-  O190  1  0.63754035  0.83921418  0.37537634  1
  O2-  O191  1  0.63910120  0.83009298  0.87413243  1
  O2-  O192  1  0.97745768  0.17064896  0.37593709  1
  O2-  O193  1  0.97584076  0.17289041  0.87383954  1
  O2-  O194  1  0.97574064  0.50749777  0.37429864  1
  O2-  O195  1  0.97368498  0.50562972  0.87653340  1
  O2-  O196  1  0.97624830  0.83629347  0.37806144  1
  O2-  O197  1  0.97229039  0.83855910  0.87356273  1
  O2-  O198  1  0.18919826  0.00628450  0.37287481  1
  O2-  O199  1  0.19852948  0.00717253  0.87556101  1
  O2-  O200  1  0.18595699  0.34060853  0.37578133  1
  O2-  O201  1  0.19079297  0.33376423  0.87400651  1
  O2-  O202  1  0.19045663  0.66896704  0.37851764  1
  O2-  O203  1  0.19301896  0.67498067  0.87432546  1
  O2-  O204  1  0.52307398  0.00446691  0.37549568  1
  O2-  O205  1  0.51894195  0.00436813  0.87490467  1
  O2-  O206  1  0.52556107  0.33772965  0.37601486  1
  O2-  O207  1  0.52936581  0.33873703  0.87534307  1
  O2-  O208  1  0.52483514  0.67416645  0.37615213  1
  O2-  O209  1  0.52133672  0.67285618  0.87148747  1
  O2-  O210  1  0.85875003  0.00321231  0.37733330  1
  O2-  O211  1  0.85486736  0.00319758  0.87373908  1
  O2-  O212  1  0.86279456  0.33769178  0.37390194  1
  O2-  O213  1  0.86084959  0.33755604  0.87422275  1
  O2-  O214  1  0.85956401  0.67405370  0.37512089  1
  O2-  O215  1  0.85782420  0.67437174  0.87240274  1
  O2-  O216  1  0.23765993  0.09876325  0.02147160  1
  O2-  O217  1  0.23941453  0.09432432  0.52419959  1
  O2-  O218  1  0.23808523  0.42778412  0.01868579  1
  O2-  O219  1  0.23460295  0.42924853  0.51766765  1
  O2-  O220  1  0.23892577  0.76291143  0.02087375  1
  O2-  O221  1  0.23833741  0.76348915  0.52239383  1
  O2-  O222  1  0.56851071  0.09459097  0.01612687  1
  O2-  O223  1  0.56921199  0.09206393  0.52040449  1
  O2-  O224  1  0.57098599  0.42815442  0.02218393  1
  O2-  O225  1  0.57395335  0.42715506  0.52170984  1
  O2-  O226  1  0.57042207  0.75986316  0.02249079  1
  O2-  O227  1  0.56983928  0.76256537  0.52297656  1
  O2-  O228  1  0.90643057  0.09558267  0.01429886  1
  O2-  O229  1  0.91023253  0.09391507  0.51774702  1
  O2-  O230  1  0.90240715  0.42521132  0.02177844  1
  O2-  O231  1  0.90375234  0.43132051  0.51543561  1
  O2-  O232  1  0.90703125  0.75532515  0.01784706  1
  O2-  O233  1  0.90408660  0.76295218  0.52359250  1
  O2-  O234  1  0.26421606  0.26342359  0.22773953  1
  O2-  O235  1  0.26542744  0.26417432  0.73128161  1
  O2-  O236  1  0.26174155  0.59481932  0.23003434  1
  O2-  O237  1  0.26061216  0.59685163  0.72932624  1
  O2-  O238  1  0.26142951  0.92835930  0.23090945  1
  O2-  O239  1  0.26354403  0.92805274  0.73409936  1
  O2-  O240  1  0.59591845  0.26133573  0.23015985  1
  O2-  O241  1  0.59283170  0.26077723  0.72756111  1
  O2-  O242  1  0.59237058  0.59756209  0.23078229  1
  O2-  O243  1  0.59410446  0.59527971  0.72744826  1
  O2-  O244  1  0.59715919  0.93302808  0.23134463  1
  O2-  O245  1  0.59456053  0.92756316  0.72779798  1
  O2-  O246  1  0.92920849  0.25921064  0.22962599  1
  O2-  O247  1  0.93292859  0.26412307  0.73118959  1
  O2-  O248  1  0.92883456  0.59203025  0.22784468  1
  O2-  O249  1  0.92665864  0.59488903  0.72997019  1
  O2-  O250  1  0.92460290  0.92712280  0.23705259  1
  O2-  O251  1  0.92963672  0.92787639  0.73065583  1
  O2-  O252  1  0.09626739  0.23923126  0.27154259  1
  O2-  O253  1  0.09634768  0.23938474  0.77143987  1
  O2-  O254  1  0.09638601  0.57249080  0.26937583  1
  O2-  O255  1  0.09176124  0.57662344  0.76790896  1
  O2-  O256  1  0.09191631  0.90837059  0.26493413  1
  O2-  O257  1  0.09371302  0.91017443  0.77654979  1
  O2-  O258  1  0.42998138  0.23461734  0.26768408  1
  O2-  O259  1  0.42960883  0.23622336  0.77082322  1
  O2-  O260  1  0.42822720  0.57283621  0.27182377  1
  O2-  O261  1  0.43030759  0.57094512  0.76817994  1
  O2-  O262  1  0.42863586  0.90753684  0.27057797  1
  O2-  O263  1  0.42963939  0.90078626  0.76928887  1
  O2-  O264  1  0.76290177  0.23845593  0.27357981  1
  O2-  O265  1  0.76348359  0.24159397  0.76892898  1
  O2-  O266  1  0.76139026  0.57234660  0.27253463  1
  O2-  O267  1  0.76085170  0.57275295  0.77223396  1
  O2-  O268  1  0.75857701  0.90672484  0.27382044  1
  O2-  O269  1  0.75988491  0.90309851  0.76752422  1
  O2-  O270  1  0.07091890  0.07053825  0.48279619  1
  O2-  O271  1  0.07377159  0.07453626  0.97486512  1
  O2-  O272  1  0.07213820  0.40627436  0.47904454  1
  O2-  O273  1  0.06975841  0.40324831  0.98319663  1
  O2-  O274  1  0.06801252  0.73541344  0.48471655  1
  O2-  O275  1  0.07359301  0.74102302  0.97770474  1
  O2-  O276  1  0.40393578  0.07194622  0.48013389  1
  O2-  O277  1  0.40238821  0.06909772  0.97933036  1
  O2-  O278  1  0.41150870  0.40835791  0.48100823  1
  O2-  O279  1  0.40917910  0.40389647  0.97702161  1
  O2-  O280  1  0.40483540  0.73974944  0.47873861  1
  O2-  O281  1  0.40056406  0.73401680  0.98317253  1
  O2-  O282  1  0.73953881  0.07268362  0.48003548  1
  O2-  O283  1  0.74261351  0.07671039  0.98029300  1
  O2-  O284  1  0.73970225  0.40515832  0.47795239  1
  O2-  O285  1  0.73660902  0.40529148  0.97856760  1
  O2-  O286  1  0.73544147  0.73987011  0.47803729  1
  O2-  O287  1  0.73625571  0.73970845  0.98096601  1
  O2-  O288  1  0.09840372  0.23699954  0.47764358  1
  O2-  O289  1  0.09491645  0.24064612  0.97842470  1
  O2-  O290  1  0.09444524  0.57099871  0.48044938  1
  O2-  O291  1  0.09220491  0.57703399  0.98132751  1
  O2-  O292  1  0.09014497  0.90973168  0.48222019  1
  O2-  O293  1  0.09555111  0.90836449  0.97822463  1
  O2-  O294  1  0.43081373  0.23473082  0.48341891  1
  O2-  O295  1  0.42936358  0.23582369  0.97733585  1
  O2-  O296  1  0.42909114  0.57309916  0.47857187  1
  O2-  O297  1  0.42972431  0.57153209  0.98075015  1
  O2-  O298  1  0.42714772  0.90716031  0.48007101  1
  O2-  O299  1  0.43101874  0.90088312  0.97957676  1
  O2-  O300  1  0.76284500  0.24121023  0.47862053  1
  O2-  O301  1  0.76312938  0.23828130  0.98077934  1
  O2-  O302  1  0.76093438  0.57202432  0.47733633  1
  O2-  O303  1  0.76103905  0.57313919  0.97881692  1
  O2-  O304  1  0.75817426  0.90585053  0.47650400  1
  O2-  O305  1  0.75910627  0.90367212  0.98099452  1
  O2-  O306  1  0.07124606  0.07245656  0.26990903  1
  O2-  O307  1  0.07458747  0.07259388  0.77346510  1
  O2-  O308  1  0.07119903  0.40450032  0.26903492  1
  O2-  O309  1  0.07175607  0.40462015  0.76767170  1
  O2-  O310  1  0.07076187  0.73647937  0.26534065  1
  O2-  O311  1  0.07030967  0.74009178  0.77171406  1
  O2-  O312  1  0.40384060  0.07138415  0.26918891  1
  O2-  O313  1  0.40287299  0.06943422  0.77019918  1
  O2-  O314  1  0.40931553  0.40957575  0.26834461  1
  O2-  O315  1  0.40983966  0.40407631  0.77190605  1
  O2-  O316  1  0.40392764  0.73654476  0.27154059  1
  O2-  O317  1  0.40130705  0.73615432  0.76605211  1
  O2-  O318  1  0.74100623  0.07390915  0.27555471  1
  O2-  O319  1  0.74189115  0.07565852  0.76571659  1
  O2-  O320  1  0.74161058  0.40292051  0.27157166  1
  O2-  O321  1  0.73738671  0.40582420  0.77288974  1
  O2-  O322  1  0.73554300  0.74067110  0.27132142  1
  O2-  O323  1  0.73642329  0.73806752  0.76916399  1
  O2-  O324  1  0.23970562  0.09578730  0.22648349  1
  O2-  O325  1  0.23689470  0.09737118  0.72765128  1
  O2-  O326  1  0.23562509  0.42992339  0.23365653  1
  O2-  O327  1  0.23805701  0.42709101  0.73019362  1
  O2-  O328  1  0.23969887  0.76035177  0.22721315  1
  O2-  O329  1  0.23510246  0.76590551  0.73113267  1
  O2-  O330  1  0.56799498  0.09494165  0.23274670  1
  O2-  O331  1  0.56972071  0.09204013  0.73174662  1
  O2-  O332  1  0.57341681  0.42695623  0.22901770  1
  O2-  O333  1  0.57214951  0.42826965  0.72782809  1
  O2-  O334  1  0.56791617  0.76367076  0.22968372  1
  O2-  O335  1  0.57161896  0.75966934  0.72351566  1
  O2-  O336  1  0.90393854  0.09651437  0.23527937  1
  O2-  O337  1  0.91177799  0.09186610  0.73315423  1
  O2-  O338  1  0.90389700  0.42556462  0.22780634  1
  O2-  O339  1  0.90203279  0.43047804  0.73487863  1
  O2-  O340  1  0.90713419  0.75789450  0.23137679  1
  O2-  O341  1  0.90276619  0.76032793  0.72687749  1
  O2-  O342  1  0.26591996  0.26473579  0.01709958  1
  O2-  O343  1  0.26421329  0.26313711  0.52320510  1
  O2-  O344  1  0.26016946  0.59548518  0.01954257  1
  O2-  O345  1  0.26103830  0.59682728  0.52359519  1
  O2-  O346  1  0.26285010  0.92522416  0.01956043  1
  O2-  O347  1  0.26261979  0.93029966  0.51560570  1
  O2-  O348  1  0.59364012  0.25983921  0.02303623  1
  O2-  O349  1  0.59489764  0.26249095  0.52000368  1
  O2-  O350  1  0.59384024  0.59532347  0.02084050  1
  O2-  O351  1  0.59374628  0.59578188  0.52058839  1
  O2-  O352  1  0.59478145  0.92969164  0.02190783  1
  O2-  O353  1  0.59664346  0.92982326  0.51909865  1
  O2-  O354  1  0.92883758  0.25892187  0.02031869  1
  O2-  O355  1  0.93583989  0.26345525  0.51869137  1
  O2-  O356  1  0.92669334  0.59148176  0.02131578  1
  O2-  O357  1  0.93016654  0.59398051  0.52057482  1
  O2-  O358  1  0.92567719  0.92776922  0.01309856  1
  O2-  O359  1  0.92853932  0.92749894  0.52042294  1
