# generated using pymatgen
data_Sr7Ca15Pr50Mn72O216
_symmetry_space_group_name_H-M   'P 1'
_cell_length_a   16.55927374
_cell_length_b   16.60644285
_cell_length_c   15.59326061
_cell_angle_alpha   90.00024785
_cell_angle_beta   90.00336358
_cell_angle_gamma   90.00165979
_symmetry_Int_Tables_number   1
_chemical_formula_structural   Sr7Ca15Pr50Mn72O216
_chemical_formula_sum   'Sr7 Ca15 Pr50 Mn72 O216'
_cell_volume   4288.00059736
_cell_formula_units_Z   1
loop_
 _symmetry_equiv_pos_site_id
 _symmetry_equiv_pos_as_xyz
  1  'x, y, z'
loop_
 _atom_type_symbol
 _atom_type_oxidation_number
  Sr2+  2.0
  Ca2+  2.0
  Pr3+  3.0
  Mn3.30+  3.3
  O2-  -2.0
loop_
 _atom_site_type_symbol
 _atom_site_label
 _atom_site_symmetry_multiplicity
 _atom_site_fract_x
 _atom_site_fract_y
 _atom_site_fract_z
 _atom_site_occupancy
  Sr2+  Sr0  1  0.33582224  0.34268852  0.12465159  1
  Sr2+  Sr1  1  0.83202370  0.82123525  0.37349287  1
  Sr2+  Sr2  1  0.50306493  0.51002678  0.12549754  1
  Sr2+  Sr3  1  0.50333236  0.84290401  0.12371810  1
  Sr2+  Sr4  1  0.83196774  0.51303581  0.62598117  1
  Sr2+  Sr5  1  0.16407270  0.49130836  0.87595366  1
  Sr2+  Sr6  1  0.67015693  0.98817617  0.87702910  1
  Ca2+  Ca7  1  0.33266465  0.01397782  0.12394316  1
  Ca2+  Ca8  1  0.66258600  0.01501798  0.12380399  1
  Ca2+  Ca9  1  0.83276384  0.51662948  0.12491177  1
  Ca2+  Ca10  1  0.82904522  0.81700965  0.87618897  1
  Ca2+  Ca11  1  0.49849072  0.48607107  0.87883001  1
  Ca2+  Ca12  1  0.66481140  0.68022990  0.12585746  1
  Ca2+  Ca13  1  1.00017021  0.65256284  0.87512126  1
  Ca2+  Ca14  1  1.00115667  0.98333953  0.37213531  1
  Ca2+  Ca15  1  0.66775131  0.32057332  0.87836829  1
  Ca2+  Ca16  1  0.66697183  0.68090548  0.62453140  1
  Ca2+  Ca17  1  0.50245606  0.17932465  0.12436729  1
  Ca2+  Ca18  1  0.16206572  0.81520771  0.87575613  1
  Ca2+  Ca19  1  0.83297369  0.17993936  0.12304743  1
  Ca2+  Ca20  1  0.67071200  0.65425522  0.37001357  1
  Ca2+  Ca21  1  0.50162960  0.48885830  0.37117292  1
  Pr3+  Pr22  1  0.16390102  0.48692591  0.37440239  1
  Pr3+  Pr23  1  0.83211399  0.84226753  0.12349919  1
  Pr3+  Pr24  1  0.66705465  0.32377725  0.37300060  1
  Pr3+  Pr25  1  -0.00700127  0.34851766  0.12424108  1
  Pr3+  Pr26  1  0.33056347  0.01328066  0.62557643  1
  Pr3+  Pr27  1  0.99890350  0.65540354  0.37467407  1
  Pr3+  Pr28  1  1.00193034  0.32208212  0.87538165  1
  Pr3+  Pr29  1  0.16793392  0.84622797  0.62796953  1
  Pr3+  Pr30  1  0.66930241  0.98624006  0.37187573  1
  Pr3+  Pr31  1  0.33612835  0.32359479  0.87835576  1
  Pr3+  Pr32  1  0.33723351  0.98599626  0.37201492  1
  Pr3+  Pr33  1  0.33196202  0.34756620  0.62519573  1
  Pr3+  Pr34  1  0.16485539  0.15598397  0.87765679  1
  Pr3+  Pr35  1  0.16220105  0.82162965  0.37454191  1
  Pr3+  Pr36  1  0.17339654  0.84668212  0.12253828  1
  Pr3+  Pr37  1  0.82929840  0.15279201  0.37180693  1
  Pr3+  Pr38  1  0.49990514  0.81918744  0.37272481  1
  Pr3+  Pr39  1  0.17040140  0.17955188  0.12478527  1
  Pr3+  Pr40  1  1.00075346  0.32076556  0.37453268  1
  Pr3+  Pr41  1  0.34030976  0.65181306  0.37413376  1
  Pr3+  Pr42  1  -0.00430173  0.01027137  0.62350404  1
  Pr3+  Pr43  1  -0.00534081  0.34819871  0.62583587  1
  Pr3+  Pr44  1  0.33123889  0.68028381  0.62641571  1
  Pr3+  Pr45  1  0.66198734  0.34480345  0.12339379  1
  Pr3+  Pr46  1  0.50488766  0.84522095  0.62602818  1
  Pr3+  Pr47  1  0.66956044  0.65713405  0.87795196  1
  Pr3+  Pr48  1  0.33840898  0.65137988  0.87620614  1
  Pr3+  Pr49  1  1.00189422  0.98450951  0.87733466  1
  Pr3+  Pr50  1  0.83387835  0.84160674  0.62633820  1
  Pr3+  Pr51  1  0.50037618  0.82059754  0.87742360  1
  Pr3+  Pr52  1  0.66627555  0.01135696  0.62509224  1
  Pr3+  Pr53  1  0.16897620  0.17952233  0.62541302  1
  Pr3+  Pr54  1  0.83513900  0.17891755  0.62583843  1
  Pr3+  Pr55  1  0.33331888  0.67539818  0.12335476  1
  Pr3+  Pr56  1  -0.00545575  0.01392433  0.12613688  1
  Pr3+  Pr57  1  0.16897054  0.51437071  0.62710054  1
  Pr3+  Pr58  1  0.50377563  0.18053870  0.62502704  1
  Pr3+  Pr59  1  0.66324084  0.34861997  0.62665710  1
  Pr3+  Pr60  1  0.82844545  0.49147357  0.37381292  1
  Pr3+  Pr61  1  0.82666349  0.15511637  0.87821939  1
  Pr3+  Pr62  1  0.50064617  0.15639495  0.87963875  1
  Pr3+  Pr63  1  0.50761030  0.51628583  0.62521041  1
  Pr3+  Pr64  1  -0.00232498  0.67696869  0.12215265  1
  Pr3+  Pr65  1  0.33827154  0.98712776  0.87796972  1
  Pr3+  Pr66  1  -0.00464317  0.67831374  0.62797935  1
  Pr3+  Pr67  1  0.33763048  0.32170060  0.37209881  1
  Pr3+  Pr68  1  0.16168262  0.14992887  0.37234986  1
  Pr3+  Pr69  1  0.17225238  0.51218763  0.12282555  1
  Pr3+  Pr70  1  0.82929766  0.48752221  0.87659206  1
  Pr3+  Pr71  1  0.49733678  0.15429525  0.37070636  1
  Mn3.30+  Mn72  1  0.16767482  -0.00120634  -0.00016691  1
  Mn3.30+  Mn73  1  0.16496569  -0.00109611  0.49931796  1
  Mn3.30+  Mn74  1  0.16592394  0.33426926  0.00045914  1
  Mn3.30+  Mn75  1  0.16633451  0.33315043  0.49989949  1
  Mn3.30+  Mn76  1  0.16446247  0.66697192  -0.00280081  1
  Mn3.30+  Mn77  1  0.16743834  0.66723704  0.50017255  1
  Mn3.30+  Mn78  1  0.50225459  0.00050537  0.00344671  1
  Mn3.30+  Mn79  1  0.50017848  -0.00026087  0.49919277  1
  Mn3.30+  Mn80  1  0.50249523  0.33373278  -0.00019708  1
  Mn3.30+  Mn81  1  0.49965012  0.33570643  0.49873836  1
  Mn3.30+  Mn82  1  0.50372876  0.66508045  0.00168879  1
  Mn3.30+  Mn83  1  0.50384094  0.66608202  0.49834360  1
  Mn3.30+  Mn84  1  0.83125232  -0.00090552  0.00214101  1
  Mn3.30+  Mn85  1  0.83384988  -0.00205749  0.49732363  1
  Mn3.30+  Mn86  1  0.83074012  0.33424416  0.00161657  1
  Mn3.30+  Mn87  1  0.83249723  0.33451922  0.49921801  1
  Mn3.30+  Mn88  1  0.83339782  0.66659793  0.00007191  1
  Mn3.30+  Mn89  1  0.83000437  0.66714952  0.50020653  1
  Mn3.30+  Mn90  1  -0.00272120  0.16578318  0.24914103  1
  Mn3.30+  Mn91  1  -0.00072574  0.16519967  0.75059069  1
  Mn3.30+  Mn92  1  -0.00225108  0.50075718  0.24867329  1
  Mn3.30+  Mn93  1  -0.00122251  0.50162832  0.75158568  1
  Mn3.30+  Mn94  1  0.00048073  0.83322098  0.24802892  1
  Mn3.30+  Mn95  1  -0.00002907  0.83106390  0.75488073  1
  Mn3.30+  Mn96  1  0.33338017  0.16533752  0.24744358  1
  Mn3.30+  Mn97  1  0.33397900  0.16764523  0.75114629  1
  Mn3.30+  Mn98  1  0.33545364  0.49944914  0.24945603  1
  Mn3.30+  Mn99  1  0.33662660  0.49988753  0.75084167  1
  Mn3.30+  Mn100  1  0.33409289  0.83354762  0.24767938  1
  Mn3.30+  Mn101  1  0.33257387  0.83301095  0.75301074  1
  Mn3.30+  Mn102  1  0.66565893  0.16614048  0.24684371  1
  Mn3.30+  Mn103  1  0.66723636  0.16786474  0.75121808  1
  Mn3.30+  Mn104  1  0.66672241  0.50282704  0.24804470  1
  Mn3.30+  Mn105  1  0.66494387  0.50184028  0.75308457  1
  Mn3.30+  Mn106  1  0.66657286  0.83224635  0.24820278  1
  Mn3.30+  Mn107  1  0.66894729  0.83264844  0.75131336  1
  Mn3.30+  Mn108  1  0.16657852  -0.00136684  0.24790825  1
  Mn3.30+  Mn109  1  0.16609684  -0.00077318  0.75283348  1
  Mn3.30+  Mn110  1  0.16626699  0.33304691  0.24943978  1
  Mn3.30+  Mn111  1  0.16624097  0.33446963  0.75024395  1
  Mn3.30+  Mn112  1  0.16732802  0.66672676  0.25032572  1
  Mn3.30+  Mn113  1  0.16490929  0.66727462  0.75265387  1
  Mn3.30+  Mn114  1  0.50139892  0.00037956  0.24487856  1
  Mn3.30+  Mn115  1  0.50085342  0.00042763  0.75209292  1
  Mn3.30+  Mn116  1  0.50116033  0.33420876  0.24870859  1
  Mn3.30+  Mn117  1  0.50078032  0.33504728  0.75286337  1
  Mn3.30+  Mn118  1  0.50476896  0.66521491  0.24954295  1
  Mn3.30+  Mn119  1  0.50229017  0.66617212  0.75051092  1
  Mn3.30+  Mn120  1  0.83191384  -0.00070172  0.24754627  1
  Mn3.30+  Mn121  1  0.83363996  -0.00242365  0.75199396  1
  Mn3.30+  Mn122  1  0.83206447  0.33422187  0.24801209  1
  Mn3.30+  Mn123  1  0.83103329  0.33416081  0.75183769  1
  Mn3.30+  Mn124  1  0.83053370  0.66652843  0.24759130  1
  Mn3.30+  Mn125  1  0.83292437  0.66731988  0.75203777  1
  Mn3.30+  Mn126  1  -0.00309382  0.16688809  0.00157268  1
  Mn3.30+  Mn127  1  -0.00046284  0.16414914  0.49844682  1
  Mn3.30+  Mn128  1  -0.00188222  0.50149133  0.00037059  1
  Mn3.30+  Mn129  1  -0.00154876  0.50113317  0.49999872  1
  Mn3.30+  Mn130  1  0.00097717  0.83135656  -0.00192745  1
  Mn3.30+  Mn131  1  -0.00047686  0.83285301  0.49904176  1
  Mn3.30+  Mn132  1  0.33422960  0.16600128  0.00277404  1
  Mn3.30+  Mn133  1  0.33289434  0.16680375  0.49851946  1
  Mn3.30+  Mn134  1  0.33574697  0.49897163  -0.00028333  1
  Mn3.30+  Mn135  1  0.33624258  0.50030860  0.49994580  1
  Mn3.30+  Mn136  1  0.33292770  0.83319786  -0.00050013  1
  Mn3.30+  Mn137  1  0.33374584  0.83322824  0.50002457  1
  Mn3.30+  Mn138  1  0.66669892  0.16640924  0.00276081  1
  Mn3.30+  Mn139  1  0.66651885  0.16741062  0.49862998  1
  Mn3.30+  Mn140  1  0.66631561  0.50064677  0.00027162  1
  Mn3.30+  Mn141  1  0.66545729  0.50422460  0.49874004  1
  Mn3.30+  Mn142  1  0.66799449  0.83398574  0.00060073  1
  Mn3.30+  Mn143  1  0.66759239  0.83054022  0.49909654  1
  O2-  O144  1  0.02642151  0.16221809  0.12638772  1
  O2-  O145  1  0.02653040  0.15749707  0.62401148  1
  O2-  O146  1  0.02744132  0.49581185  0.12555849  1
  O2-  O147  1  0.02442172  0.49576204  0.62314468  1
  O2-  O148  1  0.02932823  0.82517564  0.12230711  1
  O2-  O149  1  0.02487240  0.82704864  0.62913535  1
  O2-  O150  1  0.35832634  0.15960342  0.12554421  1
  O2-  O151  1  0.35916129  0.16130319  0.62399733  1
  O2-  O152  1  0.35091570  0.50312309  0.12566448  1
  O2-  O153  1  0.36246950  0.49562514  0.62535844  1
  O2-  O154  1  0.35272006  0.82274541  0.12418427  1
  O2-  O155  1  0.35982639  0.82870588  0.62788413  1
  O2-  O156  1  0.69239797  0.16241276  0.12646526  1
  O2-  O157  1  0.69069381  0.16127523  0.62320345  1
  O2-  O158  1  0.69357434  0.48981810  0.12286128  1
  O2-  O159  1  0.68391612  0.49302565  0.62721044  1
  O2-  O160  1  0.68906492  0.82498621  0.12449333  1
  O2-  O161  1  0.68922403  0.82900212  0.62476544  1
  O2-  O162  1  0.13857738  0.32787248  0.12618503  1
  O2-  O163  1  0.13938810  0.32678430  0.62441371  1
  O2-  O164  1  0.14358499  0.66069649  0.12375824  1
  O2-  O165  1  0.14197814  0.66268803  0.62486159  1
  O2-  O166  1  0.13872012  0.99411462  0.12319939  1
  O2-  O167  1  0.14006379  0.99511495  0.62840210  1
  O2-  O168  1  0.48439779  0.32714587  0.12573474  1
  O2-  O169  1  0.47552702  0.32784495  0.62530012  1
  O2-  O170  1  0.47642701  0.66513253  0.12534868  1
  O2-  O171  1  0.47373970  0.66358883  0.62498847  1
  O2-  O172  1  0.47227021  0.99561572  0.12486997  1
  O2-  O173  1  0.47418180  0.99429072  0.62579786  1
  O2-  O174  1  0.80576055  0.32477679  0.12520533  1
  O2-  O175  1  0.80745003  0.32704521  0.62480372  1
  O2-  O176  1  0.80793333  0.66237354  0.12427400  1
  O2-  O177  1  0.80967386  0.66957660  0.62527917  1
  O2-  O178  1  0.80615421  0.98982329  0.12448428  1
  O2-  O179  1  0.81057802  0.99282565  0.62444008  1
  O2-  O180  1  0.30661830  0.17197121  0.37409060  1
  O2-  O181  1  0.30864503  0.17371438  0.87670645  1
  O2-  O182  1  0.30741899  0.50449478  0.37581948  1
  O2-  O183  1  0.31369324  0.50214085  0.87322407  1
  O2-  O184  1  0.30664303  0.83872832  0.37250328  1
  O2-  O185  1  0.30544417  0.83979399  0.87551814  1
  O2-  O186  1  0.64101819  0.17289055  0.37477517  1
  O2-  O187  1  0.64482309  0.17165347  0.87556098  1
  O2-  O188  1  0.64298025  0.50768440  0.37506961  1
  O2-  O189  1  0.63856647  0.51129739  0.87545305  1
  O2-  O190  1  0.64232822  0.84144471  0.37460583  1
  O2-  O191  1  0.64388764  0.83457409  0.87527352  1
  O2-  O192  1  0.97276627  0.17387545  0.37323872  1
  O2-  O193  1  0.97191563  0.17297998  0.87622061  1
  O2-  O194  1  0.97443878  0.50599291  0.37472409  1
  O2-  O195  1  0.97456136  0.50337304  0.87736384  1
  O2-  O196  1  0.98315621  0.83752315  0.37167852  1
  O2-  O197  1  0.97006656  0.84110813  0.87670127  1
  O2-  O198  1  0.19316802  0.00182688  0.37234379  1
  O2-  O199  1  0.19436639  0.00991092  0.87572949  1
  O2-  O200  1  0.19225131  0.33886033  0.37551683  1
  O2-  O201  1  0.19027548  0.33311202  0.87381778  1
  O2-  O202  1  0.19485774  0.67361719  0.37740533  1
  O2-  O203  1  0.19360839  0.67036931  0.87418098  1
  O2-  O204  1  0.52477516  0.00618386  0.37298022  1
  O2-  O205  1  0.52060991  0.00761979  0.87666988  1
  O2-  O206  1  0.52248415  0.33816468  0.37465482  1
  O2-  O207  1  0.52498153  0.33679036  0.87433230  1
  O2-  O208  1  0.52728715  0.67348018  0.37532980  1
  O2-  O209  1  0.52447834  0.67314971  0.87512805  1
  O2-  O210  1  0.85915567  0.00580217  0.37218261  1
  O2-  O211  1  0.85890164  0.00959410  0.87729032  1
  O2-  O212  1  0.85804628  0.34150401  0.37386259  1
  O2-  O213  1  0.85906968  0.33805383  0.87696656  1
  O2-  O214  1  0.85652720  0.66453545  0.37388418  1
  O2-  O215  1  0.85880737  0.67185806  0.87652506  1
  O2-  O216  1  0.23585655  0.09500846  0.01899873  1
  O2-  O217  1  0.23619981  0.09445000  0.51978797  1
  O2-  O218  1  0.23748756  0.42628386  0.01773685  1
  O2-  O219  1  0.23823826  0.42932103  0.52204115  1
  O2-  O220  1  0.23887828  0.75884128  0.01944282  1
  O2-  O221  1  0.23868811  0.76228887  0.52262623  1
  O2-  O222  1  0.56929548  0.09820850  0.01925859  1
  O2-  O223  1  0.57108168  0.09463412  0.51999773  1
  O2-  O224  1  0.57589131  0.42597551  0.01806444  1
  O2-  O225  1  0.57228727  0.42921306  0.51917408  1
  O2-  O226  1  0.57299998  0.76180224  0.01181760  1
  O2-  O227  1  0.56792839  0.76520018  0.51731903  1
  O2-  O228  1  0.90502968  0.09458374  0.02357498  1
  O2-  O229  1  0.90451287  0.09398900  0.52057391  1
  O2-  O230  1  0.90195621  0.42937451  0.02265002  1
  O2-  O231  1  0.90743749  0.42512972  0.51880002  1
  O2-  O232  1  0.90729382  0.75931574  0.02393906  1
  O2-  O233  1  0.90666080  0.75917644  0.51955228  1
  O2-  O234  1  0.25903038  0.25753229  0.23107120  1
  O2-  O235  1  0.26089662  0.26126339  0.72847550  1
  O2-  O236  1  0.26192721  0.59594111  0.23230045  1
  O2-  O237  1  0.26416234  0.59356665  0.72962590  1
  O2-  O238  1  0.26318905  0.92957662  0.22653621  1
  O2-  O239  1  0.26116669  0.92950530  0.72889804  1
  O2-  O240  1  0.59790016  0.26231373  0.23483570  1
  O2-  O241  1  0.59234290  0.26177747  0.72759809  1
  O2-  O242  1  0.59963897  0.59691307  0.22923826  1
  O2-  O243  1  0.59619407  0.59851093  0.72783011  1
  O2-  O244  1  0.59743820  0.93381058  0.23240206  1
  O2-  O245  1  0.59530909  0.92737367  0.72851052  1
  O2-  O246  1  0.92795887  0.26548694  0.23259829  1
  O2-  O247  1  0.92904240  0.25863367  0.72816918  1
  O2-  O248  1  0.93084165  0.59650520  0.23184335  1
  O2-  O249  1  0.92723108  0.59585260  0.73276838  1
  O2-  O250  1  0.92843668  0.92465309  0.22596938  1
  O2-  O251  1  0.93095820  0.92867118  0.73072555  1
  O2-  O252  1  0.09345539  0.23801449  0.27171979  1
  O2-  O253  1  0.09275490  0.23596332  0.76966845  1
  O2-  O254  1  0.09662567  0.57300549  0.27155511  1
  O2-  O255  1  0.09467050  0.57214516  0.76315806  1
  O2-  O256  1  0.09974702  0.90254801  0.26465081  1
  O2-  O257  1  0.09493233  0.90197863  0.77384195  1
  O2-  O258  1  0.42563210  0.24076036  0.27134117  1
  O2-  O259  1  0.42911530  0.23877475  0.77089453  1
  O2-  O260  1  0.42934804  0.57414992  0.27300109  1
  O2-  O261  1  0.43133998  0.57023293  0.77057620  1
  O2-  O262  1  0.42773581  0.90651072  0.27241494  1
  O2-  O263  1  0.42781051  0.90578561  0.77239720  1
  O2-  O264  1  0.76015446  0.24115950  0.27352061  1
  O2-  O265  1  0.76349324  0.23778796  0.76736133  1
  O2-  O266  1  0.76381181  0.56991228  0.26652906  1
  O2-  O267  1  0.76070734  0.57348795  0.77374659  1
  O2-  O268  1  0.75941366  0.90623914  0.26755320  1
  O2-  O269  1  0.76801796  0.90233663  0.76638734  1
  O2-  O270  1  0.07041597  0.06838051  0.47590565  1
  O2-  O271  1  0.07200339  0.07067753  0.97990936  1
  O2-  O272  1  0.07259393  0.40488504  0.47922210  1
  O2-  O273  1  0.06657905  0.40357262  0.98349796  1
  O2-  O274  1  0.07164640  0.73888430  0.47996440  1
  O2-  O275  1  0.06944868  0.73590718  0.97788052  1
  O2-  O276  1  0.40402133  0.07177763  0.47884544  1
  O2-  O277  1  0.40583184  0.07413480  0.97842354  1
  O2-  O278  1  0.40089075  0.40222876  0.48292747  1
  O2-  O279  1  0.40806905  0.40493204  0.98170522  1
  O2-  O280  1  0.40589200  0.73664686  0.47967688  1
  O2-  O281  1  0.40527226  0.73895463  0.97907269  1
  O2-  O282  1  0.73857882  0.07233771  0.47928632  1
  O2-  O283  1  0.74072158  0.07579272  0.98212435  1
  O2-  O284  1  0.73671973  0.40755281  0.48014351  1
  O2-  O285  1  0.73794377  0.40535595  0.97602352  1
  O2-  O286  1  0.73534227  0.73701406  0.48025792  1
  O2-  O287  1  0.74128368  0.73900068  0.98171736  1
  O2-  O288  1  0.09402585  0.23612098  0.47839889  1
  O2-  O289  1  0.09230895  0.23846670  0.98004540  1
  O2-  O290  1  0.09603131  0.57248479  0.47936317  1
  O2-  O291  1  0.09325747  0.57267060  0.98598185  1
  O2-  O292  1  0.09801450  0.90236909  0.48556080  1
  O2-  O293  1  0.09762379  0.90326731  0.97682967  1
  O2-  O294  1  0.42820585  0.23831106  0.47866198  1
  O2-  O295  1  0.42653288  0.24167408  0.97928184  1
  O2-  O296  1  0.43237341  0.57107414  0.47788133  1
  O2-  O297  1  0.42851057  0.57451917  0.97886063  1
  O2-  O298  1  0.42794971  0.90537001  0.47873435  1
  O2-  O299  1  0.42715073  0.90652768  0.97744588  1
  O2-  O300  1  0.76189714  0.23943560  0.47820904  1
  O2-  O301  1  0.76126741  0.23967595  0.98135461  1
  O2-  O302  1  0.76189597  0.57142282  0.48190886  1
  O2-  O303  1  0.76104501  0.57246256  0.97740082  1
  O2-  O304  1  0.75856626  0.90677218  0.48241519  1
  O2-  O305  1  0.76729912  0.90114823  0.98271058  1
  O2-  O306  1  0.07050347  0.06823111  0.27079078  1
  O2-  O307  1  0.07130195  0.07150240  0.77335002  1
  O2-  O308  1  0.06928977  0.40586504  0.27145179  1
  O2-  O309  1  0.06983975  0.40310933  0.76584640  1
  O2-  O310  1  0.07345998  0.73743495  0.27033664  1
  O2-  O311  1  0.06723151  0.73726940  0.77139557  1
  O2-  O312  1  0.40503160  0.07295437  0.27267320  1
  O2-  O313  1  0.40426334  0.07282714  0.76988547  1
  O2-  O314  1  0.40504455  0.40666770  0.26865808  1
  O2-  O315  1  0.40251962  0.40096177  0.76728372  1
  O2-  O316  1  0.40549729  0.73841911  0.27046649  1
  O2-  O317  1  0.40533324  0.73677555  0.77147250  1
  O2-  O318  1  0.73728990  0.07449791  0.27251305  1
  O2-  O319  1  0.74291052  0.07261746  0.76457864  1
  O2-  O320  1  0.73922310  0.40642799  0.27207717  1
  O2-  O321  1  0.73481317  0.40626080  0.77256412  1
  O2-  O322  1  0.73921431  0.73728924  0.26700765  1
  O2-  O323  1  0.73909954  0.73805398  0.76931496  1
  O2-  O324  1  0.23386372  0.09476169  0.23180657  1
  O2-  O325  1  0.23894961  0.09626055  0.72921101  1
  O2-  O326  1  0.23498152  0.42966801  0.23427955  1
  O2-  O327  1  0.24138437  0.42789426  0.72570964  1
  O2-  O328  1  0.23781365  0.76074904  0.23003656  1
  O2-  O329  1  0.23892933  0.75999346  0.72865886  1
  O2-  O330  1  0.56739471  0.09900178  0.23145737  1
  O2-  O331  1  0.57240244  0.09497537  0.72949249  1
  O2-  O332  1  0.57800699  0.42611045  0.23369231  1
  O2-  O333  1  0.56952058  0.42815215  0.72978667  1
  O2-  O334  1  0.57132935  0.76355592  0.23717034  1
  O2-  O335  1  0.56847072  0.76385237  0.73376491  1
  O2-  O336  1  0.90244743  0.09591579  0.22652201  1
  O2-  O337  1  0.90698598  0.09320644  0.72787508  1
  O2-  O338  1  0.90251852  0.42910137  0.22681449  1
  O2-  O339  1  0.90599275  0.42499856  0.73314151  1
  O2-  O340  1  0.90786861  0.75785018  0.22716991  1
  O2-  O341  1  0.90636038  0.76115770  0.72874497  1
  O2-  O342  1  0.25807513  0.25705565  0.01905468  1
  O2-  O343  1  0.26086647  0.26143478  0.52120048  1
  O2-  O344  1  0.26017726  0.59477952  0.01645533  1
  O2-  O345  1  0.26392921  0.59458255  0.52156850  1
  O2-  O346  1  0.26321534  0.92975173  0.02188044  1
  O2-  O347  1  0.26124098  0.92956386  0.52138465  1
  O2-  O348  1  0.59558133  0.26066597  0.01701053  1
  O2-  O349  1  0.59464196  0.26272246  0.52022486  1
  O2-  O350  1  0.60024362  0.59783074  0.01967846  1
  O2-  O351  1  0.59523874  0.59722337  0.52556337  1
  O2-  O352  1  0.59701558  0.93082314  0.01876989  1
  O2-  O353  1  0.59512093  0.92799257  0.52004151  1
  O2-  O354  1  0.92711232  0.26476780  0.01927852  1
  O2-  O355  1  0.92817276  0.25969816  0.52100954  1
  O2-  O356  1  0.92678067  0.59402746  0.02065192  1
  O2-  O357  1  0.92954257  0.59764018  0.51681203  1
  O2-  O358  1  0.93169075  0.92827920  0.02126278  1
  O2-  O359  1  0.92796425  0.92449577  0.52075213  1
