# generated using pymatgen
data_Sr7Ca15Pr50Mn72O216
_symmetry_space_group_name_H-M   'P 1'
_cell_length_a   16.55518207
_cell_length_b   16.59733845
_cell_length_c   15.58995176
_cell_angle_alpha   89.99648817
_cell_angle_beta   89.99781335
_cell_angle_gamma   89.99969159
_symmetry_Int_Tables_number   1
_chemical_formula_structural   Sr7Ca15Pr50Mn72O216
_chemical_formula_sum   'Sr7 Ca15 Pr50 Mn72 O216'
_cell_volume   4283.68158859
_cell_formula_units_Z   1
loop_
 _symmetry_equiv_pos_site_id
 _symmetry_equiv_pos_as_xyz
  1  'x, y, z'
loop_
 _atom_type_symbol
 _atom_type_oxidation_number
  Sr2+  2.0
  Ca2+  2.0
  Pr3+  3.0
  Mn3.30+  3.3
  O2-  -2.0
loop_
 _atom_site_type_symbol
 _atom_site_label
 _atom_site_symmetry_multiplicity
 _atom_site_fract_x
 _atom_site_fract_y
 _atom_site_fract_z
 _atom_site_occupancy
  Sr2+  Sr0  1  0.82965138  0.15790836  0.87422210  1
  Sr2+  Sr1  1  0.33230163  0.33929893  0.62714477  1
  Sr2+  Sr2  1  0.33176035  0.34307685  0.12300874  1
  Sr2+  Sr3  1  0.16527723  0.16022358  0.37636849  1
  Sr2+  Sr4  1  -0.00201412  0.01188991  0.62483647  1
  Sr2+  Sr5  1  1.00075987  0.65430509  0.87540733  1
  Sr2+  Sr6  1  0.16700084  0.17623721  0.62399444  1
  Ca2+  Ca7  1  0.66878301  0.98540307  0.37561203  1
  Ca2+  Ca8  1  0.66332438  0.68137574  0.12596661  1
  Ca2+  Ca9  1  1.00365142  0.31866801  0.37551427  1
  Ca2+  Ca10  1  0.32846484  0.01702003  0.62499462  1
  Ca2+  Ca11  1  -0.00114673  0.34274193  0.62298350  1
  Ca2+  Ca12  1  0.66243002  0.34699672  0.12318686  1
  Ca2+  Ca13  1  0.83241438  0.48249686  0.37372981  1
  Ca2+  Ca14  1  0.32891057  0.68248567  0.12290600  1
  Ca2+  Ca15  1  0.66363963  0.68000905  0.62430710  1
  Ca2+  Ca16  1  0.17163672  0.84623671  0.12459380  1
  Ca2+  Ca17  1  0.50045170  0.18225790  0.62608333  1
  Ca2+  Ca18  1  0.33534674  0.31986314  0.87247680  1
  Ca2+  Ca19  1  0.33824834  0.65175694  0.87771028  1
  Ca2+  Ca20  1  0.67171354  0.31734391  0.87627878  1
  Ca2+  Ca21  1  -0.00320221  0.34686531  0.12675598  1
  Pr3+  Pr22  1  0.49620610  0.48476255  0.87494491  1
  Pr3+  Pr23  1  -0.00027358  0.67869448  0.12307897  1
  Pr3+  Pr24  1  0.49812796  0.48646548  0.37494891  1
  Pr3+  Pr25  1  1.00529575  0.99016344  0.37677057  1
  Pr3+  Pr26  1  0.33675636  0.65355691  0.37282174  1
  Pr3+  Pr27  1  0.83148866  0.82106935  0.87427431  1
  Pr3+  Pr28  1  0.67276858  0.65146545  0.37390135  1
  Pr3+  Pr29  1  0.16288563  0.48437817  0.37446046  1
  Pr3+  Pr30  1  0.50427949  0.51390065  0.12562118  1
  Pr3+  Pr31  1  -0.00221389  0.01209152  0.12537007  1
  Pr3+  Pr32  1  0.49437023  0.81684945  0.87593319  1
  Pr3+  Pr33  1  0.33061092  0.67599462  0.62603828  1
  Pr3+  Pr34  1  0.50416717  0.18376707  0.12444688  1
  Pr3+  Pr35  1  0.16450651  0.81899462  0.87564930  1
  Pr3+  Pr36  1  0.16802929  0.18141781  0.12589900  1
  Pr3+  Pr37  1  0.83399570  0.84427917  0.12423588  1
  Pr3+  Pr38  1  0.83432325  0.84538438  0.62560765  1
  Pr3+  Pr39  1  1.00111572  0.32237156  0.87565072  1
  Pr3+  Pr40  1  0.33651173  0.98828088  0.87288748  1
  Pr3+  Pr41  1  0.17125507  0.84897972  0.62578366  1
  Pr3+  Pr42  1  0.16672532  0.15844238  0.87414976  1
  Pr3+  Pr43  1  0.33008258  0.01123667  0.12469338  1
  Pr3+  Pr44  1  0.66266392  0.01272921  0.12656453  1
  Pr3+  Pr45  1  0.83064395  0.82257001  0.37594298  1
  Pr3+  Pr46  1  -0.00168532  0.67688908  0.62669873  1
  Pr3+  Pr47  1  0.16288347  0.82135369  0.37437064  1
  Pr3+  Pr48  1  0.82968507  0.48430360  0.87652452  1
  Pr3+  Pr49  1  0.50169928  0.84477167  0.12571541  1
  Pr3+  Pr50  1  0.16725030  0.48805934  0.87566046  1
  Pr3+  Pr51  1  0.16759529  0.50538019  0.62571066  1
  Pr3+  Pr52  1  0.49796441  0.15819338  0.87239784  1
  Pr3+  Pr53  1  0.50277208  0.84582222  0.62490708  1
  Pr3+  Pr54  1  1.00220618  0.99039105  0.87298054  1
  Pr3+  Pr55  1  0.67035044  0.32174544  0.37343148  1
  Pr3+  Pr56  1  0.66302130  0.34338403  0.62662548  1
  Pr3+  Pr57  1  0.66931889  0.98904325  0.87405628  1
  Pr3+  Pr58  1  0.83091637  0.15258456  0.37538680  1
  Pr3+  Pr59  1  0.33283772  0.98969258  0.37738784  1
  Pr3+  Pr60  1  0.83996673  0.18206266  0.62577488  1
  Pr3+  Pr61  1  0.66255494  0.01653348  0.62264004  1
  Pr3+  Pr62  1  0.67069883  0.65433140  0.87613680  1
  Pr3+  Pr63  1  0.50424348  0.51308209  0.62475080  1
  Pr3+  Pr64  1  0.49888697  0.82131934  0.37486675  1
  Pr3+  Pr65  1  0.49578894  0.15506142  0.37658299  1
  Pr3+  Pr66  1  0.33419054  0.31982645  0.37542030  1
  Pr3+  Pr67  1  0.17143518  0.51253995  0.12432647  1
  Pr3+  Pr68  1  1.00216059  0.65220502  0.37426677  1
  Pr3+  Pr69  1  0.83434582  0.51053520  0.12634805  1
  Pr3+  Pr70  1  0.83574781  0.18254830  0.12430883  1
  Pr3+  Pr71  1  0.83751208  0.50874721  0.62408370  1
  Mn3.30+  Mn72  1  0.16693019  -0.00049267  -0.00000012  1
  Mn3.30+  Mn73  1  0.16803638  0.00231027  0.50124991  1
  Mn3.30+  Mn74  1  0.16702379  0.33437668  0.00020623  1
  Mn3.30+  Mn75  1  0.16403185  0.33206526  0.50122586  1
  Mn3.30+  Mn76  1  0.17010996  0.66689654  -0.00026063  1
  Mn3.30+  Mn77  1  0.16664854  0.66518042  0.50029145  1
  Mn3.30+  Mn78  1  0.49979402  0.00076899  -0.00060960  1
  Mn3.30+  Mn79  1  0.49931568  0.00169829  0.50149054  1
  Mn3.30+  Mn80  1  0.50123027  0.33441130  -0.00182006  1
  Mn3.30+  Mn81  1  0.50054627  0.33272149  0.50186141  1
  Mn3.30+  Mn82  1  0.49936977  0.66586687  0.00231583  1
  Mn3.30+  Mn83  1  0.50253417  0.66672512  0.49953884  1
  Mn3.30+  Mn84  1  0.83223450  0.00089952  -0.00007435  1
  Mn3.30+  Mn85  1  0.83180823  0.00004093  0.49940600  1
  Mn3.30+  Mn86  1  0.83052534  0.33370255  0.00288987  1
  Mn3.30+  Mn87  1  0.83553228  0.33385628  0.49673247  1
  Mn3.30+  Mn88  1  0.83196327  0.66551191  0.00146613  1
  Mn3.30+  Mn89  1  0.83264660  0.66416092  0.50061359  1
  Mn3.30+  Mn90  1  -0.00077626  0.16939776  0.24994245  1
  Mn3.30+  Mn91  1  -0.00052399  0.16835112  0.74978986  1
  Mn3.30+  Mn92  1  -0.00065043  0.49722549  0.25006930  1
  Mn3.30+  Mn93  1  0.00014195  0.49779772  0.75061326  1
  Mn3.30+  Mn94  1  0.00097588  0.83331668  0.24803807  1
  Mn3.30+  Mn95  1  0.00071887  0.83273257  0.75026518  1
  Mn3.30+  Mn96  1  0.33287997  0.16681092  0.24962999  1
  Mn3.30+  Mn97  1  0.33355583  0.16734447  0.74867848  1
  Mn3.30+  Mn98  1  0.33376994  0.50004046  0.24793370  1
  Mn3.30+  Mn99  1  0.33469018  0.49900394  0.75091497  1
  Mn3.30+  Mn100  1  0.33147194  0.83290552  0.24977965  1
  Mn3.30+  Mn101  1  0.33413978  0.83223726  0.74984320  1
  Mn3.30+  Mn102  1  0.66649171  0.16665643  0.25103790  1
  Mn3.30+  Mn103  1  0.66571408  0.16832281  0.74865728  1
  Mn3.30+  Mn104  1  0.66917196  0.49920843  0.24931335  1
  Mn3.30+  Mn105  1  0.66683199  0.50009915  0.75019664  1
  Mn3.30+  Mn106  1  0.66657861  0.83312489  0.25065690  1
  Mn3.30+  Mn107  1  0.66479688  0.83251395  0.74914518  1
  Mn3.30+  Mn108  1  0.16588358  -0.00028158  0.24912584  1
  Mn3.30+  Mn109  1  0.16953075  0.00194067  0.74972583  1
  Mn3.30+  Mn110  1  0.16336960  0.33381304  0.24889102  1
  Mn3.30+  Mn111  1  0.16747164  0.33276698  0.75005947  1
  Mn3.30+  Mn112  1  0.16887044  0.66737024  0.24833780  1
  Mn3.30+  Mn113  1  0.16821778  0.66476199  0.75166904  1
  Mn3.30+  Mn114  1  0.50009367  0.00012191  0.25271234  1
  Mn3.30+  Mn115  1  0.49910214  0.00209731  0.74646668  1
  Mn3.30+  Mn116  1  0.50176570  0.33486299  0.24851992  1
  Mn3.30+  Mn117  1  0.50006309  0.33273383  0.75098618  1
  Mn3.30+  Mn118  1  0.50120899  0.66690285  0.24834906  1
  Mn3.30+  Mn119  1  0.50071258  0.66573877  0.75026821  1
  Mn3.30+  Mn120  1  0.83166632  -0.00027467  0.25042922  1
  Mn3.30+  Mn121  1  0.83268757  0.00111168  0.74985293  1
  Mn3.30+  Mn122  1  0.83471914  0.33429345  0.25008150  1
  Mn3.30+  Mn123  1  0.83178189  0.33335419  0.75017443  1
  Mn3.30+  Mn124  1  0.83331971  0.66541381  0.24917083  1
  Mn3.30+  Mn125  1  0.83124859  0.66447643  0.74894048  1
  Mn3.30+  Mn126  1  -0.00103300  0.16830335  0.00010750  1
  Mn3.30+  Mn127  1  -0.00034765  0.16915677  0.50070462  1
  Mn3.30+  Mn128  1  0.00054932  0.49878689  0.00143578  1
  Mn3.30+  Mn129  1  -0.00119496  0.49614513  0.49787481  1
  Mn3.30+  Mn130  1  0.00237866  0.83319646  0.00052296  1
  Mn3.30+  Mn131  1  -0.00067933  0.83296456  0.50102778  1
  Mn3.30+  Mn132  1  0.33380890  0.16801574  -0.00064250  1
  Mn3.30+  Mn133  1  0.33301524  0.16628338  0.50258922  1
  Mn3.30+  Mn134  1  0.33507700  0.50065195  0.00025636  1
  Mn3.30+  Mn135  1  0.33344666  0.49840186  0.50030189  1
  Mn3.30+  Mn136  1  0.33189249  0.83113520  0.00043892  1
  Mn3.30+  Mn137  1  0.33338256  0.83371936  0.50050155  1
  Mn3.30+  Mn138  1  0.66675178  0.16908316  0.00039159  1
  Mn3.30+  Mn139  1  0.66557015  0.16663385  0.49911728  1
  Mn3.30+  Mn140  1  0.66553692  0.49901842  0.00079415  1
  Mn3.30+  Mn141  1  0.67000733  0.49984251  0.49957244  1
  Mn3.30+  Mn142  1  0.66493289  0.83288212  0.00041150  1
  Mn3.30+  Mn143  1  0.66630287  0.83290511  0.50011442  1
  O2-  O144  1  0.02467680  0.15818849  0.12333346  1
  O2-  O145  1  0.01667765  0.16508000  0.62685415  1
  O2-  O146  1  0.02696723  0.49313267  0.12577934  1
  O2-  O147  1  0.02315331  0.49175318  0.62298778  1
  O2-  O148  1  0.02853172  0.82784464  0.12392801  1
  O2-  O149  1  0.02546427  0.82599261  0.62562117  1
  O2-  O150  1  0.35895852  0.16012510  0.12414116  1
  O2-  O151  1  0.35871985  0.16230649  0.62523997  1
  O2-  O152  1  0.35990574  0.49416328  0.12498806  1
  O2-  O153  1  0.35878827  0.49757542  0.62442922  1
  O2-  O154  1  0.35904343  0.82968964  0.12701511  1
  O2-  O155  1  0.36026243  0.82206660  0.62572671  1
  O2-  O156  1  0.69176635  0.15767199  0.12876341  1
  O2-  O157  1  0.69475386  0.16368414  0.62155279  1
  O2-  O158  1  0.69127231  0.48956879  0.12506432  1
  O2-  O159  1  0.69394496  0.48991127  0.62401789  1
  O2-  O160  1  0.68969449  0.82917655  0.12578768  1
  O2-  O161  1  0.69027139  0.82633103  0.62492346  1
  O2-  O162  1  0.14041642  0.33044478  0.12407619  1
  O2-  O163  1  0.14230045  0.33843361  0.62598356  1
  O2-  O164  1  0.14215177  0.65972955  0.12502917  1
  O2-  O165  1  0.14219744  0.65748492  0.62463133  1
  O2-  O166  1  0.14143118  0.99177851  0.12353722  1
  O2-  O167  1  0.14713189  0.99545424  0.62605104  1
  O2-  O168  1  0.48088131  0.33176275  0.12319508  1
  O2-  O169  1  0.48273704  0.33241702  0.62437197  1
  O2-  O170  1  0.47175654  0.66217626  0.12539384  1
  O2-  O171  1  0.47484917  0.66213106  0.62308289  1
  O2-  O172  1  0.47456708  0.99317093  0.12873466  1
  O2-  O173  1  0.46970945  0.99070281  0.62491641  1
  O2-  O174  1  0.80417948  0.32974291  0.12679457  1
  O2-  O175  1  0.80735068  0.33083321  0.62268522  1
  O2-  O176  1  0.80547190  0.66063292  0.12552125  1
  O2-  O177  1  0.80487122  0.65654079  0.62445044  1
  O2-  O178  1  0.80698244  0.99331302  0.12564673  1
  O2-  O179  1  0.80749956  0.99478530  0.62456860  1
  O2-  O180  1  0.31661330  0.17052584  0.37437189  1
  O2-  O181  1  0.31183239  0.17013870  0.87660128  1
  O2-  O182  1  0.30912134  0.50656619  0.37354673  1
  O2-  O183  1  0.31116969  0.51016885  0.87596170  1
  O2-  O184  1  0.30561211  0.84035858  0.37527053  1
  O2-  O185  1  0.30784555  0.84118695  0.87297873  1
  O2-  O186  1  0.63945743  0.17522863  0.37451799  1
  O2-  O187  1  0.64284208  0.16958527  0.87431356  1
  O2-  O188  1  0.64134160  0.50533364  0.37519991  1
  O2-  O189  1  0.64010924  0.51033267  0.87589588  1
  O2-  O190  1  0.64290081  0.83881658  0.37539428  1
  O2-  O191  1  0.63920795  0.84056299  0.87418237  1
  O2-  O192  1  0.97445965  0.17152738  0.37340630  1
  O2-  O193  1  0.97811715  0.17282176  0.87675149  1
  O2-  O194  1  0.97291293  0.50914168  0.37364741  1
  O2-  O195  1  0.97450595  0.50057849  0.87814457  1
  O2-  O196  1  0.97553629  0.83875893  0.37442658  1
  O2-  O197  1  0.97602034  0.83933236  0.87573388  1
  O2-  O198  1  0.18812885  0.00094806  0.37488923  1
  O2-  O199  1  0.19325399  0.00817365  0.87577285  1
  O2-  O200  1  0.19042617  0.33707460  0.37369774  1
  O2-  O201  1  0.19211591  0.33829251  0.87664501  1
  O2-  O202  1  0.19217611  0.67278398  0.37444157  1
  O2-  O203  1  0.19608868  0.67169377  0.87537432  1
  O2-  O204  1  0.52780926  0.00743897  0.37617199  1
  O2-  O205  1  0.52652363  0.00844567  0.87035060  1
  O2-  O206  1  0.52526318  0.33718908  0.37541829  1
  O2-  O207  1  0.52943236  0.33643350  0.87584640  1
  O2-  O208  1  0.52762476  0.67200950  0.37477978  1
  O2-  O209  1  0.52721694  0.67002948  0.87747440  1
  O2-  O210  1  0.86008366  0.00252558  0.37370216  1
  O2-  O211  1  0.85610022  0.00059412  0.87599445  1
  O2-  O212  1  0.86127600  0.33703141  0.37306829  1
  O2-  O213  1  0.85667463  0.33653800  0.87761946  1
  O2-  O214  1  0.86005435  0.67616190  0.37479054  1
  O2-  O215  1  0.85086461  0.67182270  0.87529082  1
  O2-  O216  1  0.23708116  0.09290721  0.02146685  1
  O2-  O217  1  0.24383591  0.09108884  0.51598770  1
  O2-  O218  1  0.23726416  0.43181724  0.01639190  1
  O2-  O219  1  0.23574900  0.42880882  0.51382131  1
  O2-  O220  1  0.23631383  0.76523382  0.01932087  1
  O2-  O221  1  0.23849605  0.76150236  0.52108915  1
  O2-  O222  1  0.57202619  0.09678088  0.02114512  1
  O2-  O223  1  0.56848837  0.09642060  0.52394868  1
  O2-  O224  1  0.56876533  0.43245928  0.01696001  1
  O2-  O225  1  0.57347255  0.42936185  0.51843738  1
  O2-  O226  1  0.56754855  0.76332197  0.01847608  1
  O2-  O227  1  0.56990734  0.76341640  0.51721395  1
  O2-  O228  1  0.90624090  0.09313131  0.02285216  1
  O2-  O229  1  0.90073849  0.09744617  0.51442149  1
  O2-  O230  1  0.90138124  0.42778907  0.01923354  1
  O2-  O231  1  0.90356643  0.42832725  0.51808111  1
  O2-  O232  1  0.90598930  0.75944496  0.02049522  1
  O2-  O233  1  0.90431380  0.75827055  0.52341095  1
  O2-  O234  1  0.25739938  0.25958593  0.23299196  1
  O2-  O235  1  0.25827057  0.25881959  0.73661969  1
  O2-  O236  1  0.26510628  0.59679605  0.22890864  1
  O2-  O237  1  0.26091854  0.59205517  0.72775261  1
  O2-  O238  1  0.26425116  0.92888101  0.23204277  1
  O2-  O239  1  0.26468672  0.92701233  0.72890324  1
  O2-  O240  1  0.59734946  0.26218327  0.22881013  1
  O2-  O241  1  0.59471267  0.26003341  0.73082806  1
  O2-  O242  1  0.59927363  0.59497291  0.22850817  1
  O2-  O243  1  0.59757019  0.59625584  0.72716323  1
  O2-  O244  1  0.59218387  0.92702851  0.22996658  1
  O2-  O245  1  0.59397514  0.92994343  0.72663699  1
  O2-  O246  1  0.92562305  0.26041460  0.22424296  1
  O2-  O247  1  0.92721410  0.26406378  0.73099926  1
  O2-  O248  1  0.93037933  0.59453218  0.22748622  1
  O2-  O249  1  0.92765144  0.59081144  0.72791022  1
  O2-  O250  1  0.92851467  0.92573305  0.22751977  1
  O2-  O251  1  0.92311835  0.92404508  0.73310027  1
  O2-  O252  1  0.09264206  0.23844212  0.26302890  1
  O2-  O253  1  0.09207196  0.24232920  0.77335251  1
  O2-  O254  1  0.09512185  0.57179314  0.26978762  1
  O2-  O255  1  0.09745476  0.57066725  0.76725881  1
  O2-  O256  1  0.09234182  0.90624018  0.27224119  1
  O2-  O257  1  0.09792083  0.90922439  0.77061254  1
  O2-  O258  1  0.42945800  0.23976771  0.26708462  1
  O2-  O259  1  0.42704460  0.23908930  0.76843499  1
  O2-  O260  1  0.43137612  0.57310819  0.27157150  1
  O2-  O261  1  0.43204894  0.56986937  0.76567984  1
  O2-  O262  1  0.42718522  0.90650614  0.27348207  1
  O2-  O263  1  0.42923528  0.90415620  0.77175044  1
  O2-  O264  1  0.76297648  0.23796008  0.27159064  1
  O2-  O265  1  0.76055213  0.23964101  0.76246124  1
  O2-  O266  1  0.76357115  0.56959211  0.27209921  1
  O2-  O267  1  0.76154688  0.56999544  0.77145294  1
  O2-  O268  1  0.76355398  0.90318803  0.26766741  1
  O2-  O269  1  0.75910926  0.90434545  0.76983942  1
  O2-  O270  1  0.06913188  0.07391207  0.48257851  1
  O2-  O271  1  0.07268075  0.07224892  0.97939955  1
  O2-  O272  1  0.07097962  0.40678884  0.47478565  1
  O2-  O273  1  0.07332971  0.40669629  0.97777150  1
  O2-  O274  1  0.07173964  0.73792997  0.47978031  1
  O2-  O275  1  0.07557628  0.73972433  0.98071037  1
  O2-  O276  1  0.40812001  0.07261721  0.47731377  1
  O2-  O277  1  0.40623006  0.07110415  0.97971706  1
  O2-  O278  1  0.40770853  0.40692309  0.47673219  1
  O2-  O279  1  0.40577850  0.40454907  0.97481517  1
  O2-  O280  1  0.40381342  0.74004503  0.47727580  1
  O2-  O281  1  0.40514230  0.73745417  0.97793707  1
  O2-  O282  1  0.73532562  0.07004054  0.47743327  1
  O2-  O283  1  0.73383439  0.06960328  0.98431249  1
  O2-  O284  1  0.73803466  0.40294707  0.47931784  1
  O2-  O285  1  0.73684580  0.40623131  0.97629505  1
  O2-  O286  1  0.74085476  0.73697010  0.47816198  1
  O2-  O287  1  0.73777108  0.74184697  0.97951699  1
  O2-  O288  1  0.09053478  0.24221202  0.48363048  1
  O2-  O289  1  0.09368772  0.23979217  0.98026098  1
  O2-  O290  1  0.09309116  0.57048487  0.47920396  1
  O2-  O291  1  0.09878015  0.57165010  0.98360414  1
  O2-  O292  1  0.09507467  0.90572611  0.48208873  1
  O2-  O293  1  0.09406446  0.90939903  0.97401387  1
  O2-  O294  1  0.42714538  0.24099847  0.48037408  1
  O2-  O295  1  0.43234299  0.23829051  0.98295369  1
  O2-  O296  1  0.42989624  0.57357960  0.47912365  1
  O2-  O297  1  0.43321128  0.56900125  0.98276091  1
  O2-  O298  1  0.42813476  0.90556846  0.47725872  1
  O2-  O299  1  0.42718990  0.90415065  0.97968592  1
  O2-  O300  1  0.76338377  0.23959758  0.47728501  1
  O2-  O301  1  0.76130905  0.23749610  0.98712824  1
  O2-  O302  1  0.76506626  0.56936570  0.47551889  1
  O2-  O303  1  0.76038776  0.57033062  0.98065827  1
  O2-  O304  1  0.76147668  0.90253528  0.48315220  1
  O2-  O305  1  0.76070801  0.90443216  0.98007863  1
  O2-  O306  1  0.06720147  0.07026484  0.26502777  1
  O2-  O307  1  0.07438539  0.07587347  0.77257817  1
  O2-  O308  1  0.07049734  0.40580733  0.27436616  1
  O2-  O309  1  0.07350167  0.40743666  0.77339338  1
  O2-  O310  1  0.07032405  0.73848316  0.27067371  1
  O2-  O311  1  0.07685999  0.73967672  0.76831792  1
  O2-  O312  1  0.40630321  0.07085696  0.27110229  1
  O2-  O313  1  0.40748821  0.07356132  0.77222169  1
  O2-  O314  1  0.40587633  0.40717890  0.27284998  1
  O2-  O315  1  0.40628892  0.40648909  0.77345592  1
  O2-  O316  1  0.40473836  0.74231448  0.27402922  1
  O2-  O317  1  0.40406065  0.73618076  0.77237778  1
  O2-  O318  1  0.73536927  0.07086565  0.27327639  1
  O2-  O319  1  0.73357217  0.06985154  0.76486045  1
  O2-  O320  1  0.73959276  0.40520291  0.27172232  1
  O2-  O321  1  0.73665997  0.40453894  0.77264949  1
  O2-  O322  1  0.74007141  0.73984912  0.27194297  1
  O2-  O323  1  0.73805297  0.74002685  0.77101141  1
  O2-  O324  1  0.23924485  0.09178782  0.22643201  1
  O2-  O325  1  0.24129770  0.09374150  0.73569293  1
  O2-  O326  1  0.23452663  0.43021070  0.23410795  1
  O2-  O327  1  0.23764593  0.43022628  0.73568691  1
  O2-  O328  1  0.23570714  0.76569117  0.23195540  1
  O2-  O329  1  0.23866034  0.76042084  0.72775061  1
  O2-  O330  1  0.56972927  0.09561462  0.22918235  1
  O2-  O331  1  0.57093673  0.09673208  0.72469563  1
  O2-  O332  1  0.57109685  0.43143637  0.23498840  1
  O2-  O333  1  0.57296713  0.43079504  0.73016106  1
  O2-  O334  1  0.56963147  0.76253461  0.23186257  1
  O2-  O335  1  0.56820141  0.76373936  0.73337802  1
  O2-  O336  1  0.90318378  0.09489062  0.22989818  1
  O2-  O337  1  0.90413838  0.09521040  0.73359674  1
  O2-  O338  1  0.90459350  0.42844294  0.22803323  1
  O2-  O339  1  0.90092353  0.42809124  0.73538969  1
  O2-  O340  1  0.90705000  0.76129933  0.22692821  1
  O2-  O341  1  0.90287425  0.75633811  0.72891603  1
  O2-  O342  1  0.25538501  0.25723000  0.01932144  1
  O2-  O343  1  0.26033951  0.26057782  0.51212348  1
  O2-  O344  1  0.26328729  0.59582515  0.02367961  1
  O2-  O345  1  0.26190881  0.59406721  0.51880245  1
  O2-  O346  1  0.26308588  0.93001578  0.01711902  1
  O2-  O347  1  0.26436593  0.92586323  0.52193698  1
  O2-  O348  1  0.59568920  0.26106658  0.02217846  1
  O2-  O349  1  0.59703471  0.26374352  0.51710278  1
  O2-  O350  1  0.59664712  0.59736247  0.02450109  1
  O2-  O351  1  0.59919197  0.59419543  0.52109297  1
  O2-  O352  1  0.59394263  0.92889914  0.02018045  1
  O2-  O353  1  0.59121730  0.92897006  0.52262012  1
  O2-  O354  1  0.92791513  0.26260428  0.02288723  1
  O2-  O355  1  0.92544949  0.26185206  0.52215830  1
  O2-  O356  1  0.92782489  0.59140566  0.02397843  1
  O2-  O357  1  0.92942417  0.59444474  0.52154688  1
  O2-  O358  1  0.92706269  0.92635832  0.02110485  1
  O2-  O359  1  0.92450422  0.92422071  0.51805323  1
