# generated using pymatgen
data_Sr7Ca15Pr50Mn72O216
_symmetry_space_group_name_H-M   'P 1'
_cell_length_a   16.55565794
_cell_length_b   16.60370879
_cell_length_c   15.58833619
_cell_angle_alpha   89.99353815
_cell_angle_beta   90.00562338
_cell_angle_gamma   90.00311517
_symmetry_Int_Tables_number   1
_chemical_formula_structural   Sr7Ca15Pr50Mn72O216
_chemical_formula_sum   'Sr7 Ca15 Pr50 Mn72 O216'
_cell_volume   4285.00477804
_cell_formula_units_Z   1
loop_
 _symmetry_equiv_pos_site_id
 _symmetry_equiv_pos_as_xyz
  1  'x, y, z'
loop_
 _atom_type_symbol
 _atom_type_oxidation_number
  Sr2+  2.0
  Ca2+  2.0
  Pr3+  3.0
  Mn3.30+  3.3
  O2-  -2.0
loop_
 _atom_site_type_symbol
 _atom_site_label
 _atom_site_symmetry_multiplicity
 _atom_site_fract_x
 _atom_site_fract_y
 _atom_site_fract_z
 _atom_site_occupancy
  Sr2+  Sr0  1  0.99916266  0.65728745  0.87591338  1
  Sr2+  Sr1  1  0.33332298  0.67572197  0.62246479  1
  Sr2+  Sr2  1  0.66549025  0.34336324  0.62507954  1
  Sr2+  Sr3  1  0.66785996  0.32320765  0.87435569  1
  Sr2+  Sr4  1  0.66660931  0.99327297  0.37483973  1
  Sr2+  Sr5  1  1.00101049  0.65750739  0.37370982  1
  Sr2+  Sr6  1  -0.00075347  0.34088186  0.62301197  1
  Ca2+  Ca7  1  0.49413359  0.48613828  0.37503528  1
  Ca2+  Ca8  1  0.66031796  0.68646088  0.12553778  1
  Ca2+  Ca9  1  1.00279639  0.31977743  0.87431127  1
  Ca2+  Ca10  1  0.33036318  0.68242285  0.12715200  1
  Ca2+  Ca11  1  1.00707113  0.31510816  0.37542768  1
  Ca2+  Ca12  1  0.33964612  0.64967345  0.37294208  1
  Ca2+  Ca13  1  0.66315473  0.01539673  0.62380829  1
  Ca2+  Ca14  1  -0.00296032  0.01514664  0.12589819  1
  Ca2+  Ca15  1  0.16284429  0.15293321  0.37635035  1
  Ca2+  Ca16  1  0.32909558  0.34801395  0.12736514  1
  Ca2+  Ca17  1  0.82876443  0.81746875  0.87699693  1
  Ca2+  Ca18  1  0.49709077  0.15049155  0.37497196  1
  Ca2+  Ca19  1  0.17004104  0.18316506  0.62230289  1
  Ca2+  Ca20  1  0.50521882  0.85011785  0.12619211  1
  Ca2+  Ca21  1  0.66315195  0.01377719  0.12645026  1
  Pr3+  Pr22  1  0.83349157  0.17931652  0.62258033  1
  Pr3+  Pr23  1  0.33593020  0.32058617  0.87694280  1
  Pr3+  Pr24  1  0.83247267  0.48694962  0.37347853  1
  Pr3+  Pr25  1  0.66451171  0.32128595  0.37539365  1
  Pr3+  Pr26  1  0.67342204  0.98658405  0.87576861  1
  Pr3+  Pr27  1  0.83201469  0.48529263  0.87613112  1
  Pr3+  Pr28  1  0.33405583  0.00954253  0.12487652  1
  Pr3+  Pr29  1  -0.00256773  0.67887165  0.12604043  1
  Pr3+  Pr30  1  0.83372225  0.15586753  0.37665869  1
  Pr3+  Pr31  1  -0.00064036  0.01395929  0.62492661  1
  Pr3+  Pr32  1  0.16778579  0.84439732  0.12462450  1
  Pr3+  Pr33  1  0.50102687  0.51497374  0.12716587  1
  Pr3+  Pr34  1  -0.00219276  0.67641639  0.62389527  1
  Pr3+  Pr35  1  0.83099243  0.15785509  0.87304103  1
  Pr3+  Pr36  1  0.32761238  0.34536351  0.62344459  1
  Pr3+  Pr37  1  0.50314364  0.51189156  0.62219636  1
  Pr3+  Pr38  1  0.83572984  0.84936274  0.12453562  1
  Pr3+  Pr39  1  0.16346312  0.48684680  0.37492682  1
  Pr3+  Pr40  1  0.16822809  0.51199200  0.62369329  1
  Pr3+  Pr41  1  0.66420804  0.34388663  0.12505700  1
  Pr3+  Pr42  1  0.82880390  0.82188627  0.37403847  1
  Pr3+  Pr43  1  0.16076974  0.48526398  0.87561812  1
  Pr3+  Pr44  1  0.66216993  0.67825591  0.62433456  1
  Pr3+  Pr45  1  0.16099236  0.15587702  0.87418458  1
  Pr3+  Pr46  1  0.66818078  0.65476321  0.37199922  1
  Pr3+  Pr47  1  0.49783040  0.48676087  0.87584183  1
  Pr3+  Pr48  1  0.49642832  0.82117031  0.37194408  1
  Pr3+  Pr49  1  0.49873443  0.82045830  0.87843486  1
  Pr3+  Pr50  1  0.49976030  0.15526233  0.87429263  1
  Pr3+  Pr51  1  0.50307647  0.17722877  0.12832092  1
  Pr3+  Pr52  1  0.50527009  0.84763275  0.62518548  1
  Pr3+  Pr53  1  0.83549441  0.84550812  0.62570738  1
  Pr3+  Pr54  1  0.17242364  0.51464163  0.12648528  1
  Pr3+  Pr55  1  1.00395666  0.99004154  0.37375539  1
  Pr3+  Pr56  1  0.16707804  0.82015044  0.37448822  1
  Pr3+  Pr57  1  0.83525819  0.50944857  0.62526384  1
  Pr3+  Pr58  1  0.32879250  0.01504047  0.62503905  1
  Pr3+  Pr59  1  0.50359347  0.18009930  0.62140945  1
  Pr3+  Pr60  1  -0.00338479  0.34491134  0.12702674  1
  Pr3+  Pr61  1  0.33703981  0.98698561  0.87613760  1
  Pr3+  Pr62  1  0.33774397  0.99004001  0.37379727  1
  Pr3+  Pr63  1  0.33769026  0.31694999  0.37303447  1
  Pr3+  Pr64  1  0.67140753  0.65464516  0.87789889  1
  Pr3+  Pr65  1  0.17022768  0.84282983  0.62523580  1
  Pr3+  Pr66  1  0.16508169  0.81893597  0.87567467  1
  Pr3+  Pr67  1  0.33677456  0.65291416  0.87724279  1
  Pr3+  Pr68  1  0.17030463  0.18055510  0.12684596  1
  Pr3+  Pr69  1  0.83512885  0.17483159  0.12729196  1
  Pr3+  Pr70  1  1.00070006  0.98683467  0.87678770  1
  Pr3+  Pr71  1  0.83383230  0.51330332  0.12465349  1
  Mn3.30+  Mn72  1  0.16543419  0.00031141  0.00149014  1
  Mn3.30+  Mn73  1  0.16826876  0.00187165  0.49955776  1
  Mn3.30+  Mn74  1  0.16622913  0.33332566  0.00140587  1
  Mn3.30+  Mn75  1  0.16571689  0.33099678  0.49825592  1
  Mn3.30+  Mn76  1  0.16796995  0.66635139  0.00146900  1
  Mn3.30+  Mn77  1  0.16883959  0.66599602  0.49764321  1
  Mn3.30+  Mn78  1  0.50393147  -0.00024783  0.00066810  1
  Mn3.30+  Mn79  1  0.50056182  0.00037232  0.49993364  1
  Mn3.30+  Mn80  1  0.49772930  0.33298567  0.00265380  1
  Mn3.30+  Mn81  1  0.49820583  0.33364823  0.49734128  1
  Mn3.30+  Mn82  1  0.50089350  0.66917759  0.00482478  1
  Mn3.30+  Mn83  1  0.49807866  0.66621124  0.49675700  1
  Mn3.30+  Mn84  1  0.83377089  0.00048497  0.00109235  1
  Mn3.30+  Mn85  1  0.83219751  -0.00003224  0.50154572  1
  Mn3.30+  Mn86  1  0.83414836  0.33162173  0.00028684  1
  Mn3.30+  Mn87  1  0.83543313  0.33379855  0.49732568  1
  Mn3.30+  Mn88  1  0.83117331  0.66840594  0.00179338  1
  Mn3.30+  Mn89  1  0.83197839  0.66564944  0.49859228  1
  Mn3.30+  Mn90  1  0.00328037  0.16561662  0.25071025  1
  Mn3.30+  Mn91  1  -0.00010344  0.16834230  0.74872732  1
  Mn3.30+  Mn92  1  0.00101002  0.49921168  0.25098293  1
  Mn3.30+  Mn93  1  0.00000673  0.49816346  0.75037513  1
  Mn3.30+  Mn94  1  0.00032350  0.83495470  0.24939363  1
  Mn3.30+  Mn95  1  -0.00082800  0.83249804  0.75159466  1
  Mn3.30+  Mn96  1  0.33344356  0.16593097  0.25018460  1
  Mn3.30+  Mn97  1  0.33094378  0.16706384  0.74999692  1
  Mn3.30+  Mn98  1  0.33464005  0.50076038  0.25032696  1
  Mn3.30+  Mn99  1  0.33209865  0.49991053  0.75025911  1
  Mn3.30+  Mn100  1  0.33511373  0.83143559  0.24790142  1
  Mn3.30+  Mn101  1  0.33524084  0.83246755  0.74970317  1
  Mn3.30+  Mn102  1  0.66622061  0.16525729  0.25186400  1
  Mn3.30+  Mn103  1  0.66576508  0.16633851  0.74856305  1
  Mn3.30+  Mn104  1  0.66336186  0.50110562  0.25004372  1
  Mn3.30+  Mn105  1  0.66715254  0.49933100  0.74974648  1
  Mn3.30+  Mn106  1  0.66423957  0.83584767  0.24811331  1
  Mn3.30+  Mn107  1  0.66878357  0.83439895  0.75043382  1
  Mn3.30+  Mn108  1  0.16702343  0.00097400  0.24875017  1
  Mn3.30+  Mn109  1  0.16667842  0.00085901  0.75043242  1
  Mn3.30+  Mn110  1  0.16696737  0.33244848  0.25135382  1
  Mn3.30+  Mn111  1  0.16469573  0.33221942  0.74904042  1
  Mn3.30+  Mn112  1  0.17037130  0.66669338  0.25099752  1
  Mn3.30+  Mn113  1  0.16704454  0.66544054  0.75033372  1
  Mn3.30+  Mn114  1  0.50220485  -0.00070652  0.24965335  1
  Mn3.30+  Mn115  1  0.50212760  0.00034146  0.74957065  1
  Mn3.30+  Mn116  1  0.49709330  0.33371692  0.24959693  1
  Mn3.30+  Mn117  1  0.49890264  0.33308660  0.75012170  1
  Mn3.30+  Mn118  1  0.49807919  0.66801483  0.24806904  1
  Mn3.30+  Mn119  1  0.50071699  0.66707311  0.75089567  1
  Mn3.30+  Mn120  1  0.83364422  0.00063803  0.24952538  1
  Mn3.30+  Mn121  1  0.83267751  -0.00052159  0.74878949  1
  Mn3.30+  Mn122  1  0.83421249  0.33235754  0.25212854  1
  Mn3.30+  Mn123  1  0.83477826  0.33314376  0.74922822  1
  Mn3.30+  Mn124  1  0.83043292  0.66761057  0.24786853  1
  Mn3.30+  Mn125  1  0.83275353  0.66659141  0.75130877  1
  Mn3.30+  Mn126  1  -0.00033689  0.16687024  0.00065122  1
  Mn3.30+  Mn127  1  0.00371068  0.16731700  0.50014345  1
  Mn3.30+  Mn128  1  0.00057902  0.49905652  0.00072159  1
  Mn3.30+  Mn129  1  0.00023056  0.49808957  0.49796039  1
  Mn3.30+  Mn130  1  -0.00163158  0.83390100  -0.00040882  1
  Mn3.30+  Mn131  1  0.00101962  0.83349274  0.49974767  1
  Mn3.30+  Mn132  1  0.33288811  0.16700347  0.00125304  1
  Mn3.30+  Mn133  1  0.33172725  0.16592270  0.49806567  1
  Mn3.30+  Mn134  1  0.33256445  0.49994576  0.00270767  1
  Mn3.30+  Mn135  1  0.33399465  0.50039691  0.49701913  1
  Mn3.30+  Mn136  1  0.33563226  0.83212489  0.00315106  1
  Mn3.30+  Mn137  1  0.33476196  0.83224014  0.49953839  1
  Mn3.30+  Mn138  1  0.66703629  0.16602832  0.00057704  1
  Mn3.30+  Mn139  1  0.66485003  0.16637379  0.49839175  1
  Mn3.30+  Mn140  1  0.66591268  0.50104426  0.00286432  1
  Mn3.30+  Mn141  1  0.66458528  0.49959072  0.49670090  1
  Mn3.30+  Mn142  1  0.66670115  0.83494759  0.00257243  1
  Mn3.30+  Mn143  1  0.66590229  0.83570522  0.49914719  1
  O2-  O144  1  0.02621246  0.16083708  0.12743291  1
  O2-  O145  1  0.02820142  0.16074500  0.62468539  1
  O2-  O146  1  0.02683780  0.49286452  0.12649903  1
  O2-  O147  1  0.02373111  0.49686069  0.62295732  1
  O2-  O148  1  0.02419582  0.82708581  0.12442257  1
  O2-  O149  1  0.02535612  0.82737323  0.62511352  1
  O2-  O150  1  0.35975266  0.15796057  0.12517284  1
  O2-  O151  1  0.35928842  0.16356040  0.62642519  1
  O2-  O152  1  0.35736261  0.49087168  0.12551398  1
  O2-  O153  1  0.35843072  0.49317274  0.62259162  1
  O2-  O154  1  0.36150783  0.82902044  0.12455428  1
  O2-  O155  1  0.36093241  0.83058631  0.62753250  1
  O2-  O156  1  0.69025522  0.16317675  0.12803804  1
  O2-  O157  1  0.68772574  0.16271218  0.62348804  1
  O2-  O158  1  0.69091989  0.49108791  0.12657033  1
  O2-  O159  1  0.68967426  0.50088241  0.62102598  1
  O2-  O160  1  0.69282903  0.82876276  0.12492606  1
  O2-  O161  1  0.69179489  0.82408432  0.62448141  1
  O2-  O162  1  0.14011095  0.32870778  0.12687527  1
  O2-  O163  1  0.14894247  0.32900750  0.62223371  1
  O2-  O164  1  0.14197272  0.66323192  0.12578409  1
  O2-  O165  1  0.14315308  0.66299907  0.62430459  1
  O2-  O166  1  0.13871499  0.99182934  0.12379689  1
  O2-  O167  1  0.14232785  0.98877480  0.62667600  1
  O2-  O168  1  0.47135511  0.32450459  0.12597942  1
  O2-  O169  1  0.47229394  0.32881108  0.62412178  1
  O2-  O170  1  0.46929808  0.65966909  0.12609463  1
  O2-  O171  1  0.48279692  0.66054084  0.62198638  1
  O2-  O172  1  0.47744379  0.99762191  0.12287237  1
  O2-  O173  1  0.47300204  0.99455875  0.62595261  1
  O2-  O174  1  0.80828603  0.32443537  0.12793353  1
  O2-  O175  1  0.81485103  0.33064234  0.62047669  1
  O2-  O176  1  0.80348375  0.66103596  0.12600692  1
  O2-  O177  1  0.80627654  0.65889329  0.62387439  1
  O2-  O178  1  0.80567117  0.99767035  0.12459915  1
  O2-  O179  1  0.80523250  0.99245440  0.62571111  1
  O2-  O180  1  0.30500989  0.16760845  0.37199649  1
  O2-  O181  1  0.30525320  0.17203487  0.87590394  1
  O2-  O182  1  0.30766076  0.50583866  0.37353007  1
  O2-  O183  1  0.30684409  0.50572720  0.87856220  1
  O2-  O184  1  0.30979582  0.84438263  0.37216034  1
  O2-  O185  1  0.30989060  0.83919048  0.87625071  1
  O2-  O186  1  0.63980944  0.17226600  0.37461474  1
  O2-  O187  1  0.64404006  0.16739324  0.87336668  1
  O2-  O188  1  0.63656091  0.50705590  0.37144801  1
  O2-  O189  1  0.64189679  0.50646547  0.87974382  1
  O2-  O190  1  0.64184192  0.83750775  0.37412116  1
  O2-  O191  1  0.64188066  0.83967110  0.87662529  1
  O2-  O192  1  0.97799147  0.16602856  0.37468415  1
  O2-  O193  1  0.97509166  0.17363257  0.87347407  1
  O2-  O194  1  0.97573025  0.50591935  0.37284400  1
  O2-  O195  1  0.97571743  0.50426054  0.87787311  1
  O2-  O196  1  0.97405903  0.84094830  0.37473281  1
  O2-  O197  1  0.97191003  0.83906908  0.87608130  1
  O2-  O198  1  0.19385341  0.00664535  0.37397485  1
  O2-  O199  1  0.19302387  0.00758522  0.87517797  1
  O2-  O200  1  0.19465523  0.34005988  0.37403384  1
  O2-  O201  1  0.19266566  0.33734961  0.87702247  1
  O2-  O202  1  0.19582726  0.67239280  0.37341578  1
  O2-  O203  1  0.19249536  0.67026873  0.87676809  1
  O2-  O204  1  0.51628041  0.00228585  0.37600551  1
  O2-  O205  1  0.52774792  0.00639331  0.87477715  1
  O2-  O206  1  0.52205352  0.34216395  0.37172737  1
  O2-  O207  1  0.51782064  0.33778688  0.87782487  1
  O2-  O208  1  0.52621438  0.67507648  0.37231281  1
  O2-  O209  1  0.52711661  0.67218613  0.87978958  1
  O2-  O210  1  0.85981341  0.00432176  0.37696420  1
  O2-  O211  1  0.85888046  0.01036872  0.87347927  1
  O2-  O212  1  0.86321109  0.33854442  0.37349310  1
  O2-  O213  1  0.85939534  0.33610908  0.87728484  1
  O2-  O214  1  0.85135137  0.67343846  0.37237614  1
  O2-  O215  1  0.85003334  0.67246417  0.87777365  1
  O2-  O216  1  0.23889463  0.09357865  0.02185500  1
  O2-  O217  1  0.23762787  0.09467903  0.52460896  1
  O2-  O218  1  0.23451350  0.43001209  0.01828276  1
  O2-  O219  1  0.23800503  0.42725951  0.51849907  1
  O2-  O220  1  0.23731578  0.76237346  0.01801442  1
  O2-  O221  1  0.23906374  0.76569282  0.51679928  1
  O2-  O222  1  0.56996052  0.09757684  0.01759936  1
  O2-  O223  1  0.56925900  0.09307178  0.51822760  1
  O2-  O224  1  0.57021703  0.42758311  0.02161435  1
  O2-  O225  1  0.57104533  0.43026206  0.51713774  1
  O2-  O226  1  0.56776450  0.76791605  0.02053355  1
  O2-  O227  1  0.57161917  0.76312343  0.51865764  1
  O2-  O228  1  0.90330904  0.09617044  0.01853959  1
  O2-  O229  1  0.90750255  0.09200626  0.52224258  1
  O2-  O230  1  0.90456351  0.42617740  0.02341174  1
  O2-  O231  1  0.90267518  0.43106298  0.51497241  1
  O2-  O232  1  0.90529279  0.75917302  0.02427192  1
  O2-  O233  1  0.90493435  0.75902899  0.52042486  1
  O2-  O234  1  0.26290587  0.26253540  0.22772478  1
  O2-  O235  1  0.26287537  0.26308385  0.73340941  1
  O2-  O236  1  0.26379760  0.59495630  0.22621536  1
  O2-  O237  1  0.26009841  0.59171567  0.73216965  1
  O2-  O238  1  0.26064316  0.92685892  0.22686920  1
  O2-  O239  1  0.26376591  0.92742542  0.73167686  1
  O2-  O240  1  0.59427700  0.26205595  0.23027096  1
  O2-  O241  1  0.58728911  0.25816408  0.73147069  1
  O2-  O242  1  0.59432336  0.59914090  0.22613586  1
  O2-  O243  1  0.59530441  0.59457197  0.73262473  1
  O2-  O244  1  0.59674542  0.92982730  0.22882824  1
  O2-  O245  1  0.59965917  0.92811634  0.72851176  1
  O2-  O246  1  0.92841503  0.25741313  0.22986257  1
  O2-  O247  1  0.92432048  0.25586016  0.72911933  1
  O2-  O248  1  0.92467944  0.59340178  0.22682379  1
  O2-  O249  1  0.92694390  0.59199570  0.72813088  1
  O2-  O250  1  0.92878763  0.92961501  0.22794394  1
  O2-  O251  1  0.92790114  0.92868229  0.72831992  1
  O2-  O252  1  0.09958167  0.23506647  0.26874486  1
  O2-  O253  1  0.09523375  0.23929426  0.76955735  1
  O2-  O254  1  0.09940754  0.57116539  0.26629847  1
  O2-  O255  1  0.09474149  0.56796689  0.76569096  1
  O2-  O256  1  0.09692742  0.90727711  0.27224277  1
  O2-  O257  1  0.09429078  0.90608562  0.77303429  1
  O2-  O258  1  0.42860346  0.23523035  0.27289370  1
  O2-  O259  1  0.42413118  0.23828030  0.77184795  1
  O2-  O260  1  0.43252280  0.56820079  0.26853207  1
  O2-  O261  1  0.42803286  0.57268065  0.77119276  1
  O2-  O262  1  0.42698463  0.90635369  0.26735556  1
  O2-  O263  1  0.43038031  0.90611354  0.77219927  1
  O2-  O264  1  0.76090923  0.24064720  0.27390066  1
  O2-  O265  1  0.76183865  0.23831709  0.76333456  1
  O2-  O266  1  0.75949935  0.57123496  0.27046569  1
  O2-  O267  1  0.76143306  0.57202137  0.77150129  1
  O2-  O268  1  0.76590695  0.90405415  0.26655521  1
  O2-  O269  1  0.76490402  0.90257614  0.77272406  1
  O2-  O270  1  0.07072289  0.06861243  0.48300035  1
  O2-  O271  1  0.07099822  0.07444100  0.97692896  1
  O2-  O272  1  0.07286590  0.40469799  0.47592202  1
  O2-  O273  1  0.07086486  0.40174955  0.97940207  1
  O2-  O274  1  0.07597074  0.74139887  0.48162338  1
  O2-  O275  1  0.07540788  0.74058130  0.98324565  1
  O2-  O276  1  0.40017684  0.06936665  0.48516069  1
  O2-  O277  1  0.40686773  0.07179113  0.97831123  1
  O2-  O278  1  0.40152998  0.40231979  0.48031025  1
  O2-  O279  1  0.40484063  0.40729480  0.97940529  1
  O2-  O280  1  0.40661786  0.73761058  0.47562391  1
  O2-  O281  1  0.40601142  0.73899083  0.97743654  1
  O2-  O282  1  0.74525996  0.07721476  0.48204265  1
  O2-  O283  1  0.74106500  0.07241272  0.97853706  1
  O2-  O284  1  0.73856271  0.40860523  0.47341882  1
  O2-  O285  1  0.74323456  0.40563569  0.98431745  1
  O2-  O286  1  0.73624504  0.73927423  0.47978970  1
  O2-  O287  1  0.73460568  0.73997825  0.98257680  1
  O2-  O288  1  0.09746389  0.23729710  0.47829442  1
  O2-  O289  1  0.09795063  0.23670927  0.98427562  1
  O2-  O290  1  0.09463660  0.56961863  0.48312209  1
  O2-  O291  1  0.09892371  0.56980530  0.98511845  1
  O2-  O292  1  0.09740557  0.90757821  0.47834356  1
  O2-  O293  1  0.09512969  0.90597871  0.97709448  1
  O2-  O294  1  0.42679484  0.23470634  0.47713174  1
  O2-  O295  1  0.42697838  0.23788442  0.97871328  1
  O2-  O296  1  0.43020734  0.56894095  0.48101858  1
  O2-  O297  1  0.42918728  0.57163872  0.97975251  1
  O2-  O298  1  0.42899146  0.90380576  0.48158424  1
  O2-  O299  1  0.42942953  0.90848357  0.97860443  1
  O2-  O300  1  0.75986221  0.24242366  0.47822808  1
  O2-  O301  1  0.76365225  0.23658826  0.98397865  1
  O2-  O302  1  0.75933191  0.57166586  0.47600199  1
  O2-  O303  1  0.76219696  0.57199044  0.98111632  1
  O2-  O304  1  0.76438743  0.90238178  0.48315616  1
  O2-  O305  1  0.76551043  0.90410214  0.97899054  1
  O2-  O306  1  0.07356357  0.07133438  0.26954064  1
  O2-  O307  1  0.06892395  0.07224183  0.77134230  1
  O2-  O308  1  0.07129075  0.40079903  0.27211790  1
  O2-  O309  1  0.07231608  0.40483131  0.77260386  1
  O2-  O310  1  0.07607181  0.74190215  0.26688633  1
  O2-  O311  1  0.07566012  0.74061696  0.76834251  1
  O2-  O312  1  0.40445384  0.06960655  0.26507151  1
  O2-  O313  1  0.40240727  0.07322171  0.77159339  1
  O2-  O314  1  0.40202192  0.40435200  0.26877587  1
  O2-  O315  1  0.40320762  0.40627707  0.77059748  1
  O2-  O316  1  0.40392809  0.73763978  0.27418761  1
  O2-  O317  1  0.40741957  0.74021323  0.77443440  1
  O2-  O318  1  0.74558189  0.07760531  0.27109530  1
  O2-  O319  1  0.74098498  0.07208736  0.76953240  1
  O2-  O320  1  0.73800848  0.40527147  0.27167126  1
  O2-  O321  1  0.74258071  0.40972807  0.76813581  1
  O2-  O322  1  0.73650492  0.74199218  0.26991168  1
  O2-  O323  1  0.73469918  0.73743568  0.76736545  1
  O2-  O324  1  0.24084300  0.09120083  0.22396513  1
  O2-  O325  1  0.23721734  0.09645698  0.72752534  1
  O2-  O326  1  0.23516976  0.43003573  0.23338370  1
  O2-  O327  1  0.23694496  0.42718112  0.73080432  1
  O2-  O328  1  0.23795504  0.76411267  0.23006096  1
  O2-  O329  1  0.23944708  0.76434291  0.73455443  1
  O2-  O330  1  0.57216923  0.09409558  0.23253140  1
  O2-  O331  1  0.56853612  0.09535877  0.73007122  1
  O2-  O332  1  0.57253718  0.42656012  0.22524189  1
  O2-  O333  1  0.56946427  0.43082312  0.73430986  1
  O2-  O334  1  0.56663352  0.76543942  0.23032604  1
  O2-  O335  1  0.57192194  0.76299852  0.73177062  1
  O2-  O336  1  0.90670771  0.09446194  0.23329544  1
  O2-  O337  1  0.90482508  0.09368144  0.72602411  1
  O2-  O338  1  0.90314289  0.42688974  0.22767671  1
  O2-  O339  1  0.90426287  0.43039040  0.73429473  1
  O2-  O340  1  0.90452562  0.76085439  0.22881793  1
  O2-  O341  1  0.90661536  0.75744829  0.72696955  1
  O2-  O342  1  0.26136837  0.26355888  0.02287218  1
  O2-  O343  1  0.26502938  0.26244981  0.51570575  1
  O2-  O344  1  0.26447420  0.59695408  0.02289830  1
  O2-  O345  1  0.25809945  0.58971528  0.51884136  1
  O2-  O346  1  0.26263692  0.92621286  0.01993268  1
  O2-  O347  1  0.26206131  0.92914023  0.52047178  1
  O2-  O348  1  0.59217752  0.26041611  0.02234406  1
  O2-  O349  1  0.59058338  0.26153213  0.51589599  1
  O2-  O350  1  0.59341571  0.59881955  0.02457424  1
  O2-  O351  1  0.59530536  0.59645735  0.51632728  1
  O2-  O352  1  0.60128475  0.93346083  0.01745941  1
  O2-  O353  1  0.59492447  0.92761833  0.52419097  1
  O2-  O354  1  0.92793889  0.25920597  0.02433146  1
  O2-  O355  1  0.92550129  0.25369184  0.51563039  1
  O2-  O356  1  0.92601274  0.59317109  0.02434184  1
  O2-  O357  1  0.92595110  0.59216366  0.52107978  1
  O2-  O358  1  0.92875255  0.93147702  0.02185269  1
  O2-  O359  1  0.92799302  0.92728602  0.52255460  1
