# generated using pymatgen
data_Sr7Ca15Pr50Mn72O216
_symmetry_space_group_name_H-M   'P 1'
_cell_length_a   16.56053894
_cell_length_b   16.60430081
_cell_length_c   15.59359855
_cell_angle_alpha   89.99243722
_cell_angle_beta   90.00088532
_cell_angle_gamma   90.00751228
_symmetry_Int_Tables_number   1
_chemical_formula_structural   Sr7Ca15Pr50Mn72O216
_chemical_formula_sum   'Sr7 Ca15 Pr50 Mn72 O216'
_cell_volume   4287.86793282
_cell_formula_units_Z   1
loop_
 _symmetry_equiv_pos_site_id
 _symmetry_equiv_pos_as_xyz
  1  'x, y, z'
loop_
 _atom_type_symbol
 _atom_type_oxidation_number
  Sr2+  2.0
  Ca2+  2.0
  Pr3+  3.0
  Mn3.30+  3.3
  O2-  -2.0
loop_
 _atom_site_type_symbol
 _atom_site_label
 _atom_site_symmetry_multiplicity
 _atom_site_fract_x
 _atom_site_fract_y
 _atom_site_fract_z
 _atom_site_occupancy
  Sr2+  Sr0  1  0.66703908  0.34526825  0.62428973  1
  Sr2+  Sr1  1  0.16690578  0.17798723  0.62257786  1
  Sr2+  Sr2  1  0.49663957  0.48668536  0.37217749  1
  Sr2+  Sr3  1  -0.00219029  0.67322170  0.62298227  1
  Sr2+  Sr4  1  0.83229871  0.82231956  0.87789378  1
  Sr2+  Sr5  1  0.16493559  0.82337883  0.37336438  1
  Sr2+  Sr6  1  -0.00253928  0.34478731  0.62410700  1
  Ca2+  Ca7  1  0.16359015  0.48673337  0.37525397  1
  Ca2+  Ca8  1  0.83743300  0.51474489  0.12645529  1
  Ca2+  Ca9  1  0.83804617  0.18164871  0.12611828  1
  Ca2+  Ca10  1  1.00608336  0.64899635  0.37546872  1
  Ca2+  Ca11  1  0.50339563  0.51308206  0.12593703  1
  Ca2+  Ca12  1  0.16013513  0.81712779  0.87695610  1
  Ca2+  Ca13  1  0.83793381  0.84755931  0.12401237  1
  Ca2+  Ca14  1  0.33242919  0.98850620  0.37451401  1
  Ca2+  Ca15  1  0.49729113  0.48529469  0.87758803  1
  Ca2+  Ca16  1  0.33330486  0.32046299  0.37384022  1
  Ca2+  Ca17  1  0.50247652  0.18122571  0.12635761  1
  Ca2+  Ca18  1  0.17139064  0.18140071  0.12806832  1
  Ca2+  Ca19  1  0.83901737  0.51470573  0.62385587  1
  Ca2+  Ca20  1  0.17066551  0.84662403  0.12677666  1
  Ca2+  Ca21  1  0.16645362  0.15484066  0.37279432  1
  Pr3+  Pr22  1  0.49372049  0.82115191  0.37378457  1
  Pr3+  Pr23  1  0.33583549  0.32058523  0.87641208  1
  Pr3+  Pr24  1  0.66946629  0.98823703  0.37377720  1
  Pr3+  Pr25  1  0.32924984  0.67998757  0.12707417  1
  Pr3+  Pr26  1  -0.00063238  0.01181363  0.62338749  1
  Pr3+  Pr27  1  0.50195625  0.84507177  0.62465675  1
  Pr3+  Pr28  1  0.83923315  0.84398260  0.62573070  1
  Pr3+  Pr29  1  0.83092008  0.15536852  0.87670197  1
  Pr3+  Pr30  1  0.33313102  0.34481588  0.12704860  1
  Pr3+  Pr31  1  0.66433530  0.01525124  0.12398172  1
  Pr3+  Pr32  1  0.49423021  0.15550766  0.37284427  1
  Pr3+  Pr33  1  1.00458127  0.98343694  0.87617411  1
  Pr3+  Pr34  1  1.00212595  0.32013321  0.87562054  1
  Pr3+  Pr35  1  0.66714253  0.67792474  0.12562510  1
  Pr3+  Pr36  1  0.66836239  0.32244032  0.37479678  1
  Pr3+  Pr37  1  -0.00294961  0.34693386  0.12596485  1
  Pr3+  Pr38  1  0.83248846  0.49012879  0.37528531  1
  Pr3+  Pr39  1  0.66753878  0.32327071  0.87542028  1
  Pr3+  Pr40  1  0.50124377  0.84584364  0.12540655  1
  Pr3+  Pr41  1  0.83368973  0.81977205  0.37191311  1
  Pr3+  Pr42  1  1.00518507  0.98908432  0.37392831  1
  Pr3+  Pr43  1  0.83909640  0.18101361  0.62403349  1
  Pr3+  Pr44  1  0.33390033  0.65306393  0.37363296  1
  Pr3+  Pr45  1  0.16965679  0.51246434  0.12735276  1
  Pr3+  Pr46  1  0.33564925  0.65146631  0.87645006  1
  Pr3+  Pr47  1  0.16755671  0.84466097  0.62406121  1
  Pr3+  Pr48  1  0.32749458  0.01421867  0.12746131  1
  Pr3+  Pr49  1  0.16266949  0.48647612  0.87606127  1
  Pr3+  Pr50  1  0.16673757  0.51031938  0.62209865  1
  Pr3+  Pr51  1  0.32847307  0.01439079  0.62246803  1
  Pr3+  Pr52  1  0.50189841  0.18146417  0.62412363  1
  Pr3+  Pr53  1  0.67070901  0.98696724  0.87589347  1
  Pr3+  Pr54  1  0.32803479  0.34544154  0.62278881  1
  Pr3+  Pr55  1  0.66982948  0.65331242  0.87640290  1
  Pr3+  Pr56  1  0.66471530  0.01258975  0.62559345  1
  Pr3+  Pr57  1  0.49704896  0.15488417  0.87688708  1
  Pr3+  Pr58  1  0.66353058  0.34771724  0.12582956  1
  Pr3+  Pr59  1  0.32737938  0.67723185  0.62323915  1
  Pr3+  Pr60  1  -0.00019657  0.01267744  0.12658534  1
  Pr3+  Pr61  1  1.00134284  0.65532326  0.87512293  1
  Pr3+  Pr62  1  0.66773313  0.65298134  0.37347398  1
  Pr3+  Pr63  1  1.00663480  0.32166371  0.37447497  1
  Pr3+  Pr64  1  0.16372180  0.15384584  0.87729245  1
  Pr3+  Pr65  1  0.66824486  0.67471836  0.62376448  1
  Pr3+  Pr66  1  0.49756035  0.81937873  0.87640722  1
  Pr3+  Pr67  1  0.50244328  0.50953217  0.62416026  1
  Pr3+  Pr68  1  0.33342391  0.98561276  0.87533084  1
  Pr3+  Pr69  1  0.83049793  0.49014508  0.87524504  1
  Pr3+  Pr70  1  0.83205536  0.15603399  0.37263243  1
  Pr3+  Pr71  1  -0.00353309  0.68132365  0.12756110  1
  Mn3.30+  Mn72  1  0.16675729  -0.00183944  0.00220670  1
  Mn3.30+  Mn73  1  0.16772453  0.00139136  0.49702424  1
  Mn3.30+  Mn74  1  0.16674216  0.33173347  0.00269196  1
  Mn3.30+  Mn75  1  0.16789992  0.33322174  0.49691504  1
  Mn3.30+  Mn76  1  0.16632344  0.66829073  0.00126040  1
  Mn3.30+  Mn77  1  0.16374008  0.66572039  0.49734460  1
  Mn3.30+  Mn78  1  0.49903520  0.00105930  0.00127338  1
  Mn3.30+  Mn79  1  0.49844142  0.00041420  0.49900969  1
  Mn3.30+  Mn80  1  0.50053707  0.33460706  0.00183133  1
  Mn3.30+  Mn81  1  0.49800196  0.33351218  0.49781334  1
  Mn3.30+  Mn82  1  0.49980636  0.66393548  0.00112056  1
  Mn3.30+  Mn83  1  0.49825317  0.66519251  0.50004792  1
  Mn3.30+  Mn84  1  0.83449871  0.00039862  0.00277872  1
  Mn3.30+  Mn85  1  0.83368176  -0.00023587  0.49843377  1
  Mn3.30+  Mn86  1  0.83309157  0.33434546  0.00238005  1
  Mn3.30+  Mn87  1  0.83540024  0.33576660  0.49942875  1
  Mn3.30+  Mn88  1  0.83415656  0.66736609  0.00260304  1
  Mn3.30+  Mn89  1  0.83616808  0.66577697  0.49729122  1
  Mn3.30+  Mn90  1  0.00271938  0.16777858  0.24807362  1
  Mn3.30+  Mn91  1  -0.00032917  0.16616278  0.75064077  1
  Mn3.30+  Mn92  1  0.00134858  0.50083478  0.25051806  1
  Mn3.30+  Mn93  1  -0.00246210  0.49985242  0.74914517  1
  Mn3.30+  Mn94  1  0.00135586  0.83338510  0.24868835  1
  Mn3.30+  Mn95  1  0.00141775  0.83101227  0.75091382  1
  Mn3.30+  Mn96  1  0.33183031  0.16694592  0.25041253  1
  Mn3.30+  Mn97  1  0.33233330  0.16664827  0.75041344  1
  Mn3.30+  Mn98  1  0.33367116  0.49817934  0.25022556  1
  Mn3.30+  Mn99  1  0.33453162  0.49893281  0.75132646  1
  Mn3.30+  Mn100  1  0.33087364  0.83499923  0.25049677  1
  Mn3.30+  Mn101  1  0.33128739  0.83135128  0.75150881  1
  Mn3.30+  Mn102  1  0.66649694  0.16809772  0.24775252  1
  Mn3.30+  Mn103  1  0.66652842  0.16826547  0.75020391  1
  Mn3.30+  Mn104  1  0.66681820  0.50002165  0.24843447  1
  Mn3.30+  Mn105  1  0.66596765  0.49993169  0.74942809  1
  Mn3.30+  Mn106  1  0.66752469  0.83412437  0.24871144  1
  Mn3.30+  Mn107  1  0.66757232  0.83190221  0.74968727  1
  Mn3.30+  Mn108  1  0.16736457  0.00092727  0.25032819  1
  Mn3.30+  Mn109  1  0.16708860  -0.00139969  0.75057052  1
  Mn3.30+  Mn110  1  0.16844493  0.33205497  0.25128148  1
  Mn3.30+  Mn111  1  0.16613275  0.33295769  0.74867254  1
  Mn3.30+  Mn112  1  0.16371205  0.66701925  0.25162450  1
  Mn3.30+  Mn113  1  0.16615223  0.66644795  0.75038902  1
  Mn3.30+  Mn114  1  0.49794438  0.00183233  0.24924311  1
  Mn3.30+  Mn115  1  0.49938961  -0.00025840  0.75042123  1
  Mn3.30+  Mn116  1  0.49846826  0.33266906  0.24930343  1
  Mn3.30+  Mn117  1  0.49986288  0.33512046  0.75070407  1
  Mn3.30+  Mn118  1  0.49905998  0.66503040  0.24810211  1
  Mn3.30+  Mn119  1  0.49921199  0.66425919  0.75071760  1
  Mn3.30+  Mn120  1  0.83446697  0.00070482  0.24725117  1
  Mn3.30+  Mn121  1  0.83377628  -0.00035629  0.75105958  1
  Mn3.30+  Mn122  1  0.83464682  0.33456268  0.24857892  1
  Mn3.30+  Mn123  1  0.83368176  0.33605313  0.74949703  1
  Mn3.30+  Mn124  1  0.83610810  0.66648637  0.24985625  1
  Mn3.30+  Mn125  1  0.83387187  0.66648755  0.75036046  1
  Mn3.30+  Mn126  1  0.00000306  0.16644964  0.00351095  1
  Mn3.30+  Mn127  1  0.00204186  0.16751180  0.49781325  1
  Mn3.30+  Mn128  1  -0.00159817  0.50068779  0.00198242  1
  Mn3.30+  Mn129  1  -0.00002870  0.49989277  0.49849470  1
  Mn3.30+  Mn130  1  0.00213653  0.83312070  0.00241555  1
  Mn3.30+  Mn131  1  0.00112336  0.83098002  0.49835192  1
  Mn3.30+  Mn132  1  0.33315242  0.16643088  0.00343697  1
  Mn3.30+  Mn133  1  0.33135374  0.16724486  0.49580551  1
  Mn3.30+  Mn134  1  0.33580987  0.49926974  0.00219522  1
  Mn3.30+  Mn135  1  0.33268603  0.49777037  0.49606860  1
  Mn3.30+  Mn136  1  0.32973833  0.83247917  -0.00046702  1
  Mn3.30+  Mn137  1  0.33269285  0.83396675  0.49882585  1
  Mn3.30+  Mn138  1  0.66652779  0.16891137  0.00233848  1
  Mn3.30+  Mn139  1  0.66629059  0.16754451  0.49907507  1
  Mn3.30+  Mn140  1  0.66515938  0.50050425  0.00167620  1
  Mn3.30+  Mn141  1  0.66739135  0.49934829  0.50002460  1
  Mn3.30+  Mn142  1  0.66826809  0.83359101  0.00242053  1
  Mn3.30+  Mn143  1  0.66717491  0.83279012  0.49890193  1
  O2-  O144  1  0.02952493  0.16163818  0.12531658  1
  O2-  O145  1  0.01662680  0.16061658  0.62421160  1
  O2-  O146  1  0.02621754  0.49506584  0.12514976  1
  O2-  O147  1  0.02305506  0.49980168  0.62373213  1
  O2-  O148  1  0.02934017  0.82847703  0.12617105  1
  O2-  O149  1  0.02283231  0.83174864  0.62451101  1
  O2-  O150  1  0.36144817  0.15949173  0.12490974  1
  O2-  O151  1  0.35839651  0.16149880  0.62353712  1
  O2-  O152  1  0.36095222  0.49403769  0.12478540  1
  O2-  O153  1  0.35828068  0.49404231  0.62410883  1
  O2-  O154  1  0.35817980  0.82882382  0.12428446  1
  O2-  O155  1  0.35863596  0.82594477  0.62538347  1
  O2-  O156  1  0.69596619  0.16212151  0.12441368  1
  O2-  O157  1  0.69408348  0.16016885  0.62333156  1
  O2-  O158  1  0.69532175  0.49513640  0.12548644  1
  O2-  O159  1  0.69330284  0.50303848  0.62403801  1
  O2-  O160  1  0.69470278  0.82681125  0.12614045  1
  O2-  O161  1  0.69425291  0.82623810  0.62234706  1
  O2-  O162  1  0.14117545  0.32677959  0.12477070  1
  O2-  O163  1  0.14849041  0.33394962  0.62466204  1
  O2-  O164  1  0.14071314  0.65829139  0.12653811  1
  O2-  O165  1  0.14806281  0.65882606  0.62350969  1
  O2-  O166  1  0.14336860  0.99057195  0.12480473  1
  O2-  O167  1  0.14370583  0.99407378  0.62425512  1
  O2-  O168  1  0.47625648  0.32444232  0.12476718  1
  O2-  O169  1  0.47307879  0.32932268  0.62361602  1
  O2-  O170  1  0.47445987  0.66191991  0.12418560  1
  O2-  O171  1  0.47162091  0.65843065  0.62674193  1
  O2-  O172  1  0.47199720  0.99243707  0.12516453  1
  O2-  O173  1  0.47297094  0.99395952  0.62691459  1
  O2-  O174  1  0.80791245  0.32472116  0.12461832  1
  O2-  O175  1  0.81530192  0.32489130  0.62442311  1
  O2-  O176  1  0.80997911  0.65895254  0.12622802  1
  O2-  O177  1  0.81152385  0.66329375  0.62157421  1
  O2-  O178  1  0.80745380  0.99196920  0.12578607  1
  O2-  O179  1  0.80855112  0.99310714  0.62327807  1
  O2-  O180  1  0.30732739  0.17620984  0.37295234  1
  O2-  O181  1  0.30794284  0.17194265  0.87835462  1
  O2-  O182  1  0.30581663  0.50721177  0.37273371  1
  O2-  O183  1  0.30631345  0.50333188  0.87823880  1
  O2-  O184  1  0.31576760  0.83982282  0.37497728  1
  O2-  O185  1  0.30325805  0.83762404  0.87583722  1
  O2-  O186  1  0.64062942  0.17104184  0.37429569  1
  O2-  O187  1  0.64056242  0.17295981  0.87727985  1
  O2-  O188  1  0.64598772  0.50408999  0.37384229  1
  O2-  O189  1  0.63911615  0.50585109  0.87650990  1
  O2-  O190  1  0.63810018  0.83996481  0.37417909  1
  O2-  O191  1  0.64116901  0.83840041  0.87724036  1
  O2-  O192  1  0.97519524  0.17003635  0.37169788  1
  O2-  O193  1  0.97502743  0.16979938  0.87874069  1
  O2-  O194  1  0.97632143  0.50044311  0.37314070  1
  O2-  O195  1  0.97554449  0.50491682  0.87804316  1
  O2-  O196  1  0.97556255  0.84325214  0.37325057  1
  O2-  O197  1  0.98068631  0.83603265  0.87655616  1
  O2-  O198  1  0.19040478  0.00789564  0.37427927  1
  O2-  O199  1  0.19077367  0.00793260  0.87726580  1
  O2-  O200  1  0.19226101  0.34396186  0.37265489  1
  O2-  O201  1  0.19064867  0.33825142  0.87748787  1
  O2-  O202  1  0.19169432  0.67065840  0.37382081  1
  O2-  O203  1  0.19174456  0.67122108  0.87698781  1
  O2-  O204  1  0.52681930  0.00644123  0.37263011  1
  O2-  O205  1  0.52637821  0.00558350  0.87496965  1
  O2-  O206  1  0.52476503  0.33102554  0.37323349  1
  O2-  O207  1  0.52380561  0.33911025  0.87815131  1
  O2-  O208  1  0.52318437  0.67376753  0.37281891  1
  O2-  O209  1  0.52605480  0.67400451  0.87627705  1
  O2-  O210  1  0.85950691  0.00763206  0.37241084  1
  O2-  O211  1  0.85920781  0.00754415  0.87818109  1
  O2-  O212  1  0.86073997  0.34146946  0.37280748  1
  O2-  O213  1  0.85805337  0.34147573  0.87814234  1
  O2-  O214  1  0.86177338  0.67353047  0.37204895  1
  O2-  O215  1  0.85666358  0.66804503  0.87994276  1
  O2-  O216  1  0.23658225  0.09547754  0.02202895  1
  O2-  O217  1  0.24226245  0.09209848  0.51912881  1
  O2-  O218  1  0.23910938  0.42815471  0.02157351  1
  O2-  O219  1  0.23952829  0.42782919  0.52106981  1
  O2-  O220  1  0.23893683  0.76114707  0.02517416  1
  O2-  O221  1  0.23846527  0.75879940  0.52078330  1
  O2-  O222  1  0.57326725  0.09812551  0.02222966  1
  O2-  O223  1  0.57098178  0.09216179  0.52205790  1
  O2-  O224  1  0.57192299  0.42871295  0.02504429  1
  O2-  O225  1  0.56997472  0.42661899  0.51767124  1
  O2-  O226  1  0.57207989  0.76232695  0.02127320  1
  O2-  O227  1  0.57121801  0.75901140  0.52180948  1
  O2-  O228  1  0.90495980  0.09677249  0.02431838  1
  O2-  O229  1  0.90305369  0.09273472  0.51842954  1
  O2-  O230  1  0.90380077  0.42968324  0.02305252  1
  O2-  O231  1  0.90250895  0.43134998  0.51642431  1
  O2-  O232  1  0.90723996  0.76246829  0.02471433  1
  O2-  O233  1  0.90107055  0.76554671  0.51469108  1
  O2-  O234  1  0.26284181  0.26053529  0.22757447  1
  O2-  O235  1  0.26345912  0.26321197  0.73484363  1
  O2-  O236  1  0.26040680  0.59442885  0.22842763  1
  O2-  O237  1  0.26352552  0.59330011  0.73250279  1
  O2-  O238  1  0.26226239  0.92893328  0.23202995  1
  O2-  O239  1  0.26253643  0.92772412  0.72852844  1
  O2-  O240  1  0.59774982  0.26251705  0.23093582  1
  O2-  O241  1  0.59150385  0.25960896  0.73209267  1
  O2-  O242  1  0.59688761  0.59500638  0.23141939  1
  O2-  O243  1  0.59446630  0.59477733  0.72802180  1
  O2-  O244  1  0.59618531  0.92883516  0.22738918  1
  O2-  O245  1  0.59330961  0.92696857  0.72890109  1
  O2-  O246  1  0.93111246  0.26294213  0.23140333  1
  O2-  O247  1  0.92534592  0.25908638  0.73773196  1
  O2-  O248  1  0.93077752  0.59421490  0.23103758  1
  O2-  O249  1  0.92578113  0.59489413  0.73823748  1
  O2-  O250  1  0.92858140  0.92986921  0.23014199  1
  O2-  O251  1  0.92980826  0.92790985  0.73152292  1
  O2-  O252  1  0.09679982  0.24020350  0.27388522  1
  O2-  O253  1  0.09266939  0.23856337  0.77262747  1
  O2-  O254  1  0.09768750  0.56704100  0.26869616  1
  O2-  O255  1  0.09467105  0.57188772  0.77092299  1
  O2-  O256  1  0.09162458  0.91000555  0.26913328  1
  O2-  O257  1  0.09623078  0.90305818  0.76956240  1
  O2-  O258  1  0.42891416  0.23599351  0.26675646  1
  O2-  O259  1  0.42790412  0.23768760  0.77058649  1
  O2-  O260  1  0.42215458  0.57479671  0.26851805  1
  O2-  O261  1  0.42897904  0.56933669  0.77347036  1
  O2-  O262  1  0.43244737  0.90433912  0.26605799  1
  O2-  O263  1  0.42696193  0.90300609  0.77228584  1
  O2-  O264  1  0.76197298  0.24233264  0.27383428  1
  O2-  O265  1  0.76045268  0.24073754  0.77104224  1
  O2-  O266  1  0.76109025  0.57507824  0.27157840  1
  O2-  O267  1  0.75746919  0.57389114  0.77247434  1
  O2-  O268  1  0.75910363  0.90755706  0.27381894  1
  O2-  O269  1  0.75933205  0.90940497  0.76825536  1
  O2-  O270  1  0.07013438  0.07140881  0.48360888  1
  O2-  O271  1  0.07077891  0.07025837  0.98047602  1
  O2-  O272  1  0.07237666  0.40498949  0.48108999  1
  O2-  O273  1  0.07011776  0.40605370  0.98117340  1
  O2-  O274  1  0.06930357  0.73655746  0.48017614  1
  O2-  O275  1  0.06917314  0.73641577  0.98283789  1
  O2-  O276  1  0.40323889  0.07206050  0.47745591  1
  O2-  O277  1  0.40380113  0.07171709  0.97795862  1
  O2-  O278  1  0.40110373  0.40101687  0.48093845  1
  O2-  O279  1  0.40320597  0.40299569  0.98237717  1
  O2-  O280  1  0.40480697  0.73824104  0.48026484  1
  O2-  O281  1  0.40379235  0.73851354  0.97974776  1
  O2-  O282  1  0.73900117  0.07213645  0.47858260  1
  O2-  O283  1  0.73688800  0.07475639  0.97888553  1
  O2-  O284  1  0.74065075  0.40695118  0.47718855  1
  O2-  O285  1  0.73599588  0.40713864  0.97938504  1
  O2-  O286  1  0.73793708  0.73936916  0.47640886  1
  O2-  O287  1  0.73514680  0.73686030  0.98418504  1
  O2-  O288  1  0.09657455  0.24098074  0.47570420  1
  O2-  O289  1  0.09287567  0.23870517  0.97759879  1
  O2-  O290  1  0.09666113  0.56851826  0.48093815  1
  O2-  O291  1  0.09503633  0.57139686  0.98013889  1
  O2-  O292  1  0.09238799  0.90775448  0.48324808  1
  O2-  O293  1  0.09614852  0.90482587  0.97757615  1
  O2-  O294  1  0.43002132  0.23472966  0.48305637  1
  O2-  O295  1  0.42837971  0.23927728  0.97824963  1
  O2-  O296  1  0.42405221  0.57246560  0.48087144  1
  O2-  O297  1  0.42712422  0.57137217  0.97637887  1
  O2-  O298  1  0.43277807  0.90420914  0.48392173  1
  O2-  O299  1  0.42590524  0.90238940  0.97800479  1
  O2-  O300  1  0.76198106  0.24123272  0.47765722  1
  O2-  O301  1  0.75998936  0.24121321  0.97626919  1
  O2-  O302  1  0.75936515  0.57725101  0.47566875  1
  O2-  O303  1  0.75889860  0.57300786  0.97930733  1
  O2-  O304  1  0.76314043  0.90717399  0.47623547  1
  O2-  O305  1  0.75641474  0.91019466  0.98112479  1
  O2-  O306  1  0.07051455  0.07085058  0.26652361  1
  O2-  O307  1  0.07169240  0.07053113  0.76990590  1
  O2-  O308  1  0.07015626  0.40291270  0.26442194  1
  O2-  O309  1  0.07232520  0.40660296  0.77218377  1
  O2-  O310  1  0.06674529  0.73334562  0.26826640  1
  O2-  O311  1  0.07230508  0.73770404  0.76927234  1
  O2-  O312  1  0.40173212  0.07139797  0.27300517  1
  O2-  O313  1  0.40626343  0.07172631  0.77168301  1
  O2-  O314  1  0.40199797  0.40043856  0.26737635  1
  O2-  O315  1  0.40260307  0.40368577  0.76897870  1
  O2-  O316  1  0.40393683  0.74038471  0.26794323  1
  O2-  O317  1  0.40472374  0.73684656  0.77232370  1
  O2-  O318  1  0.73779263  0.07337308  0.26993900  1
  O2-  O319  1  0.73869817  0.07366153  0.77127939  1
  O2-  O320  1  0.73854073  0.40599900  0.27005101  1
  O2-  O321  1  0.73793614  0.40812342  0.77318698  1
  O2-  O322  1  0.73735279  0.73953277  0.27200177  1
  O2-  O323  1  0.73662852  0.73585623  0.76619261  1
  O2-  O324  1  0.23832813  0.09482591  0.22605043  1
  O2-  O325  1  0.24148530  0.09248212  0.73326589  1
  O2-  O326  1  0.24000008  0.42587174  0.22487782  1
  O2-  O327  1  0.23878304  0.43000325  0.73177398  1
  O2-  O328  1  0.23845885  0.75987869  0.22841564  1
  O2-  O329  1  0.23918764  0.75905866  0.72695235  1
  O2-  O330  1  0.56970666  0.09423399  0.22689963  1
  O2-  O331  1  0.57348597  0.09460873  0.72880161  1
  O2-  O332  1  0.57256040  0.42629494  0.22733745  1
  O2-  O333  1  0.57125356  0.42944617  0.73103944  1
  O2-  O334  1  0.57307977  0.76223043  0.22854383  1
  O2-  O335  1  0.57049671  0.75955929  0.72872684  1
  O2-  O336  1  0.90485166  0.09612330  0.22749735  1
  O2-  O337  1  0.90416900  0.09355384  0.73045514  1
  O2-  O338  1  0.90463036  0.42926905  0.22746393  1
  O2-  O339  1  0.90131900  0.43147370  0.73367972  1
  O2-  O340  1  0.90315443  0.76481459  0.22790673  1
  O2-  O341  1  0.90504863  0.76300927  0.73315744  1
  O2-  O342  1  0.26497206  0.26130547  0.01951347  1
  O2-  O343  1  0.26370089  0.26249855  0.51698355  1
  O2-  O344  1  0.26264232  0.59405650  0.02145365  1
  O2-  O345  1  0.26131198  0.59325547  0.51840260  1
  O2-  O346  1  0.26536845  0.93142857  0.01769539  1
  O2-  O347  1  0.26030749  0.92563770  0.52184504  1
  O2-  O348  1  0.59798869  0.26465522  0.01842003  1
  O2-  O349  1  0.59187026  0.25889879  0.51846612  1
  O2-  O350  1  0.59767784  0.59591540  0.02110403  1
  O2-  O351  1  0.59245662  0.59359418  0.51951270  1
  O2-  O352  1  0.59380508  0.92789712  0.02195009  1
  O2-  O353  1  0.59678874  0.92737756  0.52155600  1
  O2-  O354  1  0.93091893  0.26273928  0.01834424  1
  O2-  O355  1  0.92640135  0.25895151  0.51313991  1
  O2-  O356  1  0.93076967  0.59597941  0.01958460  1
  O2-  O357  1  0.92562350  0.59246736  0.51203428  1
  O2-  O358  1  0.93336170  0.92894261  0.01847858  1
  O2-  O359  1  0.92743257  0.92828576  0.51982489  1
