# generated using pymatgen
data_Sr7Ca15Pr50Mn72O216
_symmetry_space_group_name_H-M   'P 1'
_cell_length_a   16.55917820
_cell_length_b   16.60601043
_cell_length_c   15.59087565
_cell_angle_alpha   89.99561420
_cell_angle_beta   89.99873919
_cell_angle_gamma   89.98775372
_symmetry_Int_Tables_number   1
_chemical_formula_structural   Sr7Ca15Pr50Mn72O216
_chemical_formula_sum   'Sr7 Ca15 Pr50 Mn72 O216'
_cell_volume   4287.20827721
_cell_formula_units_Z   1
loop_
 _symmetry_equiv_pos_site_id
 _symmetry_equiv_pos_as_xyz
  1  'x, y, z'
loop_
 _atom_type_symbol
 _atom_type_oxidation_number
  Sr2+  2.0
  Ca2+  2.0
  Pr3+  3.0
  Mn3.30+  3.3
  O2-  -2.0
loop_
 _atom_site_type_symbol
 _atom_site_label
 _atom_site_symmetry_multiplicity
 _atom_site_fract_x
 _atom_site_fract_y
 _atom_site_fract_z
 _atom_site_occupancy
  Sr2+  Sr0  1  0.66805102  0.99050692  0.87614646  1
  Sr2+  Sr1  1  0.83130623  0.15560962  0.87413774  1
  Sr2+  Sr2  1  0.33640571  0.65843196  0.87626709  1
  Sr2+  Sr3  1  -0.00036284  0.67259342  0.62538704  1
  Sr2+  Sr4  1  0.66724522  0.32635900  0.37584516  1
  Sr2+  Sr5  1  0.33483615  0.67820099  0.12393141  1
  Sr2+  Sr6  1  0.50085143  0.17631997  0.12505575  1
  Ca2+  Ca7  1  0.49724702  0.48537852  0.37408092  1
  Ca2+  Ca8  1  -0.00455067  0.35108592  0.62185296  1
  Ca2+  Ca9  1  0.65816918  0.68386522  0.12353971  1
  Ca2+  Ca10  1  0.32719307  0.01624619  0.62495174  1
  Ca2+  Ca11  1  0.83163634  0.48364978  0.37953719  1
  Ca2+  Ca12  1  1.00479671  0.98597137  0.37597259  1
  Ca2+  Ca13  1  0.49761848  0.81734016  0.87831203  1
  Ca2+  Ca14  1  0.16331116  0.15135942  0.87358216  1
  Ca2+  Ca15  1  0.83875583  0.51427098  0.62129390  1
  Ca2+  Ca16  1  0.66813461  0.65491734  0.87620507  1
  Ca2+  Ca17  1  0.16652596  0.51330880  0.62314805  1
  Ca2+  Ca18  1  1.00460595  0.31876002  0.37734590  1
  Ca2+  Ca19  1  0.15999629  0.48314740  0.37771181  1
  Ca2+  Ca20  1  0.50444180  0.84609869  0.12115579  1
  Ca2+  Ca21  1  0.16085203  0.15023016  0.37596085  1
  Pr3+  Pr22  1  0.16932930  0.18016970  0.62307299  1
  Pr3+  Pr23  1  0.83277617  0.51206363  0.12839446  1
  Pr3+  Pr24  1  0.33417216  0.99022246  0.37654071  1
  Pr3+  Pr25  1  0.66307139  0.34420766  0.12618963  1
  Pr3+  Pr26  1  -0.00195140  0.01337824  0.12695954  1
  Pr3+  Pr27  1  0.66758720  0.34788274  0.62360844  1
  Pr3+  Pr28  1  0.33407918  0.32199600  0.87363532  1
  Pr3+  Pr29  1  0.16312096  0.82129905  0.37480041  1
  Pr3+  Pr30  1  0.83260767  0.84551677  0.12509369  1
  Pr3+  Pr31  1  0.83754927  0.84327967  0.62537079  1
  Pr3+  Pr32  1  0.17013393  0.51204811  0.12795489  1
  Pr3+  Pr33  1  1.00305513  0.64934214  0.37601584  1
  Pr3+  Pr34  1  0.66840421  0.98892069  0.37437735  1
  Pr3+  Pr35  1  0.49769161  0.15618766  0.37488485  1
  Pr3+  Pr36  1  0.17172019  0.17914925  0.12640316  1
  Pr3+  Pr37  1  0.33960589  0.98667119  0.87376809  1
  Pr3+  Pr38  1  0.16388449  0.48979738  0.87389886  1
  Pr3+  Pr39  1  -0.00329390  0.67864051  0.12572643  1
  Pr3+  Pr40  1  0.49727188  0.49147820  0.87457122  1
  Pr3+  Pr41  1  0.49795810  0.15478929  0.87490493  1
  Pr3+  Pr42  1  0.67020702  0.32194779  0.87352101  1
  Pr3+  Pr43  1  0.50086348  0.84478070  0.62678679  1
  Pr3+  Pr44  1  0.32666415  0.35087729  0.62397772  1
  Pr3+  Pr45  1  -0.00193737  0.01143042  0.62289574  1
  Pr3+  Pr46  1  -0.00270880  0.34433195  0.12695420  1
  Pr3+  Pr47  1  0.33387078  0.32254596  0.37640523  1
  Pr3+  Pr48  1  0.49956396  0.17926263  0.62478017  1
  Pr3+  Pr49  1  0.32838041  0.67764273  0.62593633  1
  Pr3+  Pr50  1  0.83244551  0.82134330  0.37522640  1
  Pr3+  Pr51  1  0.16600628  0.81890779  0.87551131  1
  Pr3+  Pr52  1  0.49630514  0.82120552  0.37309120  1
  Pr3+  Pr53  1  0.33370817  0.01090722  0.12519897  1
  Pr3+  Pr54  1  1.00210268  0.65248074  0.87456674  1
  Pr3+  Pr55  1  0.33651601  0.65051625  0.37325857  1
  Pr3+  Pr56  1  0.83339838  0.15705506  0.37572941  1
  Pr3+  Pr57  1  0.66618221  0.01255551  0.62577271  1
  Pr3+  Pr58  1  0.83526809  0.17903475  0.12413871  1
  Pr3+  Pr59  1  0.67079261  0.65114624  0.37352897  1
  Pr3+  Pr60  1  1.00246741  0.98822882  0.87454040  1
  Pr3+  Pr61  1  0.82717417  0.81909430  0.87501090  1
  Pr3+  Pr62  1  0.66195382  0.01313395  0.12438454  1
  Pr3+  Pr63  1  0.66685910  0.67737277  0.62525847  1
  Pr3+  Pr64  1  0.17077890  0.84741815  0.62557019  1
  Pr3+  Pr65  1  0.33160495  0.34587332  0.12620640  1
  Pr3+  Pr66  1  0.50501375  0.51423764  0.12679281  1
  Pr3+  Pr67  1  0.84067738  0.18186675  0.62575104  1
  Pr3+  Pr68  1  0.50201440  0.51366068  0.62185099  1
  Pr3+  Pr69  1  0.83027359  0.49097373  0.87119041  1
  Pr3+  Pr70  1  0.17176377  0.84648666  0.12489952  1
  Pr3+  Pr71  1  1.00437140  0.31751688  0.87291614  1
  Mn3.30+  Mn72  1  0.16825170  0.00085431  -0.00157428  1
  Mn3.30+  Mn73  1  0.16586019  0.00100427  0.49950691  1
  Mn3.30+  Mn74  1  0.16610994  0.33227823  -0.00067612  1
  Mn3.30+  Mn75  1  0.16213180  0.33507354  0.50003320  1
  Mn3.30+  Mn76  1  0.16731304  0.66594145  0.00089974  1
  Mn3.30+  Mn77  1  0.16642368  0.66399313  0.49959961  1
  Mn3.30+  Mn78  1  0.50137134  -0.00214758  -0.00144544  1
  Mn3.30+  Mn79  1  0.49806291  0.00029808  0.50284875  1
  Mn3.30+  Mn80  1  0.49994271  0.33401203  -0.00033676  1
  Mn3.30+  Mn81  1  0.49900791  0.33502452  0.49970180  1
  Mn3.30+  Mn82  1  0.50306703  0.66887595  -0.00008186  1
  Mn3.30+  Mn83  1  0.49952128  0.66568259  0.49812656  1
  Mn3.30+  Mn84  1  0.83262771  0.00014880  0.00025551  1
  Mn3.30+  Mn85  1  0.83563258  0.00013502  0.49818617  1
  Mn3.30+  Mn86  1  0.83317738  0.33457277  -0.00049095  1
  Mn3.30+  Mn87  1  0.83765014  0.33541299  0.49905440  1
  Mn3.30+  Mn88  1  0.82851313  0.66635116  0.00245376  1
  Mn3.30+  Mn89  1  0.83522100  0.66383582  0.49854197  1
  Mn3.30+  Mn90  1  0.00264383  0.16709316  0.25254355  1
  Mn3.30+  Mn91  1  0.00321994  0.16649412  0.74980294  1
  Mn3.30+  Mn92  1  -0.00011512  0.49644870  0.25329876  1
  Mn3.30+  Mn93  1  -0.00155385  0.49852962  0.74645015  1
  Mn3.30+  Mn94  1  0.00020465  0.83346344  0.25002473  1
  Mn3.30+  Mn95  1  0.00017588  0.83196379  0.75015202  1
  Mn3.30+  Mn96  1  0.33119289  0.16716051  0.25177851  1
  Mn3.30+  Mn97  1  0.33059190  0.16648773  0.75011905  1
  Mn3.30+  Mn98  1  0.33288968  0.49921008  0.25199173  1
  Mn3.30+  Mn99  1  0.33139912  0.50204108  0.74959613  1
  Mn3.30+  Mn100  1  0.33431813  0.83385210  0.24860260  1
  Mn3.30+  Mn101  1  0.33579965  0.83385095  0.75040878  1
  Mn3.30+  Mn102  1  0.66670070  0.16823812  0.25224354  1
  Mn3.30+  Mn103  1  0.66832532  0.16749073  0.74786538  1
  Mn3.30+  Mn104  1  0.66809772  0.49979048  0.25248281  1
  Mn3.30+  Mn105  1  0.66721354  0.50294495  0.74816906  1
  Mn3.30+  Mn106  1  0.66452603  0.83209743  0.24911857  1
  Mn3.30+  Mn107  1  0.66525347  0.83245863  0.75219321  1
  Mn3.30+  Mn108  1  0.16502975  0.00091218  0.25149836  1
  Mn3.30+  Mn109  1  0.16902548  0.00112580  0.75080536  1
  Mn3.30+  Mn110  1  0.16432920  0.33249773  0.25358376  1
  Mn3.30+  Mn111  1  0.16407747  0.33432608  0.74719394  1
  Mn3.30+  Mn112  1  0.16744630  0.66518149  0.25111884  1
  Mn3.30+  Mn113  1  0.16630066  0.66498597  0.74916072  1
  Mn3.30+  Mn114  1  0.50032457  -0.00062348  0.25023128  1
  Mn3.30+  Mn115  1  0.49872869  -0.00079483  0.74869986  1
  Mn3.30+  Mn116  1  0.49925258  0.33392598  0.25169816  1
  Mn3.30+  Mn117  1  0.49936358  0.33484534  0.74816806  1
  Mn3.30+  Mn118  1  0.50224634  0.66711645  0.24944845  1
  Mn3.30+  Mn119  1  0.50061027  0.66790499  0.75132954  1
  Mn3.30+  Mn120  1  0.83475064  0.00038078  0.25163168  1
  Mn3.30+  Mn121  1  0.83308244  -0.00014280  0.75030327  1
  Mn3.30+  Mn122  1  0.83436710  0.33422965  0.25344442  1
  Mn3.30+  Mn123  1  0.83640289  0.33591049  0.74794180  1
  Mn3.30+  Mn124  1  0.83123284  0.66536891  0.24935918  1
  Mn3.30+  Mn125  1  0.83225078  0.66547136  0.74998404  1
  Mn3.30+  Mn126  1  0.00264169  0.16577026  -0.00066233  1
  Mn3.30+  Mn127  1  0.00330437  0.16818298  0.49857591  1
  Mn3.30+  Mn128  1  -0.00148691  0.49858988  0.00154366  1
  Mn3.30+  Mn129  1  -0.00044810  0.49687771  0.49951939  1
  Mn3.30+  Mn130  1  -0.00073000  0.83311458  0.00054210  1
  Mn3.30+  Mn131  1  0.00083558  0.83189418  0.49976879  1
  Mn3.30+  Mn132  1  0.33178212  0.16694130  -0.00138134  1
  Mn3.30+  Mn133  1  0.33039851  0.16689824  0.49965680  1
  Mn3.30+  Mn134  1  0.33361222  0.50110669  0.00023233  1
  Mn3.30+  Mn135  1  0.33019157  0.50029542  0.49798739  1
  Mn3.30+  Mn136  1  0.33776679  0.83296737  0.00106271  1
  Mn3.30+  Mn137  1  0.33229446  0.83458176  0.49990323  1
  Mn3.30+  Mn138  1  0.66696473  0.16724811  -0.00059928  1
  Mn3.30+  Mn139  1  0.66832249  0.16830308  0.50041437  1
  Mn3.30+  Mn140  1  0.66615419  0.50302125  -0.00078084  1
  Mn3.30+  Mn141  1  0.66963638  0.49963140  0.49893947  1
  Mn3.30+  Mn142  1  0.66384958  0.83169581  -0.00135239  1
  Mn3.30+  Mn143  1  0.66645422  0.83268128  0.50005376  1
  O2-  O144  1  0.02820497  0.16183355  0.12534795  1
  O2-  O145  1  0.02681751  0.15731994  0.62439393  1
  O2-  O146  1  0.02647394  0.49288547  0.12682174  1
  O2-  O147  1  0.02595860  0.49548406  0.62336402  1
  O2-  O148  1  0.02675625  0.82700458  0.12558880  1
  O2-  O149  1  0.02529473  0.83068059  0.62712192  1
  O2-  O150  1  0.35108444  0.16195567  0.12624426  1
  O2-  O151  1  0.35608652  0.16225480  0.62492661  1
  O2-  O152  1  0.35871437  0.49339776  0.12540862  1
  O2-  O153  1  0.35763794  0.49933197  0.62264654  1
  O2-  O154  1  0.35965708  0.83764810  0.12565663  1
  O2-  O155  1  0.35735918  0.82465753  0.62343606  1
  O2-  O156  1  0.68941197  0.16401477  0.12833642  1
  O2-  O157  1  0.69432055  0.16157740  0.62378493  1
  O2-  O158  1  0.69017007  0.49050115  0.12602789  1
  O2-  O159  1  0.69497930  0.49756827  0.62394646  1
  O2-  O160  1  0.69067525  0.82788506  0.12664445  1
  O2-  O161  1  0.69357581  0.82630493  0.62379478  1
  O2-  O162  1  0.14088938  0.32565220  0.12557166  1
  O2-  O163  1  0.13706023  0.32451074  0.62417954  1
  O2-  O164  1  0.14105144  0.66089466  0.12690494  1
  O2-  O165  1  0.14969956  0.66193527  0.62423604  1
  O2-  O166  1  0.14230914  0.99426088  0.12535419  1
  O2-  O167  1  0.14160684  0.99471762  0.62633811  1
  O2-  O168  1  0.47628289  0.33243188  0.12601482  1
  O2-  O169  1  0.47204435  0.32889530  0.62504689  1
  O2-  O170  1  0.48174966  0.65888628  0.12729820  1
  O2-  O171  1  0.47256397  0.66067158  0.62126080  1
  O2-  O172  1  0.47772158  0.99526024  0.12427019  1
  O2-  O173  1  0.46923156  0.99318964  0.62490574  1
  O2-  O174  1  0.80836152  0.32745002  0.12576397  1
  O2-  O175  1  0.81033028  0.32690192  0.62452748  1
  O2-  O176  1  0.80162457  0.65930461  0.12646400  1
  O2-  O177  1  0.81056690  0.66249399  0.62270044  1
  O2-  O178  1  0.80752826  0.99523364  0.12726478  1
  O2-  O179  1  0.81071836  0.99262345  0.62210619  1
  O2-  O180  1  0.30447899  0.17309247  0.37561146  1
  O2-  O181  1  0.30487640  0.17430768  0.87353698  1
  O2-  O182  1  0.30421287  0.50289397  0.37565736  1
  O2-  O183  1  0.30897743  0.50052930  0.87596891  1
  O2-  O184  1  0.30695016  0.84194928  0.37559129  1
  O2-  O185  1  0.30897651  0.83909188  0.87561352  1
  O2-  O186  1  0.64248289  0.16800787  0.37763741  1
  O2-  O187  1  0.64297585  0.17333483  0.87007106  1
  O2-  O188  1  0.63924845  0.50471798  0.37618565  1
  O2-  O189  1  0.64035020  0.50726566  0.87265016  1
  O2-  O190  1  0.64036393  0.84054580  0.37594892  1
  O2-  O191  1  0.63938727  0.83840353  0.87364283  1
  O2-  O192  1  0.97515194  0.17510043  0.37534325  1
  O2-  O193  1  0.97993602  0.16934594  0.87479058  1
  O2-  O194  1  0.97175431  0.50478359  0.37384794  1
  O2-  O195  1  0.97467616  0.50374906  0.87649487  1
  O2-  O196  1  0.97682042  0.83923517  0.37222996  1
  O2-  O197  1  0.97374769  0.83920163  0.87557914  1
  O2-  O198  1  0.19101710  0.00255149  0.37445753  1
  O2-  O199  1  0.19517942  0.00629218  0.87411022  1
  O2-  O200  1  0.19190079  0.34185764  0.37680255  1
  O2-  O201  1  0.19131466  0.34341523  0.87356080  1
  O2-  O202  1  0.19234661  0.67474603  0.37378724  1
  O2-  O203  1  0.18497450  0.66879117  0.87568812  1
  O2-  O204  1  0.52447295  0.00634994  0.37901234  1
  O2-  O205  1  0.51890696  0.00913080  0.87203775  1
  O2-  O206  1  0.51704358  0.33767646  0.37745253  1
  O2-  O207  1  0.52502818  0.34139217  0.87122147  1
  O2-  O208  1  0.52720161  0.67569186  0.37465208  1
  O2-  O209  1  0.52646949  0.67039580  0.87498210  1
  O2-  O210  1  0.86211050  0.00715297  0.37521105  1
  O2-  O211  1  0.85788444  -0.00034443  0.87590095  1
  O2-  O212  1  0.86201950  0.33700060  0.37537918  1
  O2-  O213  1  0.85982581  0.34291634  0.87349761  1
  O2-  O214  1  0.85938793  0.67546939  0.37292874  1
  O2-  O215  1  0.85845707  0.67075789  0.87903089  1
  O2-  O216  1  0.23882205  0.09213049  0.02177863  1
  O2-  O217  1  0.23791959  0.09588363  0.51840048  1
  O2-  O218  1  0.23685350  0.42551510  0.02189556  1
  O2-  O219  1  0.23494970  0.42863175  0.52416899  1
  O2-  O220  1  0.23870562  0.76423271  0.01663502  1
  O2-  O221  1  0.23870310  0.76389588  0.51941834  1
  O2-  O222  1  0.57367404  0.09158584  0.01492201  1
  O2-  O223  1  0.57087081  0.09262762  0.52358807  1
  O2-  O224  1  0.57197723  0.42987493  0.01864602  1
  O2-  O225  1  0.57515699  0.42702349  0.52297358  1
  O2-  O226  1  0.57106443  0.76322783  0.02118612  1
  O2-  O227  1  0.56982453  0.76033708  0.52101829  1
  O2-  O228  1  0.91023806  0.09340713  0.02339948  1
  O2-  O229  1  0.90535530  0.09545222  0.52041766  1
  O2-  O230  1  0.90485950  0.42758962  0.02332085  1
  O2-  O231  1  0.90414157  0.42989157  0.52176935  1
  O2-  O232  1  0.90075692  0.75820211  0.02347255  1
  O2-  O233  1  0.90364832  0.76287712  0.51527531  1
  O2-  O234  1  0.26108062  0.26245937  0.23035313  1
  O2-  O235  1  0.26105165  0.26398359  0.72821929  1
  O2-  O236  1  0.26143034  0.59260549  0.23217077  1
  O2-  O237  1  0.26158031  0.59426083  0.73240140  1
  O2-  O238  1  0.26142218  0.92982477  0.22987123  1
  O2-  O239  1  0.26311643  0.93000606  0.72911419  1
  O2-  O240  1  0.59469686  0.26131157  0.23366789  1
  O2-  O241  1  0.59322488  0.26149371  0.72714634  1
  O2-  O242  1  0.59983096  0.59681203  0.23118050  1
  O2-  O243  1  0.59260813  0.59371238  0.72418287  1
  O2-  O244  1  0.59819016  0.92894913  0.23393642  1
  O2-  O245  1  0.59392549  0.92592318  0.72376260  1
  O2-  O246  1  0.92757052  0.25837375  0.22695067  1
  O2-  O247  1  0.93202598  0.26230735  0.73030075  1
  O2-  O248  1  0.92831694  0.59370358  0.22799013  1
  O2-  O249  1  0.92692976  0.59381665  0.73807399  1
  O2-  O250  1  0.92624587  0.92543565  0.22671079  1
  O2-  O251  1  0.92915198  0.92709247  0.73004489  1
  O2-  O252  1  0.09947582  0.23273655  0.26894483  1
  O2-  O253  1  0.09765512  0.23683790  0.77200469  1
  O2-  O254  1  0.09324113  0.56705195  0.27174434  1
  O2-  O255  1  0.09048823  0.57125831  0.77043860  1
  O2-  O256  1  0.09831487  0.90388495  0.26661282  1
  O2-  O257  1  0.09776363  0.90646218  0.77215228  1
  O2-  O258  1  0.42418250  0.23954234  0.27248140  1
  O2-  O259  1  0.42563346  0.23862956  0.77025123  1
  O2-  O260  1  0.43105067  0.57219421  0.27180455  1
  O2-  O261  1  0.43152998  0.57155911  0.76617783  1
  O2-  O262  1  0.42464308  0.90872363  0.27435843  1
  O2-  O263  1  0.42979898  0.90340125  0.77164787  1
  O2-  O264  1  0.76450639  0.23697537  0.26798540  1
  O2-  O265  1  0.76119765  0.24520104  0.76646821  1
  O2-  O266  1  0.76417635  0.56958866  0.27409028  1
  O2-  O267  1  0.75948584  0.57453764  0.77003710  1
  O2-  O268  1  0.76056584  0.90538733  0.27149324  1
  O2-  O269  1  0.76197476  0.90104979  0.76559187  1
  O2-  O270  1  0.06832972  0.06836004  0.48098708  1
  O2-  O271  1  0.07129608  0.06881293  0.98209809  1
  O2-  O272  1  0.06762345  0.40142349  0.47855130  1
  O2-  O273  1  0.07197021  0.40218199  0.98000870  1
  O2-  O274  1  0.07329066  0.73793078  0.47741669  1
  O2-  O275  1  0.07058862  0.73864079  0.98125191  1
  O2-  O276  1  0.40640685  0.07498707  0.47751222  1
  O2-  O277  1  0.40498196  0.07355221  0.98065280  1
  O2-  O278  1  0.39983794  0.40577297  0.48433252  1
  O2-  O279  1  0.40562847  0.40554741  0.97914491  1
  O2-  O280  1  0.40382203  0.73891442  0.47701093  1
  O2-  O281  1  0.40917174  0.74132132  0.98365845  1
  O2-  O282  1  0.74038771  0.07153843  0.47986957  1
  O2-  O283  1  0.74191774  0.07313832  0.98866547  1
  O2-  O284  1  0.74031377  0.40506569  0.48516627  1
  O2-  O285  1  0.73646508  0.40863584  0.97794327  1
  O2-  O286  1  0.73871571  0.73848777  0.47865914  1
  O2-  O287  1  0.73692129  0.73854844  0.97682073  1
  O2-  O288  1  0.09979917  0.23336388  0.48024407  1
  O2-  O289  1  0.09755540  0.23657037  0.97822122  1
  O2-  O290  1  0.09298397  0.56932742  0.47703460  1
  O2-  O291  1  0.09072298  0.57045093  0.98157255  1
  O2-  O292  1  0.09681736  0.90242592  0.48409031  1
  O2-  O293  1  0.09851021  0.90739351  0.97825548  1
  O2-  O294  1  0.42521367  0.23782765  0.48078337  1
  O2-  O295  1  0.42602814  0.24096470  0.97649064  1
  O2-  O296  1  0.43017016  0.57108150  0.47551741  1
  O2-  O297  1  0.43293057  0.57199685  0.98398397  1
  O2-  O298  1  0.42780183  0.90510392  0.47913559  1
  O2-  O299  1  0.42803256  0.90762652  0.97625223  1
  O2-  O300  1  0.76798480  0.23855454  0.48361043  1
  O2-  O301  1  0.75999357  0.24383562  0.98154007  1
  O2-  O302  1  0.76088000  0.57354361  0.47519092  1
  O2-  O303  1  0.76383386  0.56958922  0.98157006  1
  O2-  O304  1  0.76211577  0.90745971  0.47784705  1
  O2-  O305  1  0.76166848  0.90048673  0.98501309  1
  O2-  O306  1  0.06816494  0.06751180  0.26883401  1
  O2-  O307  1  0.07215544  0.06894656  0.76897534  1
  O2-  O308  1  0.06838374  0.39805327  0.26838840  1
  O2-  O309  1  0.07092530  0.40554610  0.77261501  1
  O2-  O310  1  0.07095561  0.73680801  0.26998158  1
  O2-  O311  1  0.07287129  0.74007991  0.77252300  1
  O2-  O312  1  0.40485177  0.07463188  0.27109918  1
  O2-  O313  1  0.40490118  0.07532271  0.77107340  1
  O2-  O314  1  0.40189905  0.40470216  0.26862165  1
  O2-  O315  1  0.40361496  0.40715374  0.76807624  1
  O2-  O316  1  0.40512087  0.74036149  0.27321710  1
  O2-  O317  1  0.40795485  0.73894173  0.76367298  1
  O2-  O318  1  0.74022453  0.07347455  0.27158735  1
  O2-  O319  1  0.74030443  0.07156032  0.76183083  1
  O2-  O320  1  0.74076106  0.40573206  0.26560053  1
  O2-  O321  1  0.73719076  0.40824768  0.76973777  1
  O2-  O322  1  0.73813785  0.74127987  0.27384166  1
  O2-  O323  1  0.73659386  0.73760092  0.77070906  1
  O2-  O324  1  0.23888780  0.09240986  0.23017754  1
  O2-  O325  1  0.23756536  0.09609022  0.72889259  1
  O2-  O326  1  0.23737871  0.42438528  0.22753315  1
  O2-  O327  1  0.23491713  0.42891875  0.72733420  1
  O2-  O328  1  0.23857682  0.76578333  0.23206089  1
  O2-  O329  1  0.23995050  0.76325194  0.73270190  1
  O2-  O330  1  0.57551978  0.09249104  0.23488860  1
  O2-  O331  1  0.57051166  0.09343399  0.72662571  1
  O2-  O332  1  0.57402460  0.42789867  0.23084823  1
  O2-  O333  1  0.57377157  0.42970869  0.72642168  1
  O2-  O334  1  0.56818785  0.76615908  0.23220829  1
  O2-  O335  1  0.57395349  0.75883817  0.72437503  1
  O2-  O336  1  0.90666978  0.09621369  0.22815502  1
  O2-  O337  1  0.90987408  0.09351420  0.72838243  1
  O2-  O338  1  0.90677648  0.42580766  0.22599492  1
  O2-  O339  1  0.90261847  0.43165157  0.72891520  1
  O2-  O340  1  0.90362291  0.75911995  0.22748875  1
  O2-  O341  1  0.90052541  0.76146131  0.73486570  1
  O2-  O342  1  0.26122966  0.26291900  0.02016888  1
  O2-  O343  1  0.26090526  0.26443857  0.52135547  1
  O2-  O344  1  0.25637188  0.58970954  0.02045170  1
  O2-  O345  1  0.26575662  0.59825292  0.51432447  1
  O2-  O346  1  0.26278625  0.92892867  0.01974487  1
  O2-  O347  1  0.26254522  0.92999969  0.52154887  1
  O2-  O348  1  0.59453767  0.26451411  0.01440560  1
  O2-  O349  1  0.59283344  0.25918300  0.52383622  1
  O2-  O350  1  0.59664112  0.59480118  0.02227246  1
  O2-  O351  1  0.59602199  0.59510004  0.52040586  1
  O2-  O352  1  0.59638370  0.92719775  0.02131150  1
  O2-  O353  1  0.59397728  0.92757540  0.52206056  1
  O2-  O354  1  0.93007477  0.25952568  0.01903221  1
  O2-  O355  1  0.93091934  0.26073241  0.52367994  1
  O2-  O356  1  0.92522379  0.59489653  0.02321805  1
  O2-  O357  1  0.92907064  0.59381168  0.51334170  1
  O2-  O358  1  0.92823360  0.92702155  0.02218538  1
  O2-  O359  1  0.92684402  0.92602510  0.52012065  1
