# generated using pymatgen
data_Sr7Ca15Pr50Mn72O216
_symmetry_space_group_name_H-M   'P 1'
_cell_length_a   16.55858432
_cell_length_b   16.60611192
_cell_length_c   15.59185829
_cell_angle_alpha   90.01771293
_cell_angle_beta   89.99953015
_cell_angle_gamma   90.00261040
_symmetry_Int_Tables_number   1
_chemical_formula_structural   Sr7Ca15Pr50Mn72O216
_chemical_formula_sum   'Sr7 Ca15 Pr50 Mn72 O216'
_cell_volume   4287.35082484
_cell_formula_units_Z   1
loop_
 _symmetry_equiv_pos_site_id
 _symmetry_equiv_pos_as_xyz
  1  'x, y, z'
loop_
 _atom_type_symbol
 _atom_type_oxidation_number
  Sr2+  2.0
  Ca2+  2.0
  Pr3+  3.0
  Mn3.30+  3.3
  O2-  -2.0
loop_
 _atom_site_type_symbol
 _atom_site_label
 _atom_site_symmetry_multiplicity
 _atom_site_fract_x
 _atom_site_fract_y
 _atom_site_fract_z
 _atom_site_occupancy
  Sr2+  Sr0  1  0.50121687  0.83855255  0.62617876  1
  Sr2+  Sr1  1  -0.00157482  0.00917624  0.12282880  1
  Sr2+  Sr2  1  0.00109959  0.00927219  0.62712831  1
  Sr2+  Sr3  1  0.66740730  0.32406651  0.87525862  1
  Sr2+  Sr4  1  0.00065600  0.34325870  0.12737102  1
  Sr2+  Sr5  1  1.00273352  0.32268254  0.37526792  1
  Sr2+  Sr6  1  0.33513305  0.67560512  0.62683611  1
  Ca2+  Ca7  1  0.66017378  0.68083443  0.62749916  1
  Ca2+  Ca8  1  1.00325509  0.98560629  0.87571322  1
  Ca2+  Ca9  1  0.16966948  0.18157062  0.62316332  1
  Ca2+  Ca10  1  0.16989675  0.51129236  0.12526293  1
  Ca2+  Ca11  1  0.82927213  0.81994077  0.37517449  1
  Ca2+  Ca12  1  0.49620951  0.81331441  0.87322670  1
  Ca2+  Ca13  1  0.83902652  0.84778629  0.12500838  1
  Ca2+  Ca14  1  0.83418258  0.51529131  0.62506743  1
  Ca2+  Ca15  1  0.33675689  0.31930848  0.37564862  1
  Ca2+  Ca16  1  0.50258873  0.18006140  0.62552000  1
  Ca2+  Ca17  1  0.33684765  0.98414661  0.37557040  1
  Ca2+  Ca18  1  0.66811506  0.65411554  0.86974715  1
  Ca2+  Ca19  1  0.50578154  0.51872384  0.62697355  1
  Ca2+  Ca20  1  0.32536701  0.35100006  0.12544948  1
  Ca2+  Ca21  1  0.33786879  0.65283868  0.87346647  1
  Pr3+  Pr22  1  0.33416222  0.34469006  0.62373077  1
  Pr3+  Pr23  1  0.66982495  0.65673033  0.37831849  1
  Pr3+  Pr24  1  0.16832196  0.84743039  0.12468121  1
  Pr3+  Pr25  1  0.32778646  0.01387437  0.12734201  1
  Pr3+  Pr26  1  0.83161042  0.15361117  0.87526324  1
  Pr3+  Pr27  1  0.50064764  0.51157542  0.12436499  1
  Pr3+  Pr28  1  0.32908758  0.01221618  0.62346266  1
  Pr3+  Pr29  1  0.16733187  0.48988956  0.87395692  1
  Pr3+  Pr30  1  1.00273820  0.32268880  0.87467270  1
  Pr3+  Pr31  1  0.49830307  0.82067756  0.37526661  1
  Pr3+  Pr32  1  0.83764554  0.51095549  0.12486124  1
  Pr3+  Pr33  1  0.32926706  0.67713360  0.12332329  1
  Pr3+  Pr34  1  0.66871187  0.31941268  0.37515934  1
  Pr3+  Pr35  1  0.33669888  0.65421076  0.37603384  1
  Pr3+  Pr36  1  0.66532738  0.67981224  0.12257304  1
  Pr3+  Pr37  1  0.49732275  0.15445919  0.87190055  1
  Pr3+  Pr38  1  0.49838701  0.49073271  0.87262370  1
  Pr3+  Pr39  1  0.16211780  0.15357146  0.87331400  1
  Pr3+  Pr40  1  -0.00353954  0.67930554  0.12445932  1
  Pr3+  Pr41  1  0.67130312  0.98379432  0.37505676  1
  Pr3+  Pr42  1  0.16924864  0.18306839  0.12554000  1
  Pr3+  Pr43  1  0.83228135  0.84370797  0.62503104  1
  Pr3+  Pr44  1  -0.00243233  0.34615037  0.62305701  1
  Pr3+  Pr45  1  0.50273728  0.84608764  0.12324802  1
  Pr3+  Pr46  1  0.17279690  0.84529371  0.62566366  1
  Pr3+  Pr47  1  0.83132906  0.48709559  0.37657738  1
  Pr3+  Pr48  1  0.16357196  0.82028557  0.87507436  1
  Pr3+  Pr49  1  0.83875988  0.17887694  0.12509512  1
  Pr3+  Pr50  1  0.65973737  0.34873976  0.62591936  1
  Pr3+  Pr51  1  0.83134495  0.82072290  0.87504328  1
  Pr3+  Pr52  1  0.16540003  0.48695107  0.37605117  1
  Pr3+  Pr53  1  0.16573532  0.15662497  0.37659526  1
  Pr3+  Pr54  1  0.49253722  0.15146306  0.37777409  1
  Pr3+  Pr55  1  -0.00313068  0.67800741  0.62553857  1
  Pr3+  Pr56  1  0.16554644  0.82238535  0.37488354  1
  Pr3+  Pr57  1  0.66439442  0.34688091  0.12419333  1
  Pr3+  Pr58  1  1.00090668  0.65604054  0.37577224  1
  Pr3+  Pr59  1  0.65938852  0.01271393  0.62521170  1
  Pr3+  Pr60  1  0.49483528  0.48502013  0.37774189  1
  Pr3+  Pr61  1  0.49994347  0.18088168  0.12447859  1
  Pr3+  Pr62  1  0.33750626  0.32077716  0.87494161  1
  Pr3+  Pr63  1  0.33859665  0.98381420  0.87554870  1
  Pr3+  Pr64  1  0.83558006  0.17761827  0.62518925  1
  Pr3+  Pr65  1  1.00070907  0.98793480  0.37520864  1
  Pr3+  Pr66  1  0.66682982  0.98773436  0.87404675  1
  Pr3+  Pr67  1  0.82773629  0.48790507  0.87365260  1
  Pr3+  Pr68  1  0.66672497  0.01243111  0.12400984  1
  Pr3+  Pr69  1  0.83303844  0.15352022  0.37442326  1
  Pr3+  Pr70  1  1.00216468  0.65390000  0.87427604  1
  Pr3+  Pr71  1  0.17000945  0.51250561  0.62413594  1
  Mn3.30+  Mn72  1  0.16601412  0.00096594  -0.00079852  1
  Mn3.30+  Mn73  1  0.16835376  0.00164006  0.49927845  1
  Mn3.30+  Mn74  1  0.16882378  0.33600306  0.00062219  1
  Mn3.30+  Mn75  1  0.16875175  0.33198965  0.50019519  1
  Mn3.30+  Mn76  1  0.16741882  0.66492669  -0.00001523  1
  Mn3.30+  Mn77  1  0.16779985  0.66757724  0.50007992  1
  Mn3.30+  Mn78  1  0.49939906  -0.00114383  -0.00017949  1
  Mn3.30+  Mn79  1  0.49804811  -0.00121107  0.50042866  1
  Mn3.30+  Mn80  1  0.49750950  0.33449516  0.00114545  1
  Mn3.30+  Mn81  1  0.49922365  0.33229823  0.50060880  1
  Mn3.30+  Mn82  1  0.49938700  0.66629485  -0.00245404  1
  Mn3.30+  Mn83  1  0.50276709  0.66622427  0.50236631  1
  Mn3.30+  Mn84  1  0.83490541  -0.00221715  -0.00179559  1
  Mn3.30+  Mn85  1  0.83298290  -0.00155876  0.50121780  1
  Mn3.30+  Mn86  1  0.83421568  0.33353284  -0.00016172  1
  Mn3.30+  Mn87  1  0.83150048  0.33335096  0.50097547  1
  Mn3.30+  Mn88  1  0.83146645  0.66746054  -0.00118095  1
  Mn3.30+  Mn89  1  0.83119748  0.66713408  0.50234660  1
  Mn3.30+  Mn90  1  0.00102056  0.16616542  0.25075064  1
  Mn3.30+  Mn91  1  0.00092155  0.16581929  0.74817724  1
  Mn3.30+  Mn92  1  0.00263795  0.49976800  0.24924807  1
  Mn3.30+  Mn93  1  -0.00253915  0.50015028  0.74881252  1
  Mn3.30+  Mn94  1  -0.00345184  0.83337969  0.25122259  1
  Mn3.30+  Mn95  1  0.00007144  0.83416851  0.74968392  1
  Mn3.30+  Mn96  1  0.33319445  0.16919146  0.25169006  1
  Mn3.30+  Mn97  1  0.33231838  0.16592152  0.74737457  1
  Mn3.30+  Mn98  1  0.33240235  0.49773999  0.25017182  1
  Mn3.30+  Mn99  1  0.33557994  0.50128499  0.74843196  1
  Mn3.30+  Mn100  1  0.33398894  0.83330415  0.25006702  1
  Mn3.30+  Mn101  1  0.33616115  0.83105778  0.75121610  1
  Mn3.30+  Mn102  1  0.66495673  0.16573424  0.24959119  1
  Mn3.30+  Mn103  1  0.66544569  0.16747764  0.74987043  1
  Mn3.30+  Mn104  1  0.66615338  0.50106930  0.25112685  1
  Mn3.30+  Mn105  1  0.66662902  0.50324728  0.74772566  1
  Mn3.30+  Mn106  1  0.67014244  0.83313868  0.24682357  1
  Mn3.30+  Mn107  1  0.66382764  0.83096092  0.75319457  1
  Mn3.30+  Mn108  1  0.16753242  0.00144161  0.25205986  1
  Mn3.30+  Mn109  1  0.16666677  0.00109866  0.75033148  1
  Mn3.30+  Mn110  1  0.17023174  0.33533649  0.25078735  1
  Mn3.30+  Mn111  1  0.16774533  0.33267436  0.74821716  1
  Mn3.30+  Mn112  1  0.16650114  0.66542809  0.24909517  1
  Mn3.30+  Mn113  1  0.16883773  0.66674420  0.75114672  1
  Mn3.30+  Mn114  1  0.49869732  -0.00009181  0.24996799  1
  Mn3.30+  Mn115  1  0.49858367  -0.00244266  0.74887799  1
  Mn3.30+  Mn116  1  0.49615636  0.33353179  0.24908952  1
  Mn3.30+  Mn117  1  0.50039583  0.33341517  0.74934782  1
  Mn3.30+  Mn118  1  0.50046821  0.66595978  0.24907810  1
  Mn3.30+  Mn119  1  0.50197486  0.66664041  0.75129615  1
  Mn3.30+  Mn120  1  0.83401574  -0.00317922  0.24907822  1
  Mn3.30+  Mn121  1  0.83382990  -0.00089215  0.75045470  1
  Mn3.30+  Mn122  1  0.83395770  0.33290280  0.25171553  1
  Mn3.30+  Mn123  1  0.83195265  0.33447454  0.74772820  1
  Mn3.30+  Mn124  1  0.83335694  0.66882404  0.25046913  1
  Mn3.30+  Mn125  1  0.82971251  0.66596644  0.74800608  1
  Mn3.30+  Mn126  1  0.00007606  0.16577959  -0.00098487  1
  Mn3.30+  Mn127  1  0.00168591  0.16627550  0.50229298  1
  Mn3.30+  Mn128  1  0.00143948  0.49950222  0.00116046  1
  Mn3.30+  Mn129  1  -0.00140927  0.50055178  0.50083484  1
  Mn3.30+  Mn130  1  -0.00176847  0.83409863  -0.00046400  1
  Mn3.30+  Mn131  1  -0.00163074  0.83367490  0.49980870  1
  Mn3.30+  Mn132  1  0.33225224  0.16768651  -0.00033691  1
  Mn3.30+  Mn133  1  0.33341938  0.16667008  0.50117395  1
  Mn3.30+  Mn134  1  0.33239557  0.50027394  0.00012382  1
  Mn3.30+  Mn135  1  0.33556885  0.49904550  0.50161552  1
  Mn3.30+  Mn136  1  0.33508713  0.83090223  -0.00116267  1
  Mn3.30+  Mn137  1  0.33489188  0.83360381  0.50028173  1
  Mn3.30+  Mn138  1  0.66668934  0.16739714  -0.00020600  1
  Mn3.30+  Mn139  1  0.66378604  0.16588392  0.50001304  1
  Mn3.30+  Mn140  1  0.66696282  0.50199880  -0.00091879  1
  Mn3.30+  Mn141  1  0.66536457  0.50198107  0.50243022  1
  Mn3.30+  Mn142  1  0.66667632  0.83227440  -0.00186943  1
  Mn3.30+  Mn143  1  0.66692207  0.83221108  0.50099421  1
  O2-  O144  1  0.02396775  0.16391563  0.12556076  1
  O2-  O145  1  0.02673894  0.16438852  0.62599461  1
  O2-  O146  1  0.02628024  0.50069238  0.12751232  1
  O2-  O147  1  0.02589019  0.49709664  0.62567560  1
  O2-  O148  1  0.02481393  0.82776327  0.12631532  1
  O2-  O149  1  0.02748139  0.82644628  0.62550597  1
  O2-  O150  1  0.35754589  0.15876431  0.12654953  1
  O2-  O151  1  0.36162445  0.15852273  0.62499316  1
  O2-  O152  1  0.35788884  0.49507583  0.12633596  1
  O2-  O153  1  0.36181456  0.49301214  0.62441806  1
  O2-  O154  1  0.35868144  0.82594434  0.12390700  1
  O2-  O155  1  0.35055926  0.83322861  0.62502310  1
  O2-  O156  1  0.69316110  0.16162690  0.12520507  1
  O2-  O157  1  0.69110270  0.16021814  0.62476906  1
  O2-  O158  1  0.69242590  0.49534585  0.12713971  1
  O2-  O159  1  0.69411255  0.49265678  0.62399043  1
  O2-  O160  1  0.69640094  0.82704057  0.12223234  1
  O2-  O161  1  0.68848530  0.82830152  0.62839814  1
  O2-  O162  1  0.14834215  0.32916959  0.12469606  1
  O2-  O163  1  0.14175209  0.32894917  0.62548992  1
  O2-  O164  1  0.14128508  0.65988589  0.12516302  1
  O2-  O165  1  0.14203950  0.66275780  0.62515667  1
  O2-  O166  1  0.14898225  0.99600967  0.12568845  1
  O2-  O167  1  0.14988295  0.99039026  0.62460738  1
  O2-  O168  1  0.46895037  0.32912453  0.12498527  1
  O2-  O169  1  0.47735290  0.32481834  0.62487068  1
  O2-  O170  1  0.47344743  0.66081676  0.12477996  1
  O2-  O171  1  0.48285691  0.66437211  0.62495527  1
  O2-  O172  1  0.47203260  0.99424709  0.12507918  1
  O2-  O173  1  0.47358838  0.99250359  0.62665797  1
  O2-  O174  1  0.80888361  0.32870996  0.12819273  1
  O2-  O175  1  0.80416401  0.32404091  0.62357654  1
  O2-  O176  1  0.80821983  0.65653847  0.12447873  1
  O2-  O177  1  0.80322218  0.66102986  0.62581587  1
  O2-  O178  1  0.80950295  0.99280603  0.12310150  1
  O2-  O179  1  0.80455729  0.99376694  0.62564630  1
  O2-  O180  1  0.30909384  0.17669198  0.37586169  1
  O2-  O181  1  0.30696139  0.17240911  0.87268593  1
  O2-  O182  1  0.30990264  0.50718155  0.37592286  1
  O2-  O183  1  0.31120833  0.50488978  0.87347944  1
  O2-  O184  1  0.31003838  0.83539493  0.37367085  1
  O2-  O185  1  0.30644251  0.83871117  0.87730798  1
  O2-  O186  1  0.63764932  0.17036273  0.37341953  1
  O2-  O187  1  0.64144829  0.16719671  0.87620549  1
  O2-  O188  1  0.63901870  0.50742064  0.37506840  1
  O2-  O189  1  0.64317196  0.50523814  0.87407040  1
  O2-  O190  1  0.64222290  0.83666754  0.37075914  1
  O2-  O191  1  0.63713667  0.84238064  0.87734964  1
  O2-  O192  1  0.97719082  0.16665066  0.37709089  1
  O2-  O193  1  0.97493202  0.17664475  0.87222722  1
  O2-  O194  1  0.97514329  0.50689539  0.37564349  1
  O2-  O195  1  0.97222511  0.50442865  0.87180313  1
  O2-  O196  1  0.97175680  0.83794349  0.37555770  1
  O2-  O197  1  0.97689023  0.83567105  0.87262902  1
  O2-  O198  1  0.19544512  0.00760023  0.37529857  1
  O2-  O199  1  0.19476190  0.00617317  0.87510968  1
  O2-  O200  1  0.19526557  0.33971111  0.37610078  1
  O2-  O201  1  0.19336924  0.34053790  0.87336838  1
  O2-  O202  1  0.19212664  0.67374582  0.37419366  1
  O2-  O203  1  0.19303078  0.67136146  0.87588177  1
  O2-  O204  1  0.52687930  0.00456131  0.37271559  1
  O2-  O205  1  0.52295984  0.00910953  0.87522359  1
  O2-  O206  1  0.52584720  0.33786933  0.37429854  1
  O2-  O207  1  0.51793540  0.33983069  0.87600831  1
  O2-  O208  1  0.52469971  0.67087039  0.37325799  1
  O2-  O209  1  0.52617223  0.66539112  0.87718865  1
  O2-  O210  1  0.85637642  0.00668796  0.37675681  1
  O2-  O211  1  0.86032810  0.00623420  0.87347271  1
  O2-  O212  1  0.85223581  0.33852579  0.37688133  1
  O2-  O213  1  0.85825347  0.34008814  0.87161850  1
  O2-  O214  1  0.85787496  0.67472407  0.37573635  1
  O2-  O215  1  0.85976064  0.67188032  0.87424925  1
  O2-  O216  1  0.23775794  0.09683540  0.01969337  1
  O2-  O217  1  0.23803801  0.09677099  0.52200392  1
  O2-  O218  1  0.23603193  0.43238423  0.01639528  1
  O2-  O219  1  0.24006802  0.42677832  0.52231925  1
  O2-  O220  1  0.23751395  0.76210056  0.02230797  1
  O2-  O221  1  0.23712973  0.76356306  0.51494000  1
  O2-  O222  1  0.57266283  0.09464070  0.02160325  1
  O2-  O223  1  0.56871463  0.09554223  0.52130184  1
  O2-  O224  1  0.57277433  0.42734222  0.02120431  1
  O2-  O225  1  0.56926672  0.43112969  0.52098897  1
  O2-  O226  1  0.57213918  0.75954596  0.02351879  1
  O2-  O227  1  0.57367744  0.76181698  0.51067129  1
  O2-  O228  1  0.90122403  0.09593462  0.01664708  1
  O2-  O229  1  0.90188718  0.09425844  0.51761885  1
  O2-  O230  1  0.90623243  0.42973423  0.01782330  1
  O2-  O231  1  0.90411777  0.42798521  0.52157072  1
  O2-  O232  1  0.90243729  0.75983058  0.02032165  1
  O2-  O233  1  0.90536981  0.75735765  0.52589845  1
  O2-  O234  1  0.26377674  0.26314307  0.22756971  1
  O2-  O235  1  0.26507590  0.26180899  0.72981615  1
  O2-  O236  1  0.26539661  0.59556233  0.23365222  1
  O2-  O237  1  0.25744726  0.58903608  0.73001915  1
  O2-  O238  1  0.26042547  0.92616084  0.23002155  1
  O2-  O239  1  0.26452480  0.92939733  0.73411212  1
  O2-  O240  1  0.59238456  0.26335706  0.22725766  1
  O2-  O241  1  0.59504940  0.26145987  0.73170329  1
  O2-  O242  1  0.59477225  0.59482734  0.22771115  1
  O2-  O243  1  0.59746948  0.59569523  0.73016318  1
  O2-  O244  1  0.59777110  0.92690141  0.22696377  1
  O2-  O245  1  0.59704746  0.93137621  0.73397915  1
  O2-  O246  1  0.92336969  0.25609385  0.23365420  1
  O2-  O247  1  0.92792733  0.26312954  0.72759103  1
  O2-  O248  1  0.92779498  0.59603512  0.23099000  1
  O2-  O249  1  0.92817334  0.59573548  0.73037468  1
  O2-  O250  1  0.92862097  0.92804040  0.23498971  1
  O2-  O251  1  0.92161738  0.92258513  0.72942712  1
  O2-  O252  1  0.10018838  0.23916571  0.26652051  1
  O2-  O253  1  0.09352652  0.24155779  0.77257079  1
  O2-  O254  1  0.09306794  0.57516105  0.27559386  1
  O2-  O255  1  0.09248572  0.57264181  0.77012287  1
  O2-  O256  1  0.09314974  0.90573961  0.27165740  1
  O2-  O257  1  0.09823811  0.90610769  0.76887410  1
  O2-  O258  1  0.43181674  0.23466574  0.26826960  1
  O2-  O259  1  0.42553820  0.23786114  0.77100858  1
  O2-  O260  1  0.42775525  0.56889084  0.27001470  1
  O2-  O261  1  0.43011880  0.57239321  0.76785371  1
  O2-  O262  1  0.43132511  0.90323815  0.26693842  1
  O2-  O263  1  0.42804914  0.90355905  0.77566683  1
  O2-  O264  1  0.75759045  0.23766929  0.27154751  1
  O2-  O265  1  0.76475606  0.23692077  0.76748034  1
  O2-  O266  1  0.76363534  0.57363958  0.27271235  1
  O2-  O267  1  0.76208983  0.57245757  0.77102470  1
  O2-  O268  1  0.76173670  0.90422806  0.27255273  1
  O2-  O269  1  0.75915770  0.90503324  0.77194223  1
  O2-  O270  1  0.07427086  0.07267133  0.47810638  1
  O2-  O271  1  0.07166197  0.07427892  0.97572106  1
  O2-  O272  1  0.07658769  0.40887988  0.48398880  1
  O2-  O273  1  0.07433647  0.40723315  0.97567330  1
  O2-  O274  1  0.07159647  0.74114670  0.47857710  1
  O2-  O275  1  0.07075186  0.73923211  0.98066310  1
  O2-  O276  1  0.40159331  0.06991259  0.47773840  1
  O2-  O277  1  0.40422925  0.07150177  0.98081488  1
  O2-  O278  1  0.40572946  0.40168623  0.47858153  1
  O2-  O279  1  0.40473803  0.40735664  0.97899227  1
  O2-  O280  1  0.40805732  0.73992538  0.47893180  1
  O2-  O281  1  0.40226127  0.73371061  0.98083053  1
  O2-  O282  1  0.73666719  0.07108987  0.47926689  1
  O2-  O283  1  0.73994919  0.06959085  0.98035718  1
  O2-  O284  1  0.73410685  0.40678216  0.47879482  1
  O2-  O285  1  0.74179751  0.40788728  0.98463918  1
  O2-  O286  1  0.74016638  0.73983270  0.48092894  1
  O2-  O287  1  0.73618453  0.73708649  0.97576630  1
  O2-  O288  1  0.09763951  0.23985284  0.48155996  1
  O2-  O289  1  0.09679450  0.24097562  0.98006758  1
  O2-  O290  1  0.09369159  0.57504803  0.48030560  1
  O2-  O291  1  0.09237379  0.57334293  0.97479556  1
  O2-  O292  1  0.09490224  0.90801415  0.47721068  1
  O2-  O293  1  0.09796192  0.90502686  0.98301503  1
  O2-  O294  1  0.42946371  0.23602574  0.48209855  1
  O2-  O295  1  0.42788220  0.23649659  0.97892647  1
  O2-  O296  1  0.42832921  0.57393094  0.47910625  1
  O2-  O297  1  0.42999420  0.56857841  0.98363917  1
  O2-  O298  1  0.42834781  0.90481440  0.47751142  1
  O2-  O299  1  0.43004522  0.90063243  0.97931786  1
  O2-  O300  1  0.75940662  0.23676175  0.47813923  1
  O2-  O301  1  0.76217804  0.23731603  0.98328032  1
  O2-  O302  1  0.76136013  0.57337797  0.47587300  1
  O2-  O303  1  0.76394014  0.57175607  0.98178511  1
  O2-  O304  1  0.76160649  0.90367538  0.48033830  1
  O2-  O305  1  0.75975196  0.90684886  0.97451591  1
  O2-  O306  1  0.07455851  0.07349364  0.27353917  1
  O2-  O307  1  0.07199224  0.07229163  0.77468844  1
  O2-  O308  1  0.07751846  0.40897830  0.27185815  1
  O2-  O309  1  0.07125461  0.40748537  0.76887027  1
  O2-  O310  1  0.07017476  0.74100931  0.27078208  1
  O2-  O311  1  0.07250107  0.73824278  0.77071553  1
  O2-  O312  1  0.40179819  0.07178673  0.27219501  1
  O2-  O313  1  0.40272778  0.07059050  0.77091226  1
  O2-  O314  1  0.40485157  0.40471179  0.27447772  1
  O2-  O315  1  0.40483168  0.40554447  0.76915226  1
  O2-  O316  1  0.40621399  0.73751708  0.26973484  1
  O2-  O317  1  0.40478920  0.73699049  0.77135718  1
  O2-  O318  1  0.73880498  0.06921872  0.26882932  1
  O2-  O319  1  0.73808829  0.07157639  0.77003534  1
  O2-  O320  1  0.73705679  0.40653103  0.27057130  1
  O2-  O321  1  0.73996923  0.40783770  0.76743900  1
  O2-  O322  1  0.73567652  0.73555515  0.26667541  1
  O2-  O323  1  0.74048779  0.74139721  0.77490886  1
  O2-  O324  1  0.23925540  0.09887579  0.23018920  1
  O2-  O325  1  0.23652648  0.09686703  0.72793528  1
  O2-  O326  1  0.23657813  0.43317638  0.23208358  1
  O2-  O327  1  0.23977579  0.42713210  0.72818007  1
  O2-  O328  1  0.23770129  0.76066494  0.22860343  1
  O2-  O329  1  0.23667754  0.76515996  0.73479222  1
  O2-  O330  1  0.57119186  0.09411904  0.22628497  1
  O2-  O331  1  0.56926403  0.09454835  0.72975380  1
  O2-  O332  1  0.56940098  0.42643840  0.22911023  1
  O2-  O333  1  0.57299321  0.43092789  0.72929519  1
  O2-  O334  1  0.57407919  0.76252751  0.22701334  1
  O2-  O335  1  0.57253552  0.75978430  0.73769843  1
  O2-  O336  1  0.90177378  0.09342877  0.23396431  1
  O2-  O337  1  0.90255874  0.09714378  0.73183310  1
  O2-  O338  1  0.90528412  0.43094044  0.23466847  1
  O2-  O339  1  0.90480189  0.42797353  0.72488020  1
  O2-  O340  1  0.90475373  0.75981128  0.22529656  1
  O2-  O341  1  0.90338683  0.75759590  0.72802300  1
  O2-  O342  1  0.26331295  0.26439154  0.01880462  1
  O2-  O343  1  0.26356679  0.26080240  0.52227125  1
  O2-  O344  1  0.26259190  0.59341428  0.01967633  1
  O2-  O345  1  0.25843356  0.59181480  0.51725457  1
  O2-  O346  1  0.26463979  0.92779112  0.01999029  1
  O2-  O347  1  0.26089621  0.92729031  0.51718690  1
  O2-  O348  1  0.59031524  0.26179817  0.02380334  1
  O2-  O349  1  0.59690729  0.26525970  0.51625655  1
  O2-  O350  1  0.59240405  0.59282271  0.02382173  1
  O2-  O351  1  0.59916275  0.59779446  0.51869446  1
  O2-  O352  1  0.59546743  0.92828207  0.02318529  1
  O2-  O353  1  0.59797842  0.93006556  0.51465966  1
  O2-  O354  1  0.92650098  0.25986472  0.01664379  1
  O2-  O355  1  0.92695961  0.25858202  0.52260024  1
  O2-  O356  1  0.92868828  0.59480133  0.01933997  1
  O2-  O357  1  0.92705539  0.59691224  0.51852763  1
  O2-  O358  1  0.92630540  0.92524230  0.01410476  1
  O2-  O359  1  0.92609899  0.92509064  0.52017652  1
