# generated using pymatgen
data_Sr7Ca15Pr50Mn72O216
_symmetry_space_group_name_H-M   'P 1'
_cell_length_a   16.55688586
_cell_length_b   16.60165748
_cell_length_c   15.59125218
_cell_angle_alpha   89.99731238
_cell_angle_beta   89.99265311
_cell_angle_gamma   90.00055958
_symmetry_Int_Tables_number   1
_chemical_formula_structural   Sr7Ca15Pr50Mn72O216
_chemical_formula_sum   'Sr7 Ca15 Pr50 Mn72 O216'
_cell_volume   4285.59469984
_cell_formula_units_Z   1
loop_
 _symmetry_equiv_pos_site_id
 _symmetry_equiv_pos_as_xyz
  1  'x, y, z'
loop_
 _atom_type_symbol
 _atom_type_oxidation_number
  Sr2+  2.0
  Ca2+  2.0
  Pr3+  3.0
  Mn3.30+  3.3
  O2-  -2.0
loop_
 _atom_site_type_symbol
 _atom_site_label
 _atom_site_symmetry_multiplicity
 _atom_site_fract_x
 _atom_site_fract_y
 _atom_site_fract_z
 _atom_site_occupancy
  Sr2+  Sr0  1  0.66719938  0.65950699  0.87553881  1
  Sr2+  Sr1  1  0.66481527  0.34520345  0.62599142  1
  Sr2+  Sr2  1  0.50351802  0.17859450  0.12459669  1
  Sr2+  Sr3  1  -0.00309433  0.34325347  0.12505764  1
  Sr2+  Sr4  1  0.33430656  0.32152520  0.37443585  1
  Sr2+  Sr5  1  0.16814010  0.82421669  0.87642839  1
  Sr2+  Sr6  1  0.83555365  0.51076596  0.12436914  1
  Ca2+  Ca7  1  0.66153977  0.01604429  0.12217701  1
  Ca2+  Ca8  1  0.33765292  0.31757146  0.87562922  1
  Ca2+  Ca9  1  0.82884719  0.81905024  0.87623065  1
  Ca2+  Ca10  1  -0.00299715  0.01426317  0.12262647  1
  Ca2+  Ca11  1  1.00312589  0.65270099  0.37103319  1
  Ca2+  Ca12  1  0.33821349  0.98175220  0.87681912  1
  Ca2+  Ca13  1  0.66485192  0.34578072  0.12322430  1
  Ca2+  Ca14  1  0.50393549  0.51285203  0.62579219  1
  Ca2+  Ca15  1  0.67270532  0.98393287  0.87836271  1
  Ca2+  Ca16  1  -0.00213074  0.01409799  0.62744603  1
  Ca2+  Ca17  1  -0.00424375  0.67886185  0.12339683  1
  Ca2+  Ca18  1  1.00363057  0.31816836  0.37249517  1
  Ca2+  Ca19  1  0.33484036  0.98857163  0.37374382  1
  Ca2+  Ca20  1  0.49905205  0.82049775  0.87632267  1
  Ca2+  Ca21  1  1.00130648  0.31996909  0.87777827  1
  Pr3+  Pr22  1  0.66648480  0.67851610  0.12322000  1
  Pr3+  Pr23  1  0.16363225  0.48652354  0.87473976  1
  Pr3+  Pr24  1  0.16776002  0.17981983  0.12336172  1
  Pr3+  Pr25  1  0.83245095  0.82058964  0.37402115  1
  Pr3+  Pr26  1  0.16415746  0.15531972  0.37353039  1
  Pr3+  Pr27  1  0.82961172  0.15418201  0.87672985  1
  Pr3+  Pr28  1  0.83511481  0.51422268  0.62587490  1
  Pr3+  Pr29  1  0.33170901  0.01282621  0.12204604  1
  Pr3+  Pr30  1  0.32986659  0.34577954  0.62634985  1
  Pr3+  Pr31  1  0.50273956  0.84534885  0.62816479  1
  Pr3+  Pr32  1  1.00200585  0.98630765  0.87701813  1
  Pr3+  Pr33  1  0.49648622  0.15227322  0.87577655  1
  Pr3+  Pr34  1  0.49363222  0.15252168  0.37417603  1
  Pr3+  Pr35  1  0.49711730  0.48451649  0.37641658  1
  Pr3+  Pr36  1  0.16696884  0.17795002  0.62708902  1
  Pr3+  Pr37  1  0.33190773  0.68011499  0.62471364  1
  Pr3+  Pr38  1  0.16911181  0.84714655  0.62727548  1
  Pr3+  Pr39  1  0.33856835  0.65754918  0.87501003  1
  Pr3+  Pr40  1  0.16075837  0.48343860  0.37552040  1
  Pr3+  Pr41  1  1.00168842  0.65780414  0.87780568  1
  Pr3+  Pr42  1  0.83705870  0.84617046  0.12166972  1
  Pr3+  Pr43  1  0.33063782  0.67941846  0.12529959  1
  Pr3+  Pr44  1  0.16631951  0.84497434  0.12255793  1
  Pr3+  Pr45  1  1.00379968  0.98949252  0.37312118  1
  Pr3+  Pr46  1  0.49674629  0.48569837  0.87344522  1
  Pr3+  Pr47  1  0.67056104  0.65270298  0.37428821  1
  Pr3+  Pr48  1  -0.00524421  0.34610974  0.62554813  1
  Pr3+  Pr49  1  0.83651446  0.17844312  0.62612005  1
  Pr3+  Pr50  1  0.32913429  0.34416224  0.12375226  1
  Pr3+  Pr51  1  0.49646181  0.82296526  0.37426855  1
  Pr3+  Pr52  1  0.16516026  0.15499995  0.87670805  1
  Pr3+  Pr53  1  0.83342957  0.17889445  0.12411396  1
  Pr3+  Pr54  1  0.50437507  0.50776092  0.12538702  1
  Pr3+  Pr55  1  0.66843389  0.32290717  0.87659244  1
  Pr3+  Pr56  1  0.83389404  0.15694971  0.37273658  1
  Pr3+  Pr57  1  0.16915844  0.51354809  0.62479353  1
  Pr3+  Pr58  1  0.83028494  0.48974288  0.87676641  1
  Pr3+  Pr59  1  0.16288731  0.81974784  0.37401550  1
  Pr3+  Pr60  1  0.33576715  0.65311358  0.37497174  1
  Pr3+  Pr61  1  0.16685237  0.51150538  0.12553503  1
  Pr3+  Pr62  1  0.83412837  0.48675577  0.37402808  1
  Pr3+  Pr63  1  0.83729769  0.84981968  0.62794273  1
  Pr3+  Pr64  1  0.66813213  0.32081188  0.37331658  1
  Pr3+  Pr65  1  0.66442430  0.67934247  0.62640252  1
  Pr3+  Pr66  1  0.33039232  0.01101803  0.62776875  1
  Pr3+  Pr67  1  0.66316865  0.01254167  0.62684425  1
  Pr3+  Pr68  1  0.50648585  0.84905634  0.12229614  1
  Pr3+  Pr69  1  0.67025777  0.98962360  0.37169240  1
  Pr3+  Pr70  1  0.50240169  0.17950783  0.62571120  1
  Pr3+  Pr71  1  -0.00285718  0.68100505  0.62438364  1
  Mn3.30+  Mn72  1  0.16617713  -0.00053046  -0.00050123  1
  Mn3.30+  Mn73  1  0.16669522  0.00024750  0.50018683  1
  Mn3.30+  Mn74  1  0.16607814  0.33373574  -0.00245039  1
  Mn3.30+  Mn75  1  0.16418784  0.33127893  0.50065402  1
  Mn3.30+  Mn76  1  0.16577081  0.66695656  0.00077748  1
  Mn3.30+  Mn77  1  0.16490616  0.66672661  0.49884632  1
  Mn3.30+  Mn78  1  0.50309664  -0.00102980  -0.00303906  1
  Mn3.30+  Mn79  1  0.49827371  -0.00077895  0.50007465  1
  Mn3.30+  Mn80  1  0.49969538  0.33237359  -0.00017559  1
  Mn3.30+  Mn81  1  0.49934944  0.33338030  0.50142831  1
  Mn3.30+  Mn82  1  0.50066877  0.66673406  -0.00008005  1
  Mn3.30+  Mn83  1  0.50089923  0.66580122  0.50016000  1
  Mn3.30+  Mn84  1  0.83116751  -0.00062684  0.00082513  1
  Mn3.30+  Mn85  1  0.83539177  0.00157997  0.49992452  1
  Mn3.30+  Mn86  1  0.83376815  0.33416719  0.00035337  1
  Mn3.30+  Mn87  1  0.83428223  0.33332147  0.49881969  1
  Mn3.30+  Mn88  1  0.83439022  0.66782706  0.00060536  1
  Mn3.30+  Mn89  1  0.83497800  0.66741467  0.49831306  1
  Mn3.30+  Mn90  1  -0.00079682  0.16623867  0.24745776  1
  Mn3.30+  Mn91  1  -0.00053530  0.16655822  0.75247204  1
  Mn3.30+  Mn92  1  -0.00092025  0.50090211  0.24933790  1
  Mn3.30+  Mn93  1  0.00017102  0.50004097  0.75140820  1
  Mn3.30+  Mn94  1  -0.00061006  0.83266810  0.24826394  1
  Mn3.30+  Mn95  1  -0.00081518  0.83502807  0.75193454  1
  Mn3.30+  Mn96  1  0.33345395  0.16585447  0.24923633  1
  Mn3.30+  Mn97  1  0.33362927  0.16544839  0.75225397  1
  Mn3.30+  Mn98  1  0.33337317  0.49891491  0.25028952  1
  Mn3.30+  Mn99  1  0.33416608  0.49936983  0.74967659  1
  Mn3.30+  Mn100  1  0.33297036  0.83527850  0.24937846  1
  Mn3.30+  Mn101  1  0.33586172  0.83338235  0.75255194  1
  Mn3.30+  Mn102  1  0.66486360  0.16687566  0.24825102  1
  Mn3.30+  Mn103  1  0.66576595  0.16608895  0.75168710  1
  Mn3.30+  Mn104  1  0.66791719  0.49845278  0.24889829  1
  Mn3.30+  Mn105  1  0.66501226  0.50097440  0.74955460  1
  Mn3.30+  Mn106  1  0.66752420  0.83455152  0.24863440  1
  Mn3.30+  Mn107  1  0.66830216  0.83464969  0.75345258  1
  Mn3.30+  Mn108  1  0.16707180  -0.00021093  0.24821502  1
  Mn3.30+  Mn109  1  0.16599723  -0.00023914  0.75247716  1
  Mn3.30+  Mn110  1  0.16443611  0.33277020  0.24987540  1
  Mn3.30+  Mn111  1  0.16579705  0.33268207  0.75255613  1
  Mn3.30+  Mn112  1  0.16345602  0.66615562  0.24897557  1
  Mn3.30+  Mn113  1  0.16696534  0.66780082  0.75141867  1
  Mn3.30+  Mn114  1  0.50081813  0.00043423  0.24882816  1
  Mn3.30+  Mn115  1  0.50044467  -0.00259638  0.75434857  1
  Mn3.30+  Mn116  1  0.50050108  0.33208341  0.24856133  1
  Mn3.30+  Mn117  1  0.49859810  0.33375331  0.74988072  1
  Mn3.30+  Mn118  1  0.50053605  0.66648070  0.24990806  1
  Mn3.30+  Mn119  1  0.50088931  0.66582822  0.75010616  1
  Mn3.30+  Mn120  1  0.83419713  0.00041446  0.24641341  1
  Mn3.30+  Mn121  1  0.83261032  0.00012702  0.75256731  1
  Mn3.30+  Mn122  1  0.83414394  0.33394907  0.24935034  1
  Mn3.30+  Mn123  1  0.83394542  0.33399994  0.75141039  1
  Mn3.30+  Mn124  1  0.83736547  0.66620958  0.24976732  1
  Mn3.30+  Mn125  1  0.83276024  0.66907016  0.75105912  1
  Mn3.30+  Mn126  1  -0.00169653  0.16674800  -0.00042177  1
  Mn3.30+  Mn127  1  0.00040536  0.16595713  0.50054611  1
  Mn3.30+  Mn128  1  -0.00115852  0.49985269  0.00064615  1
  Mn3.30+  Mn129  1  0.00031368  0.50025710  0.49880005  1
  Mn3.30+  Mn130  1  -0.00131847  0.83303901  0.00018907  1
  Mn3.30+  Mn131  1  0.00018295  0.83498832  0.49989876  1
  Mn3.30+  Mn132  1  0.33431378  0.16615544  -0.00155739  1
  Mn3.30+  Mn133  1  0.33265366  0.16498160  0.50004116  1
  Mn3.30+  Mn134  1  0.33348925  0.49887011  -0.00145600  1
  Mn3.30+  Mn135  1  0.33430216  0.49926855  0.50175935  1
  Mn3.30+  Mn136  1  0.33671449  0.83326472  -0.00028642  1
  Mn3.30+  Mn137  1  0.33269390  0.83557132  0.49867959  1
  Mn3.30+  Mn138  1  0.66458619  0.16596658  0.00009760  1
  Mn3.30+  Mn139  1  0.66581957  0.16689439  0.49940638  1
  Mn3.30+  Mn140  1  0.66658093  0.50025428  -0.00003290  1
  Mn3.30+  Mn141  1  0.66550624  0.49932598  0.50102390  1
  Mn3.30+  Mn142  1  0.66866818  0.83531333  -0.00204020  1
  Mn3.30+  Mn143  1  0.66725413  0.83451630  0.49983655  1
  O2-  O144  1  0.02362942  0.16031765  0.12291149  1
  O2-  O145  1  0.02274353  0.15952479  0.62833775  1
  O2-  O146  1  0.02452190  0.49502095  0.12395759  1
  O2-  O147  1  0.02536784  0.49325315  0.62610738  1
  O2-  O148  1  0.02409205  0.82309811  0.12658748  1
  O2-  O149  1  0.02598234  0.82706589  0.62554780  1
  O2-  O150  1  0.35404044  0.16077116  0.12177565  1
  O2-  O151  1  0.35892860  0.15710251  0.62706358  1
  O2-  O152  1  0.35887009  0.49313702  0.12367756  1
  O2-  O153  1  0.36015582  0.49338958  0.62539351  1
  O2-  O154  1  0.36074784  0.82797912  0.12558820  1
  O2-  O155  1  0.35751124  0.83053881  0.62571028  1
  O2-  O156  1  0.69001552  0.15937444  0.12432512  1
  O2-  O157  1  0.69135047  0.15978712  0.62532935  1
  O2-  O158  1  0.68414603  0.49260654  0.12642906  1
  O2-  O159  1  0.69168857  0.50039883  0.62428994  1
  O2-  O160  1  0.69259258  0.82583267  0.12611904  1
  O2-  O161  1  0.69268491  0.82936799  0.62495746  1
  O2-  O162  1  0.14726976  0.33041115  0.12375460  1
  O2-  O163  1  0.13822387  0.32786295  0.62729752  1
  O2-  O164  1  0.13900282  0.65926198  0.12580407  1
  O2-  O165  1  0.14140350  0.66236803  0.62509034  1
  O2-  O166  1  0.13992958  0.99381384  0.12377140  1
  O2-  O167  1  0.14047233  0.99485246  0.62789281  1
  O2-  O168  1  0.47383057  0.33698087  0.12369885  1
  O2-  O169  1  0.47302126  0.32580658  0.62684099  1
  O2-  O170  1  0.47490305  0.65732156  0.12699182  1
  O2-  O171  1  0.47551072  0.66060645  0.62271313  1
  O2-  O172  1  0.47542833  0.99582739  0.12325358  1
  O2-  O173  1  0.47417321  0.99309884  0.62777088  1
  O2-  O174  1  0.80719059  0.32808633  0.12537326  1
  O2-  O175  1  0.81499617  0.32811032  0.62483764  1
  O2-  O176  1  0.80983257  0.66711090  0.12730299  1
  O2-  O177  1  0.80912265  0.66292662  0.62261933  1
  O2-  O178  1  0.80283021  0.99340298  0.12391290  1
  O2-  O179  1  0.80668553  0.99773957  0.62733438  1
  O2-  O180  1  0.30795414  0.16885775  0.37621188  1
  O2-  O181  1  0.30870112  0.17407592  0.87490435  1
  O2-  O182  1  0.30679250  0.50516980  0.37689860  1
  O2-  O183  1  0.30711155  0.51042032  0.87400813  1
  O2-  O184  1  0.30753433  0.84145086  0.37290812  1
  O2-  O185  1  0.31711615  0.83120239  0.87592651  1
  O2-  O186  1  0.63888839  0.17177172  0.37482542  1
  O2-  O187  1  0.64070468  0.17639020  0.87547531  1
  O2-  O188  1  0.64136961  0.50544553  0.37543457  1
  O2-  O189  1  0.64241545  0.50192667  0.87325761  1
  O2-  O190  1  0.64093931  0.84138835  0.37340533  1
  O2-  O191  1  0.64061518  0.83937947  0.87516887  1
  O2-  O192  1  0.97840840  0.16963917  0.37275560  1
  O2-  O193  1  0.97432755  0.17296808  0.87621500  1
  O2-  O194  1  0.97733788  0.51007713  0.37555092  1
  O2-  O195  1  0.97472177  0.51078034  0.87440512  1
  O2-  O196  1  0.97509016  0.84446800  0.37363304  1
  O2-  O197  1  0.97163277  0.83906206  0.87473823  1
  O2-  O198  1  0.19278452  0.00624558  0.37248596  1
  O2-  O199  1  0.19385511  0.00580074  0.87629095  1
  O2-  O200  1  0.18551847  0.33455647  0.37518145  1
  O2-  O201  1  0.19630162  0.33908303  0.87413901  1
  O2-  O202  1  0.19273807  0.67128723  0.37405076  1
  O2-  O203  1  0.19328855  0.66735966  0.87534907  1
  O2-  O204  1  0.52592516  0.00338989  0.37432467  1
  O2-  O205  1  0.53135572  0.00670910  0.87424083  1
  O2-  O206  1  0.52332498  0.33634424  0.37519066  1
  O2-  O207  1  0.52425729  0.33807316  0.87361931  1
  O2-  O208  1  0.52596046  0.67538278  0.37497524  1
  O2-  O209  1  0.51655433  0.67265054  0.87453812  1
  O2-  O210  1  0.86061575  0.00742740  0.37215869  1
  O2-  O211  1  0.86003024  0.00740933  0.87647657  1
  O2-  O212  1  0.86031127  0.33648821  0.37579351  1
  O2-  O213  1  0.85856140  0.33982174  0.87408536  1
  O2-  O214  1  0.86065863  0.67303852  0.37592657  1
  O2-  O215  1  0.85774214  0.67203062  0.87418295  1
  O2-  O216  1  0.23773120  0.09369609  0.02019574  1
  O2-  O217  1  0.23806719  0.09415244  0.52271014  1
  O2-  O218  1  0.23887195  0.42903309  0.02003627  1
  O2-  O219  1  0.23622899  0.42551913  0.52141352  1
  O2-  O220  1  0.23910232  0.75767218  0.02415555  1
  O2-  O221  1  0.23808002  0.76247207  0.51943648  1
  O2-  O222  1  0.57081040  0.09611192  0.01405731  1
  O2-  O223  1  0.57005299  0.09251554  0.52047448  1
  O2-  O224  1  0.56758548  0.42959193  0.01332107  1
  O2-  O225  1  0.56991557  0.43277542  0.51692682  1
  O2-  O226  1  0.57527010  0.76071536  0.02192978  1
  O2-  O227  1  0.57039413  0.76096685  0.52093695  1
  O2-  O228  1  0.90075005  0.09404725  0.01874809  1
  O2-  O229  1  0.90275527  0.09748584  0.51705412  1
  O2-  O230  1  0.90533216  0.42927336  0.01277779  1
  O2-  O231  1  0.90496638  0.43029033  0.51987519  1
  O2-  O232  1  0.90582301  0.76203883  0.01835367  1
  O2-  O233  1  0.90506028  0.76528769  0.52047645  1
  O2-  O234  1  0.25964586  0.25905442  0.22857108  1
  O2-  O235  1  0.25827260  0.26042530  0.72659903  1
  O2-  O236  1  0.26176426  0.59428389  0.22963728  1
  O2-  O237  1  0.26256148  0.59326649  0.72655793  1
  O2-  O238  1  0.25985832  0.92686009  0.22426831  1
  O2-  O239  1  0.26007730  0.92599644  0.73147703  1
  O2-  O240  1  0.59834788  0.26625200  0.23176248  1
  O2-  O241  1  0.59177171  0.25927647  0.73205352  1
  O2-  O242  1  0.59736232  0.59386164  0.23163319  1
  O2-  O243  1  0.59387075  0.59557670  0.72914566  1
  O2-  O244  1  0.59665485  0.92961339  0.22764372  1
  O2-  O245  1  0.59523476  0.92639707  0.72659892  1
  O2-  O246  1  0.92188000  0.25653574  0.23104737  1
  O2-  O247  1  0.92722967  0.26081218  0.72978649  1
  O2-  O248  1  0.93228027  0.59946740  0.23181952  1
  O2-  O249  1  0.92785115  0.59692387  0.72874343  1
  O2-  O250  1  0.92947571  0.92973075  0.22596085  1
  O2-  O251  1  0.92905391  0.93079768  0.72840820  1
  O2-  O252  1  0.09575824  0.23697057  0.26448925  1
  O2-  O253  1  0.09750695  0.23738794  0.77004834  1
  O2-  O254  1  0.09899281  0.56834139  0.26837903  1
  O2-  O255  1  0.09542604  0.57178133  0.76919983  1
  O2-  O256  1  0.09586668  0.90513896  0.26971820  1
  O2-  O257  1  0.09246734  0.90742041  0.77053689  1
  O2-  O258  1  0.42972669  0.23764938  0.26722842  1
  O2-  O259  1  0.42901015  0.23561959  0.76737441  1
  O2-  O260  1  0.42831673  0.57293299  0.27251180  1
  O2-  O261  1  0.42672545  0.57188205  0.77063221  1
  O2-  O262  1  0.43247340  0.90489310  0.26653151  1
  O2-  O263  1  0.43369742  0.90150307  0.76998152  1
  O2-  O264  1  0.75846973  0.23864645  0.27159259  1
  O2-  O265  1  0.76164900  0.24009861  0.77023748  1
  O2-  O266  1  0.76220857  0.57416077  0.27257540  1
  O2-  O267  1  0.76490356  0.57232340  0.76562039  1
  O2-  O268  1  0.76389862  0.90711416  0.27224533  1
  O2-  O269  1  0.76555965  0.90380239  0.76917671  1
  O2-  O270  1  0.07351056  0.07235033  0.47837940  1
  O2-  O271  1  0.07216204  0.07445317  0.97716554  1
  O2-  O272  1  0.06761086  0.40383865  0.47949871  1
  O2-  O273  1  0.07404890  0.40691018  0.97492863  1
  O2-  O274  1  0.07057567  0.73696479  0.47811386  1
  O2-  O275  1  0.07235258  0.73904505  0.98116485  1
  O2-  O276  1  0.40284145  0.06963046  0.47954437  1
  O2-  O277  1  0.40528787  0.06797551  0.97725233  1
  O2-  O278  1  0.40641924  0.40592025  0.48224036  1
  O2-  O279  1  0.40286452  0.40398497  0.97697145  1
  O2-  O280  1  0.40410614  0.73947328  0.47954044  1
  O2-  O281  1  0.40390823  0.73481915  0.98734536  1
  O2-  O282  1  0.73866499  0.07240018  0.47846330  1
  O2-  O283  1  0.73930751  0.07283539  0.97671800  1
  O2-  O284  1  0.73932902  0.40744830  0.47746361  1
  O2-  O285  1  0.74016463  0.40717933  0.97849606  1
  O2-  O286  1  0.73771629  0.74061156  0.47787974  1
  O2-  O287  1  0.73939350  0.74037675  0.98596437  1
  O2-  O288  1  0.09668273  0.23477702  0.48425537  1
  O2-  O289  1  0.09625227  0.23906458  0.98199631  1
  O2-  O290  1  0.09764642  0.56747828  0.48381346  1
  O2-  O291  1  0.09612969  0.57145498  0.97951221  1
  O2-  O292  1  0.09612201  0.90440530  0.47895069  1
  O2-  O293  1  0.09151911  0.90678954  0.98252130  1
  O2-  O294  1  0.42792295  0.23355115  0.48497269  1
  O2-  O295  1  0.42945779  0.23854040  0.97984369  1
  O2-  O296  1  0.42838149  0.57542120  0.47611087  1
  O2-  O297  1  0.42665695  0.56966283  0.97982200  1
  O2-  O298  1  0.43036097  0.90373132  0.48209707  1
  O2-  O299  1  0.43557808  0.90290973  0.98223171  1
  O2-  O300  1  0.76105799  0.23941053  0.47871695  1
  O2-  O301  1  0.75931911  0.23922180  0.97950458  1
  O2-  O302  1  0.76177472  0.57206072  0.47846440  1
  O2-  O303  1  0.76248051  0.57400365  0.98325773  1
  O2-  O304  1  0.76437433  0.90819477  0.47927838  1
  O2-  O305  1  0.76540730  0.90274445  0.97934398  1
  O2-  O306  1  0.07464588  0.07247562  0.27022407  1
  O2-  O307  1  0.07335403  0.07353000  0.77524348  1
  O2-  O308  1  0.07227998  0.40581054  0.27220733  1
  O2-  O309  1  0.07178765  0.40315309  0.77340424  1
  O2-  O310  1  0.07271835  0.73959030  0.27465599  1
  O2-  O311  1  0.06908676  0.73836104  0.76789072  1
  O2-  O312  1  0.40430042  0.07003800  0.26989304  1
  O2-  O313  1  0.40557279  0.06678200  0.77382952  1
  O2-  O314  1  0.40752615  0.40714490  0.26784548  1
  O2-  O315  1  0.40132804  0.40303925  0.77227144  1
  O2-  O316  1  0.40348073  0.73947275  0.27126230  1
  O2-  O317  1  0.40405679  0.73479784  0.76170368  1
  O2-  O318  1  0.74107487  0.07516499  0.27226922  1
  O2-  O319  1  0.73702310  0.07065114  0.77290324  1
  O2-  O320  1  0.74036949  0.40734759  0.27394527  1
  O2-  O321  1  0.74048675  0.40723126  0.77081699  1
  O2-  O322  1  0.73897003  0.73898045  0.27153155  1
  O2-  O323  1  0.73934681  0.74047469  0.76438159  1
  O2-  O324  1  0.23746565  0.09337928  0.22702407  1
  O2-  O325  1  0.23814144  0.09358962  0.73014998  1
  O2-  O326  1  0.23841575  0.42639294  0.23100848  1
  O2-  O327  1  0.23709578  0.42832532  0.72816675  1
  O2-  O328  1  0.23629689  0.75970307  0.22839986  1
  O2-  O329  1  0.24012532  0.75936558  0.72781516  1
  O2-  O330  1  0.57182834  0.09468025  0.23623388  1
  O2-  O331  1  0.56978227  0.09278495  0.72885582  1
  O2-  O332  1  0.56940445  0.42924825  0.23667815  1
  O2-  O333  1  0.56606844  0.42980711  0.73251651  1
  O2-  O334  1  0.57133968  0.76068802  0.22882133  1
  O2-  O335  1  0.57425925  0.75949064  0.72784901  1
  O2-  O336  1  0.90308509  0.09440969  0.22907688  1
  O2-  O337  1  0.90072697  0.09639519  0.73443377  1
  O2-  O338  1  0.90591189  0.43133194  0.23764188  1
  O2-  O339  1  0.90502309  0.42963556  0.72983075  1
  O2-  O340  1  0.90146696  0.76634169  0.23433652  1
  O2-  O341  1  0.90654023  0.76163336  0.72684074  1
  O2-  O342  1  0.25926873  0.26016632  0.01985300  1
  O2-  O343  1  0.26064126  0.25786578  0.52498250  1
  O2-  O344  1  0.26149457  0.59331458  0.02258929  1
  O2-  O345  1  0.26177699  0.59465383  0.52117867  1
  O2-  O346  1  0.26179048  0.92465665  0.02020763  1
  O2-  O347  1  0.25972758  0.92791671  0.52303617  1
  O2-  O348  1  0.59737524  0.26653432  0.01711521  1
  O2-  O349  1  0.59194245  0.25978032  0.51842361  1
  O2-  O350  1  0.59269770  0.59333822  0.02180169  1
  O2-  O351  1  0.59834979  0.59795661  0.51601808  1
  O2-  O352  1  0.59782605  0.92881992  0.02340564  1
  O2-  O353  1  0.59581718  0.92755565  0.52072111  1
  O2-  O354  1  0.92206543  0.25737799  0.01909877  1
  O2-  O355  1  0.92879418  0.25923331  0.52098156  1
  O2-  O356  1  0.93160040  0.59847742  0.01607319  1
  O2-  O357  1  0.92872047  0.59324679  0.52338555  1
  O2-  O358  1  0.92828043  0.92967964  0.02263610  1
  O2-  O359  1  0.92951019  0.93185340  0.52221263  1
