# generated using pymatgen
data_Sr7Ca15Pr50Mn72O216
_symmetry_space_group_name_H-M   'P 1'
_cell_length_a   16.55828404
_cell_length_b   16.60555534
_cell_length_c   15.59295357
_cell_angle_alpha   90.00265848
_cell_angle_beta   89.99452525
_cell_angle_gamma   89.98555514
_symmetry_Int_Tables_number   1
_chemical_formula_structural   Sr7Ca15Pr50Mn72O216
_chemical_formula_sum   'Sr7 Ca15 Pr50 Mn72 O216'
_cell_volume   4287.43058664
_cell_formula_units_Z   1
loop_
 _symmetry_equiv_pos_site_id
 _symmetry_equiv_pos_as_xyz
  1  'x, y, z'
loop_
 _atom_type_symbol
 _atom_type_oxidation_number
  Sr2+  2.0
  Ca2+  2.0
  Pr3+  3.0
  Mn3.30+  3.3
  O2-  -2.0
loop_
 _atom_site_type_symbol
 _atom_site_label
 _atom_site_symmetry_multiplicity
 _atom_site_fract_x
 _atom_site_fract_y
 _atom_site_fract_z
 _atom_site_occupancy
  Sr2+  Sr0  1  0.99947698  0.98951959  0.87662501  1
  Sr2+  Sr1  1  0.66680905  0.00820699  0.12442571  1
  Sr2+  Sr2  1  0.66731551  0.32657088  0.87637885  1
  Sr2+  Sr3  1  0.33250941  0.67680668  0.62605526  1
  Sr2+  Sr4  1  0.83393667  0.49046293  0.37400844  1
  Sr2+  Sr5  1  0.82945151  0.82351148  0.87821275  1
  Sr2+  Sr6  1  0.50412595  0.17441737  0.12740022  1
  Ca2+  Ca7  1  0.17246582  0.51689865  0.12454134  1
  Ca2+  Ca8  1  0.83554679  0.51412378  0.62990376  1
  Ca2+  Ca9  1  0.49607775  0.15096934  0.37285357  1
  Ca2+  Ca10  1  0.67152750  0.65039011  0.87699159  1
  Ca2+  Ca11  1  0.16816719  0.17878228  0.12523649  1
  Ca2+  Ca12  1  0.33017843  0.68127761  0.12296861  1
  Ca2+  Ca13  1  0.49946313  0.48620542  0.87546173  1
  Ca2+  Ca14  1  0.66368856  0.68120864  0.12156020  1
  Ca2+  Ca15  1  0.16920118  0.18205961  0.62458404  1
  Ca2+  Ca16  1  0.83626901  0.84910793  0.12246966  1
  Ca2+  Ca17  1  -0.00485338  0.01295162  0.12374765  1
  Ca2+  Ca18  1  0.16341908  0.81739473  0.37320888  1
  Ca2+  Ca19  1  0.82855362  0.48666980  0.87577530  1
  Ca2+  Ca20  1  1.00441867  0.31894019  0.37462027  1
  Ca2+  Ca21  1  0.49964641  0.81827446  0.87875685  1
  Pr3+  Pr22  1  0.49810325  0.82072484  0.37180555  1
  Pr3+  Pr23  1  0.16464148  0.48818825  0.87663778  1
  Pr3+  Pr24  1  0.32991959  0.01625093  0.12476399  1
  Pr3+  Pr25  1  -0.00027247  0.34393228  0.12694905  1
  Pr3+  Pr26  1  0.33331606  0.65581728  0.37213994  1
  Pr3+  Pr27  1  0.33757907  0.98475646  0.87681207  1
  Pr3+  Pr28  1  1.00075475  0.32257951  0.87584934  1
  Pr3+  Pr29  1  0.67013415  0.65321597  0.37176348  1
  Pr3+  Pr30  1  0.66651811  0.34993747  0.62608427  1
  Pr3+  Pr31  1  0.66528146  0.67725343  0.62654086  1
  Pr3+  Pr32  1  0.33721021  0.31809726  0.37569672  1
  Pr3+  Pr33  1  0.83046981  0.15475175  0.87568655  1
  Pr3+  Pr34  1  -0.00143144  0.01345381  0.62618301  1
  Pr3+  Pr35  1  0.67067079  0.98796508  0.87845796  1
  Pr3+  Pr36  1  -0.00376962  0.34932903  0.62381960  1
  Pr3+  Pr37  1  0.50376268  0.18041964  0.62301467  1
  Pr3+  Pr38  1  0.16300431  0.15414142  0.87482111  1
  Pr3+  Pr39  1  0.82986938  0.82081947  0.37167966  1
  Pr3+  Pr40  1  -0.00446066  0.67684083  0.62574943  1
  Pr3+  Pr41  1  0.83607531  0.84424635  0.62639546  1
  Pr3+  Pr42  1  0.15954921  0.48566809  0.37330830  1
  Pr3+  Pr43  1  0.16210151  0.15510455  0.37496516  1
  Pr3+  Pr44  1  0.50090893  0.84309327  0.62624446  1
  Pr3+  Pr45  1  0.32923908  0.34599373  0.12499722  1
  Pr3+  Pr46  1  0.34019385  0.65295339  0.87767187  1
  Pr3+  Pr47  1  0.32932222  0.34707392  0.62527233  1
  Pr3+  Pr48  1  1.00264678  0.65505017  0.37230395  1
  Pr3+  Pr49  1  1.00597200  0.98318621  0.37315333  1
  Pr3+  Pr50  1  0.83262325  0.51136032  0.12202544  1
  Pr3+  Pr51  1  0.49699667  0.48885841  0.37482661  1
  Pr3+  Pr52  1  0.33507965  0.98703186  0.37326433  1
  Pr3+  Pr53  1  0.99913229  0.65451832  0.87737129  1
  Pr3+  Pr54  1  0.83635740  0.18084540  0.62533110  1
  Pr3+  Pr55  1  0.33810267  0.32152293  0.87492809  1
  Pr3+  Pr56  1  0.16881346  0.84711223  0.12482668  1
  Pr3+  Pr57  1  0.66949340  0.32085631  0.37425022  1
  Pr3+  Pr58  1  0.50474779  0.51344324  0.12203761  1
  Pr3+  Pr59  1  0.50281327  0.51458639  0.62787973  1
  Pr3+  Pr60  1  -0.00373838  0.68046594  0.12365299  1
  Pr3+  Pr61  1  0.66380318  0.34287521  0.12381421  1
  Pr3+  Pr62  1  0.32804666  0.01365821  0.62500222  1
  Pr3+  Pr63  1  0.83558369  0.15552120  0.37475433  1
  Pr3+  Pr64  1  0.66405423  0.01142795  0.62548225  1
  Pr3+  Pr65  1  0.83608945  0.17448110  0.12473779  1
  Pr3+  Pr66  1  0.16167328  0.82053135  0.87689995  1
  Pr3+  Pr67  1  0.66709168  0.98950062  0.37146656  1
  Pr3+  Pr68  1  0.50203002  0.84464996  0.12377279  1
  Pr3+  Pr69  1  0.17081966  0.84364533  0.62512162  1
  Pr3+  Pr70  1  0.16918495  0.51485098  0.62559295  1
  Pr3+  Pr71  1  0.49937378  0.15550900  0.87661523  1
  Mn3.30+  Mn72  1  0.16480937  0.00187920  0.00193650  1
  Mn3.30+  Mn73  1  0.16653398  -0.00067266  0.49939277  1
  Mn3.30+  Mn74  1  0.16725260  0.33406420  0.00142570  1
  Mn3.30+  Mn75  1  0.16538862  0.33251807  0.50051260  1
  Mn3.30+  Mn76  1  0.16897869  0.66564441  0.00167832  1
  Mn3.30+  Mn77  1  0.16622999  0.66764224  0.49866776  1
  Mn3.30+  Mn78  1  0.50119611  -0.00136373  -0.00029184  1
  Mn3.30+  Mn79  1  0.49817139  -0.00030092  0.49995850  1
  Mn3.30+  Mn80  1  0.49927497  0.33322790  0.00009784  1
  Mn3.30+  Mn81  1  0.50027440  0.33316003  0.49958102  1
  Mn3.30+  Mn82  1  0.50264314  0.66607018  -0.00109023  1
  Mn3.30+  Mn83  1  0.49978636  0.66716592  0.49955437  1
  Mn3.30+  Mn84  1  0.83459122  -0.00103236  0.00187232  1
  Mn3.30+  Mn85  1  0.83425779  -0.00042535  0.49891431  1
  Mn3.30+  Mn86  1  0.83294184  0.33382385  0.00084531  1
  Mn3.30+  Mn87  1  0.83500493  0.33577153  0.49810848  1
  Mn3.30+  Mn88  1  0.82909275  0.66766367  0.00016711  1
  Mn3.30+  Mn89  1  0.83276996  0.66519973  0.49992126  1
  Mn3.30+  Mn90  1  0.00265194  0.16629398  0.24883198  1
  Mn3.30+  Mn91  1  0.00157103  0.16802342  0.74895395  1
  Mn3.30+  Mn92  1  0.00144840  0.49921418  0.24706970  1
  Mn3.30+  Mn93  1  -0.00291290  0.50066725  0.75258687  1
  Mn3.30+  Mn94  1  -0.00019592  0.83361599  0.24752322  1
  Mn3.30+  Mn95  1  -0.00005313  0.83267290  0.75210948  1
  Mn3.30+  Mn96  1  0.33259344  0.16763216  0.24954615  1
  Mn3.30+  Mn97  1  0.33222372  0.16630042  0.74933960  1
  Mn3.30+  Mn98  1  0.33096529  0.50143852  0.24800540  1
  Mn3.30+  Mn99  1  0.33472865  0.50069524  0.75163046  1
  Mn3.30+  Mn100  1  0.33089239  0.83232961  0.24905614  1
  Mn3.30+  Mn101  1  0.33501674  0.83200149  0.75203626  1
  Mn3.30+  Mn102  1  0.66596677  0.16565846  0.25203692  1
  Mn3.30+  Mn103  1  0.66682645  0.16810174  0.74939873  1
  Mn3.30+  Mn104  1  0.66646144  0.50008218  0.24860695  1
  Mn3.30+  Mn105  1  0.66932247  0.50190897  0.75274620  1
  Mn3.30+  Mn106  1  0.66726754  0.83217398  0.24586684  1
  Mn3.30+  Mn107  1  0.66606514  0.83113113  0.75340892  1
  Mn3.30+  Mn108  1  0.16500495  0.00089625  0.24797352  1
  Mn3.30+  Mn109  1  0.16655008  0.00042617  0.75055836  1
  Mn3.30+  Mn110  1  0.16644450  0.33292854  0.24919820  1
  Mn3.30+  Mn111  1  0.16642337  0.33329907  0.74976074  1
  Mn3.30+  Mn112  1  0.16804359  0.66686630  0.24681704  1
  Mn3.30+  Mn113  1  0.16716901  0.66666317  0.75221202  1
  Mn3.30+  Mn114  1  0.49998938  0.00053059  0.24990842  1
  Mn3.30+  Mn115  1  0.49930357  -0.00173953  0.75033720  1
  Mn3.30+  Mn116  1  0.49911760  0.33178528  0.25038073  1
  Mn3.30+  Mn117  1  0.50022630  0.33478918  0.75060242  1
  Mn3.30+  Mn118  1  0.49953707  0.66589804  0.24604405  1
  Mn3.30+  Mn119  1  0.50262937  0.66729643  0.75488447  1
  Mn3.30+  Mn120  1  0.83666430  -0.00042499  0.24906585  1
  Mn3.30+  Mn121  1  0.83259183  -0.00071899  0.75003864  1
  Mn3.30+  Mn122  1  0.83511269  0.33312561  0.25174309  1
  Mn3.30+  Mn123  1  0.83301792  0.33638541  0.75049364  1
  Mn3.30+  Mn124  1  0.83180496  0.66771342  0.24513592  1
  Mn3.30+  Mn125  1  0.83055389  0.66518234  0.75349215  1
  Mn3.30+  Mn126  1  0.00232093  0.16597263  0.00188023  1
  Mn3.30+  Mn127  1  0.00209886  0.16827861  0.50093188  1
  Mn3.30+  Mn128  1  0.00036108  0.49979220  0.00163184  1
  Mn3.30+  Mn129  1  -0.00221167  0.49971507  0.49894661  1
  Mn3.30+  Mn130  1  -0.00240247  0.83478065  0.00063146  1
  Mn3.30+  Mn131  1  0.00181133  0.83162030  0.49926080  1
  Mn3.30+  Mn132  1  0.33184633  0.16772156  0.00104248  1
  Mn3.30+  Mn133  1  0.33292869  0.16595271  0.50005774  1
  Mn3.30+  Mn134  1  0.33454920  0.50080247  0.00157697  1
  Mn3.30+  Mn135  1  0.33118255  0.50123287  0.49890168  1
  Mn3.30+  Mn136  1  0.33423866  0.83179407  0.00062401  1
  Mn3.30+  Mn137  1  0.33165663  0.83243477  0.49830039  1
  Mn3.30+  Mn138  1  0.66630006  0.16712259  0.00086160  1
  Mn3.30+  Mn139  1  0.66618002  0.16662425  0.49820602  1
  Mn3.30+  Mn140  1  0.66715177  0.50143286  -0.00249335  1
  Mn3.30+  Mn141  1  0.66876955  0.50102005  0.50075262  1
  Mn3.30+  Mn142  1  0.66617052  0.83019086  0.00059797  1
  Mn3.30+  Mn143  1  0.66678580  0.83312866  0.49929558  1
  O2-  O144  1  0.02607924  0.15948799  0.12546723  1
  O2-  O145  1  0.02671225  0.16128693  0.62488230  1
  O2-  O146  1  0.03018480  0.49292386  0.12429610  1
  O2-  O147  1  0.02617320  0.49821587  0.62758758  1
  O2-  O148  1  0.02636592  0.82691701  0.12463217  1
  O2-  O149  1  0.02637898  0.82493186  0.62625561  1
  O2-  O150  1  0.35464109  0.16519747  0.12680345  1
  O2-  O151  1  0.36072586  0.16074420  0.62564317  1
  O2-  O152  1  0.36084948  0.49198261  0.12652758  1
  O2-  O153  1  0.35702199  0.49627714  0.62696015  1
  O2-  O154  1  0.35746060  0.82925816  0.12485706  1
  O2-  O155  1  0.35662454  0.83239853  0.62584850  1
  O2-  O156  1  0.69051824  0.16768628  0.12908645  1
  O2-  O157  1  0.69201912  0.15998117  0.62252190  1
  O2-  O158  1  0.68883375  0.49034109  0.12489273  1
  O2-  O159  1  0.69287903  0.49876790  0.62605139  1
  O2-  O160  1  0.69284474  0.82624152  0.12544705  1
  O2-  O161  1  0.69206347  0.82625073  0.62567842  1
  O2-  O162  1  0.14317655  0.32280894  0.12442962  1
  O2-  O163  1  0.14111612  0.32850573  0.62609438  1
  O2-  O164  1  0.14131750  0.66108240  0.12335229  1
  O2-  O165  1  0.14105124  0.66273240  0.62731488  1
  O2-  O166  1  0.13724256  0.99308508  0.12598002  1
  O2-  O167  1  0.14136545  0.98922296  0.62360519  1
  O2-  O168  1  0.47474789  0.33027639  0.12634317  1
  O2-  O169  1  0.47366568  0.32845881  0.62317743  1
  O2-  O170  1  0.47134676  0.65959138  0.12426297  1
  O2-  O171  1  0.48153486  0.66272536  0.62743084  1
  O2-  O172  1  0.47453200  0.99458934  0.12455919  1
  O2-  O173  1  0.47222480  0.99156931  0.62582223  1
  O2-  O174  1  0.80864841  0.32425333  0.12662394  1
  O2-  O175  1  0.80906309  0.32653217  0.62255350  1
  O2-  O176  1  0.80463192  0.65721768  0.12302470  1
  O2-  O177  1  0.80953895  0.66089374  0.62827089  1
  O2-  O178  1  0.81627726  1.00346558  0.12716191  1
  O2-  O179  1  0.80885769  0.99408206  0.62228855  1
  O2-  O180  1  0.30581307  0.16988662  0.37435915  1
  O2-  O181  1  0.30715647  0.17199305  0.87321364  1
  O2-  O182  1  0.30511111  0.50674878  0.37094840  1
  O2-  O183  1  0.30865239  0.50346358  0.87534813  1
  O2-  O184  1  0.30539347  0.83907391  0.37205207  1
  O2-  O185  1  0.30611819  0.83816812  0.87723437  1
  O2-  O186  1  0.63874521  0.17254840  0.37740792  1
  O2-  O187  1  0.64390546  0.16891115  0.87165930  1
  O2-  O188  1  0.64088572  0.50521974  0.37327925  1
  O2-  O189  1  0.64059016  0.50429710  0.87594469  1
  O2-  O190  1  0.64263775  0.83942134  0.37253349  1
  O2-  O191  1  0.64041868  0.84337545  0.87526566  1
  O2-  O192  1  0.97932232  0.17267305  0.37659886  1
  O2-  O193  1  0.97507900  0.17428261  0.87350659  1
  O2-  O194  1  0.98249921  0.50858281  0.37009180  1
  O2-  O195  1  0.97212876  0.50465609  0.87782697  1
  O2-  O196  1  0.97375524  0.83473629  0.37217943  1
  O2-  O197  1  0.98064877  0.83336247  0.87650106  1
  O2-  O198  1  0.19260171  0.00908664  0.37446348  1
  O2-  O199  1  0.19379143  0.00666337  0.87600149  1
  O2-  O200  1  0.19274748  0.33948007  0.37498275  1
  O2-  O201  1  0.19336730  0.34082573  0.87470517  1
  O2-  O202  1  0.18931844  0.67188362  0.37057521  1
  O2-  O203  1  0.19385429  0.67213608  0.87803825  1
  O2-  O204  1  0.52186347  0.00245982  0.37671980  1
  O2-  O205  1  0.52535347  0.00816992  0.87291160  1
  O2-  O206  1  0.52541769  0.34295182  0.37686236  1
  O2-  O207  1  0.51674808  0.33710498  0.87400549  1
  O2-  O208  1  0.52618398  0.67079303  0.37207349  1
  O2-  O209  1  0.52994077  0.67560889  0.87605443  1
  O2-  O210  1  0.86151556  0.00387228  0.37609219  1
  O2-  O211  1  0.84958834  0.00515928  0.87551189  1
  O2-  O212  1  0.86174687  0.33547597  0.37557418  1
  O2-  O213  1  0.85756469  0.33885674  0.87660067  1
  O2-  O214  1  0.85842569  0.67361142  0.37000844  1
  O2-  O215  1  0.85781459  0.67206613  0.87757860  1
  O2-  O216  1  0.23800008  0.09645680  0.02173283  1
  O2-  O217  1  0.23656655  0.09621099  0.52286338  1
  O2-  O218  1  0.23572695  0.42955558  0.02181828  1
  O2-  O219  1  0.23591252  0.42743747  0.52082752  1
  O2-  O220  1  0.23658069  0.76328135  0.01908833  1
  O2-  O221  1  0.23730067  0.76238997  0.51685025  1
  O2-  O222  1  0.57286865  0.09248567  0.01240730  1
  O2-  O223  1  0.57202517  0.09176681  0.52290324  1
  O2-  O224  1  0.57284325  0.42580323  0.01980315  1
  O2-  O225  1  0.57249511  0.42997524  0.52207397  1
  O2-  O226  1  0.56973932  0.76094466  0.02270860  1
  O2-  O227  1  0.57210580  0.76177152  0.51825442  1
  O2-  O228  1  0.90685447  0.09693801  0.01522842  1
  O2-  O229  1  0.90604656  0.09485928  0.52062114  1
  O2-  O230  1  0.90828189  0.42380373  0.02517489  1
  O2-  O231  1  0.90479066  0.43007575  0.52466941  1
  O2-  O232  1  0.90436104  0.75967456  0.02400291  1
  O2-  O233  1  0.90344366  0.76049450  0.51982834  1
  O2-  O234  1  0.26439134  0.26559208  0.23513241  1
  O2-  O235  1  0.26441489  0.26193200  0.73038094  1
  O2-  O236  1  0.26554485  0.59892398  0.22903980  1
  O2-  O237  1  0.25848275  0.59200358  0.73413682  1
  O2-  O238  1  0.25995059  0.93163396  0.22723001  1
  O2-  O239  1  0.26206862  0.93005421  0.73211549  1
  O2-  O240  1  0.59637449  0.26501482  0.23549133  1
  O2-  O241  1  0.59346165  0.26018253  0.72598625  1
  O2-  O242  1  0.59420886  0.59455984  0.22749928  1
  O2-  O243  1  0.59561457  0.59364189  0.72885485  1
  O2-  O244  1  0.59121779  0.92271186  0.23206684  1
  O2-  O245  1  0.59312267  0.92732043  0.72677216  1
  O2-  O246  1  0.92896741  0.25713815  0.22799422  1
  O2-  O247  1  0.92899246  0.26362285  0.72923939  1
  O2-  O248  1  0.92638438  0.59474571  0.22633518  1
  O2-  O249  1  0.93008899  0.59656586  0.73425177  1
  O2-  O250  1  0.93297137  0.93062577  0.23264602  1
  O2-  O251  1  0.92683331  0.92536774  0.72721827  1
  O2-  O252  1  0.09644026  0.23745152  0.26874542  1
  O2-  O253  1  0.09469278  0.24180945  0.77296920  1
  O2-  O254  1  0.09614130  0.57343453  0.26837647  1
  O2-  O255  1  0.09316221  0.57161671  0.77284037  1
  O2-  O256  1  0.09692103  0.90316579  0.27246547  1
  O2-  O257  1  0.09839997  0.90416001  0.76723861  1
  O2-  O258  1  0.42800975  0.23925286  0.27557561  1
  O2-  O259  1  0.42742684  0.23632529  0.76875603  1
  O2-  O260  1  0.42802540  0.57144108  0.27148752  1
  O2-  O261  1  0.43119387  0.57227988  0.77264606  1
  O2-  O262  1  0.42478790  0.90518079  0.26993569  1
  O2-  O263  1  0.42925315  0.90396844  0.77378113  1
  O2-  O264  1  0.76132574  0.23870830  0.27398081  1
  O2-  O265  1  0.76649050  0.23783797  0.76504341  1
  O2-  O266  1  0.75884405  0.57381091  0.26689934  1
  O2-  O267  1  0.76382519  0.56955151  0.77304038  1
  O2-  O268  1  0.76067625  0.90902754  0.27030160  1
  O2-  O269  1  0.75613071  0.90530963  0.76548344  1
  O2-  O270  1  0.07175999  0.06857812  0.48056736  1
  O2-  O271  1  0.07605371  0.07645607  0.97755044  1
  O2-  O272  1  0.06851913  0.40510671  0.48067819  1
  O2-  O273  1  0.07263444  0.40528648  0.97845594  1
  O2-  O274  1  0.06907386  0.73579568  0.48102889  1
  O2-  O275  1  0.07125786  0.73841051  0.98196750  1
  O2-  O276  1  0.39988298  0.06990256  0.48231191  1
  O2-  O277  1  0.40512320  0.07176328  0.98053932  1
  O2-  O278  1  0.40395392  0.40659103  0.47974888  1
  O2-  O279  1  0.40268802  0.40349431  0.98406755  1
  O2-  O280  1  0.40696133  0.74051052  0.47601557  1
  O2-  O281  1  0.40717415  0.73637735  0.98062955  1
  O2-  O282  1  0.73736697  0.07306963  0.47726112  1
  O2-  O283  1  0.74150224  0.07528568  0.98105279  1
  O2-  O284  1  0.73645941  0.40271873  0.48233020  1
  O2-  O285  1  0.74022140  0.40658512  0.98758881  1
  O2-  O286  1  0.73859493  0.73930559  0.47863831  1
  O2-  O287  1  0.73326229  0.73563965  0.97961414  1
  O2-  O288  1  0.09748065  0.23872208  0.48145484  1
  O2-  O289  1  0.09395302  0.24164459  0.97687315  1
  O2-  O290  1  0.09462220  0.57138569  0.48122714  1
  O2-  O291  1  0.09441329  0.57415157  0.97730094  1
  O2-  O292  1  0.09686373  0.90298152  0.47684373  1
  O2-  O293  1  0.09786563  0.90432876  0.98322280  1
  O2-  O294  1  0.42938877  0.23526817  0.47856841  1
  O2-  O295  1  0.42575072  0.23918138  0.97761611  1
  O2-  O296  1  0.42664808  0.57382272  0.47963741  1
  O2-  O297  1  0.43379542  0.57086016  0.97704948  1
  O2-  O298  1  0.42678151  0.90408910  0.47826752  1
  O2-  O299  1  0.42724810  0.90526645  0.97902298  1
  O2-  O300  1  0.76274877  0.23894578  0.47876704  1
  O2-  O301  1  0.76461755  0.23751575  0.98343047  1
  O2-  O302  1  0.75754356  0.57694923  0.47858545  1
  O2-  O303  1  0.76463081  0.56802464  0.98125531  1
  O2-  O304  1  0.76123933  0.90534617  0.47874868  1
  O2-  O305  1  0.75493456  0.90871022  0.98558499  1
  O2-  O306  1  0.07268647  0.07220629  0.27415110  1
  O2-  O307  1  0.07474182  0.07287686  0.76750845  1
  O2-  O308  1  0.07245900  0.40144886  0.27057706  1
  O2-  O309  1  0.06989992  0.40766833  0.77164308  1
  O2-  O310  1  0.06873965  0.73631031  0.26438868  1
  O2-  O311  1  0.07205613  0.73705030  0.77218812  1
  O2-  O312  1  0.40170501  0.07134346  0.26684073  1
  O2-  O313  1  0.40395211  0.07085693  0.77121063  1
  O2-  O314  1  0.40377218  0.40535954  0.27205720  1
  O2-  O315  1  0.40298143  0.40434938  0.76547487  1
  O2-  O316  1  0.40728296  0.73919829  0.27203054  1
  O2-  O317  1  0.40697762  0.73759657  0.77174439  1
  O2-  O318  1  0.74391911  0.07460174  0.27506738  1
  O2-  O319  1  0.73698383  0.07247556  0.76716843  1
  O2-  O320  1  0.73588815  0.40409389  0.26683636  1
  O2-  O321  1  0.73829485  0.40518729  0.76379394  1
  O2-  O322  1  0.73929295  0.74065350  0.27269760  1
  O2-  O323  1  0.73429678  0.73368145  0.76774761  1
  O2-  O324  1  0.23647020  0.09636360  0.22771698  1
  O2-  O325  1  0.23774913  0.09604368  0.72695926  1
  O2-  O326  1  0.23636633  0.43013260  0.22711028  1
  O2-  O327  1  0.23681396  0.42739607  0.72925229  1
  O2-  O328  1  0.23706758  0.76206788  0.22868055  1
  O2-  O329  1  0.23697321  0.76387521  0.73444118  1
  O2-  O330  1  0.57606144  0.09109835  0.23866678  1
  O2-  O331  1  0.56980096  0.09317550  0.72732096  1
  O2-  O332  1  0.56961542  0.42845236  0.23070398  1
  O2-  O333  1  0.57441884  0.42876894  0.72789748  1
  O2-  O334  1  0.56926140  0.76056096  0.23061811  1
  O2-  O335  1  0.57305640  0.76116611  0.72735014  1
  O2-  O336  1  0.90620432  0.09731224  0.23578817  1
  O2-  O337  1  0.90677712  0.09528837  0.72942141  1
  O2-  O338  1  0.90759900  0.42642513  0.22490509  1
  O2-  O339  1  0.90639722  0.42775116  0.72716236  1
  O2-  O340  1  0.90287052  0.76330271  0.22543790  1
  O2-  O341  1  0.90495868  0.75835097  0.72833519  1
  O2-  O342  1  0.26276685  0.26561207  0.01551077  1
  O2-  O343  1  0.26613842  0.26221845  0.51794456  1
  O2-  O344  1  0.26679920  0.59703747  0.01834852  1
  O2-  O345  1  0.25736345  0.59397167  0.51676623  1
  O2-  O346  1  0.26038453  0.93112106  0.02108786  1
  O2-  O347  1  0.26141196  0.92992732  0.51962849  1
  O2-  O348  1  0.59327896  0.26102957  0.01702296  1
  O2-  O349  1  0.59696289  0.26180338  0.52210463  1
  O2-  O350  1  0.59537727  0.59432781  0.02425866  1
  O2-  O351  1  0.59336664  0.59424828  0.51887131  1
  O2-  O352  1  0.59078823  0.92389949  0.01912341  1
  O2-  O353  1  0.59474627  0.92662812  0.52035479  1
  O2-  O354  1  0.93006352  0.26004815  0.02094333  1
  O2-  O355  1  0.92677958  0.26163906  0.52311353  1
  O2-  O356  1  0.92814924  0.59371339  0.02214882  1
  O2-  O357  1  0.92960300  0.59627994  0.51576206  1
  O2-  O358  1  0.92800597  0.92752759  0.02071773  1
  O2-  O359  1  0.93156979  0.92557875  0.52077052  1
