# generated using pymatgen
data_Sr7Ca15Pr50Mn72O216
_symmetry_space_group_name_H-M   'P 1'
_cell_length_a   16.56008729
_cell_length_b   16.60405871
_cell_length_c   15.59200107
_cell_angle_alpha   89.99970804
_cell_angle_beta   90.00442295
_cell_angle_gamma   90.00073684
_symmetry_Int_Tables_number   1
_chemical_formula_structural   Sr7Ca15Pr50Mn72O216
_chemical_formula_sum   'Sr7 Ca15 Pr50 Mn72 O216'
_cell_volume   4287.24928516
_cell_formula_units_Z   1
loop_
 _symmetry_equiv_pos_site_id
 _symmetry_equiv_pos_as_xyz
  1  'x, y, z'
loop_
 _atom_type_symbol
 _atom_type_oxidation_number
  Sr2+  2.0
  Ca2+  2.0
  Pr3+  3.0
  Mn3.30+  3.3
  O2-  -2.0
loop_
 _atom_site_type_symbol
 _atom_site_label
 _atom_site_symmetry_multiplicity
 _atom_site_fract_x
 _atom_site_fract_y
 _atom_site_fract_z
 _atom_site_occupancy
  Sr2+  Sr0  1  0.16548418  0.17516260  0.12362388  1
  Sr2+  Sr1  1  0.16539297  0.49173330  0.37293024  1
  Sr2+  Sr2  1  0.16296264  0.81984628  0.37419547  1
  Sr2+  Sr3  1  0.99848476  0.99196092  0.87791521  1
  Sr2+  Sr4  1  0.33301322  0.32734428  0.37303022  1
  Sr2+  Sr5  1  0.33230076  0.34171929  0.12364486  1
  Sr2+  Sr6  1  0.49579540  0.49001322  0.37301391  1
  Ca2+  Ca7  1  0.83736787  0.84769195  0.62781985  1
  Ca2+  Ca8  1  0.49799031  0.81968899  0.87864065  1
  Ca2+  Ca9  1  0.65937959  0.68325286  0.12449473  1
  Ca2+  Ca10  1  1.00471833  0.65197978  0.37362444  1
  Ca2+  Ca11  1  0.33636142  0.31882999  0.87796458  1
  Ca2+  Ca12  1  -0.00322188  0.01331445  0.12301179  1
  Ca2+  Ca13  1  0.67048259  0.31508399  0.87608955  1
  Ca2+  Ca14  1  0.67093389  0.98386757  0.37328726  1
  Ca2+  Ca15  1  0.32937840  0.68182638  0.62403851  1
  Ca2+  Ca16  1  0.50638456  0.84644126  0.12355425  1
  Ca2+  Ca17  1  0.49507920  0.48340672  0.87701022  1
  Ca2+  Ca18  1  0.82946860  0.81956215  0.87476789  1
  Ca2+  Ca19  1  -0.00162831  0.34824534  0.12412990  1
  Ca2+  Ca20  1  0.50358481  0.51522121  0.12446916  1
  Ca2+  Ca21  1  0.83000926  0.15108960  0.87606345  1
  Pr3+  Pr22  1  0.33899633  0.98548505  0.87733361  1
  Pr3+  Pr23  1  0.66570366  0.65626696  0.87623254  1
  Pr3+  Pr24  1  -0.00275655  0.01067313  0.62537078  1
  Pr3+  Pr25  1  0.83064804  0.82007625  0.37528815  1
  Pr3+  Pr26  1  0.33494143  0.98901194  0.37308797  1
  Pr3+  Pr27  1  0.66412625  0.01270011  0.12583127  1
  Pr3+  Pr28  1  0.50111518  0.84464616  0.62611574  1
  Pr3+  Pr29  1  0.50302216  0.18088439  0.12380982  1
  Pr3+  Pr30  1  0.67381043  0.98443031  0.87577126  1
  Pr3+  Pr31  1  0.66529312  0.68103024  0.62436008  1
  Pr3+  Pr32  1  0.17104975  0.51680873  0.62475138  1
  Pr3+  Pr33  1  0.83550106  0.84676354  0.12244668  1
  Pr3+  Pr34  1  0.33360385  0.67409798  0.12607244  1
  Pr3+  Pr35  1  0.33130424  0.34643927  0.62719902  1
  Pr3+  Pr36  1  0.34177418  0.65333330  0.87392909  1
  Pr3+  Pr37  1  1.00109213  0.31965238  0.87830767  1
  Pr3+  Pr38  1  -0.00460035  0.68232761  0.62424672  1
  Pr3+  Pr39  1  0.66778549  0.32295321  0.37389004  1
  Pr3+  Pr40  1  0.16847431  0.84527466  0.12614707  1
  Pr3+  Pr41  1  0.49998325  0.15542622  0.87646893  1
  Pr3+  Pr42  1  0.82905127  0.15002063  0.37446242  1
  Pr3+  Pr43  1  0.66227146  0.34649344  0.62815647  1
  Pr3+  Pr44  1  0.66762520  0.65243457  0.37320140  1
  Pr3+  Pr45  1  0.33524311  0.65292382  0.37564205  1
  Pr3+  Pr46  1  0.16644028  0.15532135  0.87817377  1
  Pr3+  Pr47  1  0.16858148  0.17896432  0.62705470  1
  Pr3+  Pr48  1  0.99906732  0.65867401  0.87616924  1
  Pr3+  Pr49  1  0.17025421  0.84508128  0.62448550  1
  Pr3+  Pr50  1  0.66650460  0.01172839  0.62356800  1
  Pr3+  Pr51  1  0.16598100  0.16011842  0.37165267  1
  Pr3+  Pr52  1  0.16443140  0.82223857  0.87619711  1
  Pr3+  Pr53  1  -0.00328684  0.34805031  0.62668861  1
  Pr3+  Pr54  1  0.83681390  0.17837276  0.62739890  1
  Pr3+  Pr55  1  0.83501122  0.51347573  0.62683271  1
  Pr3+  Pr56  1  1.00530614  0.32392760  0.37174033  1
  Pr3+  Pr57  1  0.33119566  0.01207069  0.62553953  1
  Pr3+  Pr58  1  0.50004448  0.51478212  0.62549029  1
  Pr3+  Pr59  1  0.83346959  0.51334475  0.12313479  1
  Pr3+  Pr60  1  0.33388103  0.01119985  0.12520585  1
  Pr3+  Pr61  1  0.49826838  0.82128682  0.37256541  1
  Pr3+  Pr62  1  -0.00230403  0.67733288  0.12630477  1
  Pr3+  Pr63  1  0.82600961  0.48506676  0.87561024  1
  Pr3+  Pr64  1  0.83130494  0.48824670  0.37405982  1
  Pr3+  Pr65  1  0.50367580  0.18080528  0.62638705  1
  Pr3+  Pr66  1  0.16858758  0.50682707  0.12646541  1
  Pr3+  Pr67  1  0.49699450  0.15675337  0.37395120  1
  Pr3+  Pr68  1  0.84002005  0.17980531  0.12187907  1
  Pr3+  Pr69  1  1.00492970  0.98735824  0.37249174  1
  Pr3+  Pr70  1  0.65958909  0.34831258  0.12186939  1
  Pr3+  Pr71  1  0.16583879  0.48734359  0.87714213  1
  Mn3.30+  Mn72  1  0.16642804  -0.00028710  0.00173342  1
  Mn3.30+  Mn73  1  0.16613604  0.00076757  0.49908603  1
  Mn3.30+  Mn74  1  0.16790854  0.33295703  0.00061807  1
  Mn3.30+  Mn75  1  0.16576325  0.33487595  0.50036423  1
  Mn3.30+  Mn76  1  0.16838157  0.66600679  -0.00005898  1
  Mn3.30+  Mn77  1  0.16476100  0.66756371  0.49967637  1
  Mn3.30+  Mn78  1  0.50296794  -0.00239798  0.00016344  1
  Mn3.30+  Mn79  1  0.50196179  0.00019086  0.49839443  1
  Mn3.30+  Mn80  1  0.49988232  0.33599154  -0.00279674  1
  Mn3.30+  Mn81  1  0.49887615  0.33477318  0.50019314  1
  Mn3.30+  Mn82  1  0.50206300  0.66679911  0.00061576  1
  Mn3.30+  Mn83  1  0.49834616  0.66770268  0.50115820  1
  Mn3.30+  Mn84  1  0.83381037  -0.00062379  -0.00121087  1
  Mn3.30+  Mn85  1  0.83301634  -0.00267066  0.49953824  1
  Mn3.30+  Mn86  1  0.83094519  0.33212957  -0.00043996  1
  Mn3.30+  Mn87  1  0.83379930  0.33312563  0.50008294  1
  Mn3.30+  Mn88  1  0.82931054  0.66823833  0.00073878  1
  Mn3.30+  Mn89  1  0.83480996  0.66784401  0.49897454  1
  Mn3.30+  Mn90  1  -0.00205551  0.16752863  0.24750146  1
  Mn3.30+  Mn91  1  -0.00061351  0.16597180  0.75307090  1
  Mn3.30+  Mn92  1  -0.00143908  0.50045819  0.24827053  1
  Mn3.30+  Mn93  1  -0.00047047  0.50133827  0.75243999  1
  Mn3.30+  Mn94  1  -0.00053764  0.83326471  0.24877874  1
  Mn3.30+  Mn95  1  -0.00194735  0.83457510  0.75228015  1
  Mn3.30+  Mn96  1  0.33303011  0.16808582  0.24932446  1
  Mn3.30+  Mn97  1  0.33499193  0.16710068  0.75172555  1
  Mn3.30+  Mn98  1  0.33572375  0.49867776  0.24745357  1
  Mn3.30+  Mn99  1  0.33493202  0.49983614  0.75225808  1
  Mn3.30+  Mn100  1  0.33520735  0.83218628  0.24865011  1
  Mn3.30+  Mn101  1  0.33510060  0.83207941  0.75072236  1
  Mn3.30+  Mn102  1  0.66810875  0.16626432  0.25034055  1
  Mn3.30+  Mn103  1  0.66893240  0.16609661  0.75138328  1
  Mn3.30+  Mn104  1  0.66483417  0.50108948  0.24798495  1
  Mn3.30+  Mn105  1  0.66310170  0.49939367  0.75290078  1
  Mn3.30+  Mn106  1  0.66601434  0.83298648  0.24907435  1
  Mn3.30+  Mn107  1  0.66827690  0.83323589  0.74993210  1
  Mn3.30+  Mn108  1  0.16585146  0.00064759  0.24794923  1
  Mn3.30+  Mn109  1  0.16658014  -0.00046048  0.75235927  1
  Mn3.30+  Mn110  1  0.16620163  0.33331050  0.24733410  1
  Mn3.30+  Mn111  1  0.16713874  0.33403338  0.75284896  1
  Mn3.30+  Mn112  1  0.16453884  0.66555556  0.24996465  1
  Mn3.30+  Mn113  1  0.16880548  0.66785732  0.75120683  1
  Mn3.30+  Mn114  1  0.50322317  -0.00061670  0.25080058  1
  Mn3.30+  Mn115  1  0.50197389  -0.00152510  0.75107528  1
  Mn3.30+  Mn116  1  0.49940444  0.33610264  0.24792258  1
  Mn3.30+  Mn117  1  0.49925164  0.33462199  0.75482611  1
  Mn3.30+  Mn118  1  0.50152706  0.66691346  0.24724015  1
  Mn3.30+  Mn119  1  0.49920468  0.66817769  0.74970908  1
  Mn3.30+  Mn120  1  0.83360694  -0.00126317  0.24942902  1
  Mn3.30+  Mn121  1  0.83338590  -0.00228352  0.75099662  1
  Mn3.30+  Mn122  1  0.83419126  0.33341006  0.24791017  1
  Mn3.30+  Mn123  1  0.83044375  0.33118633  0.75232151  1
  Mn3.30+  Mn124  1  0.83178909  0.66718795  0.24897192  1
  Mn3.30+  Mn125  1  0.83210694  0.66913110  0.75088156  1
  Mn3.30+  Mn126  1  -0.00113267  0.16630638  0.00052177  1
  Mn3.30+  Mn127  1  -0.00073769  0.16740741  0.49956160  1
  Mn3.30+  Mn128  1  -0.00223171  0.49983674  -0.00067690  1
  Mn3.30+  Mn129  1  0.00054152  0.50199958  0.50025247  1
  Mn3.30+  Mn130  1  -0.00144786  0.83465500  -0.00072383  1
  Mn3.30+  Mn131  1  -0.00088196  0.83290371  0.49957056  1
  Mn3.30+  Mn132  1  0.33395002  0.16727327  -0.00024577  1
  Mn3.30+  Mn133  1  0.33388854  0.16789068  0.50023370  1
  Mn3.30+  Mn134  1  0.33745556  0.49824809  -0.00012409  1
  Mn3.30+  Mn135  1  0.33327441  0.50073274  0.50064687  1
  Mn3.30+  Mn136  1  0.33716853  0.83133380  0.00275370  1
  Mn3.30+  Mn137  1  0.33284271  0.83288281  0.49831809  1
  Mn3.30+  Mn138  1  0.66976626  0.16698268  -0.00058638  1
  Mn3.30+  Mn139  1  0.66727999  0.16595740  0.49900103  1
  Mn3.30+  Mn140  1  0.66170157  0.50074542  -0.00175295  1
  Mn3.30+  Mn141  1  0.66610233  0.49973857  0.50018254  1
  Mn3.30+  Mn142  1  0.66539814  0.83155717  -0.00044838  1
  Mn3.30+  Mn143  1  0.66815108  0.83447919  0.49987546  1
  O2-  O144  1  0.01628184  0.15729492  0.12445493  1
  O2-  O145  1  0.02447051  0.16058479  0.62750204  1
  O2-  O146  1  0.02227364  0.49658621  0.12130896  1
  O2-  O147  1  0.02497955  0.49518073  0.63016225  1
  O2-  O148  1  0.02483183  0.82430148  0.12404841  1
  O2-  O149  1  0.02662749  0.82981247  0.62671012  1
  O2-  O150  1  0.35949355  0.16010007  0.12348877  1
  O2-  O151  1  0.35939400  0.16036856  0.62696554  1
  O2-  O152  1  0.35995690  0.50127891  0.12102447  1
  O2-  O153  1  0.35691815  0.49286581  0.62884765  1
  O2-  O154  1  0.36394395  0.82524899  0.12603243  1
  O2-  O155  1  0.35695785  0.83108894  0.62258235  1
  O2-  O156  1  0.69430582  0.16189383  0.12519956  1
  O2-  O157  1  0.69285308  0.16105611  0.62233490  1
  O2-  O158  1  0.69164145  0.49335371  0.12259545  1
  O2-  O159  1  0.69156144  0.49442541  0.62666674  1
  O2-  O160  1  0.69196748  0.82839354  0.12504409  1
  O2-  O161  1  0.69513265  0.82857271  0.62410461  1
  O2-  O162  1  0.14146578  0.33582223  0.12192906  1
  O2-  O163  1  0.13980427  0.32757499  0.62839718  1
  O2-  O164  1  0.14188257  0.65862274  0.12331663  1
  O2-  O165  1  0.13998438  0.66471947  0.62783338  1
  O2-  O166  1  0.14065121  0.99366329  0.12433989  1
  O2-  O167  1  0.14276802  0.99519051  0.62507822  1
  O2-  O168  1  0.48233769  0.32597071  0.12218944  1
  O2-  O169  1  0.47599298  0.32744556  0.62936322  1
  O2-  O170  1  0.47642527  0.65882492  0.12442661  1
  O2-  O171  1  0.47237863  0.66400447  0.62634349  1
  O2-  O172  1  0.47831436  0.99405749  0.12600989  1
  O2-  O173  1  0.47444392  0.99329478  0.62591029  1
  O2-  O174  1  0.80373229  0.32726046  0.12361699  1
  O2-  O175  1  0.80644821  0.32648000  0.62776367  1
  O2-  O176  1  0.80262610  0.66133021  0.12291029  1
  O2-  O177  1  0.80805177  0.65949637  0.62480662  1
  O2-  O178  1  0.80729702  0.99527929  0.12530623  1
  O2-  O179  1  0.81003520  0.99394452  0.62475278  1
  O2-  O180  1  0.31135564  0.16708208  0.37603080  1
  O2-  O181  1  0.31156429  0.16884810  0.87442621  1
  O2-  O182  1  0.31557098  0.50466971  0.37616989  1
  O2-  O183  1  0.30782026  0.50901357  0.87411243  1
  O2-  O184  1  0.31240471  0.84060931  0.37372380  1
  O2-  O185  1  0.30840602  0.83760588  0.87842489  1
  O2-  O186  1  0.64124840  0.17565180  0.37621053  1
  O2-  O187  1  0.64349642  0.16871050  0.87611969  1
  O2-  O188  1  0.64663260  0.50266225  0.37515666  1
  O2-  O189  1  0.63640153  0.51062333  0.87451641  1
  O2-  O190  1  0.64205649  0.83843742  0.37539720  1
  O2-  O191  1  0.63951207  0.83826542  0.87406721  1
  O2-  O192  1  0.97242008  0.17621565  0.37270552  1
  O2-  O193  1  0.97239409  0.17293329  0.87576047  1
  O2-  O194  1  0.97483439  0.50442148  0.37334775  1
  O2-  O195  1  0.97150926  0.50829544  0.87516544  1
  O2-  O196  1  0.97384130  0.84169629  0.37231537  1
  O2-  O197  1  0.97349797  0.83231860  0.87649013  1
  O2-  O198  1  0.19032589  0.00828940  0.37420861  1
  O2-  O199  1  0.19430357  0.00291721  0.87751439  1
  O2-  O200  1  0.18156157  0.33189172  0.37499561  1
  O2-  O201  1  0.19390922  0.33927147  0.87475968  1
  O2-  O202  1  0.19046417  0.66604808  0.37252910  1
  O2-  O203  1  0.19651254  0.67496867  0.87619118  1
  O2-  O204  1  0.52948386  0.00936909  0.37500775  1
  O2-  O205  1  0.52896808  0.00793609  0.87398345  1
  O2-  O206  1  0.52388200  0.33398125  0.37343582  1
  O2-  O207  1  0.52926584  0.33792966  0.87500743  1
  O2-  O208  1  0.52421005  0.67259600  0.37420460  1
  O2-  O209  1  0.52277929  0.67700258  0.87416592  1
  O2-  O210  1  0.86081695  0.00242483  0.37396038  1
  O2-  O211  1  0.84996263  0.00724791  0.87443927  1
  O2-  O212  1  0.86091349  0.34090582  0.37314192  1
  O2-  O213  1  0.85810592  0.33969211  0.87510579  1
  O2-  O214  1  0.86126955  0.67227408  0.37596846  1
  O2-  O215  1  0.85541378  0.67220569  0.87589124  1
  O2-  O216  1  0.24447042  0.08803519  0.01851785  1
  O2-  O217  1  0.23951098  0.09520477  0.52150222  1
  O2-  O218  1  0.23734712  0.43102700  0.01575583  1
  O2-  O219  1  0.23948767  0.42792309  0.52312103  1
  O2-  O220  1  0.23935518  0.75994662  0.02387808  1
  O2-  O221  1  0.23630702  0.76046125  0.51869325  1
  O2-  O222  1  0.57469237  0.09613827  0.02129043  1
  O2-  O223  1  0.57111093  0.09404687  0.52259866  1
  O2-  O224  1  0.56925356  0.43121056  0.02206875  1
  O2-  O225  1  0.57361924  0.42708191  0.52327304  1
  O2-  O226  1  0.56965485  0.76386939  0.01970093  1
  O2-  O227  1  0.57304867  0.76260028  0.52044160  1
  O2-  O228  1  0.90391710  0.09370909  0.01683125  1
  O2-  O229  1  0.90559598  0.09550077  0.51901601  1
  O2-  O230  1  0.89807640  0.42835790  0.01653838  1
  O2-  O231  1  0.90436225  0.42895724  0.52192875  1
  O2-  O232  1  0.90672914  0.75841162  0.02252800  1
  O2-  O233  1  0.90338710  0.76481881  0.52273587  1
  O2-  O234  1  0.25738895  0.25610338  0.23513444  1
  O2-  O235  1  0.25843463  0.26064896  0.72883571  1
  O2-  O236  1  0.25914196  0.59066930  0.22975708  1
  O2-  O237  1  0.26296597  0.59676288  0.72802705  1
  O2-  O238  1  0.26323016  0.92438185  0.22755443  1
  O2-  O239  1  0.26361034  0.92794186  0.73144729  1
  O2-  O240  1  0.59576667  0.26306432  0.23059427  1
  O2-  O241  1  0.59553468  0.25955008  0.72999543  1
  O2-  O242  1  0.59719103  0.59959664  0.23283695  1
  O2-  O243  1  0.59297822  0.59733823  0.72669740  1
  O2-  O244  1  0.59765698  0.92877457  0.23194254  1
  O2-  O245  1  0.59690770  0.92820241  0.72728675  1
  O2-  O246  1  0.92758579  0.26404830  0.22554938  1
  O2-  O247  1  0.92825141  0.26215034  0.72978747  1
  O2-  O248  1  0.92401941  0.59367068  0.22619982  1
  O2-  O249  1  0.92619255  0.59651731  0.73063624  1
  O2-  O250  1  0.92895927  0.92976089  0.22660582  1
  O2-  O251  1  0.92963328  0.92848108  0.72997420  1
  O2-  O252  1  0.09025361  0.24049324  0.26873098  1
  O2-  O253  1  0.09574480  0.24012758  0.77340421  1
  O2-  O254  1  0.09078892  0.57251309  0.26243956  1
  O2-  O255  1  0.09797484  0.57604944  0.77329760  1
  O2-  O256  1  0.09305312  0.90756474  0.26713979  1
  O2-  O257  1  0.09676984  0.90312266  0.76834286  1
  O2-  O258  1  0.43049047  0.23645875  0.26418805  1
  O2-  O259  1  0.43174805  0.23636407  0.76950077  1
  O2-  O260  1  0.42339564  0.57844143  0.26748542  1
  O2-  O261  1  0.43064197  0.56857347  0.77079764  1
  O2-  O262  1  0.42914592  0.91003274  0.27309010  1
  O2-  O263  1  0.43119239  0.90433651  0.77173673  1
  O2-  O264  1  0.76324335  0.23870282  0.27224421  1
  O2-  O265  1  0.76606183  0.23295906  0.76848096  1
  O2-  O266  1  0.76147003  0.57134460  0.27076119  1
  O2-  O267  1  0.75882563  0.57033224  0.77008877  1
  O2-  O268  1  0.76481805  0.90203910  0.26671500  1
  O2-  O269  1  0.76188975  0.90351374  0.77266044  1
  O2-  O270  1  0.07153963  0.07390986  0.47870293  1
  O2-  O271  1  0.07795271  0.07798672  0.98039889  1
  O2-  O272  1  0.06728092  0.40359288  0.48587819  1
  O2-  O273  1  0.07234700  0.40827598  0.97633545  1
  O2-  O274  1  0.06574931  0.73604434  0.48264269  1
  O2-  O275  1  0.07383256  0.73940940  0.97972323  1
  O2-  O276  1  0.40643244  0.07060226  0.47994479  1
  O2-  O277  1  0.40932188  0.07168851  0.98042609  1
  O2-  O278  1  0.40538226  0.40462776  0.49039666  1
  O2-  O279  1  0.40395250  0.40345515  0.97569123  1
  O2-  O280  1  0.40678842  0.74133437  0.47690648  1
  O2-  O281  1  0.40285633  0.73435459  0.98374431  1
  O2-  O282  1  0.73875708  0.06971030  0.47792558  1
  O2-  O283  1  0.73583479  0.06830562  0.98456667  1
  O2-  O284  1  0.74011610  0.40398910  0.48056493  1
  O2-  O285  1  0.73312023  0.40360399  0.97729434  1
  O2-  O286  1  0.73711444  0.73755501  0.47790029  1
  O2-  O287  1  0.73664466  0.73921276  0.97866424  1
  O2-  O288  1  0.09310580  0.23705858  0.48170644  1
  O2-  O289  1  0.09235362  0.24129055  0.97687279  1
  O2-  O290  1  0.09406314  0.57152941  0.48762331  1
  O2-  O291  1  0.09439249  0.57600210  0.97686582  1
  O2-  O292  1  0.09194344  0.90731401  0.48218766  1
  O2-  O293  1  0.09775146  0.90348091  0.98311484  1
  O2-  O294  1  0.43083561  0.23590550  0.48530824  1
  O2-  O295  1  0.43195806  0.23784306  0.98162525  1
  O2-  O296  1  0.42541079  0.57420523  0.48461505  1
  O2-  O297  1  0.42937968  0.57228609  0.97584948  1
  O2-  O298  1  0.43070201  0.90805838  0.47825077  1
  O2-  O299  1  0.42808717  0.90540489  0.97784706  1
  O2-  O300  1  0.76328307  0.23877252  0.47851994  1
  O2-  O301  1  0.76530197  0.23419202  0.98060740  1
  O2-  O302  1  0.76096188  0.57191989  0.48031526  1
  O2-  O303  1  0.75899911  0.57013715  0.97761436  1
  O2-  O304  1  0.76113160  0.90374304  0.47853510  1
  O2-  O305  1  0.76321526  0.90257053  0.98028602  1
  O2-  O306  1  0.07234605  0.07800994  0.27228574  1
  O2-  O307  1  0.07684633  0.07533042  0.77033501  1
  O2-  O308  1  0.06911264  0.40612897  0.26416296  1
  O2-  O309  1  0.07164567  0.40476934  0.77369946  1
  O2-  O310  1  0.06746395  0.73658551  0.26597592  1
  O2-  O311  1  0.07155854  0.73950766  0.77219948  1
  O2-  O312  1  0.40838806  0.07241256  0.26977981  1
  O2-  O313  1  0.40783640  0.06921304  0.77092429  1
  O2-  O314  1  0.40768694  0.40647198  0.26373213  1
  O2-  O315  1  0.40038819  0.40060039  0.77021571  1
  O2-  O316  1  0.40532874  0.73902090  0.27167633  1
  O2-  O317  1  0.40462270  0.73853184  0.76768606  1
  O2-  O318  1  0.73869594  0.06891543  0.27257511  1
  O2-  O319  1  0.73601022  0.06764904  0.76363081  1
  O2-  O320  1  0.73972683  0.40401998  0.26924318  1
  O2-  O321  1  0.73569497  0.40107814  0.77239515  1
  O2-  O322  1  0.73822842  0.73930445  0.27382312  1
  O2-  O323  1  0.73531501  0.73617480  0.76776694  1
  O2-  O324  1  0.24403546  0.08948461  0.23123282  1
  O2-  O325  1  0.24062429  0.09378097  0.73046175  1
  O2-  O326  1  0.23966551  0.42693177  0.23142927  1
  O2-  O327  1  0.23557166  0.42989420  0.73053668  1
  O2-  O328  1  0.23978658  0.75666966  0.22687877  1
  O2-  O329  1  0.23608662  0.76349925  0.73166089  1
  O2-  O330  1  0.57223573  0.09551378  0.22841191  1
  O2-  O331  1  0.57242831  0.09409825  0.72852014  1
  O2-  O332  1  0.57415523  0.42947935  0.22709919  1
  O2-  O333  1  0.57006811  0.42822766  0.72724466  1
  O2-  O334  1  0.56889745  0.76541890  0.23203010  1
  O2-  O335  1  0.57471697  0.76170955  0.72551583  1
  O2-  O336  1  0.90109044  0.09718890  0.23472180  1
  O2-  O337  1  0.90619379  0.09093810  0.72793061  1
  O2-  O338  1  0.90147987  0.43059501  0.22980723  1
  O2-  O339  1  0.90070702  0.42621258  0.73065327  1
  O2-  O340  1  0.90260371  0.76193721  0.22755889  1
  O2-  O341  1  0.90708951  0.76168956  0.72791179  1
  O2-  O342  1  0.25932559  0.25643186  0.01301613  1
  O2-  O343  1  0.25836244  0.26009067  0.52392293  1
  O2-  O344  1  0.26167699  0.59309065  0.01971581  1
  O2-  O345  1  0.26076227  0.59545608  0.52149487  1
  O2-  O346  1  0.26374459  0.92425629  0.02340007  1
  O2-  O347  1  0.26189417  0.92879385  0.51928024  1
  O2-  O348  1  0.59606384  0.26048092  0.01827887  1
  O2-  O349  1  0.59504770  0.26218475  0.52121548  1
  O2-  O350  1  0.59780427  0.60066119  0.01826684  1
  O2-  O351  1  0.59337861  0.59567992  0.52053131  1
  O2-  O352  1  0.59965729  0.92966869  0.01833760  1
  O2-  O353  1  0.59366735  0.92640837  0.52304341  1
  O2-  O354  1  0.92927859  0.26393461  0.02134835  1
  O2-  O355  1  0.92766007  0.26196194  0.52320081  1
  O2-  O356  1  0.92414585  0.59541239  0.02027329  1
  O2-  O357  1  0.92677481  0.59314958  0.52357961  1
  O2-  O358  1  0.92754377  0.92759095  0.02324850  1
  O2-  O359  1  0.93068852  0.93004934  0.51774582  1
