# generated using pymatgen
data_Sr7Ca15Pr50Mn72O216
_symmetry_space_group_name_H-M   'P 1'
_cell_length_a   16.55900456
_cell_length_b   16.60572647
_cell_length_c   15.59268243
_cell_angle_alpha   89.99182471
_cell_angle_beta   90.00236876
_cell_angle_gamma   89.99953199
_symmetry_Int_Tables_number   1
_chemical_formula_structural   Sr7Ca15Pr50Mn72O216
_chemical_formula_sum   'Sr7 Ca15 Pr50 Mn72 O216'
_cell_volume   4287.58689372
_cell_formula_units_Z   1
loop_
 _symmetry_equiv_pos_site_id
 _symmetry_equiv_pos_as_xyz
  1  'x, y, z'
loop_
 _atom_type_symbol
 _atom_type_oxidation_number
  Sr2+  2.0
  Ca2+  2.0
  Pr3+  3.0
  Mn3.30+  3.3
  O2-  -2.0
loop_
 _atom_site_type_symbol
 _atom_site_label
 _atom_site_symmetry_multiplicity
 _atom_site_fract_x
 _atom_site_fract_y
 _atom_site_fract_z
 _atom_site_occupancy
  Sr2+  Sr0  1  0.33473133  0.99405633  0.37337878  1
  Sr2+  Sr1  1  0.50074618  0.84726543  0.12584162  1
  Sr2+  Sr2  1  0.50122030  0.17620319  0.62264178  1
  Sr2+  Sr3  1  0.66538533  0.32303311  0.37510921  1
  Sr2+  Sr4  1  0.33431099  0.65866805  0.37555361  1
  Sr2+  Sr5  1  0.66233795  0.67443357  0.62765640  1
  Sr2+  Sr6  1  -0.00152937  0.01239543  0.12436162  1
  Ca2+  Ca7  1  0.49777644  0.15065711  0.37533080  1
  Ca2+  Ca8  1  0.66594213  0.98930843  0.37284625  1
  Ca2+  Ca9  1  1.00533654  0.65256083  0.37543369  1
  Ca2+  Ca10  1  0.49663539  0.81601354  0.87468893  1
  Ca2+  Ca11  1  0.83185178  0.15359831  0.87644607  1
  Ca2+  Ca12  1  0.99942861  0.31985032  0.87474975  1
  Ca2+  Ca13  1  0.66279270  0.01455736  0.12745206  1
  Ca2+  Ca14  1  0.33078985  0.01553005  0.12798697  1
  Ca2+  Ca15  1  0.33275713  0.34954682  0.62461354  1
  Ca2+  Ca16  1  1.00567701  0.31517808  0.37547595  1
  Ca2+  Ca17  1  0.33760384  0.65282715  0.87483544  1
  Ca2+  Ca18  1  0.82762525  0.48596685  0.87359981  1
  Ca2+  Ca19  1  0.66896160  0.64975251  0.87487525  1
  Ca2+  Ca20  1  0.16504380  0.15216985  0.37463770  1
  Ca2+  Ca21  1  0.50143111  0.51379836  0.62569354  1
  Pr3+  Pr22  1  0.83118636  0.82361981  0.37317104  1
  Pr3+  Pr23  1  -0.00547613  0.67914747  0.62530388  1
  Pr3+  Pr24  1  0.17329653  0.85073273  0.12448950  1
  Pr3+  Pr25  1  0.16551824  0.81959886  0.87615282  1
  Pr3+  Pr26  1  0.50206620  0.51254638  0.12422111  1
  Pr3+  Pr27  1  0.17364271  0.18301848  0.62184936  1
  Pr3+  Pr28  1  0.16934601  0.51278578  0.12426539  1
  Pr3+  Pr29  1  0.33015486  0.34587081  0.12476575  1
  Pr3+  Pr30  1  0.33350938  0.01288313  0.62328713  1
  Pr3+  Pr31  1  0.17060035  0.84604982  0.62569787  1
  Pr3+  Pr32  1  0.83009348  0.15250452  0.37498811  1
  Pr3+  Pr33  1  -0.00273227  0.01413605  0.62532408  1
  Pr3+  Pr34  1  0.83449601  0.51336793  0.62505114  1
  Pr3+  Pr35  1  0.66746981  0.98879527  0.87649462  1
  Pr3+  Pr36  1  0.83646422  0.17651337  0.12449469  1
  Pr3+  Pr37  1  0.49478376  0.49059860  0.37869915  1
  Pr3+  Pr38  1  0.82723765  0.81895843  0.87681625  1
  Pr3+  Pr39  1  0.83537419  0.51109999  0.12473115  1
  Pr3+  Pr40  1  0.16415932  0.15637275  0.87451044  1
  Pr3+  Pr41  1  1.00036060  0.65126276  0.87523497  1
  Pr3+  Pr42  1  0.17017814  0.17746339  0.12845853  1
  Pr3+  Pr43  1  0.16320401  0.48408897  0.87483537  1
  Pr3+  Pr44  1  0.49865054  0.15423288  0.87413243  1
  Pr3+  Pr45  1  0.66698895  0.65655694  0.37459718  1
  Pr3+  Pr46  1  0.49915830  0.49065548  0.87155180  1
  Pr3+  Pr47  1  0.34071785  0.98632656  0.87636062  1
  Pr3+  Pr48  1  0.67213413  0.32022925  0.87397894  1
  Pr3+  Pr49  1  0.16898923  0.51148419  0.62592305  1
  Pr3+  Pr50  1  0.66209562  0.34765604  0.62368410  1
  Pr3+  Pr51  1  0.66521068  0.34378968  0.12585954  1
  Pr3+  Pr52  1  -0.00321016  0.34610197  0.62343417  1
  Pr3+  Pr53  1  0.16290014  0.81891970  0.37426221  1
  Pr3+  Pr54  1  0.49767936  0.82380453  0.37420855  1
  Pr3+  Pr55  1  0.66266450  0.01266587  0.62354710  1
  Pr3+  Pr56  1  0.50405923  0.84327586  0.62388926  1
  Pr3+  Pr57  1  0.83336453  0.84920618  0.12321579  1
  Pr3+  Pr58  1  -0.00359061  0.67932720  0.12492748  1
  Pr3+  Pr59  1  0.83556018  0.17979774  0.62548477  1
  Pr3+  Pr60  1  0.16301395  0.48788135  0.37570225  1
  Pr3+  Pr61  1  0.33116935  0.68106872  0.12364807  1
  Pr3+  Pr62  1  0.83242400  0.48679165  0.37535886  1
  Pr3+  Pr63  1  0.33716149  0.32106752  0.87288341  1
  Pr3+  Pr64  1  0.33935069  0.31993783  0.37663558  1
  Pr3+  Pr65  1  0.66153278  0.68036014  0.12310422  1
  Pr3+  Pr66  1  0.33445078  0.67746027  0.62659848  1
  Pr3+  Pr67  1  0.50180294  0.17412690  0.12774888  1
  Pr3+  Pr68  1  -0.00239974  0.34222789  0.12621388  1
  Pr3+  Pr69  1  1.00559830  0.98913319  0.37336351  1
  Pr3+  Pr70  1  1.00083942  0.98941191  0.87708384  1
  Pr3+  Pr71  1  0.83282119  0.84537903  0.62675807  1
  Mn3.30+  Mn72  1  0.17010705  0.00196134  -0.00013303  1
  Mn3.30+  Mn73  1  0.16698441  0.00099286  0.49928203  1
  Mn3.30+  Mn74  1  0.16467003  0.33198664  -0.00068837  1
  Mn3.30+  Mn75  1  0.16785314  0.33329041  0.49846662  1
  Mn3.30+  Mn76  1  0.16717395  0.66622420  -0.00204878  1
  Mn3.30+  Mn77  1  0.16492846  0.66602069  0.50084980  1
  Mn3.30+  Mn78  1  0.50118894  -0.00077449  0.00332423  1
  Mn3.30+  Mn79  1  0.50111216  0.00106415  0.49689631  1
  Mn3.30+  Mn80  1  0.50096905  0.33301919  -0.00065166  1
  Mn3.30+  Mn81  1  0.49890084  0.33311605  0.50195399  1
  Mn3.30+  Mn82  1  0.49961318  0.66829493  -0.00346747  1
  Mn3.30+  Mn83  1  0.49995516  0.66621869  0.50104669  1
  Mn3.30+  Mn84  1  0.83165271  0.00216140  -0.00007753  1
  Mn3.30+  Mn85  1  0.83236760  -0.00027800  0.49951711  1
  Mn3.30+  Mn86  1  0.83435616  0.33253686  -0.00235312  1
  Mn3.30+  Mn87  1  0.83355481  0.33255405  0.49811528  1
  Mn3.30+  Mn88  1  0.82986137  0.66451210  -0.00056503  1
  Mn3.30+  Mn89  1  0.83450383  0.66772365  0.49795050  1
  Mn3.30+  Mn90  1  0.00192974  0.16660172  0.25145986  1
  Mn3.30+  Mn91  1  -0.00004480  0.16870941  0.75133950  1
  Mn3.30+  Mn92  1  0.00050160  0.49896697  0.25051301  1
  Mn3.30+  Mn93  1  -0.00214874  0.49720396  0.75248080  1
  Mn3.30+  Mn94  1  -0.00061470  0.83299858  0.24865691  1
  Mn3.30+  Mn95  1  -0.00053011  0.83336513  0.75173392  1
  Mn3.30+  Mn96  1  0.33513698  0.16635593  0.25252712  1
  Mn3.30+  Mn97  1  0.33370197  0.16841584  0.74786822  1
  Mn3.30+  Mn98  1  0.33230199  0.50119208  0.25054220  1
  Mn3.30+  Mn99  1  0.33370316  0.50076107  0.74973497  1
  Mn3.30+  Mn100  1  0.33382287  0.83669562  0.24988094  1
  Mn3.30+  Mn101  1  0.33584485  0.83185225  0.75169462  1
  Mn3.30+  Mn102  1  0.66646476  0.16463263  0.25229416  1
  Mn3.30+  Mn103  1  0.66821639  0.16687451  0.74984848  1
  Mn3.30+  Mn104  1  0.66677139  0.49964399  0.25043169  1
  Mn3.30+  Mn105  1  0.66585220  0.50078655  0.75005550  1
  Mn3.30+  Mn106  1  0.66542048  0.83705835  0.24899290  1
  Mn3.30+  Mn107  1  0.66396984  0.83063308  0.75320346  1
  Mn3.30+  Mn108  1  0.16864960  0.00192478  0.25002231  1
  Mn3.30+  Mn109  1  0.16797020  0.00072752  0.75090225  1
  Mn3.30+  Mn110  1  0.16594007  0.33205818  0.25292870  1
  Mn3.30+  Mn111  1  0.16640124  0.33354106  0.74911109  1
  Mn3.30+  Mn112  1  0.16474569  0.66653910  0.25000259  1
  Mn3.30+  Mn113  1  0.16719865  0.66571625  0.75185849  1
  Mn3.30+  Mn114  1  0.50118114  0.00124283  0.24982981  1
  Mn3.30+  Mn115  1  0.50110125  -0.00193901  0.75066043  1
  Mn3.30+  Mn116  1  0.49963442  0.33211127  0.25115297  1
  Mn3.30+  Mn117  1  0.50033017  0.33395840  0.74677065  1
  Mn3.30+  Mn118  1  0.49879786  0.66786773  0.24891495  1
  Mn3.30+  Mn119  1  0.50027460  0.66657405  0.75307713  1
  Mn3.30+  Mn120  1  0.83168029  0.00047342  0.24935381  1
  Mn3.30+  Mn121  1  0.83227186  0.00127804  0.75125737  1
  Mn3.30+  Mn122  1  0.83447360  0.33152198  0.25226834  1
  Mn3.30+  Mn123  1  0.83399880  0.33329045  0.75178541  1
  Mn3.30+  Mn124  1  0.83434588  0.66717810  0.25104996  1
  Mn3.30+  Mn125  1  0.82984848  0.66505208  0.75148550  1
  Mn3.30+  Mn126  1  -0.00052189  0.16802411  -0.00191992  1
  Mn3.30+  Mn127  1  0.00265424  0.16738507  0.49939055  1
  Mn3.30+  Mn128  1  -0.00216395  0.49662425  -0.00165113  1
  Mn3.30+  Mn129  1  0.00019741  0.49947938  0.49863647  1
  Mn3.30+  Mn130  1  -0.00055541  0.83367875  0.00002488  1
  Mn3.30+  Mn131  1  -0.00030266  0.83285293  0.50021430  1
  Mn3.30+  Mn132  1  0.33403528  0.16617537  0.00070995  1
  Mn3.30+  Mn133  1  0.33504414  0.16850852  0.49887575  1
  Mn3.30+  Mn134  1  0.33349831  0.50140592  -0.00264634  1
  Mn3.30+  Mn135  1  0.33267093  0.50044950  0.50253467  1
  Mn3.30+  Mn136  1  0.33620506  0.83424400  -0.00068074  1
  Mn3.30+  Mn137  1  0.33379106  0.83433376  0.49920738  1
  Mn3.30+  Mn138  1  0.66853100  0.16560532  0.00068850  1
  Mn3.30+  Mn139  1  0.66519027  0.16630449  0.49682394  1
  Mn3.30+  Mn140  1  0.66816504  0.49967602  -0.00117298  1
  Mn3.30+  Mn141  1  0.66467975  0.50073561  0.49956935  1
  Mn3.30+  Mn142  1  0.66227589  0.83369985  -0.00118785  1
  Mn3.30+  Mn143  1  0.66727981  0.83364594  0.49936467  1
  O2-  O144  1  0.02501845  0.16857342  0.12460790  1
  O2-  O145  1  0.02783208  0.16170555  0.62513217  1
  O2-  O146  1  0.02657895  0.49076560  0.12405063  1
  O2-  O147  1  0.02487308  0.49333837  0.62750175  1
  O2-  O148  1  0.02690887  0.82704265  0.12304160  1
  O2-  O149  1  0.02602939  0.82713121  0.62890277  1
  O2-  O150  1  0.35697894  0.16499444  0.12622702  1
  O2-  O151  1  0.35218744  0.16007667  0.62513654  1
  O2-  O152  1  0.35692839  0.49384697  0.12192422  1
  O2-  O153  1  0.35749053  0.49552440  0.62724651  1
  O2-  O154  1  0.35119898  0.82631012  0.12350942  1
  O2-  O155  1  0.35861584  0.82728134  0.62686424  1
  O2-  O156  1  0.69299839  0.16162108  0.12515413  1
  O2-  O157  1  0.69230457  0.16076681  0.62310782  1
  O2-  O158  1  0.69097498  0.49415846  0.12619251  1
  O2-  O159  1  0.69105779  0.49697608  0.62476963  1
  O2-  O160  1  0.69124815  0.82542417  0.12351356  1
  O2-  O161  1  0.68996780  0.82913671  0.62788009  1
  O2-  O162  1  0.14211831  0.32693988  0.12718048  1
  O2-  O163  1  0.14007980  0.33136926  0.62416531  1
  O2-  O164  1  0.14044572  0.66150762  0.12238232  1
  O2-  O165  1  0.13812719  0.66137256  0.62796085  1
  O2-  O166  1  0.14739713  0.99854105  0.12319874  1
  O2-  O167  1  0.14125447  0.99386820  0.62663116  1
  O2-  O168  1  0.47361765  0.32560912  0.12477473  1
  O2-  O169  1  0.47356919  0.32805681  0.62536437  1
  O2-  O170  1  0.47540622  0.66012623  0.12266531  1
  O2-  O171  1  0.47831841  0.66415232  0.62747768  1
  O2-  O172  1  0.47281895  1.00369106  0.12395681  1
  O2-  O173  1  0.47746036  0.99157185  0.62544386  1
  O2-  O174  1  0.80952052  0.32505313  0.12562364  1
  O2-  O175  1  0.80814118  0.32731018  0.62387474  1
  O2-  O176  1  0.80523869  0.65854878  0.12380598  1
  O2-  O177  1  0.81293024  0.66263216  0.62364035  1
  O2-  O178  1  0.80631893  0.99795637  0.12358892  1
  O2-  O179  1  0.80755745  0.99427802  0.62565222  1
  O2-  O180  1  0.30633988  0.17370774  0.37635280  1
  O2-  O181  1  0.30886861  0.17271766  0.87220568  1
  O2-  O182  1  0.30815117  0.50382429  0.37665307  1
  O2-  O183  1  0.30663616  0.50645636  0.87473711  1
  O2-  O184  1  0.30745603  0.83627336  0.37489574  1
  O2-  O185  1  0.30718507  0.84157043  0.87517338  1
  O2-  O186  1  0.63966084  0.17054783  0.37535379  1
  O2-  O187  1  0.64193500  0.17261415  0.87574651  1
  O2-  O188  1  0.64043291  0.50615813  0.37295179  1
  O2-  O189  1  0.64358652  0.49940886  0.87493115  1
  O2-  O190  1  0.64272044  0.84064913  0.37252602  1
  O2-  O191  1  0.63728781  0.84424675  0.87649058  1
  O2-  O192  1  0.97542915  0.16890507  0.37683887  1
  O2-  O193  1  0.97444859  0.17445053  0.87325943  1
  O2-  O194  1  0.97537764  0.51019203  0.37276113  1
  O2-  O195  1  0.96958736  0.50642254  0.87536112  1
  O2-  O196  1  0.97545271  0.84228081  0.37325527  1
  O2-  O197  1  0.97364403  0.83990347  0.87532911  1
  O2-  O198  1  0.18346239  0.00264176  0.37596923  1
  O2-  O199  1  0.19563670  0.00804457  0.87490513  1
  O2-  O200  1  0.19586721  0.34308467  0.37540656  1
  O2-  O201  1  0.19297713  0.33543558  0.87291405  1
  O2-  O202  1  0.18471520  0.67017855  0.37537440  1
  O2-  O203  1  0.19431279  0.67124303  0.87473849  1
  O2-  O204  1  0.52530772  0.00333150  0.37462096  1
  O2-  O205  1  0.52357911  0.00800230  0.87638251  1
  O2-  O206  1  0.51726347  0.34565741  0.37616296  1
  O2-  O207  1  0.52701976  0.34046272  0.87319192  1
  O2-  O208  1  0.52139098  0.67139807  0.37389215  1
  O2-  O209  1  0.52683962  0.67056387  0.87615548  1
  O2-  O210  1  0.86144554  0.00241390  0.37629812  1
  O2-  O211  1  0.85720933  0.00503908  0.87440255  1
  O2-  O212  1  0.86180569  0.33876037  0.37585391  1
  O2-  O213  1  0.85868057  0.34368111  0.87461988  1
  O2-  O214  1  0.86428173  0.67610409  0.37506157  1
  O2-  O215  1  0.85868463  0.67289802  0.87707771  1
  O2-  O216  1  0.23725261  0.09776738  0.01777051  1
  O2-  O217  1  0.24088192  0.09437878  0.51985503  1
  O2-  O218  1  0.23603438  0.42635938  0.01817766  1
  O2-  O219  1  0.23480783  0.43097308  0.51896464  1
  O2-  O220  1  0.23700483  0.76461681  0.01846484  1
  O2-  O221  1  0.23758462  0.76016101  0.52066293  1
  O2-  O222  1  0.57030450  0.09771391  0.01679464  1
  O2-  O223  1  0.57693764  0.08986736  0.52003678  1
  O2-  O224  1  0.57191860  0.42617312  0.02144068  1
  O2-  O225  1  0.56981983  0.42796083  0.52156461  1
  O2-  O226  1  0.57244934  0.75951079  0.02061759  1
  O2-  O227  1  0.57162358  0.76220040  0.51379193  1
  O2-  O228  1  0.90642019  0.09690708  0.01643097  1
  O2-  O229  1  0.90394263  0.09327320  0.52167693  1
  O2-  O230  1  0.90576950  0.42541187  0.02552235  1
  O2-  O231  1  0.90582781  0.42904520  0.52000965  1
  O2-  O232  1  0.90142307  0.75793836  0.02149407  1
  O2-  O233  1  0.90531407  0.76323343  0.52256179  1
  O2-  O234  1  0.26321920  0.26321253  0.22995668  1
  O2-  O235  1  0.26137390  0.26523706  0.72744967  1
  O2-  O236  1  0.26027838  0.59430781  0.22674753  1
  O2-  O237  1  0.25953591  0.59308885  0.72670375  1
  O2-  O238  1  0.26091625  0.92791310  0.22801313  1
  O2-  O239  1  0.26435705  0.92741189  0.72964614  1
  O2-  O240  1  0.59381776  0.25857920  0.22711964  1
  O2-  O241  1  0.60051742  0.26268917  0.73299943  1
  O2-  O242  1  0.59470265  0.59385740  0.22905032  1
  O2-  O243  1  0.59193377  0.59180644  0.73754148  1
  O2-  O244  1  0.59733765  0.93028717  0.22998830  1
  O2-  O245  1  0.59574845  0.92792838  0.72938219  1
  O2-  O246  1  0.92844388  0.25893692  0.23083184  1
  O2-  O247  1  0.92868847  0.26134181  0.72630840  1
  O2-  O248  1  0.92753968  0.59189477  0.22483204  1
  O2-  O249  1  0.92949506  0.59369496  0.73022694  1
  O2-  O250  1  0.92536137  0.92547745  0.23009812  1
  O2-  O251  1  0.92667068  0.92797417  0.73008629  1
  O2-  O252  1  0.09998526  0.23725509  0.27130950  1
  O2-  O253  1  0.09784864  0.23677308  0.76580237  1
  O2-  O254  1  0.09610596  0.56812952  0.26455849  1
  O2-  O255  1  0.09238147  0.56936482  0.77323536  1
  O2-  O256  1  0.09428903  0.90344196  0.26740722  1
  O2-  O257  1  0.09579530  0.90673935  0.77289233  1
  O2-  O258  1  0.42897170  0.23949407  0.27264671  1
  O2-  O259  1  0.42819636  0.24107114  0.77292104  1
  O2-  O260  1  0.42958346  0.56949465  0.26519172  1
  O2-  O261  1  0.42697626  0.57361787  0.77004784  1
  O2-  O262  1  0.43021731  0.90755258  0.26901176  1
  O2-  O263  1  0.42960788  0.90302486  0.77164020  1
  O2-  O264  1  0.76192480  0.23514480  0.26834658  1
  O2-  O265  1  0.76589572  0.23750818  0.77118500  1
  O2-  O266  1  0.76270280  0.57516240  0.27344825  1
  O2-  O267  1  0.76349626  0.56875427  0.76760475  1
  O2-  O268  1  0.76447138  0.90361462  0.26562277  1
  O2-  O269  1  0.75931923  0.90298206  0.77137654  1
  O2-  O270  1  0.06868576  0.06905784  0.48479271  1
  O2-  O271  1  0.07315188  0.07484562  0.97609813  1
  O2-  O272  1  0.07105417  0.40230486  0.47733714  1
  O2-  O273  1  0.06925253  0.40357552  0.97697348  1
  O2-  O274  1  0.06943937  0.73788095  0.48060149  1
  O2-  O275  1  0.07209232  0.73706559  0.97728191  1
  O2-  O276  1  0.40758283  0.07322736  0.48700783  1
  O2-  O277  1  0.40686669  0.07442804  0.97792246  1
  O2-  O278  1  0.40364959  0.40759861  0.48091811  1
  O2-  O279  1  0.40472018  0.40632169  0.97828397  1
  O2-  O280  1  0.40824700  0.74146133  0.48474640  1
  O2-  O281  1  0.40092105  0.73516910  0.98122291  1
  O2-  O282  1  0.73978031  0.07007439  0.47776008  1
  O2-  O283  1  0.73836246  0.07291686  0.97837552  1
  O2-  O284  1  0.74127321  0.40938488  0.48220161  1
  O2-  O285  1  0.73756488  0.40118144  0.98482024  1
  O2-  O286  1  0.74162519  0.74099468  0.47481056  1
  O2-  O287  1  0.73553173  0.73682298  0.97845909  1
  O2-  O288  1  0.10205239  0.23623533  0.48122297  1
  O2-  O289  1  0.09619581  0.23764610  0.98139375  1
  O2-  O290  1  0.09535188  0.56857366  0.48430562  1
  O2-  O291  1  0.09255472  0.56921174  0.97843504  1
  O2-  O292  1  0.09379276  0.90256517  0.48139226  1
  O2-  O293  1  0.09856051  0.90867680  0.97896392  1
  O2-  O294  1  0.42835980  0.23930219  0.47569980  1
  O2-  O295  1  0.42871697  0.24026523  0.97783452  1
  O2-  O296  1  0.42734739  0.57243552  0.48529932  1
  O2-  O297  1  0.43149054  0.57103509  0.98071248  1
  O2-  O298  1  0.43008051  0.90540280  0.48280389  1
  O2-  O299  1  0.42992235  0.90452960  0.97649470  1
  O2-  O300  1  0.76387242  0.23568585  0.48221145  1
  O2-  O301  1  0.76355050  0.23819532  0.97808130  1
  O2-  O302  1  0.76248866  0.57500909  0.47673532  1
  O2-  O303  1  0.76463500  0.56770479  0.98101349  1
  O2-  O304  1  0.76512932  0.90314095  0.48392949  1
  O2-  O305  1  0.75921565  0.90334100  0.97949566  1
  O2-  O306  1  0.07191507  0.07252945  0.26739650  1
  O2-  O307  1  0.07048790  0.07311829  0.77251159  1
  O2-  O308  1  0.07111835  0.40315721  0.27316468  1
  O2-  O309  1  0.06972641  0.40318823  0.77277970  1
  O2-  O310  1  0.06837911  0.73731476  0.26982286  1
  O2-  O311  1  0.07192961  0.73804967  0.77347023  1
  O2-  O312  1  0.40967413  0.07705114  0.26778603  1
  O2-  O313  1  0.40667776  0.07050830  0.76775577  1
  O2-  O314  1  0.40296316  0.40589990  0.26680590  1
  O2-  O315  1  0.40513118  0.40894226  0.77367646  1
  O2-  O316  1  0.40619215  0.74304326  0.26528864  1
  O2-  O317  1  0.40085586  0.73514328  0.76960134  1
  O2-  O318  1  0.73980119  0.07170127  0.27518749  1
  O2-  O319  1  0.73757249  0.07087414  0.76760783  1
  O2-  O320  1  0.74332003  0.40841706  0.26785599  1
  O2-  O321  1  0.73670960  0.40229211  0.76539037  1
  O2-  O322  1  0.73930549  0.74086800  0.27043558  1
  O2-  O323  1  0.73599765  0.73929780  0.77641966  1
  O2-  O324  1  0.24130339  0.09649616  0.23302285  1
  O2-  O325  1  0.23751774  0.09499874  0.72887333  1
  O2-  O326  1  0.23688587  0.42838263  0.22874668  1
  O2-  O327  1  0.23501358  0.43018462  0.73443972  1
  O2-  O328  1  0.23561946  0.76172934  0.23120984  1
  O2-  O329  1  0.23876170  0.76302260  0.72977514  1
  O2-  O330  1  0.57402416  0.09428775  0.22902360  1
  O2-  O331  1  0.57432808  0.09215680  0.73362469  1
  O2-  O332  1  0.57116917  0.42455108  0.22813271  1
  O2-  O333  1  0.57143337  0.42855806  0.72696687  1
  O2-  O334  1  0.57602458  0.75931511  0.23349080  1
  O2-  O335  1  0.56761827  0.76354593  0.73373593  1
  O2-  O336  1  0.90206525  0.09501017  0.23377258  1
  O2-  O337  1  0.90889659  0.09482888  0.72725149  1
  O2-  O338  1  0.90736879  0.42797424  0.22938326  1
  O2-  O339  1  0.90444726  0.42668889  0.72524882  1
  O2-  O340  1  0.90439811  0.76128285  0.22497665  1
  O2-  O341  1  0.90362271  0.76002974  0.73177111  1
  O2-  O342  1  0.26225749  0.26095529  0.01958471  1
  O2-  O343  1  0.26410598  0.26610169  0.52191970  1
  O2-  O344  1  0.25953717  0.59398339  0.02214545  1
  O2-  O345  1  0.25969638  0.59368595  0.52467417  1
  O2-  O346  1  0.26565731  0.93096998  0.01910061  1
  O2-  O347  1  0.25924917  0.92648759  0.52381919  1
  O2-  O348  1  0.59717341  0.26016474  0.02027893  1
  O2-  O349  1  0.59574174  0.26305772  0.51911369  1
  O2-  O350  1  0.59408469  0.59270062  0.02041035  1
  O2-  O351  1  0.59381471  0.59506364  0.51204843  1
  O2-  O352  1  0.59817337  0.93441898  0.02012475  1
  O2-  O353  1  0.59435608  0.92519460  0.52090634  1
  O2-  O354  1  0.92770672  0.26109631  0.02110563  1
  O2-  O355  1  0.92957477  0.25907057  0.52175547  1
  O2-  O356  1  0.92922202  0.59313046  0.02211406  1
  O2-  O357  1  0.92643782  0.59394400  0.52189928  1
  O2-  O358  1  0.92314325  0.92672834  0.01717884  1
  O2-  O359  1  0.92898092  0.92777367  0.52261498  1
