# generated using pymatgen
data_Sr7Ca15Pr50Mn72O216
_symmetry_space_group_name_H-M   'P 1'
_cell_length_a   16.55557841
_cell_length_b   16.60056894
_cell_length_c   15.59019430
_cell_angle_alpha   89.99312774
_cell_angle_beta   89.99879699
_cell_angle_gamma   89.99919323
_symmetry_Int_Tables_number   1
_chemical_formula_structural   Sr7Ca15Pr50Mn72O216
_chemical_formula_sum   'Sr7 Ca15 Pr50 Mn72 O216'
_cell_volume   4284.68457055
_cell_formula_units_Z   1
loop_
 _symmetry_equiv_pos_site_id
 _symmetry_equiv_pos_as_xyz
  1  'x, y, z'
loop_
 _atom_type_symbol
 _atom_type_oxidation_number
  Sr2+  2.0
  Ca2+  2.0
  Pr3+  3.0
  Mn3.30+  3.3
  O2-  -2.0
loop_
 _atom_site_type_symbol
 _atom_site_label
 _atom_site_symmetry_multiplicity
 _atom_site_fract_x
 _atom_site_fract_y
 _atom_site_fract_z
 _atom_site_occupancy
  Sr2+  Sr0  1  0.49841320  0.49054974  0.87623009  1
  Sr2+  Sr1  1  0.16922736  0.84115258  0.62640818  1
  Sr2+  Sr2  1  0.83599310  0.84383370  0.62593026  1
  Sr2+  Sr3  1  0.66541797  0.00950279  0.12131211  1
  Sr2+  Sr4  1  0.16402223  0.17780331  0.12344868  1
  Sr2+  Sr5  1  0.33138213  0.67685674  0.62691892  1
  Sr2+  Sr6  1  -0.00314427  0.34617206  0.12456435  1
  Ca2+  Ca7  1  0.16326953  0.48794402  0.87482054  1
  Ca2+  Ca8  1  0.33115906  0.67849305  0.12267261  1
  Ca2+  Ca9  1  0.50379493  0.51291120  0.12338533  1
  Ca2+  Ca10  1  1.00206439  0.98603037  0.87721307  1
  Ca2+  Ca11  1  0.82934881  0.14922638  0.87686702  1
  Ca2+  Ca12  1  0.83121546  0.48754141  0.88053464  1
  Ca2+  Ca13  1  1.00474695  0.64919143  0.87496877  1
  Ca2+  Ca14  1  0.66340294  0.35002075  0.12490060  1
  Ca2+  Ca15  1  0.67123204  0.65122225  0.37320440  1
  Ca2+  Ca16  1  0.67035851  0.31816847  0.37266741  1
  Ca2+  Ca17  1  0.67172279  0.98547025  0.87729589  1
  Ca2+  Ca18  1  0.33445127  0.98508808  0.87605108  1
  Ca2+  Ca19  1  -0.00552594  0.01608066  0.11962266  1
  Ca2+  Ca20  1  0.17023959  0.51601444  0.62818254  1
  Ca2+  Ca21  1  0.83630019  0.51118512  0.12193066  1
  Pr3+  Pr22  1  1.00267461  0.98744601  0.37252180  1
  Pr3+  Pr23  1  0.16778534  0.84549829  0.12341902  1
  Pr3+  Pr24  1  0.32846181  0.34922897  0.62549222  1
  Pr3+  Pr25  1  0.83055664  0.15545166  0.37361882  1
  Pr3+  Pr26  1  0.82622285  0.48524768  0.37252781  1
  Pr3+  Pr27  1  -0.00232459  0.34774726  0.62609441  1
  Pr3+  Pr28  1  -0.00050201  0.68081163  0.62769055  1
  Pr3+  Pr29  1  1.00070872  0.32071439  0.37258232  1
  Pr3+  Pr30  1  0.50210251  0.51543822  0.62691436  1
  Pr3+  Pr31  1  0.33597577  0.65539532  0.37520578  1
  Pr3+  Pr32  1  0.83606966  0.51352774  0.62791723  1
  Pr3+  Pr33  1  0.67085750  0.98767121  0.37283860  1
  Pr3+  Pr34  1  0.16869938  0.17726254  0.62703238  1
  Pr3+  Pr35  1  -0.00555340  0.67566505  0.12253665  1
  Pr3+  Pr36  1  0.66663503  0.67391073  0.12459463  1
  Pr3+  Pr37  1  -0.00310154  0.00950096  0.62971997  1
  Pr3+  Pr38  1  0.33532310  0.98720416  0.37278959  1
  Pr3+  Pr39  1  0.66394401  0.68011999  0.62587314  1
  Pr3+  Pr40  1  0.50203547  0.84458249  0.62657877  1
  Pr3+  Pr41  1  0.16267469  0.15277061  0.87764671  1
  Pr3+  Pr42  1  0.16794805  0.51144491  0.12206593  1
  Pr3+  Pr43  1  0.33044353  0.34647189  0.12406647  1
  Pr3+  Pr44  1  0.82863781  0.81716226  0.37452592  1
  Pr3+  Pr45  1  0.67093720  0.65016007  0.87648647  1
  Pr3+  Pr46  1  0.67173221  0.32135549  0.87714008  1
  Pr3+  Pr47  1  0.50201444  0.84457728  0.12378225  1
  Pr3+  Pr48  1  0.32838186  0.00861282  0.62789223  1
  Pr3+  Pr49  1  0.16307005  0.15455293  0.37263590  1
  Pr3+  Pr50  1  0.83837196  0.84944622  0.12344609  1
  Pr3+  Pr51  1  0.50005257  0.15468613  0.37370593  1
  Pr3+  Pr52  1  1.00185334  0.65406907  0.37563861  1
  Pr3+  Pr53  1  0.66511736  0.01120177  0.62868715  1
  Pr3+  Pr54  1  0.83620126  0.17958378  0.12199030  1
  Pr3+  Pr55  1  0.33614119  0.32022234  0.37365189  1
  Pr3+  Pr56  1  0.49842045  0.82320308  0.87817662  1
  Pr3+  Pr57  1  0.66403423  0.34685588  0.62401932  1
  Pr3+  Pr58  1  0.16445400  0.81896000  0.37520322  1
  Pr3+  Pr59  1  0.50330933  0.17963259  0.62642709  1
  Pr3+  Pr60  1  0.83636259  0.17863686  0.62810406  1
  Pr3+  Pr61  1  0.33542542  0.65448263  0.87482921  1
  Pr3+  Pr62  1  0.49710155  0.15281443  0.87607499  1
  Pr3+  Pr63  1  0.33574071  0.32450602  0.87615023  1
  Pr3+  Pr64  1  0.99927598  0.32448975  0.87773489  1
  Pr3+  Pr65  1  0.16340653  0.48789606  0.37587720  1
  Pr3+  Pr66  1  0.16203644  0.81905195  0.87414527  1
  Pr3+  Pr67  1  0.50062472  0.48771642  0.37315757  1
  Pr3+  Pr68  1  0.33038827  0.01372945  0.12156316  1
  Pr3+  Pr69  1  0.50754750  0.18141631  0.12354042  1
  Pr3+  Pr70  1  0.83294603  0.82275726  0.87510538  1
  Pr3+  Pr71  1  0.49970260  0.82050789  0.37229013  1
  Mn3.30+  Mn72  1  0.16431504  -0.00010281  -0.00053734  1
  Mn3.30+  Mn73  1  0.16632052  -0.00059592  0.50032216  1
  Mn3.30+  Mn74  1  0.16622548  0.33527818  -0.00059259  1
  Mn3.30+  Mn75  1  0.16591865  0.33379398  0.50085891  1
  Mn3.30+  Mn76  1  0.16531947  0.66491514  -0.00060903  1
  Mn3.30+  Mn77  1  0.16821853  0.66521720  0.50101413  1
  Mn3.30+  Mn78  1  0.50025905  0.00000796  -0.00213388  1
  Mn3.30+  Mn79  1  0.50001935  -0.00031408  0.50048827  1
  Mn3.30+  Mn80  1  0.50266971  0.33596427  0.00122711  1
  Mn3.30+  Mn81  1  0.50078987  0.33381930  0.49863046  1
  Mn3.30+  Mn82  1  0.49873451  0.66486734  0.00296329  1
  Mn3.30+  Mn83  1  0.50260526  0.66708434  0.49737396  1
  Mn3.30+  Mn84  1  0.83430070  0.00139834  -0.00263264  1
  Mn3.30+  Mn85  1  0.83386548  -0.00010104  0.50103200  1
  Mn3.30+  Mn86  1  0.83209281  0.33540093  0.00109395  1
  Mn3.30+  Mn87  1  0.83163405  0.33298451  0.49994737  1
  Mn3.30+  Mn88  1  0.83516030  0.66401162  -0.00230274  1
  Mn3.30+  Mn89  1  0.83265870  0.66570437  0.50068878  1
  Mn3.30+  Mn90  1  -0.00179932  0.16691595  0.24682469  1
  Mn3.30+  Mn91  1  -0.00118799  0.16596657  0.75422520  1
  Mn3.30+  Mn92  1  -0.00332556  0.50006259  0.24894162  1
  Mn3.30+  Mn93  1  0.00177188  0.50089940  0.75211930  1
  Mn3.30+  Mn94  1  -0.00040525  0.83348626  0.24861302  1
  Mn3.30+  Mn95  1  -0.00038913  0.83377480  0.75208196  1
  Mn3.30+  Mn96  1  0.33415629  0.16706059  0.24831235  1
  Mn3.30+  Mn97  1  0.33340149  0.16591546  0.75154459  1
  Mn3.30+  Mn98  1  0.33503099  0.50202866  0.24766434  1
  Mn3.30+  Mn99  1  0.33004112  0.50089514  0.75131977  1
  Mn3.30+  Mn100  1  0.33298366  0.83164649  0.24740562  1
  Mn3.30+  Mn101  1  0.33206205  0.83391942  0.75252580  1
  Mn3.30+  Mn102  1  0.66762866  0.16858404  0.24780529  1
  Mn3.30+  Mn103  1  0.66902398  0.16555861  0.75289844  1
  Mn3.30+  Mn104  1  0.66617805  0.49880622  0.24752556  1
  Mn3.30+  Mn105  1  0.66891773  0.49862566  0.75249294  1
  Mn3.30+  Mn106  1  0.66751906  0.83098018  0.24847636  1
  Mn3.30+  Mn107  1  0.66766785  0.83430070  0.75210566  1
  Mn3.30+  Mn108  1  0.16555026  0.00070811  0.24635877  1
  Mn3.30+  Mn109  1  0.16536820  -0.00142016  0.75370185  1
  Mn3.30+  Mn110  1  0.16656119  0.33446299  0.24788308  1
  Mn3.30+  Mn111  1  0.16583238  0.33539500  0.75086894  1
  Mn3.30+  Mn112  1  0.16749390  0.66582099  0.24763305  1
  Mn3.30+  Mn113  1  0.16616102  0.66382839  0.75214055  1
  Mn3.30+  Mn114  1  0.50147298  0.00055968  0.24802627  1
  Mn3.30+  Mn115  1  0.49882430  -0.00038615  0.75292816  1
  Mn3.30+  Mn116  1  0.50360926  0.33509431  0.24929686  1
  Mn3.30+  Mn117  1  0.50016609  0.33452030  0.75081996  1
  Mn3.30+  Mn118  1  0.50072842  0.66452978  0.24802208  1
  Mn3.30+  Mn119  1  0.50010919  0.66771559  0.75179112  1
  Mn3.30+  Mn120  1  0.83528928  0.00106223  0.24771421  1
  Mn3.30+  Mn121  1  0.83272050  0.00022664  0.75360442  1
  Mn3.30+  Mn122  1  0.82941268  0.33463142  0.24700527  1
  Mn3.30+  Mn123  1  0.83352522  0.33368023  0.75222093  1
  Mn3.30+  Mn124  1  0.83196640  0.66388345  0.24892244  1
  Mn3.30+  Mn125  1  0.83602043  0.66565113  0.75343346  1
  Mn3.30+  Mn126  1  -0.00326071  0.16637240  -0.00237987  1
  Mn3.30+  Mn127  1  0.00013927  0.16626124  0.50101389  1
  Mn3.30+  Mn128  1  -0.00125726  0.50037307  -0.00239538  1
  Mn3.30+  Mn129  1  -0.00026881  0.50038698  0.50177071  1
  Mn3.30+  Mn130  1  0.00012815  0.83368502  -0.00087077  1
  Mn3.30+  Mn131  1  -0.00055705  0.83398822  0.50050792  1
  Mn3.30+  Mn132  1  0.33341503  0.16698619  -0.00080672  1
  Mn3.30+  Mn133  1  0.33359173  0.16575290  0.50021960  1
  Mn3.30+  Mn134  1  0.33417044  0.50206667  0.00114936  1
  Mn3.30+  Mn135  1  0.33175304  0.50089304  0.49935488  1
  Mn3.30+  Mn136  1  0.33166280  0.83301120  0.00027583  1
  Mn3.30+  Mn137  1  0.33348797  0.83273374  0.50007260  1
  Mn3.30+  Mn138  1  0.66913364  0.16605893  -0.00132279  1
  Mn3.30+  Mn139  1  0.66727204  0.16693503  0.50007090  1
  Mn3.30+  Mn140  1  0.66780336  0.49753034  0.00255377  1
  Mn3.30+  Mn141  1  0.66690191  0.50045392  0.49855795  1
  Mn3.30+  Mn142  1  0.66768271  0.83259207  -0.00011052  1
  Mn3.30+  Mn143  1  0.66744038  0.83279884  0.49987017  1
  O2-  O144  1  0.01516662  0.16141769  0.12350695  1
  O2-  O145  1  0.02506992  0.15871238  0.62875587  1
  O2-  O146  1  0.02335880  0.50310271  0.12387954  1
  O2-  O147  1  0.02780131  0.49447722  0.62469897  1
  O2-  O148  1  0.02448100  0.82273531  0.12415081  1
  O2-  O149  1  0.01916040  0.83032911  0.62443099  1
  O2-  O150  1  0.36177486  0.16135243  0.12288921  1
  O2-  O151  1  0.35900977  0.15734658  0.62597450  1
  O2-  O152  1  0.36195852  0.49266476  0.12689695  1
  O2-  O153  1  0.35849600  0.49599029  0.62377484  1
  O2-  O154  1  0.35800103  0.82600890  0.12531763  1
  O2-  O155  1  0.35768805  0.83524144  0.62650316  1
  O2-  O156  1  0.69190633  0.16116720  0.12263699  1
  O2-  O157  1  0.69249013  0.15871107  0.62831278  1
  O2-  O158  1  0.69483790  0.49618504  0.12540411  1
  O2-  O159  1  0.69139562  0.49531449  0.62616655  1
  O2-  O160  1  0.69360595  0.82421083  0.12361761  1
  O2-  O161  1  0.68642759  0.82840707  0.62569459  1
  O2-  O162  1  0.14850064  0.33648620  0.12646519  1
  O2-  O163  1  0.14020638  0.32288493  0.62642836  1
  O2-  O164  1  0.13829717  0.66073720  0.12375727  1
  O2-  O165  1  0.14330918  0.66134565  0.62728487  1
  O2-  O166  1  0.13758974  0.99336647  0.12375130  1
  O2-  O167  1  0.14181960  0.99931799  0.62775745  1
  O2-  O168  1  0.47330964  0.32581297  0.12556150  1
  O2-  O169  1  0.47377843  0.32732199  0.62292066  1
  O2-  O170  1  0.47260568  0.65875072  0.12597671  1
  O2-  O171  1  0.48296751  0.66467164  0.62320278  1
  O2-  O172  1  0.47508486  0.99599049  0.12347841  1
  O2-  O173  1  0.47242078  0.99369981  0.62720227  1
  O2-  O174  1  0.80453465  0.32459966  0.12479498  1
  O2-  O175  1  0.80801752  0.32696083  0.62546014  1
  O2-  O176  1  0.81157904  0.65961888  0.12389731  1
  O2-  O177  1  0.80781270  0.66116108  0.62809557  1
  O2-  O178  1  0.81378684  0.99745539  0.12368503  1
  O2-  O179  1  0.80872265  1.00004251  0.62783131  1
  O2-  O180  1  0.30770271  0.17118039  0.37517514  1
  O2-  O181  1  0.30766619  0.17698191  0.87491258  1
  O2-  O182  1  0.30727452  0.50645576  0.37290802  1
  O2-  O183  1  0.30742865  0.50488285  0.87587461  1
  O2-  O184  1  0.30865711  0.83926755  0.37085883  1
  O2-  O185  1  0.30701413  0.83962129  0.87756769  1
  O2-  O186  1  0.64308888  0.17193069  0.37402796  1
  O2-  O187  1  0.63972629  0.17585386  0.87475893  1
  O2-  O188  1  0.64327504  0.50865953  0.37377011  1
  O2-  O189  1  0.64722015  0.50134782  0.87611705  1
  O2-  O190  1  0.64392747  0.84088090  0.37438380  1
  O2-  O191  1  0.64331308  0.83710564  0.87682860  1
  O2-  O192  1  0.97528650  0.17153223  0.37393117  1
  O2-  O193  1  0.97060280  0.17761865  0.87385025  1
  O2-  O194  1  0.97163883  0.50625151  0.37744471  1
  O2-  O195  1  0.97278220  0.50288072  0.87358490  1
  O2-  O196  1  0.97393540  0.83876450  0.37362518  1
  O2-  O197  1  0.97604574  0.84125843  0.87718480  1
  O2-  O198  1  0.19157844  0.00656609  0.37178774  1
  O2-  O199  1  0.19316597  0.00489042  0.87691492  1
  O2-  O200  1  0.19113563  0.33882035  0.37401261  1
  O2-  O201  1  0.19168463  0.34041082  0.87286877  1
  O2-  O202  1  0.19129586  0.67027035  0.37124756  1
  O2-  O203  1  0.19231632  0.67207372  0.87768364  1
  O2-  O204  1  0.52645969  0.00572260  0.37376833  1
  O2-  O205  1  0.52875539  0.00419042  0.87491055  1
  O2-  O206  1  0.52834472  0.33957909  0.37538711  1
  O2-  O207  1  0.52599223  0.33621885  0.87647913  1
  O2-  O208  1  0.52976665  0.67267451  0.37307829  1
  O2-  O209  1  0.52591806  0.67360893  0.87830199  1
  O2-  O210  1  0.85848483  0.00651605  0.37335414  1
  O2-  O211  1  0.86044734  0.00251330  0.87528330  1
  O2-  O212  1  0.85715144  0.33742969  0.37532357  1
  O2-  O213  1  0.85584581  0.34439041  0.87445887  1
  O2-  O214  1  0.85785510  0.66965586  0.37376920  1
  O2-  O215  1  0.86209293  0.67551914  0.87521352  1
  O2-  O216  1  0.23974447  0.09263797  0.01858452  1
  O2-  O217  1  0.23809769  0.09480457  0.51993923  1
  O2-  O218  1  0.24294200  0.42973494  0.02105727  1
  O2-  O219  1  0.23484239  0.42681071  0.52087155  1
  O2-  O220  1  0.23518792  0.76173898  0.01833160  1
  O2-  O221  1  0.24156776  0.76138342  0.51130168  1
  O2-  O222  1  0.56907958  0.09810928  0.01534306  1
  O2-  O223  1  0.57192788  0.09419000  0.52124859  1
  O2-  O224  1  0.57125658  0.42866576  0.02325985  1
  O2-  O225  1  0.57088216  0.43042691  0.52127481  1
  O2-  O226  1  0.57192341  0.75682875  0.02305666  1
  O2-  O227  1  0.57211458  0.76271662  0.51870934  1
  O2-  O228  1  0.90253735  0.09611303  0.01617841  1
  O2-  O229  1  0.90552891  0.09574079  0.52063511  1
  O2-  O230  1  0.90259339  0.43010351  0.01848058  1
  O2-  O231  1  0.90414965  0.42848556  0.52141918  1
  O2-  O232  1  0.90442381  0.76222202  0.02088627  1
  O2-  O233  1  0.90751343  0.75863861  0.51459950  1
  O2-  O234  1  0.26644372  0.26163920  0.23370476  1
  O2-  O235  1  0.26114133  0.26118350  0.72825407  1
  O2-  O236  1  0.26214249  0.59663836  0.22629829  1
  O2-  O237  1  0.26047350  0.59404925  0.73559109  1
  O2-  O238  1  0.26071539  0.92844326  0.22688999  1
  O2-  O239  1  0.26247068  0.92919327  0.73401802  1
  O2-  O240  1  0.59546270  0.26279826  0.22664531  1
  O2-  O241  1  0.59739017  0.25924800  0.72826276  1
  O2-  O242  1  0.59518026  0.59324998  0.22782785  1
  O2-  O243  1  0.59707115  0.59429767  0.73302686  1
  O2-  O244  1  0.59133947  0.92410303  0.23162722  1
  O2-  O245  1  0.59088320  0.92754740  0.72813343  1
  O2-  O246  1  0.92371785  0.26159183  0.23381867  1
  O2-  O247  1  0.92830788  0.26230332  0.72811033  1
  O2-  O248  1  0.93039887  0.59802570  0.23466992  1
  O2-  O249  1  0.92964146  0.59316562  0.72612942  1
  O2-  O250  1  0.93139260  0.93048743  0.22838830  1
  O2-  O251  1  0.92656816  0.92988795  0.73355685  1
  O2-  O252  1  0.09081273  0.24011189  0.27034874  1
  O2-  O253  1  0.09516572  0.23790874  0.77206093  1
  O2-  O254  1  0.09580066  0.57277599  0.27068633  1
  O2-  O255  1  0.09492900  0.56942458  0.77189947  1
  O2-  O256  1  0.09656386  0.90526890  0.27093540  1
  O2-  O257  1  0.09458665  0.90571115  0.77048837  1
  O2-  O258  1  0.43126394  0.24002037  0.27187652  1
  O2-  O259  1  0.42957497  0.23945407  0.76944703  1
  O2-  O260  1  0.42698040  0.57429926  0.27621233  1
  O2-  O261  1  0.42608564  0.57619837  0.76567886  1
  O2-  O262  1  0.42649583  0.90619144  0.26884429  1
  O2-  O263  1  0.42989304  0.90457136  0.77144077  1
  O2-  O264  1  0.76219200  0.23699561  0.26914473  1
  O2-  O265  1  0.76503861  0.23644908  0.77150362  1
  O2-  O266  1  0.76130115  0.57067525  0.26843633  1
  O2-  O267  1  0.76581265  0.57052257  0.77233836  1
  O2-  O268  1  0.76491986  0.90628085  0.26819204  1
  O2-  O269  1  0.76071622  0.90558503  0.77108936  1
  O2-  O270  1  0.07262778  0.07277099  0.47839765  1
  O2-  O271  1  0.07114958  0.07332601  0.97655016  1
  O2-  O272  1  0.06840353  0.40539383  0.47837793  1
  O2-  O273  1  0.07057278  0.40812511  0.98014486  1
  O2-  O274  1  0.07451081  0.73858117  0.48059717  1
  O2-  O275  1  0.07064763  0.73616469  0.97766515  1
  O2-  O276  1  0.40597159  0.07173438  0.47756322  1
  O2-  O277  1  0.40433297  0.07171302  0.97712215  1
  O2-  O278  1  0.40342691  0.40655797  0.47836316  1
  O2-  O279  1  0.40357661  0.40367147  0.98311644  1
  O2-  O280  1  0.41052471  0.74022043  0.47561191  1
  O2-  O281  1  0.40558800  0.74267766  0.97861299  1
  O2-  O282  1  0.73821356  0.07112624  0.48001474  1
  O2-  O283  1  0.73748198  0.07038638  0.97710223  1
  O2-  O284  1  0.73463641  0.40372604  0.47991340  1
  O2-  O285  1  0.73643496  0.40292178  0.98268571  1
  O2-  O286  1  0.73827075  0.73633786  0.47979743  1
  O2-  O287  1  0.74078336  0.73684739  0.97870510  1
  O2-  O288  1  0.09533142  0.23839406  0.47963931  1
  O2-  O289  1  0.08990224  0.23965868  0.97804054  1
  O2-  O290  1  0.09184799  0.57272008  0.47704290  1
  O2-  O291  1  0.09831555  0.56904721  0.98044329  1
  O2-  O292  1  0.09350786  0.90716875  0.47628285  1
  O2-  O293  1  0.09705936  0.90190412  0.98224088  1
  O2-  O294  1  0.42802860  0.23848461  0.47815414  1
  O2-  O295  1  0.42974676  0.23941485  0.97954635  1
  O2-  O296  1  0.43082104  0.57388923  0.47867527  1
  O2-  O297  1  0.42342109  0.57651366  0.97864454  1
  O2-  O298  1  0.42894522  0.90532019  0.47784616  1
  O2-  O299  1  0.42697441  0.90562195  0.98306726  1
  O2-  O300  1  0.76334065  0.23581809  0.48360591  1
  O2-  O301  1  0.76198895  0.23684874  0.97636940  1
  O2-  O302  1  0.76409588  0.56784775  0.48408044  1
  O2-  O303  1  0.76129898  0.57275057  0.97836747  1
  O2-  O304  1  0.76060021  0.90588227  0.47783779  1
  O2-  O305  1  0.76542611  0.90484707  0.98357659  1
  O2-  O306  1  0.07370478  0.07440052  0.27103032  1
  O2-  O307  1  0.07110215  0.07170442  0.77500861  1
  O2-  O308  1  0.07001215  0.40959714  0.27275721  1
  O2-  O309  1  0.06789553  0.40225247  0.76772832  1
  O2-  O310  1  0.07166445  0.73840009  0.27153154  1
  O2-  O311  1  0.07336287  0.73619914  0.77010055  1
  O2-  O312  1  0.40603648  0.07332610  0.26982863  1
  O2-  O313  1  0.40490825  0.07074566  0.77396974  1
  O2-  O314  1  0.40603656  0.40491614  0.27254645  1
  O2-  O315  1  0.39997307  0.40556466  0.76585549  1
  O2-  O316  1  0.40865551  0.73996567  0.27250998  1
  O2-  O317  1  0.40757135  0.74322207  0.77402645  1
  O2-  O318  1  0.73984074  0.07335876  0.27170203  1
  O2-  O319  1  0.73482572  0.06852210  0.77113601  1
  O2-  O320  1  0.73500766  0.40415165  0.27367785  1
  O2-  O321  1  0.73594988  0.40056719  0.76442760  1
  O2-  O322  1  0.73909216  0.73581210  0.27087691  1
  O2-  O323  1  0.74024973  0.73685772  0.77151571  1
  O2-  O324  1  0.24038575  0.09136616  0.22924570  1
  O2-  O325  1  0.23680055  0.09422198  0.73182089  1
  O2-  O326  1  0.24125289  0.43097634  0.23085807  1
  O2-  O327  1  0.23697569  0.42674635  0.72492292  1
  O2-  O328  1  0.23509039  0.76235328  0.23132550  1
  O2-  O329  1  0.24019897  0.76052916  0.73911075  1
  O2-  O330  1  0.57186682  0.09853625  0.23301041  1
  O2-  O331  1  0.56924577  0.09422593  0.72947405  1
  O2-  O332  1  0.56749359  0.43244867  0.23104446  1
  O2-  O333  1  0.57094190  0.42613456  0.72673732  1
  O2-  O334  1  0.57047470  0.75765911  0.22653625  1
  O2-  O335  1  0.57327592  0.76157902  0.73239860  1
  O2-  O336  1  0.90251375  0.09730814  0.23312539  1
  O2-  O337  1  0.90544725  0.09357463  0.72950485  1
  O2-  O338  1  0.89809568  0.43082513  0.23276978  1
  O2-  O339  1  0.90698667  0.42666601  0.72632886  1
  O2-  O340  1  0.90259512  0.76170009  0.23059360  1
  O2-  O341  1  0.90782310  0.75884304  0.73278043  1
  O2-  O342  1  0.26394567  0.26251513  0.01629421  1
  O2-  O343  1  0.26266925  0.26026830  0.52065384  1
  O2-  O344  1  0.26161989  0.59601674  0.02313183  1
  O2-  O345  1  0.26103420  0.59376705  0.51424907  1
  O2-  O346  1  0.26014583  0.92554216  0.02444494  1
  O2-  O347  1  0.26297145  0.93187990  0.51449475  1
  O2-  O348  1  0.59616730  0.26300712  0.02144428  1
  O2-  O349  1  0.59433824  0.25864124  0.52316948  1
  O2-  O350  1  0.59822438  0.59309263  0.01742462  1
  O2-  O351  1  0.59577066  0.59393278  0.52193887  1
  O2-  O352  1  0.58885923  0.92195446  0.01895635  1
  O2-  O353  1  0.59409691  0.92881043  0.52053381  1
  O2-  O354  1  0.92369432  0.26264853  0.01748114  1
  O2-  O355  1  0.92966793  0.26130347  0.52034614  1
  O2-  O356  1  0.93029649  0.59575042  0.01598356  1
  O2-  O357  1  0.92941388  0.59456267  0.52357764  1
  O2-  O358  1  0.92866713  0.92776905  0.02197036  1
  O2-  O359  1  0.92977076  0.93263202  0.51626453  1
