# generated using pymatgen
data_Sr7Ca15Pr50Mn72O216
_symmetry_space_group_name_H-M   'P 1'
_cell_length_a   16.56001364
_cell_length_b   16.60290215
_cell_length_c   15.59301676
_cell_angle_alpha   90.00177306
_cell_angle_beta   90.00407192
_cell_angle_gamma   89.99452045
_symmetry_Int_Tables_number   1
_chemical_formula_structural   Sr7Ca15Pr50Mn72O216
_chemical_formula_sum   'Sr7 Ca15 Pr50 Mn72 O216'
_cell_volume   4287.21082719
_cell_formula_units_Z   1
loop_
 _symmetry_equiv_pos_site_id
 _symmetry_equiv_pos_as_xyz
  1  'x, y, z'
loop_
 _atom_type_symbol
 _atom_type_oxidation_number
  Sr2+  2.0
  Ca2+  2.0
  Pr3+  3.0
  Mn3.30+  3.3
  O2-  -2.0
loop_
 _atom_site_type_symbol
 _atom_site_label
 _atom_site_symmetry_multiplicity
 _atom_site_fract_x
 _atom_site_fract_y
 _atom_site_fract_z
 _atom_site_occupancy
  Sr2+  Sr0  1  -0.00519543  0.34397744  0.12749681  1
  Sr2+  Sr1  1  0.16850429  0.17796354  0.62518194  1
  Sr2+  Sr2  1  0.67072909  0.65398972  0.37417444  1
  Sr2+  Sr3  1  0.33649983  0.32342634  0.37443220  1
  Sr2+  Sr4  1  0.33218374  0.34174318  0.62298374  1
  Sr2+  Sr5  1  0.49921363  0.49043368  0.37360091  1
  Sr2+  Sr6  1  0.66434204  0.34559598  0.12685034  1
  Ca2+  Ca7  1  0.66494036  0.32645041  0.37287407  1
  Ca2+  Ca8  1  0.67084575  0.98697117  0.37437766  1
  Ca2+  Ca9  1  0.66297716  0.68001572  0.62469608  1
  Ca2+  Ca10  1  0.33163667  0.34815418  0.12797057  1
  Ca2+  Ca11  1  -0.00541462  0.67989024  0.12470972  1
  Ca2+  Ca12  1  0.49786935  0.15220419  0.87529228  1
  Ca2+  Ca13  1  0.82595341  0.14967641  0.87734670  1
  Ca2+  Ca14  1  0.66966060  0.98418182  0.87592292  1
  Ca2+  Ca15  1  0.82917409  0.81800331  0.87593794  1
  Ca2+  Ca16  1  0.82403451  0.48172870  0.37268867  1
  Ca2+  Ca17  1  0.50447688  0.51563128  0.62127850  1
  Ca2+  Ca18  1  0.66460097  0.67834116  0.12572705  1
  Ca2+  Ca19  1  1.00053413  0.32080907  0.37348403  1
  Ca2+  Ca20  1  0.50482876  0.51417363  0.12841269  1
  Ca2+  Ca21  1  0.50114056  0.81783562  0.87514776  1
  Pr3+  Pr22  1  0.50769474  0.84371036  0.62727858  1
  Pr3+  Pr23  1  1.00019403  0.65489984  0.87700251  1
  Pr3+  Pr24  1  0.50109787  0.16196432  0.37446939  1
  Pr3+  Pr25  1  0.50255117  0.82063901  0.37428383  1
  Pr3+  Pr26  1  -0.00327561  0.67883954  0.62465093  1
  Pr3+  Pr27  1  0.33872218  0.65461568  0.87601812  1
  Pr3+  Pr28  1  0.16440630  0.15485075  0.87345328  1
  Pr3+  Pr29  1  0.33391986  0.01159982  0.12393147  1
  Pr3+  Pr30  1  0.50308778  0.18236929  0.12299359  1
  Pr3+  Pr31  1  0.66830241  0.31852134  0.87684048  1
  Pr3+  Pr32  1  0.82849456  0.82125652  0.37488164  1
  Pr3+  Pr33  1  0.66377543  0.01288551  0.12467075  1
  Pr3+  Pr34  1  0.33522488  0.67628959  0.12693387  1
  Pr3+  Pr35  1  0.65998389  0.34865921  0.62322361  1
  Pr3+  Pr36  1  0.17009651  0.18261872  0.12444801  1
  Pr3+  Pr37  1  0.33523475  0.67373541  0.62322311  1
  Pr3+  Pr38  1  0.50785342  0.84262979  0.12257085  1
  Pr3+  Pr39  1  0.49726350  0.49006895  0.87608480  1
  Pr3+  Pr40  1  0.34106338  0.98443743  0.87426749  1
  Pr3+  Pr41  1  0.16405144  0.16017960  0.37704849  1
  Pr3+  Pr42  1  0.33795153  0.31773739  0.87547252  1
  Pr3+  Pr43  1  0.83219968  0.84471901  0.62670065  1
  Pr3+  Pr44  1  0.16917102  0.84479327  0.12480286  1
  Pr3+  Pr45  1  0.83610958  0.51463291  0.12674609  1
  Pr3+  Pr46  1  0.83359284  0.51346826  0.62339623  1
  Pr3+  Pr47  1  0.33703707  0.99217530  0.37546335  1
  Pr3+  Pr48  1  0.16515359  0.48336610  0.37412717  1
  Pr3+  Pr49  1  -0.00351738  0.01412991  0.62577463  1
  Pr3+  Pr50  1  -0.00298542  0.34595055  0.62367156  1
  Pr3+  Pr51  1  1.00012530  0.32096392  0.87670038  1
  Pr3+  Pr52  1  0.83360045  0.84200882  0.12324203  1
  Pr3+  Pr53  1  0.66390468  0.01392604  0.62606435  1
  Pr3+  Pr54  1  0.99986787  0.98652801  0.87469331  1
  Pr3+  Pr55  1  0.33344729  0.01297594  0.62571149  1
  Pr3+  Pr56  1  0.16984705  0.50807599  0.62309193  1
  Pr3+  Pr57  1  0.17205957  0.84497903  0.62505607  1
  Pr3+  Pr58  1  0.16673671  0.51050499  0.12662808  1
  Pr3+  Pr59  1  0.82695406  0.15648395  0.37343269  1
  Pr3+  Pr60  1  0.16527261  0.48739896  0.87544591  1
  Pr3+  Pr61  1  -0.00465862  0.01322962  0.12418349  1
  Pr3+  Pr62  1  0.82860058  0.48854925  0.87586530  1
  Pr3+  Pr63  1  0.16475935  0.81929151  0.87520310  1
  Pr3+  Pr64  1  0.83483295  0.18020897  0.62777973  1
  Pr3+  Pr65  1  1.00245090  0.98933300  0.37513762  1
  Pr3+  Pr66  1  0.16415011  0.82008681  0.37464500  1
  Pr3+  Pr67  1  0.33990558  0.65271573  0.37399618  1
  Pr3+  Pr68  1  0.83439379  0.18150195  0.12320625  1
  Pr3+  Pr69  1  0.99975545  0.65330569  0.37274518  1
  Pr3+  Pr70  1  0.66801713  0.65617245  0.87598540  1
  Pr3+  Pr71  1  0.50242108  0.18128344  0.62697108  1
  Mn3.30+  Mn72  1  0.16740291  0.00008564  -0.00081294  1
  Mn3.30+  Mn73  1  0.16760081  0.00059270  0.50016883  1
  Mn3.30+  Mn74  1  0.16794085  0.33452059  0.00140485  1
  Mn3.30+  Mn75  1  0.16475317  0.33232367  0.49879646  1
  Mn3.30+  Mn76  1  0.16607890  0.66594162  0.00277424  1
  Mn3.30+  Mn77  1  0.16652525  0.66474633  0.49841029  1
  Mn3.30+  Mn78  1  0.50260599  -0.00108952  -0.00308285  1
  Mn3.30+  Mn79  1  0.50357614  0.00139377  0.49816925  1
  Mn3.30+  Mn80  1  0.49952478  0.33565007  0.00146777  1
  Mn3.30+  Mn81  1  0.50025440  0.33653778  0.49916868  1
  Mn3.30+  Mn82  1  0.50296387  0.66656928  0.00134072  1
  Mn3.30+  Mn83  1  0.50379356  0.66532782  0.49995563  1
  Mn3.30+  Mn84  1  0.83034175  -0.00134258  -0.00209054  1
  Mn3.30+  Mn85  1  0.83162545  0.00107057  0.50026510  1
  Mn3.30+  Mn86  1  0.83182208  0.33378141  0.00011461  1
  Mn3.30+  Mn87  1  0.83063849  0.33413937  0.49806602  1
  Mn3.30+  Mn88  1  0.83256244  0.66763549  0.00069606  1
  Mn3.30+  Mn89  1  0.83091266  0.66532216  0.50007770  1
  Mn3.30+  Mn90  1  -0.00194074  0.16852012  0.25055726  1
  Mn3.30+  Mn91  1  -0.00319688  0.16686561  0.75189896  1
  Mn3.30+  Mn92  1  -0.00359637  0.49870818  0.25244721  1
  Mn3.30+  Mn93  1  -0.00079910  0.50022743  0.74959882  1
  Mn3.30+  Mn94  1  -0.00060085  0.83237052  0.24880994  1
  Mn3.30+  Mn95  1  -0.00077904  0.83303800  0.75074443  1
  Mn3.30+  Mn96  1  0.33375596  0.16862465  0.24859396  1
  Mn3.30+  Mn97  1  0.33444266  0.16557865  0.75166907  1
  Mn3.30+  Mn98  1  0.33567886  0.49804571  0.24775933  1
  Mn3.30+  Mn99  1  0.33487931  0.49915435  0.74851279  1
  Mn3.30+  Mn100  1  0.33507704  0.83413148  0.25009626  1
  Mn3.30+  Mn101  1  0.33773567  0.83090141  0.74982609  1
  Mn3.30+  Mn102  1  0.66577075  0.16887522  0.25002946  1
  Mn3.30+  Mn103  1  0.66653818  0.16476799  0.75402753  1
  Mn3.30+  Mn104  1  0.66702466  0.49958165  0.25017036  1
  Mn3.30+  Mn105  1  0.66376488  0.50214329  0.74869477  1
  Mn3.30+  Mn106  1  0.66836780  0.83316446  0.24944582  1
  Mn3.30+  Mn107  1  0.66790121  0.83352921  0.75338955  1
  Mn3.30+  Mn108  1  0.16667490  0.00143200  0.24917313  1
  Mn3.30+  Mn109  1  0.16826025  -0.00053855  0.75077178  1
  Mn3.30+  Mn110  1  0.16535192  0.33330073  0.24956160  1
  Mn3.30+  Mn111  1  0.16725064  0.33299028  0.75029625  1
  Mn3.30+  Mn112  1  0.16547919  0.66559345  0.24913932  1
  Mn3.30+  Mn113  1  0.16723541  0.66518057  0.74937291  1
  Mn3.30+  Mn114  1  0.50233660  0.00086180  0.25094313  1
  Mn3.30+  Mn115  1  0.50324386  -0.00066480  0.75324025  1
  Mn3.30+  Mn116  1  0.49943596  0.33657680  0.24838547  1
  Mn3.30+  Mn117  1  0.50030255  0.33519751  0.75050231  1
  Mn3.30+  Mn118  1  0.50401403  0.66501912  0.24928690  1
  Mn3.30+  Mn119  1  0.50261764  0.66666869  0.74931923  1
  Mn3.30+  Mn120  1  0.83178627  0.00025847  0.24949099  1
  Mn3.30+  Mn121  1  0.83033575  -0.00074112  0.75343729  1
  Mn3.30+  Mn122  1  0.83188176  0.33493591  0.25219785  1
  Mn3.30+  Mn123  1  0.83055675  0.33291630  0.75095321  1
  Mn3.30+  Mn124  1  0.83279775  0.66542674  0.24931612  1
  Mn3.30+  Mn125  1  0.83087585  0.66787645  0.74958609  1
  Mn3.30+  Mn126  1  -0.00260274  0.16645840  -0.00218311  1
  Mn3.30+  Mn127  1  -0.00276821  0.16906269  0.50019058  1
  Mn3.30+  Mn128  1  -0.00129095  0.50048807  0.00220508  1
  Mn3.30+  Mn129  1  -0.00301538  0.49861486  0.49622670  1
  Mn3.30+  Mn130  1  -0.00129255  0.83178783  -0.00037500  1
  Mn3.30+  Mn131  1  -0.00021292  0.83375904  0.50048268  1
  Mn3.30+  Mn132  1  0.33527840  0.16657531  0.00003048  1
  Mn3.30+  Mn133  1  0.33315907  0.16787057  0.49960376  1
  Mn3.30+  Mn134  1  0.33448393  0.49891889  0.00294617  1
  Mn3.30+  Mn135  1  0.33623664  0.49842054  0.50044780  1
  Mn3.30+  Mn136  1  0.33691672  0.83194282  0.00025934  1
  Mn3.30+  Mn137  1  0.33620761  0.83306966  0.49937395  1
  Mn3.30+  Mn138  1  0.66534101  0.16492769  -0.00254290  1
  Mn3.30+  Mn139  1  0.66718497  0.16824540  0.49941572  1
  Mn3.30+  Mn140  1  0.66391460  0.50129633  0.00343782  1
  Mn3.30+  Mn141  1  0.66698848  0.50068814  0.49779366  1
  Mn3.30+  Mn142  1  0.66819379  0.83310179  -0.00282406  1
  Mn3.30+  Mn143  1  0.66786046  0.83379081  0.50045396  1
  O2-  O144  1  0.02477067  0.16012015  0.12168035  1
  O2-  O145  1  0.01836328  0.16180032  0.62678079  1
  O2-  O146  1  0.02348807  0.49570701  0.12589440  1
  O2-  O147  1  0.02552001  0.49484582  0.62184995  1
  O2-  O148  1  0.02628250  0.82725621  0.12347045  1
  O2-  O149  1  0.02813242  0.82791970  0.62459487  1
  O2-  O150  1  0.35960917  0.15735632  0.12257109  1
  O2-  O151  1  0.35796034  0.16093757  0.62642257  1
  O2-  O152  1  0.35923267  0.49534412  0.12360496  1
  O2-  O153  1  0.35780915  0.50111249  0.62637152  1
  O2-  O154  1  0.36219676  0.82792343  0.12634128  1
  O2-  O155  1  0.36264324  0.82431787  0.62535539  1
  O2-  O156  1  0.69047898  0.16070116  0.12385024  1
  O2-  O157  1  0.69178124  0.16140814  0.62881386  1
  O2-  O158  1  0.69347293  0.49720635  0.12546675  1
  O2-  O159  1  0.69217390  0.49355735  0.62419898  1
  O2-  O160  1  0.68919078  0.82768388  0.12337754  1
  O2-  O161  1  0.68856480  0.82831720  0.62775189  1
  O2-  O162  1  0.14397216  0.33055809  0.12321008  1
  O2-  O163  1  0.14176489  0.33678266  0.62322128  1
  O2-  O164  1  0.13675955  0.65955595  0.12547925  1
  O2-  O165  1  0.13954588  0.65712365  0.62144253  1
  O2-  O166  1  0.14024812  0.99353191  0.12433592  1
  O2-  O167  1  0.14147172  0.99230455  0.62601472  1
  O2-  O168  1  0.47240058  0.32620376  0.12197744  1
  O2-  O169  1  0.48180579  0.32672472  0.62753303  1
  O2-  O170  1  0.47871840  0.66857163  0.12519268  1
  O2-  O171  1  0.47854795  0.66707885  0.62465383  1
  O2-  O172  1  0.47642774  0.99018542  0.12290814  1
  O2-  O173  1  0.47669047  0.99198477  0.62492383  1
  O2-  O174  1  0.81434384  0.32858623  0.12345404  1
  O2-  O175  1  0.80476439  0.32752646  0.62785183  1
  O2-  O176  1  0.80705598  0.66294242  0.12454246  1
  O2-  O177  1  0.80624431  0.66140315  0.62492173  1
  O2-  O178  1  0.80790803  0.99181342  0.12287352  1
  O2-  O179  1  0.80773060  0.99421985  0.62818140  1
  O2-  O180  1  0.30951037  0.16330782  0.37259821  1
  O2-  O181  1  0.30786827  0.16840589  0.87756748  1
  O2-  O182  1  0.31089042  0.50645075  0.37319256  1
  O2-  O183  1  0.30903844  0.50860750  0.87649417  1
  O2-  O184  1  0.30699795  0.84110391  0.37324147  1
  O2-  O185  1  0.30805452  0.83509161  0.87484751  1
  O2-  O186  1  0.64460182  0.17757606  0.37364063  1
  O2-  O187  1  0.63780727  0.17308542  0.87486805  1
  O2-  O188  1  0.64754609  0.50153770  0.37446272  1
  O2-  O189  1  0.64155304  0.50804255  0.87565435  1
  O2-  O190  1  0.64654649  0.84166349  0.37446702  1
  O2-  O191  1  0.64114616  0.83953440  0.87486977  1
  O2-  O192  1  0.97223917  0.17072503  0.37759926  1
  O2-  O193  1  0.96955115  0.17294938  0.87444607  1
  O2-  O194  1  0.96707022  0.50952930  0.37630524  1
  O2-  O195  1  0.97378188  0.50746415  0.87592770  1
  O2-  O196  1  0.97390280  0.84056676  0.37650464  1
  O2-  O197  1  0.97326953  0.83798524  0.87487881  1
  O2-  O198  1  0.19131575  0.00825171  0.37327582  1
  O2-  O199  1  0.19491332  0.00529252  0.87551374  1
  O2-  O200  1  0.18632935  0.33318770  0.37435778  1
  O2-  O201  1  0.19256244  0.33895483  0.87814992  1
  O2-  O202  1  0.19506269  0.67276869  0.37433798  1
  O2-  O203  1  0.19415208  0.67133937  0.87843341  1
  O2-  O204  1  0.53031342  0.01285036  0.37665302  1
  O2-  O205  1  0.52819194  0.00983147  0.87527159  1
  O2-  O206  1  0.52212318  0.33109975  0.37514840  1
  O2-  O207  1  0.52515042  0.34371560  0.87493794  1
  O2-  O208  1  0.52007581  0.67164104  0.37422225  1
  O2-  O209  1  0.52267505  0.66767957  0.87553700  1
  O2-  O210  1  0.85950850  0.00657779  0.37414138  1
  O2-  O211  1  0.85907849  0.00712673  0.87565243  1
  O2-  O212  1  0.85852467  0.33565354  0.37677829  1
  O2-  O213  1  0.85643997  0.34228601  0.87406597  1
  O2-  O214  1  0.85789457  0.67595905  0.37610212  1
  O2-  O215  1  0.85738693  0.66974767  0.87422992  1
  O2-  O216  1  0.23811316  0.09536263  0.02093296  1
  O2-  O217  1  0.24313344  0.08930749  0.51861262  1
  O2-  O218  1  0.23644489  0.43161726  0.01804605  1
  O2-  O219  1  0.23465931  0.42852439  0.51326247  1
  O2-  O220  1  0.23761695  0.75878734  0.02365764  1
  O2-  O221  1  0.23715179  0.75761687  0.52122013  1
  O2-  O222  1  0.57160974  0.09299308  0.02355048  1
  O2-  O223  1  0.57227495  0.09632421  0.52309622  1
  O2-  O224  1  0.56701379  0.43547895  0.01782508  1
  O2-  O225  1  0.57286371  0.42920284  0.52153332  1
  O2-  O226  1  0.57192730  0.76338509  0.01438255  1
  O2-  O227  1  0.57091858  0.76408847  0.51484869  1
  O2-  O228  1  0.90374837  0.09140733  0.02235823  1
  O2-  O229  1  0.90256777  0.09442357  0.52148831  1
  O2-  O230  1  0.90345954  0.43240244  0.01562311  1
  O2-  O231  1  0.90362213  0.42547113  0.52496683  1
  O2-  O232  1  0.90462268  0.75945304  0.01961651  1
  O2-  O233  1  0.90708836  0.76092995  0.52254180  1
  O2-  O234  1  0.26180164  0.25831396  0.22608665  1
  O2-  O235  1  0.25849847  0.26105229  0.73869861  1
  O2-  O236  1  0.25927564  0.59272863  0.22825391  1
  O2-  O237  1  0.26154646  0.59386937  0.72903731  1
  O2-  O238  1  0.26253578  0.92670306  0.22822543  1
  O2-  O239  1  0.26657299  0.92323721  0.72862511  1
  O2-  O240  1  0.58939322  0.25826821  0.22993256  1
  O2-  O241  1  0.59744296  0.26240629  0.73252132  1
  O2-  O242  1  0.59627761  0.59546443  0.22929460  1
  O2-  O243  1  0.59758219  0.59987738  0.73146136  1
  O2-  O244  1  0.59513045  0.92650029  0.22915342  1
  O2-  O245  1  0.59695290  0.92814513  0.72878806  1
  O2-  O246  1  0.92405609  0.25702932  0.23289149  1
  O2-  O247  1  0.92707797  0.26264214  0.72974174  1
  O2-  O248  1  0.93042796  0.59775784  0.22876096  1
  O2-  O249  1  0.92801543  0.59446438  0.72907639  1
  O2-  O250  1  0.92977995  0.92741743  0.22892117  1
  O2-  O251  1  0.92991686  0.92861815  0.72929965  1
  O2-  O252  1  0.09659303  0.23701473  0.26575977  1
  O2-  O253  1  0.08977400  0.24026766  0.77357418  1
  O2-  O254  1  0.09267711  0.57051382  0.27387220  1
  O2-  O255  1  0.09462841  0.57285531  0.77080697  1
  O2-  O256  1  0.09508442  0.90649847  0.27067742  1
  O2-  O257  1  0.09655096  0.90535171  0.77173094  1
  O2-  O258  1  0.42915144  0.23563625  0.26559443  1
  O2-  O259  1  0.42787873  0.23649690  0.77184789  1
  O2-  O260  1  0.42376467  0.57819400  0.26430247  1
  O2-  O261  1  0.42673809  0.57394178  0.76992765  1
  O2-  O262  1  0.42988526  0.90919241  0.27429651  1
  O2-  O263  1  0.43295928  0.90393180  0.77274609  1
  O2-  O264  1  0.76273690  0.23734676  0.26411328  1
  O2-  O265  1  0.76105947  0.23425732  0.77417014  1
  O2-  O266  1  0.76741889  0.56899530  0.26660956  1
  O2-  O267  1  0.76066516  0.57101979  0.76999991  1
  O2-  O268  1  0.76426861  0.90489338  0.26652141  1
  O2-  O269  1  0.76683946  0.90067211  0.76878144  1
  O2-  O270  1  0.06976860  0.07544023  0.48052256  1
  O2-  O271  1  0.06965914  0.07378370  0.97592386  1
  O2-  O272  1  0.06783564  0.40628890  0.47657391  1
  O2-  O273  1  0.07252509  0.40784990  0.97648691  1
  O2-  O274  1  0.07373557  0.73710664  0.47765691  1
  O2-  O275  1  0.07460880  0.73985625  0.97615282  1
  O2-  O276  1  0.40814568  0.07270648  0.48120645  1
  O2-  O277  1  0.40360615  0.06729989  0.98243585  1
  O2-  O278  1  0.40670646  0.40639330  0.48463833  1
  O2-  O279  1  0.40429163  0.40569715  0.97625759  1
  O2-  O280  1  0.40597563  0.74078203  0.47808293  1
  O2-  O281  1  0.40401398  0.73619328  0.98378294  1
  O2-  O282  1  0.73700217  0.07096082  0.47920541  1
  O2-  O283  1  0.73598359  0.06631705  0.98147399  1
  O2-  O284  1  0.73502280  0.39961649  0.48299210  1
  O2-  O285  1  0.73690248  0.40755760  0.97798667  1
  O2-  O286  1  0.74355117  0.74197112  0.48237743  1
  O2-  O287  1  0.73801995  0.73909934  0.97951558  1
  O2-  O288  1  0.09047008  0.24025076  0.48139976  1
  O2-  O289  1  0.09534583  0.23923636  0.97816097  1
  O2-  O290  1  0.09468084  0.57175492  0.47526677  1
  O2-  O291  1  0.09468637  0.57263924  0.97884462  1
  O2-  O292  1  0.09523812  0.90611179  0.47859798  1
  O2-  O293  1  0.09566481  0.90536075  0.97826798  1
  O2-  O294  1  0.42952506  0.23677327  0.48521526  1
  O2-  O295  1  0.42804499  0.23602915  0.97671694  1
  O2-  O296  1  0.42520471  0.57858156  0.48384437  1
  O2-  O297  1  0.42670379  0.57402547  0.98142341  1
  O2-  O298  1  0.43204671  0.91019400  0.47506936  1
  O2-  O299  1  0.43291369  0.90475517  0.97608340  1
  O2-  O300  1  0.76478766  0.23490501  0.48536149  1
  O2-  O301  1  0.75925260  0.23616793  0.97939738  1
  O2-  O302  1  0.76687989  0.56604700  0.48267073  1
  O2-  O303  1  0.76202842  0.57281177  0.97969000  1
  O2-  O304  1  0.76513998  0.90490317  0.48465670  1
  O2-  O305  1  0.76605971  0.90055816  0.98117636  1
  O2-  O306  1  0.06973019  0.07413979  0.27055969  1
  O2-  O307  1  0.06947762  0.07428798  0.77214038  1
  O2-  O308  1  0.06845964  0.40787964  0.27421974  1
  O2-  O309  1  0.07103423  0.40589818  0.77116083  1
  O2-  O310  1  0.07387422  0.74122360  0.27376838  1
  O2-  O311  1  0.07260961  0.73845925  0.77109077  1
  O2-  O312  1  0.40525126  0.07170169  0.26776003  1
  O2-  O313  1  0.40604601  0.06692605  0.76726083  1
  O2-  O314  1  0.40402844  0.40524680  0.26361671  1
  O2-  O315  1  0.40407303  0.40697186  0.77386516  1
  O2-  O316  1  0.40594820  0.74108105  0.27046348  1
  O2-  O317  1  0.40445192  0.73550303  0.76800399  1
  O2-  O318  1  0.73665860  0.07246503  0.27005874  1
  O2-  O319  1  0.73414995  0.06716112  0.77032172  1
  O2-  O320  1  0.73759235  0.40268784  0.27009469  1
  O2-  O321  1  0.73560611  0.40534561  0.77055803  1
  O2-  O322  1  0.74304369  0.74265883  0.26805780  1
  O2-  O323  1  0.73770335  0.73960227  0.77102533  1
  O2-  O324  1  0.23892903  0.09422460  0.22648623  1
  O2-  O325  1  0.24161431  0.09055841  0.73205523  1
  O2-  O326  1  0.23458941  0.42905037  0.23376751  1
  O2-  O327  1  0.23681804  0.43188918  0.73495946  1
  O2-  O328  1  0.23936278  0.76013743  0.22777465  1
  O2-  O329  1  0.23794109  0.75847617  0.72814864  1
  O2-  O330  1  0.57109046  0.09481600  0.22738402  1
  O2-  O331  1  0.57223802  0.09435718  0.72670699  1
  O2-  O332  1  0.56943600  0.42944515  0.23035895  1
  O2-  O333  1  0.57079450  0.43394969  0.72909724  1
  O2-  O334  1  0.57192924  0.76403159  0.23513263  1
  O2-  O335  1  0.57158325  0.76361149  0.73527745  1
  O2-  O336  1  0.90347270  0.09307223  0.22731847  1
  O2-  O337  1  0.90432354  0.09205904  0.72969560  1
  O2-  O338  1  0.90134663  0.43062925  0.23253858  1
  O2-  O339  1  0.90525720  0.42859802  0.72908120  1
  O2-  O340  1  0.90499286  0.76194340  0.23161571  1
  O2-  O341  1  0.90670065  0.75910184  0.72638209  1
  O2-  O342  1  0.26319126  0.26162831  0.02060035  1
  O2-  O343  1  0.25747856  0.25584771  0.51380240  1
  O2-  O344  1  0.26064612  0.59442860  0.02392591  1
  O2-  O345  1  0.25970174  0.59283181  0.51918892  1
  O2-  O346  1  0.26465530  0.92496417  0.02060981  1
  O2-  O347  1  0.26439124  0.92395773  0.52223059  1
  O2-  O348  1  0.59144513  0.26264496  0.01648754  1
  O2-  O349  1  0.59369075  0.26025249  0.52096404  1
  O2-  O350  1  0.59835490  0.59978985  0.01870799  1
  O2-  O351  1  0.59707611  0.59585219  0.52056464  1
  O2-  O352  1  0.59710086  0.92720514  0.02144193  1
  O2-  O353  1  0.59500094  0.92845926  0.52141741  1
  O2-  O354  1  0.92699630  0.25905603  0.01578151  1
  O2-  O355  1  0.92448829  0.26085565  0.52452654  1
  O2-  O356  1  0.92894913  0.59639846  0.02023318  1
  O2-  O357  1  0.92903211  0.59580979  0.52172399  1
  O2-  O358  1  0.92908726  0.92835584  0.02017671  1
  O2-  O359  1  0.92718638  0.93068422  0.52166024  1
