# generated using pymatgen
data_Sr7Ca15Pr50Mn72O216
_symmetry_space_group_name_H-M   'P 1'
_cell_length_a   16.55810619
_cell_length_b   16.60546540
_cell_length_c   15.59336677
_cell_angle_alpha   89.99976367
_cell_angle_beta   90.00287335
_cell_angle_gamma   89.99985922
_symmetry_Int_Tables_number   1
_chemical_formula_structural   Sr7Ca15Pr50Mn72O216
_chemical_formula_sum   'Sr7 Ca15 Pr50 Mn72 O216'
_cell_volume   4287.47508202
_cell_formula_units_Z   1
loop_
 _symmetry_equiv_pos_site_id
 _symmetry_equiv_pos_as_xyz
  1  'x, y, z'
loop_
 _atom_type_symbol
 _atom_type_oxidation_number
  Sr2+  2.0
  Ca2+  2.0
  Pr3+  3.0
  Mn3.30+  3.3
  O2-  -2.0
loop_
 _atom_site_type_symbol
 _atom_site_label
 _atom_site_symmetry_multiplicity
 _atom_site_fract_x
 _atom_site_fract_y
 _atom_site_fract_z
 _atom_site_occupancy
  Sr2+  Sr0  1  0.16869209  0.17707122  0.12537642  1
  Sr2+  Sr1  1  0.83517370  0.49238034  0.87550831  1
  Sr2+  Sr2  1  0.83561152  0.16076809  0.87451833  1
  Sr2+  Sr3  1  0.49729349  0.49063285  0.87388642  1
  Sr2+  Sr4  1  0.33153845  0.34300139  0.62636906  1
  Sr2+  Sr5  1  0.33540939  0.32713655  0.87297597  1
  Sr2+  Sr6  1  -0.00061704  0.67818488  0.12144233  1
  Ca2+  Ca7  1  -0.00404717  0.68100618  0.62981487  1
  Ca2+  Ca8  1  0.83281237  0.81837728  0.87489658  1
  Ca2+  Ca9  1  0.83225044  0.82034133  0.37482234  1
  Ca2+  Ca10  1  0.67139342  0.31810231  0.37756636  1
  Ca2+  Ca11  1  0.16236776  0.81654783  0.87606466  1
  Ca2+  Ca12  1  0.33433079  0.65162633  0.87439424  1
  Ca2+  Ca13  1  1.00488024  0.32000975  0.87464239  1
  Ca2+  Ca14  1  0.16890586  0.84749291  0.12091053  1
  Ca2+  Ca15  1  0.50315811  0.84766629  0.62699756  1
  Ca2+  Ca16  1  0.82649581  0.48299798  0.37501228  1
  Ca2+  Ca17  1  0.17163262  0.18275017  0.62627368  1
  Ca2+  Ca18  1  0.66329887  0.34813272  0.62540158  1
  Ca2+  Ca19  1  1.00073534  0.65559786  0.87345201  1
  Ca2+  Ca20  1  0.49947082  0.15178155  0.37732501  1
  Ca2+  Ca21  1  0.33442485  0.98714379  0.87518955  1
  Pr3+  Pr22  1  1.00044442  0.32169687  0.37573067  1
  Pr3+  Pr23  1  0.66925148  0.32255229  0.87272218  1
  Pr3+  Pr24  1  0.83769179  0.17923774  0.12447009  1
  Pr3+  Pr25  1  0.67404030  0.65287875  0.37532232  1
  Pr3+  Pr26  1  0.99820845  0.65652337  0.37658036  1
  Pr3+  Pr27  1  0.33889398  0.31615276  0.37714903  1
  Pr3+  Pr28  1  0.16425223  0.15774832  0.87296567  1
  Pr3+  Pr29  1  0.16660240  0.84306756  0.62837616  1
  Pr3+  Pr30  1  0.82973548  0.15437375  0.37598936  1
  Pr3+  Pr31  1  0.16705228  0.51338867  0.12420325  1
  Pr3+  Pr32  1  -0.00340924  0.34622016  0.12368986  1
  Pr3+  Pr33  1  0.66198830  0.68056716  0.62706509  1
  Pr3+  Pr34  1  0.83893064  0.84458479  0.12317611  1
  Pr3+  Pr35  1  0.33689449  0.98850336  0.37515422  1
  Pr3+  Pr36  1  0.49971538  0.48631734  0.37603244  1
  Pr3+  Pr37  1  0.32514108  0.68186173  0.12191037  1
  Pr3+  Pr38  1  0.33525048  0.65378982  0.37573147  1
  Pr3+  Pr39  1  0.00122391  0.01071502  0.12331977  1
  Pr3+  Pr40  1  0.33211149  0.67765776  0.62827769  1
  Pr3+  Pr41  1  0.50091644  0.51180238  0.12277571  1
  Pr3+  Pr42  1  0.16460683  0.15317331  0.37728835  1
  Pr3+  Pr43  1  -0.00175795  0.01447810  0.62662934  1
  Pr3+  Pr44  1  1.00261208  0.98605398  0.37555962  1
  Pr3+  Pr45  1  0.50127238  0.84652305  0.12293474  1
  Pr3+  Pr46  1  0.32847572  0.01282615  0.12304231  1
  Pr3+  Pr47  1  0.49694817  0.82018348  0.37611444  1
  Pr3+  Pr48  1  0.83330000  0.18180331  0.62616976  1
  Pr3+  Pr49  1  0.32980512  0.34615224  0.12447191  1
  Pr3+  Pr50  1  0.66506337  0.01290766  0.12389543  1
  Pr3+  Pr51  1  0.16844943  0.51416113  0.62561044  1
  Pr3+  Pr52  1  0.49369682  0.15483692  0.87327083  1
  Pr3+  Pr53  1  0.16313588  0.48791900  0.37575112  1
  Pr3+  Pr54  1  0.66567209  0.67808495  0.12212083  1
  Pr3+  Pr55  1  0.16400271  0.82194314  0.37484318  1
  Pr3+  Pr56  1  0.50199445  0.50842594  0.62783300  1
  Pr3+  Pr57  1  0.16132364  0.48728964  0.87418928  1
  Pr3+  Pr58  1  0.50448589  0.18264669  0.62391716  1
  Pr3+  Pr59  1  0.83675154  0.51488611  0.62485271  1
  Pr3+  Pr60  1  0.67034514  0.65250758  0.87450484  1
  Pr3+  Pr61  1  0.83847120  0.51474063  0.12518399  1
  Pr3+  Pr62  1  0.66576639  0.34528237  0.12502584  1
  Pr3+  Pr63  1  0.67004429  0.98455714  0.37536398  1
  Pr3+  Pr64  1  0.33195157  0.01375665  0.62762800  1
  Pr3+  Pr65  1  0.67222236  0.98641387  0.87444243  1
  Pr3+  Pr66  1  0.83758699  0.84455088  0.62689666  1
  Pr3+  Pr67  1  0.49295148  0.81938496  0.87335725  1
  Pr3+  Pr68  1  1.00441894  0.98677021  0.87450312  1
  Pr3+  Pr69  1  -0.00205224  0.34555220  0.62684082  1
  Pr3+  Pr70  1  0.50249148  0.17885622  0.12542443  1
  Pr3+  Pr71  1  0.66226482  0.01088155  0.62569881  1
  Mn3.30+  Mn72  1  0.16910320  -0.00188320  -0.00328398  1
  Mn3.30+  Mn73  1  0.16737494  0.00001482  0.50319728  1
  Mn3.30+  Mn74  1  0.16564315  0.33300841  -0.00018239  1
  Mn3.30+  Mn75  1  0.16770218  0.33295995  0.50027247  1
  Mn3.30+  Mn76  1  0.16523752  0.66881561  -0.00330816  1
  Mn3.30+  Mn77  1  0.16455891  0.66830214  0.50196753  1
  Mn3.30+  Mn78  1  0.49839729  -0.00010288  -0.00209077  1
  Mn3.30+  Mn79  1  0.50033233  -0.00052849  0.50047668  1
  Mn3.30+  Mn80  1  0.49893101  0.33363476  -0.00011080  1
  Mn3.30+  Mn81  1  0.50449047  0.33238756  0.49832783  1
  Mn3.30+  Mn82  1  0.49613526  0.66658410  -0.00085765  1
  Mn3.30+  Mn83  1  0.50155846  0.66670747  0.50072575  1
  Mn3.30+  Mn84  1  0.83449631  -0.00026355  -0.00255140  1
  Mn3.30+  Mn85  1  0.83289051  -0.00139291  0.50085905  1
  Mn3.30+  Mn86  1  0.83425181  0.33417336  -0.00294655  1
  Mn3.30+  Mn87  1  0.82977109  0.33532943  0.50087469  1
  Mn3.30+  Mn88  1  0.83522670  0.66831844  -0.00260007  1
  Mn3.30+  Mn89  1  0.83368165  0.66762097  0.50107249  1
  Mn3.30+  Mn90  1  0.00016779  0.16668302  0.25036594  1
  Mn3.30+  Mn91  1  0.00120039  0.16837767  0.74930612  1
  Mn3.30+  Mn92  1  -0.00324467  0.50141366  0.25299437  1
  Mn3.30+  Mn93  1  0.00002415  0.50171759  0.75021805  1
  Mn3.30+  Mn94  1  0.00030634  0.83288147  0.24822459  1
  Mn3.30+  Mn95  1  0.00070438  0.83094573  0.75313199  1
  Mn3.30+  Mn96  1  0.33561084  0.16550249  0.25125577  1
  Mn3.30+  Mn97  1  0.33127195  0.16773180  0.74982702  1
  Mn3.30+  Mn98  1  0.33329338  0.49995697  0.25119051  1
  Mn3.30+  Mn99  1  0.33280522  0.50068633  0.74992707  1
  Mn3.30+  Mn100  1  0.33191783  0.83339006  0.24928931  1
  Mn3.30+  Mn101  1  0.33216099  0.83342207  0.75208256  1
  Mn3.30+  Mn102  1  0.66628394  0.16707220  0.25210925  1
  Mn3.30+  Mn103  1  0.66646016  0.16751646  0.74969244  1
  Mn3.30+  Mn104  1  0.66824572  0.49836621  0.25036316  1
  Mn3.30+  Mn105  1  0.66864184  0.49876738  0.74953985  1
  Mn3.30+  Mn106  1  0.66815843  0.83206588  0.24912024  1
  Mn3.30+  Mn107  1  0.66631365  0.83321966  0.75131000  1
  Mn3.30+  Mn108  1  0.16802155  -0.00155985  0.24949796  1
  Mn3.30+  Mn109  1  0.16861628  -0.00094984  0.75130204  1
  Mn3.30+  Mn110  1  0.16711318  0.33298289  0.25054985  1
  Mn3.30+  Mn111  1  0.16592911  0.33290003  0.74940861  1
  Mn3.30+  Mn112  1  0.16543099  0.66917554  0.24918252  1
  Mn3.30+  Mn113  1  0.16469552  0.66770740  0.75212364  1
  Mn3.30+  Mn114  1  0.50061037  0.00058220  0.25036208  1
  Mn3.30+  Mn115  1  0.49844758  -0.00103535  0.75075254  1
  Mn3.30+  Mn116  1  0.50211938  0.33098513  0.25289477  1
  Mn3.30+  Mn117  1  0.50102883  0.33461655  0.74865889  1
  Mn3.30+  Mn118  1  0.50003114  0.66643336  0.24907120  1
  Mn3.30+  Mn119  1  0.49786018  0.66693788  0.75051199  1
  Mn3.30+  Mn120  1  0.83380197  -0.00167316  0.25021511  1
  Mn3.30+  Mn121  1  0.83368845  -0.00002569  0.75181811  1
  Mn3.30+  Mn122  1  0.83083176  0.33419275  0.25179582  1
  Mn3.30+  Mn123  1  0.83303326  0.33555266  0.75043637  1
  Mn3.30+  Mn124  1  0.83391113  0.66760864  0.25079930  1
  Mn3.30+  Mn125  1  0.83473088  0.66786203  0.75104414  1
  Mn3.30+  Mn126  1  0.00139695  0.16717033  -0.00121511  1
  Mn3.30+  Mn127  1  0.00044466  0.16767597  0.50215798  1
  Mn3.30+  Mn128  1  -0.00019470  0.50111365  -0.00238739  1
  Mn3.30+  Mn129  1  -0.00281236  0.50183261  0.49972485  1
  Mn3.30+  Mn130  1  0.00262999  0.83175714  -0.00265092  1
  Mn3.30+  Mn131  1  -0.00147133  0.83226617  0.50101830  1
  Mn3.30+  Mn132  1  0.33238097  0.16727004  -0.00168516  1
  Mn3.30+  Mn133  1  0.33403345  0.16567769  0.50141977  1
  Mn3.30+  Mn134  1  0.33292626  0.50172132  -0.00138019  1
  Mn3.30+  Mn135  1  0.33332726  0.49901274  0.50050961  1
  Mn3.30+  Mn136  1  0.32933353  0.83370761  -0.00459871  1
  Mn3.30+  Mn137  1  0.33453454  0.83338927  0.50359927  1
  Mn3.30+  Mn138  1  0.66686750  0.16694897  -0.00086158  1
  Mn3.30+  Mn139  1  0.66547139  0.16775180  0.49867956  1
  Mn3.30+  Mn140  1  0.66780069  0.49940922  -0.00056422  1
  Mn3.30+  Mn141  1  0.66895699  0.49783529  0.50001288  1
  Mn3.30+  Mn142  1  0.66774285  0.83308821  -0.00177625  1
  Mn3.30+  Mn143  1  0.66681341  0.83233751  0.50059117  1
  O2-  O144  1  0.01917047  0.16122230  0.12567451  1
  O2-  O145  1  0.02794880  0.16328374  0.62361792  1
  O2-  O146  1  0.02226207  0.49424785  0.12714024  1
  O2-  O147  1  0.02534997  0.49269198  0.62301751  1
  O2-  O148  1  0.02654130  0.83375874  0.12252462  1
  O2-  O149  1  0.02310472  0.82721887  0.62758873  1
  O2-  O150  1  0.35878671  0.16047745  0.12629330  1
  O2-  O151  1  0.35987862  0.16155364  0.62505912  1
  O2-  O152  1  0.35601142  0.49577380  0.12848675  1
  O2-  O153  1  0.35574226  0.50149670  0.62305519  1
  O2-  O154  1  0.35825319  0.82793192  0.12201465  1
  O2-  O155  1  0.36191887  0.82483213  0.62568664  1
  O2-  O156  1  0.69321307  0.16070478  0.12670651  1
  O2-  O157  1  0.69076853  0.15673675  0.62457436  1
  O2-  O158  1  0.69447607  0.49391352  0.12612735  1
  O2-  O159  1  0.69272164  0.49502745  0.62413564  1
  O2-  O160  1  0.69352659  0.82759756  0.12373479  1
  O2-  O161  1  0.69289215  0.83014975  0.62743854  1
  O2-  O162  1  0.14160677  0.33387972  0.12644044  1
  O2-  O163  1  0.14199960  0.32955083  0.62213200  1
  O2-  O164  1  0.14743182  0.65985602  0.12499426  1
  O2-  O165  1  0.13817167  0.66338200  0.62459811  1
  O2-  O166  1  0.14511941  0.99361993  0.12257719  1
  O2-  O167  1  0.14013753  0.98962288  0.62628222  1
  O2-  O168  1  0.47386868  0.32622715  0.12989897  1
  O2-  O169  1  0.48113478  0.33065441  0.62242331  1
  O2-  O170  1  0.47088130  0.66112135  0.12617290  1
  O2-  O171  1  0.47603614  0.65735128  0.62548964  1
  O2-  O172  1  0.47421159  0.99462580  0.12393141  1
  O2-  O173  1  0.47698550  0.99282960  0.62600158  1
  O2-  O174  1  0.80987865  0.32731701  0.12588238  1
  O2-  O175  1  0.80556595  0.32931928  0.62369107  1
  O2-  O176  1  0.81028260  0.66374908  0.12369040  1
  O2-  O177  1  0.80660064  0.66380680  0.62536543  1
  O2-  O178  1  0.80877869  0.99242017  0.12281409  1
  O2-  O179  1  0.80717550  0.99241267  0.62544847  1
  O2-  O180  1  0.30882742  0.16700467  0.37657463  1
  O2-  O181  1  0.30890979  0.17311174  0.87299929  1
  O2-  O182  1  0.30807740  0.50586786  0.37532525  1
  O2-  O183  1  0.30777990  0.50395711  0.87324024  1
  O2-  O184  1  0.30809841  0.83964712  0.37855359  1
  O2-  O185  1  0.30402774  0.84413897  0.87367181  1
  O2-  O186  1  0.64135708  0.17215283  0.37383828  1
  O2-  O187  1  0.63912341  0.17346679  0.87335162  1
  O2-  O188  1  0.64157691  0.50875261  0.37404124  1
  O2-  O189  1  0.64690700  0.50456649  0.87572413  1
  O2-  O190  1  0.64056248  0.83567686  0.37296180  1
  O2-  O191  1  0.63770384  0.83819917  0.87505657  1
  O2-  O192  1  0.97409463  0.17112230  0.37690316  1
  O2-  O193  1  0.98442168  0.17071574  0.87391690  1
  O2-  O194  1  0.96946197  0.50856465  0.37778041  1
  O2-  O195  1  0.98406666  0.50957340  0.87247168  1
  O2-  O196  1  0.97436143  0.83961269  0.37549690  1
  O2-  O197  1  0.97240701  0.84199732  0.87451431  1
  O2-  O198  1  0.19218165  0.00364870  0.37896345  1
  O2-  O199  1  0.19409609  0.01159491  0.87240525  1
  O2-  O200  1  0.19283234  0.34015313  0.37550166  1
  O2-  O201  1  0.18554375  0.33870288  0.87550937  1
  O2-  O202  1  0.19243686  0.67432904  0.37555962  1
  O2-  O203  1  0.19365514  0.67004303  0.87422931  1
  O2-  O204  1  0.52534836  0.00390100  0.37414194  1
  O2-  O205  1  0.52742625  0.00656674  0.87522105  1
  O2-  O206  1  0.53110125  0.34062034  0.37400171  1
  O2-  O207  1  0.52436665  0.33354745  0.87332776  1
  O2-  O208  1  0.52802850  0.67299750  0.37379990  1
  O2-  O209  1  0.52609839  0.67263341  0.87384537  1
  O2-  O210  1  0.85943740  0.00756123  0.37720468  1
  O2-  O211  1  0.85990290  0.00705024  0.87472011  1
  O2-  O212  1  0.85751222  0.33658878  0.37619336  1
  O2-  O213  1  0.86025923  0.33552787  0.87455097  1
  O2-  O214  1  0.85462873  0.67651083  0.37711872  1
  O2-  O215  1  0.85681790  0.67226330  0.87405049  1
  O2-  O216  1  0.24191930  0.09354584  0.01799601  1
  O2-  O217  1  0.23571135  0.09346554  0.52306271  1
  O2-  O218  1  0.23756463  0.42864143  0.01991421  1
  O2-  O219  1  0.23479596  0.43005048  0.51666737  1
  O2-  O220  1  0.23622279  0.76244993  0.02127717  1
  O2-  O221  1  0.23852680  0.76226691  0.52194927  1
  O2-  O222  1  0.57184076  0.09424942  0.02081133  1
  O2-  O223  1  0.57206197  0.09378685  0.52073710  1
  O2-  O224  1  0.57484457  0.42554785  0.02370662  1
  O2-  O225  1  0.57054340  0.43151762  0.51723025  1
  O2-  O226  1  0.56905292  0.75924157  0.02098369  1
  O2-  O227  1  0.57029076  0.76287972  0.52243082  1
  O2-  O228  1  0.90736345  0.09168836  0.02147294  1
  O2-  O229  1  0.90474305  0.09512456  0.52304592  1
  O2-  O230  1  0.90589581  0.42621053  0.02289569  1
  O2-  O231  1  0.90471712  0.42741753  0.52245224  1
  O2-  O232  1  0.90392590  0.76383392  0.01721633  1
  O2-  O233  1  0.90313004  0.76220630  0.51978961  1
  O2-  O234  1  0.26909850  0.26143527  0.23567598  1
  O2-  O235  1  0.25738673  0.25897045  0.73210573  1
  O2-  O236  1  0.26014918  0.59757334  0.23245541  1
  O2-  O237  1  0.25784493  0.59443126  0.72721444  1
  O2-  O238  1  0.26469463  0.92916989  0.23339524  1
  O2-  O239  1  0.26125480  0.92570419  0.72485879  1
  O2-  O240  1  0.59489788  0.25903598  0.22560538  1
  O2-  O241  1  0.59580970  0.26113050  0.72795275  1
  O2-  O242  1  0.59555152  0.59292887  0.22652325  1
  O2-  O243  1  0.59418990  0.59218096  0.73050293  1
  O2-  O244  1  0.59560925  0.92698510  0.22882504  1
  O2-  O245  1  0.59754381  0.92906752  0.73347497  1
  O2-  O246  1  0.92717722  0.26267181  0.23163276  1
  O2-  O247  1  0.92385130  0.26127241  0.72657734  1
  O2-  O248  1  0.92663461  0.59469382  0.23263229  1
  O2-  O249  1  0.92706002  0.59420808  0.72687768  1
  O2-  O250  1  0.93067932  0.92873039  0.22891445  1
  O2-  O251  1  0.93001171  0.92839424  0.72945776  1
  O2-  O252  1  0.09381251  0.24053997  0.27381426  1
  O2-  O253  1  0.09393132  0.23964154  0.76669448  1
  O2-  O254  1  0.09398823  0.57427982  0.27183830  1
  O2-  O255  1  0.09836595  0.56977465  0.76496795  1
  O2-  O256  1  0.09341265  0.90652010  0.27266602  1
  O2-  O257  1  0.09607104  0.90332756  0.77202001  1
  O2-  O258  1  0.43147260  0.23480714  0.27506440  1
  O2-  O259  1  0.43054939  0.23703910  0.76363694  1
  O2-  O260  1  0.42879170  0.57187055  0.27187541  1
  O2-  O261  1  0.42496362  0.57544615  0.76557893  1
  O2-  O262  1  0.42902036  0.90367644  0.26961144  1
  O2-  O263  1  0.42741175  0.90460518  0.77047387  1
  O2-  O264  1  0.76419260  0.23513789  0.26760971  1
  O2-  O265  1  0.75854151  0.24046246  0.76694617  1
  O2-  O266  1  0.76162441  0.56908826  0.27010637  1
  O2-  O267  1  0.75984356  0.57506651  0.76633773  1
  O2-  O268  1  0.76327510  0.90486084  0.27160204  1
  O2-  O269  1  0.76203295  0.90362956  0.77323981  1
  O2-  O270  1  0.07198821  0.07077529  0.47936334  1
  O2-  O271  1  0.07524558  0.07053313  0.98066717  1
  O2-  O272  1  0.07025074  0.40731064  0.47759045  1
  O2-  O273  1  0.07002802  0.40512733  0.98133482  1
  O2-  O274  1  0.07335447  0.74096165  0.47697991  1
  O2-  O275  1  0.07014363  0.73684850  0.97560241  1
  O2-  O276  1  0.40305794  0.06913097  0.48406044  1
  O2-  O277  1  0.40477648  0.07184682  0.97805070  1
  O2-  O278  1  0.41080400  0.40357260  0.47646406  1
  O2-  O279  1  0.40672122  0.40605209  0.99010119  1
  O2-  O280  1  0.40448133  0.73842822  0.47850261  1
  O2-  O281  1  0.39983024  0.74014344  0.97661830  1
  O2-  O282  1  0.73711292  0.07154209  0.47882609  1
  O2-  O283  1  0.73658912  0.07020614  0.98332191  1
  O2-  O284  1  0.73687173  0.40395573  0.47721397  1
  O2-  O285  1  0.73745438  0.40359555  0.98302820  1
  O2-  O286  1  0.73366167  0.73510763  0.48559748  1
  O2-  O287  1  0.73500791  0.73792657  0.98104639  1
  O2-  O288  1  0.09313731  0.24169216  0.47606755  1
  O2-  O289  1  0.09584803  0.23956495  0.98217182  1
  O2-  O290  1  0.09351333  0.57333636  0.47734240  1
  O2-  O291  1  0.09822554  0.57053129  0.98534419  1
  O2-  O292  1  0.09522401  0.90536557  0.48101354  1
  O2-  O293  1  0.09503769  0.90582252  0.97419092  1
  O2-  O294  1  0.43320081  0.23779249  0.47886510  1
  O2-  O295  1  0.42991569  0.23514442  0.98470968  1
  O2-  O296  1  0.42888277  0.57325186  0.47815019  1
  O2-  O297  1  0.42643661  0.57374635  0.98467942  1
  O2-  O298  1  0.42790810  0.90580000  0.47789120  1
  O2-  O299  1  0.42985208  0.90275357  0.98113714  1
  O2-  O300  1  0.76408597  0.23550756  0.48241875  1
  O2-  O301  1  0.75815297  0.24201616  0.98244505  1
  O2-  O302  1  0.76408504  0.57011879  0.47977001  1
  O2-  O303  1  0.75762158  0.57578181  0.98475978  1
  O2-  O304  1  0.76176811  0.90274118  0.47794722  1
  O2-  O305  1  0.76373105  0.90553942  0.97672055  1
  O2-  O306  1  0.07353601  0.07161153  0.27098597  1
  O2-  O307  1  0.07366674  0.06984176  0.76824839  1
  O2-  O308  1  0.06805328  0.40964626  0.27353588  1
  O2-  O309  1  0.07011791  0.40429890  0.76798786  1
  O2-  O310  1  0.07176331  0.74038864  0.27400922  1
  O2-  O311  1  0.07054992  0.73694012  0.77148838  1
  O2-  O312  1  0.40487898  0.06974901  0.26842402  1
  O2-  O313  1  0.40305528  0.07129621  0.77038561  1
  O2-  O314  1  0.40723660  0.40309179  0.27240301  1
  O2-  O315  1  0.40891871  0.40943093  0.76137084  1
  O2-  O316  1  0.40302006  0.73948924  0.27146544  1
  O2-  O317  1  0.40120728  0.73935225  0.77333383  1
  O2-  O318  1  0.73778940  0.07107142  0.27055836  1
  O2-  O319  1  0.73561585  0.07034264  0.76706400  1
  O2-  O320  1  0.73442344  0.39978819  0.26897279  1
  O2-  O321  1  0.73962820  0.40529425  0.76974213  1
  O2-  O322  1  0.73597348  0.73484705  0.26525208  1
  O2-  O323  1  0.73396220  0.73733538  0.76823534  1
  O2-  O324  1  0.24152944  0.09237240  0.23469668  1
  O2-  O325  1  0.23823236  0.09462643  0.72548680  1
  O2-  O326  1  0.23830468  0.42898807  0.23055245  1
  O2-  O327  1  0.23488412  0.43013487  0.73280740  1
  O2-  O328  1  0.23617831  0.76404922  0.22940245  1
  O2-  O329  1  0.23914882  0.75940685  0.72683784  1
  O2-  O330  1  0.57490110  0.09292132  0.22697526  1
  O2-  O331  1  0.57009943  0.09526667  0.72955511  1
  O2-  O332  1  0.57174231  0.42891827  0.22784431  1
  O2-  O333  1  0.57528825  0.42703215  0.73027157  1
  O2-  O334  1  0.57045311  0.76043829  0.22648075  1
  O2-  O335  1  0.56955713  0.76169923  0.72825078  1
  O2-  O336  1  0.90436822  0.09317869  0.23059601  1
  O2-  O337  1  0.90816667  0.09467065  0.72635726  1
  O2-  O338  1  0.90335115  0.42656593  0.22998800  1
  O2-  O339  1  0.90664613  0.42839069  0.72631618  1
  O2-  O340  1  0.90554300  0.76468208  0.23168447  1
  O2-  O341  1  0.90319039  0.76249716  0.73146282  1
  O2-  O342  1  0.26257431  0.26295398  0.01988747  1
  O2-  O343  1  0.26224724  0.25991356  0.51255519  1
  O2-  O344  1  0.25949116  0.59444938  0.02030833  1
  O2-  O345  1  0.25781909  0.59854301  0.51957260  1
  O2-  O346  1  0.26300670  0.92876613  0.01940697  1
  O2-  O347  1  0.26284240  0.92740457  0.52358021  1
  O2-  O348  1  0.59340391  0.26057368  0.02150311  1
  O2-  O349  1  0.59750349  0.26168945  0.52309042  1
  O2-  O350  1  0.59339488  0.59166242  0.02123320  1
  O2-  O351  1  0.59702424  0.59378572  0.52056400  1
  O2-  O352  1  0.59602256  0.92701052  0.02071571  1
  O2-  O353  1  0.59817459  0.92859118  0.51566328  1
  O2-  O354  1  0.92523345  0.26006221  0.02132213  1
  O2-  O355  1  0.92613990  0.26330809  0.52093149  1
  O2-  O356  1  0.92436619  0.59003232  0.01745378  1
  O2-  O357  1  0.92913664  0.59828975  0.52358889  1
  O2-  O358  1  0.93040957  0.92833271  0.01997015  1
  O2-  O359  1  0.92981648  0.92859067  0.52209200  1
