# generated using pymatgen
data_Sr7Ca15Pr50Mn72O216
_symmetry_space_group_name_H-M   'P 1'
_cell_length_a   16.55408472
_cell_length_b   16.59926703
_cell_length_c   15.58798805
_cell_angle_alpha   89.99780621
_cell_angle_beta   89.99896179
_cell_angle_gamma   90.00639354
_symmetry_Int_Tables_number   1
_chemical_formula_structural   Sr7Ca15Pr50Mn72O216
_chemical_formula_sum   'Sr7 Ca15 Pr50 Mn72 O216'
_cell_volume   4283.35575516
_cell_formula_units_Z   1
loop_
 _symmetry_equiv_pos_site_id
 _symmetry_equiv_pos_as_xyz
  1  'x, y, z'
loop_
 _atom_type_symbol
 _atom_type_oxidation_number
  Sr2+  2.0
  Ca2+  2.0
  Pr3+  3.0
  Mn3.30+  3.3
  O2-  -2.0
loop_
 _atom_site_type_symbol
 _atom_site_label
 _atom_site_symmetry_multiplicity
 _atom_site_fract_x
 _atom_site_fract_y
 _atom_site_fract_z
 _atom_site_occupancy
  Sr2+  Sr0  1  0.32967388  0.01205962  0.12387127  1
  Sr2+  Sr1  1  0.83312740  0.82451703  0.87359822  1
  Sr2+  Sr2  1  0.83157653  0.82480043  0.37606295  1
  Sr2+  Sr3  1  0.66658325  0.34240682  0.62453884  1
  Sr2+  Sr4  1  0.33058164  0.34358480  0.12384035  1
  Sr2+  Sr5  1  0.50080993  0.84007708  0.62411208  1
  Sr2+  Sr6  1  0.49831026  0.82307676  0.87333010  1
  Ca2+  Ca7  1  0.17051922  0.84738410  0.62485939  1
  Ca2+  Ca8  1  0.66954631  0.98285892  0.37589796  1
  Ca2+  Ca9  1  0.33584569  0.31867365  0.87668581  1
  Ca2+  Ca10  1  0.66442255  0.68286536  0.62420342  1
  Ca2+  Ca11  1  0.49932436  0.82049544  0.37729161  1
  Ca2+  Ca12  1  0.33100448  0.68637429  0.62499535  1
  Ca2+  Ca13  1  0.16298971  0.15395906  0.37048402  1
  Ca2+  Ca14  1  -0.00284632  0.68339197  0.62526526  1
  Ca2+  Ca15  1  1.00367885  0.31624206  0.37445551  1
  Ca2+  Ca16  1  0.50186914  0.51427046  0.12513841  1
  Ca2+  Ca17  1  0.17200241  0.18306386  0.12554351  1
  Ca2+  Ca18  1  1.00378695  0.98333298  0.87508379  1
  Ca2+  Ca19  1  0.83138438  0.48652364  0.87295839  1
  Ca2+  Ca20  1  0.83150774  0.48598502  0.37657867  1
  Ca2+  Ca21  1  1.00153786  0.32025102  0.87562940  1
  Pr3+  Pr22  1  -0.00518902  0.34473880  0.62549467  1
  Pr3+  Pr23  1  0.50186750  0.84639165  0.12575136  1
  Pr3+  Pr24  1  0.83667202  0.18051889  0.12574237  1
  Pr3+  Pr25  1  0.49989592  0.17995109  0.12489962  1
  Pr3+  Pr26  1  0.50253415  0.17763119  0.62480274  1
  Pr3+  Pr27  1  0.66819909  0.98566167  0.87507900  1
  Pr3+  Pr28  1  0.49619342  0.48722582  0.87432145  1
  Pr3+  Pr29  1  1.00178322  0.65492914  0.87174831  1
  Pr3+  Pr30  1  0.17076590  0.84623934  0.12537549  1
  Pr3+  Pr31  1  0.33780528  0.65673346  0.37897519  1
  Pr3+  Pr32  1  -0.00213694  0.01035689  0.62651559  1
  Pr3+  Pr33  1  0.16431817  0.48410450  0.87420442  1
  Pr3+  Pr34  1  -0.00008464  0.34433137  0.12437055  1
  Pr3+  Pr35  1  1.00399729  0.98736991  0.37524166  1
  Pr3+  Pr36  1  0.50621944  0.51524771  0.62419591  1
  Pr3+  Pr37  1  0.83084354  0.15311360  0.37522202  1
  Pr3+  Pr38  1  0.33029586  0.00719174  0.62571846  1
  Pr3+  Pr39  1  0.66342877  0.67818145  0.12551697  1
  Pr3+  Pr40  1  0.66285486  0.00587535  0.62338445  1
  Pr3+  Pr41  1  0.83386563  0.84275266  0.62482145  1
  Pr3+  Pr42  1  0.17032763  0.50951379  0.12495739  1
  Pr3+  Pr43  1  0.33387297  0.31875857  0.37434545  1
  Pr3+  Pr44  1  0.49768837  0.15454464  0.37499024  1
  Pr3+  Pr45  1  0.33858036  0.65754544  0.87133443  1
  Pr3+  Pr46  1  0.83534910  0.84579061  0.12546620  1
  Pr3+  Pr47  1  0.16302098  0.82208338  0.87357977  1
  Pr3+  Pr48  1  0.67041106  0.32259169  0.37572842  1
  Pr3+  Pr49  1  0.33418553  0.67621757  0.12549743  1
  Pr3+  Pr50  1  0.49535163  0.15691205  0.87477334  1
  Pr3+  Pr51  1  1.00116991  0.65399047  0.37825569  1
  Pr3+  Pr52  1  -0.00283841  0.67831669  0.12485245  1
  Pr3+  Pr53  1  0.67073976  0.32203340  0.87411077  1
  Pr3+  Pr54  1  0.33461055  0.98621125  0.37309871  1
  Pr3+  Pr55  1  0.83347650  0.15491924  0.87494757  1
  Pr3+  Pr56  1  0.66388406  0.01103611  0.12600431  1
  Pr3+  Pr57  1  0.16777217  0.17794199  0.62424271  1
  Pr3+  Pr58  1  0.67094201  0.65560126  0.37963260  1
  Pr3+  Pr59  1  0.83658489  0.17912529  0.62454506  1
  Pr3+  Pr60  1  0.67132906  0.65461475  0.87001883  1
  Pr3+  Pr61  1  -0.00220297  0.01387297  0.12415160  1
  Pr3+  Pr62  1  0.33581293  0.98721849  0.87614671  1
  Pr3+  Pr63  1  0.16273462  0.82016733  0.37671754  1
  Pr3+  Pr64  1  0.16241341  0.48481236  0.37572115  1
  Pr3+  Pr65  1  0.83639716  0.51255416  0.12494419  1
  Pr3+  Pr66  1  0.49772106  0.48807589  0.37504203  1
  Pr3+  Pr67  1  0.83708187  0.51549522  0.62501444  1
  Pr3+  Pr68  1  0.66075228  0.35138344  0.12529793  1
  Pr3+  Pr69  1  0.16327701  0.15481878  0.87825102  1
  Pr3+  Pr70  1  0.32976476  0.34603900  0.62640766  1
  Pr3+  Pr71  1  0.16894083  0.51571794  0.62506994  1
  Mn3.30+  Mn72  1  0.16490100  0.00118115  0.00025996  1
  Mn3.30+  Mn73  1  0.16630258  0.00067732  0.49964395  1
  Mn3.30+  Mn74  1  0.16717040  0.33215647  -0.00187437  1
  Mn3.30+  Mn75  1  0.16370232  0.33180233  0.49981549  1
  Mn3.30+  Mn76  1  0.16753460  0.66519717  -0.00110703  1
  Mn3.30+  Mn77  1  0.16790217  0.66867923  0.50403218  1
  Mn3.30+  Mn78  1  0.49876816  0.00128225  0.00138835  1
  Mn3.30+  Mn79  1  0.49989755  -0.00285639  0.49706402  1
  Mn3.30+  Mn80  1  0.49870128  0.33566260  0.00036419  1
  Mn3.30+  Mn81  1  0.49994759  0.33340232  0.49994929  1
  Mn3.30+  Mn82  1  0.50103065  0.66576869  -0.00091712  1
  Mn3.30+  Mn83  1  0.50197162  0.66890865  0.50152755  1
  Mn3.30+  Mn84  1  0.83439354  0.00020063  -0.00109743  1
  Mn3.30+  Mn85  1  0.83163498  -0.00062576  0.49983355  1
  Mn3.30+  Mn86  1  0.83385016  0.33499072  -0.00081688  1
  Mn3.30+  Mn87  1  0.83521507  0.33461337  0.49767245  1
  Mn3.30+  Mn88  1  0.83320878  0.66534936  -0.00234549  1
  Mn3.30+  Mn89  1  0.83462292  0.66716464  0.50152017  1
  Mn3.30+  Mn90  1  0.00275019  0.16769653  0.24938489  1
  Mn3.30+  Mn91  1  0.00062613  0.16622226  0.75259159  1
  Mn3.30+  Mn92  1  -0.00092265  0.49794671  0.25234803  1
  Mn3.30+  Mn93  1  -0.00036910  0.49979461  0.75047676  1
  Mn3.30+  Mn94  1  0.00029400  0.83260700  0.25071261  1
  Mn3.30+  Mn95  1  0.00141725  0.83280890  0.74847481  1
  Mn3.30+  Mn96  1  0.32936574  0.16608423  0.25001685  1
  Mn3.30+  Mn97  1  0.33196446  0.16736586  0.75015083  1
  Mn3.30+  Mn98  1  0.33358791  0.49987891  0.25022803  1
  Mn3.30+  Mn99  1  0.33351432  0.50135500  0.74890160  1
  Mn3.30+  Mn100  1  0.33458343  0.83245441  0.25169695  1
  Mn3.30+  Mn101  1  0.33151214  0.83360127  0.74776145  1
  Mn3.30+  Mn102  1  0.66710363  0.16640049  0.25043090  1
  Mn3.30+  Mn103  1  0.66637110  0.16571225  0.75010535  1
  Mn3.30+  Mn104  1  0.66728990  0.50199555  0.25171229  1
  Mn3.30+  Mn105  1  0.66860940  0.50003378  0.74834979  1
  Mn3.30+  Mn106  1  0.66600095  0.83308850  0.25237941  1
  Mn3.30+  Mn107  1  0.66652770  0.83152987  0.74956385  1
  Mn3.30+  Mn108  1  0.16712225  0.00282453  0.24932663  1
  Mn3.30+  Mn109  1  0.16444698  -0.00027867  0.75094190  1
  Mn3.30+  Mn110  1  0.16544142  0.33115600  0.25081029  1
  Mn3.30+  Mn111  1  0.16524371  0.33251013  0.75132650  1
  Mn3.30+  Mn112  1  0.16696030  0.66485101  0.25100434  1
  Mn3.30+  Mn113  1  0.16821389  0.66862237  0.74661917  1
  Mn3.30+  Mn114  1  0.50084174  -0.00053174  0.25223162  1
  Mn3.30+  Mn115  1  0.49851030  -0.00117038  0.74908507  1
  Mn3.30+  Mn116  1  0.49947577  0.33512317  0.24904006  1
  Mn3.30+  Mn117  1  0.49878585  0.33384590  0.75026470  1
  Mn3.30+  Mn118  1  0.50099045  0.66675036  0.25180625  1
  Mn3.30+  Mn119  1  0.50203702  0.66790014  0.74715752  1
  Mn3.30+  Mn120  1  0.83172120  0.00003349  0.25049942  1
  Mn3.30+  Mn121  1  0.83383050  -0.00042709  0.75146033  1
  Mn3.30+  Mn122  1  0.83455212  0.33474296  0.25146846  1
  Mn3.30+  Mn123  1  0.83440540  0.33503048  0.75148345  1
  Mn3.30+  Mn124  1  0.83290452  0.66570867  0.25226170  1
  Mn3.30+  Mn125  1  0.83512062  0.66677685  0.74831282  1
  Mn3.30+  Mn126  1  0.00169743  0.16729645  0.00020957  1
  Mn3.30+  Mn127  1  0.00179376  0.16666373  0.49782012  1
  Mn3.30+  Mn128  1  -0.00033496  0.49857900  -0.00282108  1
  Mn3.30+  Mn129  1  -0.00078520  0.49932695  0.49982322  1
  Mn3.30+  Mn130  1  0.00035267  0.83311420  -0.00153088  1
  Mn3.30+  Mn131  1  0.00129811  0.83225577  0.50286305  1
  Mn3.30+  Mn132  1  0.33030264  0.16842781  0.00096690  1
  Mn3.30+  Mn133  1  0.33126872  0.16485417  0.49900333  1
  Mn3.30+  Mn134  1  0.33448125  0.49927404  -0.00048119  1
  Mn3.30+  Mn135  1  0.33314938  0.50193954  0.50204829  1
  Mn3.30+  Mn136  1  0.33308173  0.83265706  0.00001576  1
  Mn3.30+  Mn137  1  0.33284058  0.83374062  0.50046812  1
  Mn3.30+  Mn138  1  0.66698722  0.16741140  0.00041280  1
  Mn3.30+  Mn139  1  0.66638071  0.16463641  0.49911517  1
  Mn3.30+  Mn140  1  0.66683477  0.50177438  -0.00152177  1
  Mn3.30+  Mn141  1  0.66949197  0.50050072  0.50121676  1
  Mn3.30+  Mn142  1  0.66718652  0.83185447  -0.00060912  1
  Mn3.30+  Mn143  1  0.66545850  0.83286878  0.49876221  1
  O2-  O144  1  0.02820801  0.16084190  0.12418781  1
  O2-  O145  1  0.02332771  0.15995435  0.62651264  1
  O2-  O146  1  0.02664322  0.49372447  0.12479476  1
  O2-  O147  1  0.02660404  0.48928320  0.62545888  1
  O2-  O148  1  0.02665763  0.82632866  0.12519142  1
  O2-  O149  1  0.02840168  0.83152026  0.62508603  1
  O2-  O150  1  0.35663932  0.16565490  0.12540037  1
  O2-  O151  1  0.35853970  0.15864223  0.62362420  1
  O2-  O152  1  0.35808110  0.49977097  0.12304456  1
  O2-  O153  1  0.36090787  0.49092759  0.62475785  1
  O2-  O154  1  0.35707085  0.82636801  0.12767408  1
  O2-  O155  1  0.35116816  0.84010151  0.62367909  1
  O2-  O156  1  0.69336622  0.15931388  0.12582731  1
  O2-  O157  1  0.69244835  0.15678460  0.62473610  1
  O2-  O158  1  0.69248881  0.49942649  0.12662454  1
  O2-  O159  1  0.69379749  0.49381608  0.62477040  1
  O2-  O160  1  0.69077945  0.82753881  0.12464404  1
  O2-  O161  1  0.68901719  0.83495671  0.62492597  1
  O2-  O162  1  0.14358434  0.33248163  0.12355324  1
  O2-  O163  1  0.13906502  0.32674362  0.62429892  1
  O2-  O164  1  0.14061604  0.65734042  0.12397512  1
  O2-  O165  1  0.13728463  0.65985854  0.62515958  1
  O2-  O166  1  0.14063904  0.99132795  0.12505155  1
  O2-  O167  1  0.14202008  0.99525918  0.62734240  1
  O2-  O168  1  0.48051549  0.32763333  0.12497781  1
  O2-  O169  1  0.47371643  0.32672850  0.62354450  1
  O2-  O170  1  0.47808745  0.65908404  0.12709053  1
  O2-  O171  1  0.47433284  0.66086571  0.62437085  1
  O2-  O172  1  0.47941883  0.99547718  0.12709270  1
  O2-  O173  1  0.47447087  0.99769695  0.62129029  1
  O2-  O174  1  0.80558362  0.32823543  0.12501234  1
  O2-  O175  1  0.81613425  0.32621993  0.62330222  1
  O2-  O176  1  0.80846430  0.65924579  0.12450882  1
  O2-  O177  1  0.80698291  0.66196694  0.62432539  1
  O2-  O178  1  0.80880224  0.99723708  0.12335652  1
  O2-  O179  1  0.80837370  0.99672751  0.62443616  1
  O2-  O180  1  0.30510469  0.17074470  0.37623989  1
  O2-  O181  1  0.30874804  0.17130285  0.87477466  1
  O2-  O182  1  0.30672222  0.50900690  0.37983203  1
  O2-  O183  1  0.30747594  0.51204872  0.87237241  1
  O2-  O184  1  0.30663986  0.83483046  0.37488029  1
  O2-  O185  1  0.30871480  0.83498226  0.87343776  1
  O2-  O186  1  0.64156516  0.17586592  0.37345145  1
  O2-  O187  1  0.64016370  0.17287350  0.87603141  1
  O2-  O188  1  0.64148594  0.50645377  0.37651635  1
  O2-  O189  1  0.64052560  0.50602878  0.87181681  1
  O2-  O190  1  0.64197893  0.83702013  0.37366755  1
  O2-  O191  1  0.64788710  0.83645964  0.87578409  1
  O2-  O192  1  0.97450422  0.16914038  0.37237631  1
  O2-  O193  1  0.97524671  0.17585343  0.87702035  1
  O2-  O194  1  0.97294262  0.50913088  0.37593234  1
  O2-  O195  1  0.97287677  0.50932945  0.87358340  1
  O2-  O196  1  0.98164570  0.83783072  0.37632768  1
  O2-  O197  1  0.98231909  0.83549807  0.87444610  1
  O2-  O198  1  0.18932033  0.00760965  0.37270729  1
  O2-  O199  1  0.19173518  0.00628397  0.87547390  1
  O2-  O200  1  0.19166226  0.33984919  0.37863571  1
  O2-  O201  1  0.19396590  0.33702065  0.87315191  1
  O2-  O202  1  0.19287473  0.67121417  0.37847978  1
  O2-  O203  1  0.19421288  0.67344218  0.87278549  1
  O2-  O204  1  0.52877782  0.00961892  0.37388511  1
  O2-  O205  1  0.52390658  0.00856649  0.87719817  1
  O2-  O206  1  0.52512275  0.33814106  0.37427080  1
  O2-  O207  1  0.52686774  0.33838808  0.87679532  1
  O2-  O208  1  0.52522776  0.67265415  0.37611602  1
  O2-  O209  1  0.52476336  0.66723584  0.87162080  1
  O2-  O210  1  0.85988224  0.00455477  0.37607642  1
  O2-  O211  1  0.86108060  0.00639676  0.87694095  1
  O2-  O212  1  0.86064164  0.33892179  0.37408213  1
  O2-  O213  1  0.85863817  0.33996957  0.87777675  1
  O2-  O214  1  0.85874711  0.67245602  0.37782092  1
  O2-  O215  1  0.85906528  0.67166941  0.87353585  1
  O2-  O216  1  0.23182129  0.09620773  0.01728227  1
  O2-  O217  1  0.23998803  0.09254462  0.52418500  1
  O2-  O218  1  0.23543668  0.43170823  0.01436289  1
  O2-  O219  1  0.23607462  0.42752646  0.52190452  1
  O2-  O220  1  0.23723027  0.75832116  0.02167510  1
  O2-  O221  1  0.23524613  0.76593668  0.51892073  1
  O2-  O222  1  0.57188176  0.09503159  0.02198068  1
  O2-  O223  1  0.57046804  0.09241363  0.52045212  1
  O2-  O224  1  0.56992131  0.43113155  0.02074029  1
  O2-  O225  1  0.57129006  0.43081935  0.51616989  1
  O2-  O226  1  0.57172206  0.76031710  0.02228561  1
  O2-  O227  1  0.57450389  0.75919717  0.51634929  1
  O2-  O228  1  0.90504577  0.09594481  0.02176842  1
  O2-  O229  1  0.90425867  0.09435940  0.51953478  1
  O2-  O230  1  0.90510207  0.42567763  0.02405541  1
  O2-  O231  1  0.90587189  0.42844941  0.52274636  1
  O2-  O232  1  0.90664594  0.75857992  0.02237686  1
  O2-  O233  1  0.90742945  0.76124938  0.52271066  1
  O2-  O234  1  0.26082005  0.26367363  0.23686899  1
  O2-  O235  1  0.25993642  0.25932247  0.72604928  1
  O2-  O236  1  0.26138219  0.59356758  0.23027482  1
  O2-  O237  1  0.26323889  0.59757082  0.72551976  1
  O2-  O238  1  0.25877973  0.92648773  0.23400812  1
  O2-  O239  1  0.26012491  0.93147257  0.73596225  1
  O2-  O240  1  0.59674329  0.26050711  0.22919471  1
  O2-  O241  1  0.59252186  0.25678703  0.73199838  1
  O2-  O242  1  0.59802105  0.59758688  0.23541302  1
  O2-  O243  1  0.59778583  0.59359516  0.72629573  1
  O2-  O244  1  0.59394008  0.92636144  0.22734511  1
  O2-  O245  1  0.59460423  0.92880849  0.73599886  1
  O2-  O246  1  0.92887957  0.25895061  0.22627841  1
  O2-  O247  1  0.92779517  0.25866902  0.73087231  1
  O2-  O248  1  0.92985678  0.59310438  0.22899395  1
  O2-  O249  1  0.93090345  0.59577725  0.72648219  1
  O2-  O250  1  0.92778555  0.92729127  0.22925789  1
  O2-  O251  1  0.92557276  0.92455188  0.72773810  1
  O2-  O252  1  0.09480120  0.23730502  0.26976576  1
  O2-  O253  1  0.09617851  0.23451632  0.76780484  1
  O2-  O254  1  0.09455983  0.57061827  0.27188718  1
  O2-  O255  1  0.09643775  0.57052175  0.77025714  1
  O2-  O256  1  0.09551546  0.90558095  0.26942240  1
  O2-  O257  1  0.09436474  0.90675105  0.77081924  1
  O2-  O258  1  0.42588712  0.23781942  0.27056675  1
  O2-  O259  1  0.42859791  0.23901724  0.76761141  1
  O2-  O260  1  0.42768663  0.57480003  0.27377894  1
  O2-  O261  1  0.42989655  0.57171464  0.76840673  1
  O2-  O262  1  0.42942810  0.90500006  0.27228767  1
  O2-  O263  1  0.42188231  0.91104576  0.77022996  1
  O2-  O264  1  0.76256221  0.23853151  0.27134238  1
  O2-  O265  1  0.76182442  0.23970967  0.77053629  1
  O2-  O266  1  0.76353966  0.57018302  0.27313552  1
  O2-  O267  1  0.76431531  0.57140508  0.77054096  1
  O2-  O268  1  0.75948352  0.90488772  0.26261369  1
  O2-  O269  1  0.75776787  0.90929095  0.76675228  1
  O2-  O270  1  0.06872158  0.06922807  0.48413870  1
  O2-  O271  1  0.06850782  0.06887372  0.97802667  1
  O2-  O272  1  0.06906879  0.40251788  0.47764408  1
  O2-  O273  1  0.07116170  0.40428986  0.97706990  1
  O2-  O274  1  0.07382563  0.73804660  0.47828529  1
  O2-  O275  1  0.07403980  0.73578048  0.97961689  1
  O2-  O276  1  0.40536217  0.07166055  0.47661914  1
  O2-  O277  1  0.40597421  0.07586221  0.97920518  1
  O2-  O278  1  0.40486834  0.40490553  0.47882812  1
  O2-  O279  1  0.40388502  0.40728604  0.97395394  1
  O2-  O280  1  0.40363654  0.74024174  0.48414420  1
  O2-  O281  1  0.40466092  0.73544155  0.98457778  1
  O2-  O282  1  0.73816974  0.07182509  0.47654974  1
  O2-  O283  1  0.73927482  0.07312618  0.97839001  1
  O2-  O284  1  0.73968760  0.40528037  0.47851926  1
  O2-  O285  1  0.73402495  0.40408118  0.98381758  1
  O2-  O286  1  0.73903226  0.73952343  0.48434854  1
  O2-  O287  1  0.73806667  0.73293091  0.98327646  1
  O2-  O288  1  0.09851436  0.23352846  0.48122777  1
  O2-  O289  1  0.09407593  0.23952656  0.98049566  1
  O2-  O290  1  0.09570026  0.56948403  0.48068536  1
  O2-  O291  1  0.09652026  0.57201827  0.97696186  1
  O2-  O292  1  0.09414623  0.90725844  0.47879272  1
  O2-  O293  1  0.09616968  0.90387609  0.98288939  1
  O2-  O294  1  0.42477573  0.23734577  0.47867420  1
  O2-  O295  1  0.43103654  0.23963750  0.98264700  1
  O2-  O296  1  0.43145064  0.57355844  0.47974066  1
  O2-  O297  1  0.42705161  0.57334403  0.97780309  1
  O2-  O298  1  0.42659247  0.90727189  0.47256922  1
  O2-  O299  1  0.42551381  0.90961641  0.98357816  1
  O2-  O300  1  0.76226511  0.23948295  0.47971941  1
  O2-  O301  1  0.76303864  0.23986431  0.97849840  1
  O2-  O302  1  0.76423242  0.57067781  0.47897099  1
  O2-  O303  1  0.76412619  0.56936017  0.97692168  1
  O2-  O304  1  0.75990951  0.90676532  0.48582129  1
  O2-  O305  1  0.75913556  0.90878415  0.98401252  1
  O2-  O306  1  0.06778489  0.06865630  0.26693914  1
  O2-  O307  1  0.06975996  0.07046384  0.77251134  1
  O2-  O308  1  0.06916281  0.40352021  0.27190133  1
  O2-  O309  1  0.06997757  0.40361523  0.77262007  1
  O2-  O310  1  0.07291243  0.73648266  0.27072749  1
  O2-  O311  1  0.07447106  0.73890946  0.77189917  1
  O2-  O312  1  0.40676551  0.07357218  0.27247030  1
  O2-  O313  1  0.40456500  0.07424904  0.77059087  1
  O2-  O314  1  0.40341403  0.40862188  0.27488719  1
  O2-  O315  1  0.40175430  0.40525806  0.77190003  1
  O2-  O316  1  0.40455766  0.73588577  0.26826956  1
  O2-  O317  1  0.40380563  0.73941887  0.76342220  1
  O2-  O318  1  0.73743903  0.07247567  0.27216353  1
  O2-  O319  1  0.73943904  0.07407851  0.77423388  1
  O2-  O320  1  0.73449905  0.40482938  0.26755140  1
  O2-  O321  1  0.73784819  0.40588713  0.77056731  1
  O2-  O322  1  0.73517751  0.73587515  0.26665841  1
  O2-  O323  1  0.74065785  0.73860586  0.76492741  1
  O2-  O324  1  0.23506617  0.09681221  0.22971235  1
  O2-  O325  1  0.23644036  0.09376088  0.73061414  1
  O2-  O326  1  0.23410112  0.43013627  0.23603620  1
  O2-  O327  1  0.23714236  0.43003272  0.72861382  1
  O2-  O328  1  0.23745022  0.75836550  0.22979412  1
  O2-  O329  1  0.23605597  0.76522798  0.72906257  1
  O2-  O330  1  0.57226106  0.09588149  0.22840470  1
  O2-  O331  1  0.57157285  0.09196458  0.72936289  1
  O2-  O332  1  0.57214996  0.43260292  0.23020023  1
  O2-  O333  1  0.56775418  0.42916951  0.73251116  1
  O2-  O334  1  0.57139666  0.76087505  0.22783155  1
  O2-  O335  1  0.57601418  0.75783876  0.73220636  1
  O2-  O336  1  0.90590009  0.09592875  0.22947167  1
  O2-  O337  1  0.90529820  0.09489432  0.72986275  1
  O2-  O338  1  0.90624388  0.42690634  0.22580887  1
  O2-  O339  1  0.90580140  0.42843349  0.72803963  1
  O2-  O340  1  0.90639171  0.75873800  0.22744692  1
  O2-  O341  1  0.90791778  0.76025948  0.72805391  1
  O2-  O342  1  0.25886294  0.26067115  0.01566045  1
  O2-  O343  1  0.26147239  0.26149332  0.52224403  1
  O2-  O344  1  0.26145389  0.59461131  0.02025823  1
  O2-  O345  1  0.26222047  0.59862283  0.52525474  1
  O2-  O346  1  0.25689369  0.92602334  0.01587738  1
  O2-  O347  1  0.26302393  0.93166468  0.51272825  1
  O2-  O348  1  0.59638614  0.26205634  0.02109359  1
  O2-  O349  1  0.59070448  0.25684130  0.51735847  1
  O2-  O350  1  0.59824313  0.59666958  0.01560837  1
  O2-  O351  1  0.59815087  0.59527122  0.52101149  1
  O2-  O352  1  0.59313565  0.92893911  0.01899162  1
  O2-  O353  1  0.59492303  0.92827588  0.51664589  1
  O2-  O354  1  0.92627522  0.25993874  0.02395965  1
  O2-  O355  1  0.92899362  0.25919055  0.51866644  1
  O2-  O356  1  0.92878828  0.59429622  0.02097061  1
  O2-  O357  1  0.93083553  0.59574289  0.52335225  1
  O2-  O358  1  0.92523184  0.92669181  0.02333856  1
  O2-  O359  1  0.92700661  0.92736812  0.52138767  1
