# generated using pymatgen
data_Sr7Ca15Pr50Mn72O216
_symmetry_space_group_name_H-M   'P 1'
_cell_length_a   16.55656770
_cell_length_b   16.60150925
_cell_length_c   15.58911061
_cell_angle_alpha   89.99550510
_cell_angle_beta   89.99950980
_cell_angle_gamma   89.99619164
_symmetry_Int_Tables_number   1
_chemical_formula_structural   Sr7Ca15Pr50Mn72O216
_chemical_formula_sum   'Sr7 Ca15 Pr50 Mn72 O216'
_cell_volume   4284.88545773
_cell_formula_units_Z   1
loop_
 _symmetry_equiv_pos_site_id
 _symmetry_equiv_pos_as_xyz
  1  'x, y, z'
loop_
 _atom_type_symbol
 _atom_type_oxidation_number
  Sr2+  2.0
  Ca2+  2.0
  Pr3+  3.0
  Mn3.30+  3.3
  O2-  -2.0
loop_
 _atom_site_type_symbol
 _atom_site_label
 _atom_site_symmetry_multiplicity
 _atom_site_fract_x
 _atom_site_fract_y
 _atom_site_fract_z
 _atom_site_occupancy
  Sr2+  Sr0  1  0.83508371  0.51267383  0.12503525  1
  Sr2+  Sr1  1  0.16657327  0.83941932  0.12486375  1
  Sr2+  Sr2  1  0.66645957  0.34167666  0.62594928  1
  Sr2+  Sr3  1  -0.00266103  0.67518237  0.12519829  1
  Sr2+  Sr4  1  0.66737536  0.32405849  0.87458201  1
  Sr2+  Sr5  1  0.33058914  0.34758747  0.62461722  1
  Sr2+  Sr6  1  0.83281633  0.49330257  0.37208628  1
  Ca2+  Ca7  1  0.83627396  0.18267631  0.62594693  1
  Ca2+  Ca8  1  0.17048835  0.51943016  0.12490681  1
  Ca2+  Ca9  1  0.66966371  0.65344049  0.37623620  1
  Ca2+  Ca10  1  0.82955076  0.81513494  0.37545557  1
  Ca2+  Ca11  1  0.16295672  0.15132647  0.37573433  1
  Ca2+  Ca12  1  0.33509107  0.98555926  0.87497125  1
  Ca2+  Ca13  1  0.66420726  0.01209797  0.12442935  1
  Ca2+  Ca14  1  0.82852152  0.81534290  0.87471048  1
  Ca2+  Ca15  1  0.17051433  0.51296880  0.62505090  1
  Ca2+  Ca16  1  0.66265499  0.67956746  0.62230384  1
  Ca2+  Ca17  1  0.16396703  0.15072778  0.87438521  1
  Ca2+  Ca18  1  0.49755976  0.81639517  0.37599878  1
  Ca2+  Ca19  1  0.16985372  0.84768480  0.62533183  1
  Ca2+  Ca20  1  0.32740083  0.68275380  0.12496425  1
  Ca2+  Ca21  1  0.67032817  0.65466627  0.87403532  1
  Pr3+  Pr22  1  1.00077281  0.65613278  0.87632071  1
  Pr3+  Pr23  1  0.17046872  0.17739387  0.12518953  1
  Pr3+  Pr24  1  0.49904403  0.15522907  0.37659692  1
  Pr3+  Pr25  1  0.67203199  0.98317028  0.37417821  1
  Pr3+  Pr26  1  1.00380650  0.31801247  0.87602267  1
  Pr3+  Pr27  1  0.83595727  0.17715881  0.12441898  1
  Pr3+  Pr28  1  -0.00249301  0.01538150  0.62496482  1
  Pr3+  Pr29  1  0.50637049  0.51417738  0.62496603  1
  Pr3+  Pr30  1  0.16376588  0.48869525  0.87502575  1
  Pr3+  Pr31  1  0.33555920  0.65660497  0.37362466  1
  Pr3+  Pr32  1  0.82831960  0.15444225  0.87317003  1
  Pr3+  Pr33  1  0.50106314  0.18061031  0.62510405  1
  Pr3+  Pr34  1  0.32998448  0.01069917  0.62618846  1
  Pr3+  Pr35  1  0.82965319  0.15448710  0.37667827  1
  Pr3+  Pr36  1  0.50555514  0.84430695  0.62371160  1
  Pr3+  Pr37  1  -0.00201647  0.34768032  0.12450684  1
  Pr3+  Pr38  1  -0.00392306  0.34613884  0.62537707  1
  Pr3+  Pr39  1  1.00039504  0.65499492  0.37333208  1
  Pr3+  Pr40  1  0.17043487  0.18049605  0.62469277  1
  Pr3+  Pr41  1  0.33661342  0.32075286  0.87369082  1
  Pr3+  Pr42  1  0.32866772  0.00945834  0.12333354  1
  Pr3+  Pr43  1  0.83803184  0.84070687  0.12540486  1
  Pr3+  Pr44  1  0.16671121  0.82265096  0.87428182  1
  Pr3+  Pr45  1  0.49775504  0.15235605  0.87329837  1
  Pr3+  Pr46  1  0.50419677  0.84755102  0.12649984  1
  Pr3+  Pr47  1  0.33671359  0.98471277  0.37528924  1
  Pr3+  Pr48  1  0.67245827  0.98421858  0.87591648  1
  Pr3+  Pr49  1  0.16155334  0.48979353  0.37513754  1
  Pr3+  Pr50  1  0.83154416  0.51243895  0.62467530  1
  Pr3+  Pr51  1  0.50206591  0.51516797  0.12484493  1
  Pr3+  Pr52  1  0.16404192  0.81999822  0.37574941  1
  Pr3+  Pr53  1  0.66461891  0.01281784  0.62536558  1
  Pr3+  Pr54  1  0.00035806  0.00722092  0.12505827  1
  Pr3+  Pr55  1  0.66739127  0.67713493  0.12696310  1
  Pr3+  Pr56  1  0.67074987  0.32303456  0.37493697  1
  Pr3+  Pr57  1  0.66525212  0.34835580  0.12383114  1
  Pr3+  Pr58  1  0.49798830  0.82075556  0.87470839  1
  Pr3+  Pr59  1  0.49844867  0.48794548  0.87506412  1
  Pr3+  Pr60  1  1.00135060  0.98718687  0.87424787  1
  Pr3+  Pr61  1  0.33420245  0.32063428  0.37607794  1
  Pr3+  Pr62  1  0.83365090  0.84310128  0.62444546  1
  Pr3+  Pr63  1  0.32773391  0.34979249  0.12549608  1
  Pr3+  Pr64  1  -0.00191176  0.67831945  0.62483973  1
  Pr3+  Pr65  1  0.50258486  0.17718988  0.12503620  1
  Pr3+  Pr66  1  0.33630790  0.65515999  0.87635091  1
  Pr3+  Pr67  1  1.00328574  0.31902515  0.37427494  1
  Pr3+  Pr68  1  0.49845200  0.48973324  0.37466248  1
  Pr3+  Pr69  1  1.00203489  0.98663897  0.37573571  1
  Pr3+  Pr70  1  0.83041165  0.48956903  0.87699234  1
  Pr3+  Pr71  1  0.33079201  0.67965782  0.62523914  1
  Mn3.30+  Mn72  1  0.16791912  -0.00059901  -0.00262267  1
  Mn3.30+  Mn73  1  0.16666683  -0.00042802  0.50057080  1
  Mn3.30+  Mn74  1  0.16754801  0.33331172  0.00003905  1
  Mn3.30+  Mn75  1  0.16649045  0.33412080  0.50014878  1
  Mn3.30+  Mn76  1  0.16852212  0.66755995  0.00099224  1
  Mn3.30+  Mn77  1  0.16667461  0.66693992  0.50256639  1
  Mn3.30+  Mn78  1  0.50066707  -0.00041510  -0.00011347  1
  Mn3.30+  Mn79  1  0.50099663  -0.00212788  0.49853918  1
  Mn3.30+  Mn80  1  0.49854640  0.33263725  0.00017141  1
  Mn3.30+  Mn81  1  0.50012376  0.33494228  0.50032214  1
  Mn3.30+  Mn82  1  0.50003602  0.66831767  0.00134281  1
  Mn3.30+  Mn83  1  0.50217325  0.66751552  0.49762923  1
  Mn3.30+  Mn84  1  0.83206381  -0.00268494  0.00104678  1
  Mn3.30+  Mn85  1  0.83323637  -0.00064804  0.50054378  1
  Mn3.30+  Mn86  1  0.83373550  0.33312324  -0.00023814  1
  Mn3.30+  Mn87  1  0.83380271  0.33419140  0.50013697  1
  Mn3.30+  Mn88  1  0.83200336  0.66789385  -0.00193522  1
  Mn3.30+  Mn89  1  0.82935096  0.66710321  0.50052345  1
  Mn3.30+  Mn90  1  0.00170854  0.16458347  0.25012451  1
  Mn3.30+  Mn91  1  0.00028915  0.16693243  0.75038432  1
  Mn3.30+  Mn92  1  0.00024535  0.50091560  0.24864257  1
  Mn3.30+  Mn93  1  0.00103643  0.50059697  0.74893146  1
  Mn3.30+  Mn94  1  -0.00156235  0.83217470  0.25145476  1
  Mn3.30+  Mn95  1  -0.00034063  0.83343251  0.74914611  1
  Mn3.30+  Mn96  1  0.33271883  0.16554116  0.25148139  1
  Mn3.30+  Mn97  1  0.33066403  0.16521065  0.75206642  1
  Mn3.30+  Mn98  1  0.33047881  0.50267485  0.24936565  1
  Mn3.30+  Mn99  1  0.33200587  0.50076609  0.74862964  1
  Mn3.30+  Mn100  1  0.33564000  0.83226692  0.25026174  1
  Mn3.30+  Mn101  1  0.33332445  0.83425125  0.74928290  1
  Mn3.30+  Mn102  1  0.66691737  0.16497532  0.24874185  1
  Mn3.30+  Mn103  1  0.66705684  0.16715391  0.74933759  1
  Mn3.30+  Mn104  1  0.66647990  0.50235870  0.25036590  1
  Mn3.30+  Mn105  1  0.66699076  0.50206519  0.75014456  1
  Mn3.30+  Mn106  1  0.66739629  0.83187711  0.25212150  1
  Mn3.30+  Mn107  1  0.66854506  0.83002804  0.75038789  1
  Mn3.30+  Mn108  1  0.16752450  -0.00077237  0.25103095  1
  Mn3.30+  Mn109  1  0.16720368  -0.00036952  0.75075042  1
  Mn3.30+  Mn110  1  0.16665048  0.33386604  0.24974655  1
  Mn3.30+  Mn111  1  0.16711111  0.33365118  0.75022408  1
  Mn3.30+  Mn112  1  0.16852823  0.66708078  0.24821141  1
  Mn3.30+  Mn113  1  0.16689190  0.66687961  0.74889446  1
  Mn3.30+  Mn114  1  0.50217177  -0.00107347  0.25112797  1
  Mn3.30+  Mn115  1  0.49955825  -0.00131708  0.75042089  1
  Mn3.30+  Mn116  1  0.49897167  0.33359929  0.24956111  1
  Mn3.30+  Mn117  1  0.49969312  0.33389333  0.74950750  1
  Mn3.30+  Mn118  1  0.49929170  0.66878804  0.24990487  1
  Mn3.30+  Mn119  1  0.50332235  0.66684487  0.75085321  1
  Mn3.30+  Mn120  1  0.83176723  -0.00265036  0.24936077  1
  Mn3.30+  Mn121  1  0.83356946  -0.00084568  0.74891200  1
  Mn3.30+  Mn122  1  0.83426537  0.33377171  0.25021455  1
  Mn3.30+  Mn123  1  0.83329919  0.33359298  0.74954089  1
  Mn3.30+  Mn124  1  0.83143582  0.66735811  0.25220432  1
  Mn3.30+  Mn125  1  0.82996159  0.66771428  0.74892454  1
  Mn3.30+  Mn126  1  0.00194574  0.16434081  -0.00025437  1
  Mn3.30+  Mn127  1  -0.00020703  0.16713917  0.49986812  1
  Mn3.30+  Mn128  1  0.00072114  0.50123361  0.00085003  1
  Mn3.30+  Mn129  1  0.00067142  0.50062310  0.50161722  1
  Mn3.30+  Mn130  1  -0.00158061  0.83241084  -0.00208217  1
  Mn3.30+  Mn131  1  -0.00020528  0.83327226  0.50147128  1
  Mn3.30+  Mn132  1  0.33258018  0.16485566  -0.00242253  1
  Mn3.30+  Mn133  1  0.33108814  0.16615554  0.49893799  1
  Mn3.30+  Mn134  1  0.33109622  0.50224660  0.00161842  1
  Mn3.30+  Mn135  1  0.33164990  0.50136284  0.50076241  1
  Mn3.30+  Mn136  1  0.33424611  0.83386018  -0.00025793  1
  Mn3.30+  Mn137  1  0.33419742  0.83258966  0.50061216  1
  Mn3.30+  Mn138  1  0.66658509  0.16510480  0.00025571  1
  Mn3.30+  Mn139  1  0.66712305  0.16655754  0.50125550  1
  Mn3.30+  Mn140  1  0.66622736  0.50291693  -0.00041526  1
  Mn3.30+  Mn141  1  0.66715869  0.50133111  0.49986345  1
  Mn3.30+  Mn142  1  0.66873724  0.83228102  0.00060886  1
  Mn3.30+  Mn143  1  0.66707373  0.82954762  0.49694754  1
  O2-  O144  1  0.02734773  0.15757499  0.12498514  1
  O2-  O145  1  0.02684923  0.16503307  0.62507512  1
  O2-  O146  1  0.02700627  0.49542441  0.12404145  1
  O2-  O147  1  0.02871317  0.49412536  0.62720280  1
  O2-  O148  1  0.01571892  0.83481489  0.12355061  1
  O2-  O149  1  0.02743495  0.82683130  0.62547935  1
  O2-  O150  1  0.35861004  0.15888827  0.12502470  1
  O2-  O151  1  0.35718573  0.15928515  0.62496290  1
  O2-  O152  1  0.35936073  0.49447008  0.12540794  1
  O2-  O153  1  0.36094905  0.50237580  0.62295954  1
  O2-  O154  1  0.35896000  0.83083267  0.12738130  1
  O2-  O155  1  0.36102157  0.82871105  0.62492959  1
  O2-  O156  1  0.69180457  0.15854390  0.12500494  1
  O2-  O157  1  0.69242546  0.15999216  0.62458241  1
  O2-  O158  1  0.68431630  0.49707323  0.12491574  1
  O2-  O159  1  0.68803035  0.49488440  0.62517055  1
  O2-  O160  1  0.69500851  0.82425363  0.12645601  1
  O2-  O161  1  0.69018361  0.82631781  0.62385720  1
  O2-  O162  1  0.14092471  0.32291588  0.12457886  1
  O2-  O163  1  0.13929304  0.32560573  0.62505288  1
  O2-  O164  1  0.14739428  0.66551757  0.12342860  1
  O2-  O165  1  0.14116184  0.65673567  0.62672944  1
  O2-  O166  1  0.14533509  0.99725027  0.12507878  1
  O2-  O167  1  0.14191383  0.99404302  0.62571739  1
  O2-  O168  1  0.47245077  0.32666038  0.12489775  1
  O2-  O169  1  0.48035889  0.32976174  0.62409645  1
  O2-  O170  1  0.46964242  0.66264306  0.12540603  1
  O2-  O171  1  0.47493914  0.66251992  0.62469809  1
  O2-  O172  1  0.47318007  0.99654913  0.12698020  1
  O2-  O173  1  0.47461948  0.99298212  0.62313304  1
  O2-  O174  1  0.80992763  0.32545484  0.12542252  1
  O2-  O175  1  0.81693818  0.32881834  0.62539477  1
  O2-  O176  1  0.81222170  0.67238727  0.12557805  1
  O2-  O177  1  0.80493886  0.66171789  0.62528090  1
  O2-  O178  1  0.80510237  0.98855961  0.12580071  1
  O2-  O179  1  0.80704791  0.99039934  0.62367383  1
  O2-  O180  1  0.30556978  0.17236727  0.37508522  1
  O2-  O181  1  0.30424928  0.17580008  0.87503800  1
  O2-  O182  1  0.30530309  0.50844454  0.37458911  1
  O2-  O183  1  0.30801728  0.50643892  0.87668409  1
  O2-  O184  1  0.30831388  0.83641913  0.37685777  1
  O2-  O185  1  0.31126104  0.83760267  0.87149729  1
  O2-  O186  1  0.64314038  0.17316645  0.37454194  1
  O2-  O187  1  0.64361148  0.16620847  0.87567856  1
  O2-  O188  1  0.64260001  0.50443688  0.37384047  1
  O2-  O189  1  0.64241493  0.50834286  0.87598995  1
  O2-  O190  1  0.63658614  0.84089851  0.37355736  1
  O2-  O191  1  0.64030188  0.84022665  0.87611085  1
  O2-  O192  1  0.97294969  0.17006097  0.37467529  1
  O2-  O193  1  0.97245449  0.16892874  0.87550121  1
  O2-  O194  1  0.98373192  0.50489155  0.37551664  1
  O2-  O195  1  0.97578805  0.50525748  0.87299783  1
  O2-  O196  1  0.97387161  0.83862328  0.37939162  1
  O2-  O197  1  0.97194003  0.83894807  0.87125585  1
  O2-  O198  1  0.19166347  0.00563622  0.37579612  1
  O2-  O199  1  0.19248840  0.00532661  0.87308110  1
  O2-  O200  1  0.19227658  0.34401394  0.37412410  1
  O2-  O201  1  0.19429139  0.34319627  0.87651697  1
  O2-  O202  1  0.19050916  0.67075503  0.37697233  1
  O2-  O203  1  0.19205772  0.67246566  0.87329953  1
  O2-  O204  1  0.52916125  0.00936066  0.37557635  1
  O2-  O205  1  0.52849568  0.00453543  0.87466284  1
  O2-  O206  1  0.52513680  0.33880120  0.37380894  1
  O2-  O207  1  0.51656995  0.33794601  0.87677419  1
  O2-  O208  1  0.52624781  0.67035402  0.37405932  1
  O2-  O209  1  0.52734253  0.67278517  0.87632536  1
  O2-  O210  1  0.85859086  0.00856225  0.37741939  1
  O2-  O211  1  0.85781675  0.00854350  0.87371298  1
  O2-  O212  1  0.85766667  0.33400413  0.37380812  1
  O2-  O213  1  0.85876498  0.33885239  0.87522731  1
  O2-  O214  1  0.85706963  0.66974899  0.37821446  1
  O2-  O215  1  0.85722421  0.66914240  0.87101939  1
  O2-  O216  1  0.24003930  0.09515757  0.02148955  1
  O2-  O217  1  0.23877538  0.09240634  0.52247336  1
  O2-  O218  1  0.23627417  0.43064172  0.02353203  1
  O2-  O219  1  0.23492056  0.43324771  0.51812795  1
  O2-  O220  1  0.24111332  0.76159445  0.01200686  1
  O2-  O221  1  0.23552448  0.76167538  0.52227647  1
  O2-  O222  1  0.56810737  0.09552034  0.01784372  1
  O2-  O223  1  0.57141433  0.09404940  0.52191618  1
  O2-  O224  1  0.57083000  0.42830549  0.01875861  1
  O2-  O225  1  0.56995874  0.43170580  0.51439961  1
  O2-  O226  1  0.57197583  0.76304960  0.02320836  1
  O2-  O227  1  0.57042075  0.76197831  0.51874489  1
  O2-  O228  1  0.90426145  0.09083879  0.02292525  1
  O2-  O229  1  0.90457312  0.09783877  0.52320355  1
  O2-  O230  1  0.91006976  0.42417771  0.01774860  1
  O2-  O231  1  0.90851981  0.42869292  0.52226982  1
  O2-  O232  1  0.90340513  0.76230533  0.01249848  1
  O2-  O233  1  0.90526490  0.75879417  0.52354191  1
  O2-  O234  1  0.26153846  0.26416841  0.22962531  1
  O2-  O235  1  0.25850065  0.26088276  0.73072195  1
  O2-  O236  1  0.26435419  0.59836730  0.23072073  1
  O2-  O237  1  0.26432363  0.59720463  0.73346339  1
  O2-  O238  1  0.26655415  0.92940216  0.23592947  1
  O2-  O239  1  0.26113186  0.92786313  0.72965849  1
  O2-  O240  1  0.59612465  0.26056905  0.22819346  1
  O2-  O241  1  0.58941971  0.25545952  0.73311782  1
  O2-  O242  1  0.58852323  0.59409845  0.22757351  1
  O2-  O243  1  0.59471199  0.59619128  0.72670011  1
  O2-  O244  1  0.59787182  0.92935685  0.22705036  1
  O2-  O245  1  0.59771907  0.92676862  0.72920170  1
  O2-  O246  1  0.93078969  0.25763106  0.22796825  1
  O2-  O247  1  0.93228672  0.26391842  0.73549878  1
  O2-  O248  1  0.92625003  0.59425435  0.23856123  1
  O2-  O249  1  0.92714460  0.59452631  0.72792956  1
  O2-  O250  1  0.92674916  0.92914880  0.23187766  1
  O2-  O251  1  0.92852402  0.92851812  0.72691765  1
  O2-  O252  1  0.09738914  0.23791287  0.27253608  1
  O2-  O253  1  0.09537903  0.23682104  0.77366105  1
  O2-  O254  1  0.09485777  0.57479929  0.26864242  1
  O2-  O255  1  0.09276785  0.57458143  0.77406188  1
  O2-  O256  1  0.09251835  0.90660576  0.27246148  1
  O2-  O257  1  0.09412894  0.90792343  0.77289021  1
  O2-  O258  1  0.42723125  0.23824769  0.27166886  1
  O2-  O259  1  0.42389951  0.23685225  0.76886069  1
  O2-  O260  1  0.42721939  0.57285873  0.27165159  1
  O2-  O261  1  0.43012223  0.57355824  0.77181090  1
  O2-  O262  1  0.43205081  0.90496810  0.27318492  1
  O2-  O263  1  0.43164191  0.90488748  0.76836179  1
  O2-  O264  1  0.76219887  0.23753768  0.26900888  1
  O2-  O265  1  0.76319097  0.23863196  0.76742754  1
  O2-  O266  1  0.75613849  0.57631643  0.26363654  1
  O2-  O267  1  0.76406851  0.57001708  0.76759705  1
  O2-  O268  1  0.76304090  0.90237034  0.27472828  1
  O2-  O269  1  0.76191633  0.90162007  0.77041126  1
  O2-  O270  1  0.06763029  0.07099594  0.48337190  1
  O2-  O271  1  0.07043151  0.06997660  0.98056364  1
  O2-  O272  1  0.07186962  0.40310627  0.47966076  1
  O2-  O273  1  0.07346178  0.40381159  0.97879702  1
  O2-  O274  1  0.07121434  0.73864952  0.47981483  1
  O2-  O275  1  0.07457313  0.74172208  0.97646622  1
  O2-  O276  1  0.40740300  0.07145980  0.47866329  1
  O2-  O277  1  0.40354571  0.07155260  0.97625527  1
  O2-  O278  1  0.40374646  0.40920410  0.47568043  1
  O2-  O279  1  0.40165011  0.40633128  0.98176436  1
  O2-  O280  1  0.40337474  0.73686420  0.48273381  1
  O2-  O281  1  0.40868373  0.74076217  0.97713953  1
  O2-  O282  1  0.73627003  0.07117157  0.47950583  1
  O2-  O283  1  0.74058071  0.07024797  0.97933337  1
  O2-  O284  1  0.73773693  0.40516601  0.48136271  1
  O2-  O285  1  0.74098603  0.40817392  0.98477663  1
  O2-  O286  1  0.73569495  0.73693315  0.47802886  1
  O2-  O287  1  0.73437415  0.73575211  0.98075919  1
  O2-  O288  1  0.09480269  0.23674275  0.47641392  1
  O2-  O289  1  0.09800252  0.23768791  0.97739365  1
  O2-  O290  1  0.09321883  0.57466637  0.48011717  1
  O2-  O291  1  0.09424562  0.57472349  0.97825771  1
  O2-  O292  1  0.09499300  0.90716963  0.47832102  1
  O2-  O293  1  0.09138525  0.90673661  0.97626393  1
  O2-  O294  1  0.42551104  0.23965886  0.48018322  1
  O2-  O295  1  0.42668546  0.23572511  0.97899699  1
  O2-  O296  1  0.42862695  0.57380410  0.47779119  1
  O2-  O297  1  0.42838632  0.57208940  0.97857785  1
  O2-  O298  1  0.43165052  0.90517303  0.47694062  1
  O2-  O299  1  0.43220652  0.90454185  0.98321500  1
  O2-  O300  1  0.75937367  0.23930785  0.47905728  1
  O2-  O301  1  0.76444890  0.23580634  0.98375386  1
  O2-  O302  1  0.76153860  0.57044477  0.48600588  1
  O2-  O303  1  0.76081689  0.57432849  0.98184397  1
  O2-  O304  1  0.76091457  0.90132294  0.47831357  1
  O2-  O305  1  0.76365080  0.90216346  0.97673883  1
  O2-  O306  1  0.06999717  0.07037978  0.26932725  1
  O2-  O307  1  0.06902228  0.07025606  0.76660266  1
  O2-  O308  1  0.07302621  0.40325932  0.26913864  1
  O2-  O309  1  0.07184318  0.40330049  0.77245801  1
  O2-  O310  1  0.07455067  0.74033430  0.27219319  1
  O2-  O311  1  0.07180294  0.73955025  0.77098510  1
  O2-  O312  1  0.40728371  0.07126969  0.27370441  1
  O2-  O313  1  0.40333353  0.07186874  0.77205680  1
  O2-  O314  1  0.40118395  0.40739765  0.27080667  1
  O2-  O315  1  0.40396856  0.40842365  0.77057423  1
  O2-  O316  1  0.40760142  0.74025552  0.27245742  1
  O2-  O317  1  0.40648350  0.73771772  0.76966136  1
  O2-  O318  1  0.74067104  0.07091613  0.27212583  1
  O2-  O319  1  0.73789847  0.06953533  0.76890082  1
  O2-  O320  1  0.73519393  0.40337662  0.26419388  1
  O2-  O321  1  0.74342667  0.41030643  0.76967908  1
  O2-  O322  1  0.73436896  0.73707638  0.27159809  1
  O2-  O323  1  0.73649845  0.73727653  0.77156163  1
  O2-  O324  1  0.24070739  0.09363504  0.22880602  1
  O2-  O325  1  0.23822932  0.09353615  0.72663068  1
  O2-  O326  1  0.23601868  0.43102413  0.22720444  1
  O2-  O327  1  0.23399482  0.43204252  0.73221523  1
  O2-  O328  1  0.24020011  0.76159295  0.23798835  1
  O2-  O329  1  0.23724832  0.76104026  0.72780385  1
  O2-  O330  1  0.56940159  0.09639983  0.23245471  1
  O2-  O331  1  0.56964494  0.09273535  0.72828407  1
  O2-  O332  1  0.57000047  0.42806252  0.22963170  1
  O2-  O333  1  0.57136683  0.43272772  0.73665035  1
  O2-  O334  1  0.57332914  0.76040560  0.22517600  1
  O2-  O335  1  0.56940458  0.76431615  0.73258214  1
  O2-  O336  1  0.90405031  0.09141442  0.22791923  1
  O2-  O337  1  0.90529808  0.09711061  0.72715003  1
  O2-  O338  1  0.91057236  0.42290666  0.22980503  1
  O2-  O339  1  0.90692851  0.42886967  0.72978039  1
  O2-  O340  1  0.90392810  0.76215795  0.23732768  1
  O2-  O341  1  0.90527651  0.75841539  0.72592260  1
  O2-  O342  1  0.26310976  0.26301597  0.02182613  1
  O2-  O343  1  0.25758415  0.26242116  0.51790152  1
  O2-  O344  1  0.26513564  0.59765725  0.01810165  1
  O2-  O345  1  0.26357544  0.59833601  0.51824101  1
  O2-  O346  1  0.26340548  0.92852546  0.01508311  1
  O2-  O347  1  0.26572555  0.92859097  0.51756573  1
  O2-  O348  1  0.59369584  0.25956642  0.02314383  1
  O2-  O349  1  0.59244548  0.25615938  0.51597172  1
  O2-  O350  1  0.59007281  0.59585472  0.02404246  1
  O2-  O351  1  0.59310764  0.59424646  0.52125839  1
  O2-  O352  1  0.59848164  0.92794726  0.02247017  1
  O2-  O353  1  0.59712475  0.92786067  0.52093065  1
  O2-  O354  1  0.93111056  0.25833238  0.02060337  1
  O2-  O355  1  0.93207815  0.26335571  0.51541049  1
  O2-  O356  1  0.92633237  0.59495039  0.01127757  1
  O2-  O357  1  0.92696590  0.59485587  0.52153154  1
  O2-  O358  1  0.92693035  0.92896790  0.01859960  1
  O2-  O359  1  0.92960551  0.92765907  0.52292862  1
