# generated using pymatgen
data_Sr7Ca15Pr50Mn72O216
_symmetry_space_group_name_H-M   'P 1'
_cell_length_a   16.55899645
_cell_length_b   16.60479594
_cell_length_c   15.59527687
_cell_angle_alpha   90.00492716
_cell_angle_beta   90.00704420
_cell_angle_gamma   90.00601349
_symmetry_Int_Tables_number   1
_chemical_formula_structural   Sr7Ca15Pr50Mn72O216
_chemical_formula_sum   'Sr7 Ca15 Pr50 Mn72 O216'
_cell_volume   4288.05787195
_cell_formula_units_Z   1
loop_
 _symmetry_equiv_pos_site_id
 _symmetry_equiv_pos_as_xyz
  1  'x, y, z'
loop_
 _atom_type_symbol
 _atom_type_oxidation_number
  Sr2+  2.0
  Ca2+  2.0
  Pr3+  3.0
  Mn3.30+  3.3
  O2-  -2.0
loop_
 _atom_site_type_symbol
 _atom_site_label
 _atom_site_symmetry_multiplicity
 _atom_site_fract_x
 _atom_site_fract_y
 _atom_site_fract_z
 _atom_site_occupancy
  Sr2+  Sr0  1  0.16802788  0.17392782  0.62746645  1
  Sr2+  Sr1  1  0.83354355  0.82244680  0.37667942  1
  Sr2+  Sr2  1  0.83080912  0.82181697  0.87315709  1
  Sr2+  Sr3  1  -0.00106172  0.67638491  0.12586033  1
  Sr2+  Sr4  1  0.83562619  0.51131063  0.62347658  1
  Sr2+  Sr5  1  0.49885260  0.15519551  0.87484507  1
  Sr2+  Sr6  1  -0.00568691  0.67757534  0.62439997  1
  Ca2+  Ca7  1  0.15691894  0.81586783  0.37476816  1
  Ca2+  Ca8  1  0.83380568  0.84260879  0.62540539  1
  Ca2+  Ca9  1  0.83075482  0.14976767  0.87476270  1
  Ca2+  Ca10  1  0.16271949  0.15088692  0.87644198  1
  Ca2+  Ca11  1  0.32837501  0.01648497  0.62678289  1
  Ca2+  Ca12  1  0.66890728  0.68007294  0.62675659  1
  Ca2+  Ca13  1  0.16962358  0.18201988  0.12162837  1
  Ca2+  Ca14  1  0.83672383  0.49273361  0.37633540  1
  Ca2+  Ca15  1  0.32922728  0.34780803  0.12283669  1
  Ca2+  Ca16  1  0.67117118  0.65453164  0.87136268  1
  Ca2+  Ca17  1  0.99854512  0.65513263  0.37767308  1
  Ca2+  Ca18  1  0.16226688  0.48560151  0.87558974  1
  Ca2+  Ca19  1  0.16558386  0.84730149  0.12623479  1
  Ca2+  Ca20  1  0.00025572  0.01172706  0.12367480  1
  Ca2+  Ca21  1  0.66707423  0.01025429  0.62613449  1
  Pr3+  Pr22  1  0.33499291  0.65469547  0.87482911  1
  Pr3+  Pr23  1  0.49720034  0.48712058  0.37535927  1
  Pr3+  Pr24  1  0.67263723  0.31620567  0.87431977  1
  Pr3+  Pr25  1  0.16982637  0.51317519  0.12403214  1
  Pr3+  Pr26  1  0.50742232  0.51621907  0.62572571  1
  Pr3+  Pr27  1  0.33352762  0.65436059  0.37544335  1
  Pr3+  Pr28  1  0.49873453  0.82326381  0.87485023  1
  Pr3+  Pr29  1  0.49875517  0.48852424  0.87463469  1
  Pr3+  Pr30  1  0.66526878  0.34636598  0.12340348  1
  Pr3+  Pr31  1  -0.00231876  0.34570829  0.62492596  1
  Pr3+  Pr32  1  0.32913525  0.68010471  0.62482769  1
  Pr3+  Pr33  1  0.33600245  0.32065970  0.37295771  1
  Pr3+  Pr34  1  0.32550958  0.68378181  0.12540454  1
  Pr3+  Pr35  1  0.16886479  0.84836032  0.62355819  1
  Pr3+  Pr36  1  0.16730951  0.51300587  0.62605929  1
  Pr3+  Pr37  1  0.50048993  0.51253014  0.12440684  1
  Pr3+  Pr38  1  1.00053547  0.98814289  0.87550035  1
  Pr3+  Pr39  1  0.50183652  0.17960091  0.12277713  1
  Pr3+  Pr40  1  0.67114427  0.98842113  0.87285259  1
  Pr3+  Pr41  1  0.67339743  0.65214009  0.37663357  1
  Pr3+  Pr42  1  0.16304345  0.15406365  0.37382822  1
  Pr3+  Pr43  1  0.67207032  0.32217478  0.37529373  1
  Pr3+  Pr44  1  0.32597176  0.01417059  0.12423206  1
  Pr3+  Pr45  1  0.83264838  0.15256926  0.37515788  1
  Pr3+  Pr46  1  1.00599563  0.31853418  0.87553580  1
  Pr3+  Pr47  1  0.33317374  0.31961561  0.87677626  1
  Pr3+  Pr48  1  0.16282620  0.48896649  0.37484692  1
  Pr3+  Pr49  1  0.66622199  0.67909406  0.12332227  1
  Pr3+  Pr50  1  0.84039545  0.84678282  0.12526589  1
  Pr3+  Pr51  1  1.00157697  0.65286866  0.87399042  1
  Pr3+  Pr52  1  0.83830453  0.17674519  0.62679596  1
  Pr3+  Pr53  1  1.00454285  0.98311435  0.37427582  1
  Pr3+  Pr54  1  0.50160068  0.17626469  0.62729448  1
  Pr3+  Pr55  1  0.49718851  0.15328969  0.37503457  1
  Pr3+  Pr56  1  0.66585458  0.34564847  0.62647991  1
  Pr3+  Pr57  1  0.00010393  0.34535115  0.12496882  1
  Pr3+  Pr58  1  0.16100830  0.82401188  0.87523778  1
  Pr3+  Pr59  1  1.00183141  0.32344328  0.37449448  1
  Pr3+  Pr60  1  0.49771738  0.82019304  0.37554101  1
  Pr3+  Pr61  1  0.33256857  0.98748281  0.37710539  1
  Pr3+  Pr62  1  0.83998056  0.17704390  0.12313448  1
  Pr3+  Pr63  1  0.83844529  0.51427637  0.12587362  1
  Pr3+  Pr64  1  0.33032938  0.34366962  0.62672761  1
  Pr3+  Pr65  1  0.50042177  0.84647889  0.12572503  1
  Pr3+  Pr66  1  0.67078152  0.98522300  0.37677395  1
  Pr3+  Pr67  1  0.66585283  0.00999716  0.12489426  1
  Pr3+  Pr68  1  -0.00338640  0.00869296  0.62542792  1
  Pr3+  Pr69  1  0.33419852  0.99144044  0.87288593  1
  Pr3+  Pr70  1  0.83194361  0.49198966  0.87400899  1
  Pr3+  Pr71  1  0.50386303  0.84874666  0.62479638  1
  Mn3.30+  Mn72  1  0.16488339  0.00139667  0.00197802  1
  Mn3.30+  Mn73  1  0.16792363  -0.00056973  0.49948829  1
  Mn3.30+  Mn74  1  0.16823321  0.33236100  -0.00019843  1
  Mn3.30+  Mn75  1  0.16752014  0.33246471  0.50076564  1
  Mn3.30+  Mn76  1  0.16591529  0.66821772  -0.00036525  1
  Mn3.30+  Mn77  1  0.16329562  0.66824046  0.49968146  1
  Mn3.30+  Mn78  1  0.49882506  0.00034333  -0.00021534  1
  Mn3.30+  Mn79  1  0.49988246  0.00034370  0.50217654  1
  Mn3.30+  Mn80  1  0.49871469  0.33321362  0.00008425  1
  Mn3.30+  Mn81  1  0.50078232  0.33289752  0.50051175  1
  Mn3.30+  Mn82  1  0.49977013  0.66768718  -0.00090991  1
  Mn3.30+  Mn83  1  0.50193517  0.66799584  0.50101792  1
  Mn3.30+  Mn84  1  0.83525374  0.00039659  0.00020406  1
  Mn3.30+  Mn85  1  0.83254315  -0.00311618  0.50168640  1
  Mn3.30+  Mn86  1  0.83504416  0.33237319  -0.00087396  1
  Mn3.30+  Mn87  1  0.83392066  0.33440882  0.49927533  1
  Mn3.30+  Mn88  1  0.83253707  0.66772902  -0.00165678  1
  Mn3.30+  Mn89  1  0.83384386  0.66717826  0.50074444  1
  Mn3.30+  Mn90  1  0.00265421  0.16540435  0.24697316  1
  Mn3.30+  Mn91  1  0.00072085  0.16528494  0.75247851  1
  Mn3.30+  Mn92  1  0.00029271  0.50181517  0.25142067  1
  Mn3.30+  Mn93  1  0.00006546  0.49954097  0.75030789  1
  Mn3.30+  Mn94  1  0.00265812  0.83126113  0.24948958  1
  Mn3.30+  Mn95  1  -0.00314632  0.83229766  0.74916594  1
  Mn3.30+  Mn96  1  0.33082653  0.16818273  0.24746287  1
  Mn3.30+  Mn97  1  0.33197373  0.16572233  0.75188953  1
  Mn3.30+  Mn98  1  0.33277277  0.49984823  0.24879796  1
  Mn3.30+  Mn99  1  0.33248551  0.49998179  0.75140775  1
  Mn3.30+  Mn100  1  0.32777315  0.83454190  0.25268012  1
  Mn3.30+  Mn101  1  0.33277387  0.83543182  0.74861391  1
  Mn3.30+  Mn102  1  0.66746387  0.16644770  0.24954080  1
  Mn3.30+  Mn103  1  0.66944938  0.16380516  0.74931345  1
  Mn3.30+  Mn104  1  0.66847345  0.49983095  0.24990442  1
  Mn3.30+  Mn105  1  0.66757963  0.50274314  0.75039557  1
  Mn3.30+  Mn106  1  0.66772391  0.83216688  0.25007629  1
  Mn3.30+  Mn107  1  0.66809594  0.83176197  0.74781373  1
  Mn3.30+  Mn108  1  0.16467880  -0.00122644  0.24748061  1
  Mn3.30+  Mn109  1  0.16750208  0.00175726  0.75063780  1
  Mn3.30+  Mn110  1  0.16926338  0.33268770  0.24787757  1
  Mn3.30+  Mn111  1  0.16635954  0.33208908  0.75100621  1
  Mn3.30+  Mn112  1  0.16365960  0.66919887  0.25108453  1
  Mn3.30+  Mn113  1  0.16536598  0.66702840  0.75012273  1
  Mn3.30+  Mn114  1  0.49815123  -0.00017187  0.25063490  1
  Mn3.30+  Mn115  1  0.50052674  0.00083612  0.74819453  1
  Mn3.30+  Mn116  1  0.49978057  0.33338111  0.24783098  1
  Mn3.30+  Mn117  1  0.49975615  0.33279314  0.75170182  1
  Mn3.30+  Mn118  1  0.49935460  0.66685487  0.24966674  1
  Mn3.30+  Mn119  1  0.50255356  0.66892909  0.75081857  1
  Mn3.30+  Mn120  1  0.83612987  -0.00068266  0.24968144  1
  Mn3.30+  Mn121  1  0.83201071  -0.00192413  0.74840578  1
  Mn3.30+  Mn122  1  0.83418150  0.33420075  0.24963610  1
  Mn3.30+  Mn123  1  0.83517858  0.33216766  0.75189497  1
  Mn3.30+  Mn124  1  0.83525192  0.66715276  0.25247027  1
  Mn3.30+  Mn125  1  0.83140021  0.66766249  0.74784495  1
  Mn3.30+  Mn126  1  0.00282067  0.16481858  -0.00008907  1
  Mn3.30+  Mn127  1  0.00036492  0.16585932  0.50011863  1
  Mn3.30+  Mn128  1  0.00179775  0.49956682  -0.00051657  1
  Mn3.30+  Mn129  1  -0.00124648  0.50175901  0.49855354  1
  Mn3.30+  Mn130  1  0.00024507  0.83310331  0.00203964  1
  Mn3.30+  Mn131  1  -0.00105942  0.83065912  0.50003198  1
  Mn3.30+  Mn132  1  0.33059348  0.16778234  0.00017839  1
  Mn3.30+  Mn133  1  0.33237572  0.16583685  0.50038755  1
  Mn3.30+  Mn134  1  0.33121598  0.49957809  -0.00188258  1
  Mn3.30+  Mn135  1  0.33406599  0.49996385  0.50165573  1
  Mn3.30+  Mn136  1  0.33010107  0.83566711  -0.00001756  1
  Mn3.30+  Mn137  1  0.33098600  0.83443709  0.49911689  1
  Mn3.30+  Mn138  1  0.66943841  0.16481808  -0.00063321  1
  Mn3.30+  Mn139  1  0.66724600  0.16533055  0.50121572  1
  Mn3.30+  Mn140  1  0.66694403  0.50135959  -0.00099579  1
  Mn3.30+  Mn141  1  0.66902008  0.50100871  0.50059081  1
  Mn3.30+  Mn142  1  0.66788820  0.83210302  -0.00086340  1
  Mn3.30+  Mn143  1  0.66805853  0.83191079  0.50312420  1
  O2-  O144  1  0.02779692  0.15949837  0.12477520  1
  O2-  O145  1  0.01833418  0.15927727  0.62604708  1
  O2-  O146  1  0.02530801  0.49517346  0.12489385  1
  O2-  O147  1  0.02397069  0.49412890  0.62447736  1
  O2-  O148  1  0.02531867  0.82761210  0.12576978  1
  O2-  O149  1  0.02487251  0.83543757  0.62450993  1
  O2-  O150  1  0.35965878  0.15975249  0.12532328  1
  O2-  O151  1  0.35693863  0.16407408  0.62620708  1
  O2-  O152  1  0.35720438  0.49549998  0.12197777  1
  O2-  O153  1  0.36187910  0.49362518  0.62618292  1
  O2-  O154  1  0.35730115  0.83040673  0.12810388  1
  O2-  O155  1  0.35961353  0.82537021  0.62464797  1
  O2-  O156  1  0.69483736  0.15988187  0.12449820  1
  O2-  O157  1  0.69438380  0.16142648  0.62405965  1
  O2-  O158  1  0.69413071  0.49348383  0.12375691  1
  O2-  O159  1  0.68604094  0.49143076  0.62520289  1
  O2-  O160  1  0.69346176  0.82724043  0.12369081  1
  O2-  O161  1  0.69119516  0.82393332  0.62490636  1
  O2-  O162  1  0.14288322  0.32821974  0.12497971  1
  O2-  O163  1  0.14181431  0.32905985  0.62650853  1
  O2-  O164  1  0.14840879  0.65909878  0.12423282  1
  O2-  O165  1  0.14600040  0.66081772  0.62522353  1
  O2-  O166  1  0.14118905  0.99081660  0.12581165  1
  O2-  O167  1  0.14144733  0.99650592  0.62496994  1
  O2-  O168  1  0.47344910  0.32838298  0.12368039  1
  O2-  O169  1  0.47548840  0.32686787  0.62625901  1
  O2-  O170  1  0.47092421  0.66157358  0.12438232  1
  O2-  O171  1  0.47278552  0.66308280  0.62567236  1
  O2-  O172  1  0.47129444  0.99389101  0.12731021  1
  O2-  O173  1  0.46997432  0.99584188  0.62477192  1
  O2-  O174  1  0.80874903  0.32525239  0.12429919  1
  O2-  O175  1  0.80979620  0.32488785  0.62734826  1
  O2-  O176  1  0.80969934  0.66128220  0.12532695  1
  O2-  O177  1  0.80907304  0.66151430  0.62452688  1
  O2-  O178  1  0.80976899  0.99705493  0.12575552  1
  O2-  O179  1  0.81014951  0.99402064  0.62314440  1
  O2-  O180  1  0.30768371  0.17394399  0.37097797  1
  O2-  O181  1  0.30573177  0.17100281  0.87741251  1
  O2-  O182  1  0.30847926  0.50511083  0.37719165  1
  O2-  O183  1  0.30455315  0.50822508  0.87446484  1
  O2-  O184  1  0.30120952  0.84045596  0.37607072  1
  O2-  O185  1  0.30614466  0.84210259  0.87189892  1
  O2-  O186  1  0.64088856  0.17403875  0.37537103  1
  O2-  O187  1  0.64790008  0.16783248  0.87569253  1
  O2-  O188  1  0.63969253  0.50336611  0.37512494  1
  O2-  O189  1  0.64141237  0.50796110  0.87621295  1
  O2-  O190  1  0.64142746  0.83799635  0.37614774  1
  O2-  O191  1  0.64152850  0.84229704  0.87547687  1
  O2-  O192  1  0.97626032  0.17404087  0.37361420  1
  O2-  O193  1  0.97231206  0.17169166  0.87570015  1
  O2-  O194  1  0.97928669  0.50167302  0.37379574  1
  O2-  O195  1  0.97694288  0.50173517  0.87612915  1
  O2-  O196  1  0.98113379  0.83924716  0.37483306  1
  O2-  O197  1  0.98088689  0.84023747  0.87544946  1
  O2-  O198  1  0.19020527  0.00839137  0.37262757  1
  O2-  O199  1  0.19025056  0.00259447  0.87612241  1
  O2-  O200  1  0.19275221  0.34019739  0.37298367  1
  O2-  O201  1  0.19081829  0.34296230  0.87518120  1
  O2-  O202  1  0.19175470  0.66951428  0.37595553  1
  O2-  O203  1  0.19256511  0.67727162  0.87483650  1
  O2-  O204  1  0.52658514  0.00542697  0.37470150  1
  O2-  O205  1  0.52573708  -0.00132150  0.87347765  1
  O2-  O206  1  0.52717917  0.33832979  0.37349172  1
  O2-  O207  1  0.52744236  0.33927122  0.87666579  1
  O2-  O208  1  0.52695969  0.67185107  0.37504556  1
  O2-  O209  1  0.52729914  0.67494484  0.87561466  1
  O2-  O210  1  0.85842016  0.00451290  0.37422412  1
  O2-  O211  1  0.85579781  0.00404692  0.87617919  1
  O2-  O212  1  0.85699555  0.34007738  0.37189290  1
  O2-  O213  1  0.86098550  0.34337310  0.87615950  1
  O2-  O214  1  0.85595298  0.67010330  0.37490002  1
  O2-  O215  1  0.85635206  0.66536929  0.87500241  1
  O2-  O216  1  0.23704672  0.09572164  0.02355028  1
  O2-  O217  1  0.23863726  0.09463332  0.51209056  1
  O2-  O218  1  0.23746402  0.42909799  0.01941177  1
  O2-  O219  1  0.23941315  0.42775960  0.52245774  1
  O2-  O220  1  0.23686168  0.76445841  0.02048486  1
  O2-  O221  1  0.23862774  0.76053364  0.52243267  1
  O2-  O222  1  0.57236361  0.09077575  0.02379046  1
  O2-  O223  1  0.56979346  0.09693514  0.51842636  1
  O2-  O224  1  0.57257779  0.42831588  0.02143431  1
  O2-  O225  1  0.57103293  0.42864263  0.51944276  1
  O2-  O226  1  0.56984837  0.76226706  0.02250853  1
  O2-  O227  1  0.56760334  0.76502834  0.51737459  1
  O2-  O228  1  0.90677016  0.09457154  0.01924257  1
  O2-  O229  1  0.90368957  0.09326354  0.51801179  1
  O2-  O230  1  0.90457130  0.42601664  0.02236757  1
  O2-  O231  1  0.91039483  0.42290282  0.51744454  1
  O2-  O232  1  0.90334668  0.76225619  0.01740406  1
  O2-  O233  1  0.90244223  0.76388752  0.51988721  1
  O2-  O234  1  0.26655877  0.26698058  0.23040637  1
  O2-  O235  1  0.26328725  0.26422830  0.73461882  1
  O2-  O236  1  0.26259274  0.59691326  0.23219757  1
  O2-  O237  1  0.26381536  0.59449371  0.72939407  1
  O2-  O238  1  0.26380391  0.93302784  0.23317229  1
  O2-  O239  1  0.26195803  0.92796441  0.72683719  1
  O2-  O240  1  0.59581017  0.26051688  0.22671326  1
  O2-  O241  1  0.59784188  0.25831479  0.73105346  1
  O2-  O242  1  0.59714614  0.59160913  0.22766556  1
  O2-  O243  1  0.59279405  0.59698436  0.72700829  1
  O2-  O244  1  0.59283408  0.92609395  0.22938061  1
  O2-  O245  1  0.59400281  0.92788688  0.72625623  1
  O2-  O246  1  0.93069658  0.25930527  0.22865176  1
  O2-  O247  1  0.93026494  0.26006559  0.72996137  1
  O2-  O248  1  0.92445332  0.59108127  0.23165212  1
  O2-  O249  1  0.92715452  0.59414800  0.73915971  1
  O2-  O250  1  0.93130097  0.92812773  0.22934166  1
  O2-  O251  1  0.92834339  0.92895232  0.73350053  1
  O2-  O252  1  0.09488478  0.24091089  0.27079631  1
  O2-  O253  1  0.09471509  0.23826801  0.77459632  1
  O2-  O254  1  0.09843518  0.56988463  0.26645716  1
  O2-  O255  1  0.09595239  0.57075685  0.77118032  1
  O2-  O256  1  0.09590480  0.90406156  0.27265090  1
  O2-  O257  1  0.09538089  0.90723588  0.76771726  1
  O2-  O258  1  0.42992391  0.23810520  0.27005327  1
  O2-  O259  1  0.42407613  0.24112816  0.76912064  1
  O2-  O260  1  0.42826286  0.57259436  0.27074125  1
  O2-  O261  1  0.42995062  0.57442091  0.77165069  1
  O2-  O262  1  0.42563658  0.90503935  0.27384174  1
  O2-  O263  1  0.42786745  0.90605422  0.77047837  1
  O2-  O264  1  0.76252844  0.23866090  0.27116559  1
  O2-  O265  1  0.76547608  0.23821700  0.77190148  1
  O2-  O266  1  0.76207756  0.56927847  0.27060116  1
  O2-  O267  1  0.76056402  0.57092145  0.76991167  1
  O2-  O268  1  0.75832890  0.90798238  0.26581069  1
  O2-  O269  1  0.75653216  0.90760139  0.76840608  1
  O2-  O270  1  0.07133554  0.07155877  0.47938656  1
  O2-  O271  1  0.07125795  0.07117297  0.97815356  1
  O2-  O272  1  0.07417663  0.40584051  0.47992039  1
  O2-  O273  1  0.07126857  0.40142015  0.98432161  1
  O2-  O274  1  0.07028731  0.73702148  0.48039593  1
  O2-  O275  1  0.07225276  0.73943404  0.97701393  1
  O2-  O276  1  0.40639989  0.07452826  0.47668194  1
  O2-  O277  1  0.40162894  0.07137903  0.98248461  1
  O2-  O278  1  0.40677342  0.40479658  0.47876986  1
  O2-  O279  1  0.40556002  0.41003491  0.97527285  1
  O2-  O280  1  0.40251831  0.74022339  0.47754080  1
  O2-  O281  1  0.40284974  0.74121510  0.97951628  1
  O2-  O282  1  0.74015070  0.07296969  0.47650043  1
  O2-  O283  1  0.73782194  0.06932524  0.98350701  1
  O2-  O284  1  0.73580340  0.40279803  0.48462159  1
  O2-  O285  1  0.73648169  0.40499160  0.97887343  1
  O2-  O286  1  0.73491811  0.73560467  0.48210843  1
  O2-  O287  1  0.73298793  0.73385009  0.98264555  1
  O2-  O288  1  0.09385743  0.24125147  0.47721277  1
  O2-  O289  1  0.09653581  0.23819805  0.97754864  1
  O2-  O290  1  0.09762737  0.56944559  0.48373146  1
  O2-  O291  1  0.09658459  0.57270584  0.97814023  1
  O2-  O292  1  0.09823484  0.90464681  0.48109003  1
  O2-  O293  1  0.09334134  0.90736079  0.97950565  1
  O2-  O294  1  0.42908661  0.23873389  0.47907899  1
  O2-  O295  1  0.42581469  0.23988346  0.98180806  1
  O2-  O296  1  0.42971686  0.57307779  0.48028123  1
  O2-  O297  1  0.42751143  0.57344685  0.97703613  1
  O2-  O298  1  0.42750038  0.90486909  0.47720795  1
  O2-  O299  1  0.42652564  0.90619515  0.98036570  1
  O2-  O300  1  0.76209036  0.23920328  0.47885791  1
  O2-  O301  1  0.76592527  0.23881819  0.97815027  1
  O2-  O302  1  0.76062786  0.57024584  0.47594931  1
  O2-  O303  1  0.76250910  0.56942712  0.98419154  1
  O2-  O304  1  0.75701246  0.90795692  0.48053800  1
  O2-  O305  1  0.75802438  0.90718195  0.98438364  1
  O2-  O306  1  0.07234035  0.07229594  0.27288764  1
  O2-  O307  1  0.06958266  0.07101181  0.76942188  1
  O2-  O308  1  0.07345694  0.40483107  0.26909245  1
  O2-  O309  1  0.07179000  0.40201000  0.76676862  1
  O2-  O310  1  0.06983100  0.73468077  0.27255067  1
  O2-  O311  1  0.07117529  0.74101218  0.77124468  1
  O2-  O312  1  0.40357080  0.07302883  0.27212231  1
  O2-  O313  1  0.40590556  0.07292276  0.76898875  1
  O2-  O314  1  0.40693750  0.40792629  0.27181142  1
  O2-  O315  1  0.40365624  0.40865231  0.77364293  1
  O2-  O316  1  0.40068074  0.74155872  0.27267797  1
  O2-  O317  1  0.40448715  0.73971984  0.77184091  1
  O2-  O318  1  0.73763279  0.07262118  0.27137044  1
  O2-  O319  1  0.73960532  0.07058689  0.76737888  1
  O2-  O320  1  0.73379869  0.40313423  0.26512022  1
  O2-  O321  1  0.73926657  0.40389715  0.77142411  1
  O2-  O322  1  0.73475567  0.73403900  0.26572728  1
  O2-  O323  1  0.73344540  0.73573422  0.76840290  1
  O2-  O324  1  0.23612112  0.09823533  0.22757150  1
  O2-  O325  1  0.24113799  0.09184315  0.73515677  1
  O2-  O326  1  0.23664071  0.43081546  0.23130881  1
  O2-  O327  1  0.23952750  0.42637215  0.72648611  1
  O2-  O328  1  0.23637890  0.76269426  0.22794673  1
  O2-  O329  1  0.23871399  0.76248954  0.72871279  1
  O2-  O330  1  0.57159974  0.09447679  0.22841082  1
  O2-  O331  1  0.57196557  0.09226353  0.72801404  1
  O2-  O332  1  0.57135333  0.42835278  0.22762747  1
  O2-  O333  1  0.57245955  0.42912658  0.73205693  1
  O2-  O334  1  0.56997797  0.76097989  0.22860481  1
  O2-  O335  1  0.56701864  0.76652514  0.73299675  1
  O2-  O336  1  0.90462637  0.09728291  0.23325028  1
  O2-  O337  1  0.90571321  0.09135800  0.73006802  1
  O2-  O338  1  0.90814533  0.42528121  0.22691387  1
  O2-  O339  1  0.90769935  0.42402414  0.73137252  1
  O2-  O340  1  0.90360598  0.76328648  0.23120257  1
  O2-  O341  1  0.90175097  0.76227319  0.73170656  1
  O2-  O342  1  0.26465158  0.26586311  0.01859540  1
  O2-  O343  1  0.26523294  0.26444917  0.51562252  1
  O2-  O344  1  0.26333916  0.59688736  0.01916223  1
  O2-  O345  1  0.26196808  0.59495231  0.52017185  1
  O2-  O346  1  0.26160790  0.93169703  0.01721583  1
  O2-  O347  1  0.26438207  0.92986825  0.52282857  1
  O2-  O348  1  0.59682345  0.25884785  0.02005822  1
  O2-  O349  1  0.59496378  0.26174702  0.52232090  1
  O2-  O350  1  0.59228026  0.59159152  0.02488019  1
  O2-  O351  1  0.59706970  0.59512457  0.52142313  1
  O2-  O352  1  0.59256439  0.92560197  0.02327905  1
  O2-  O353  1  0.59449024  0.92856169  0.52187477  1
  O2-  O354  1  0.93267491  0.25975195  0.02200229  1
  O2-  O355  1  0.92745946  0.25961449  0.51895387  1
  O2-  O356  1  0.92534723  0.59212457  0.01508626  1
  O2-  O357  1  0.92773384  0.59350952  0.51263940  1
  O2-  O358  1  0.92802945  0.92825590  0.02187059  1
  O2-  O359  1  0.93088555  0.92949864  0.51503359  1
