# generated using pymatgen
data_Sr7Ca15Pr50Mn72O216
_symmetry_space_group_name_H-M   'P 1'
_cell_length_a   16.55931603
_cell_length_b   16.60669925
_cell_length_c   15.59196822
_cell_angle_alpha   89.99846974
_cell_angle_beta   90.00283451
_cell_angle_gamma   90.00344344
_symmetry_Int_Tables_number   1
_chemical_formula_structural   Sr7Ca15Pr50Mn72O216
_chemical_formula_sum   'Sr7 Ca15 Pr50 Mn72 O216'
_cell_volume   4287.72234711
_cell_formula_units_Z   1
loop_
 _symmetry_equiv_pos_site_id
 _symmetry_equiv_pos_as_xyz
  1  'x, y, z'
loop_
 _atom_type_symbol
 _atom_type_oxidation_number
  Sr2+  2.0
  Ca2+  2.0
  Pr3+  3.0
  Mn3.30+  3.3
  O2-  -2.0
loop_
 _atom_site_type_symbol
 _atom_site_label
 _atom_site_symmetry_multiplicity
 _atom_site_fract_x
 _atom_site_fract_y
 _atom_site_fract_z
 _atom_site_occupancy
  Sr2+  Sr0  1  0.66741581  0.32414691  0.87776490  1
  Sr2+  Sr1  1  0.33072052  0.67850340  0.12419079  1
  Sr2+  Sr2  1  0.16772438  0.15821949  0.87514223  1
  Sr2+  Sr3  1  -0.00357566  0.67779279  0.12587446  1
  Sr2+  Sr4  1  0.67034411  0.32100478  0.37294736  1
  Sr2+  Sr5  1  -0.00240450  0.00750877  0.12465708  1
  Sr2+  Sr6  1  0.99843788  0.65934865  0.37286569  1
  Ca2+  Ca7  1  0.49783622  0.81844428  0.87493021  1
  Ca2+  Ca8  1  0.32974946  0.68142037  0.62691473  1
  Ca2+  Ca9  1  0.16477482  0.48624178  0.87838755  1
  Ca2+  Ca10  1  0.66363578  0.68362846  0.12365106  1
  Ca2+  Ca11  1  0.83303146  0.15427279  0.37347414  1
  Ca2+  Ca12  1  0.32846548  0.34859432  0.12188152  1
  Ca2+  Ca13  1  0.33632231  0.31890130  0.87683037  1
  Ca2+  Ca14  1  0.33100263  0.01480892  0.62636335  1
  Ca2+  Ca15  1  -0.00363707  0.01642535  0.62558557  1
  Ca2+  Ca16  1  0.83086095  0.82116689  0.87929667  1
  Ca2+  Ca17  1  0.83205213  0.81900688  0.36980226  1
  Ca2+  Ca18  1  1.00165504  0.31937315  0.37352618  1
  Ca2+  Ca19  1  0.67055903  0.98302733  0.87593679  1
  Ca2+  Ca20  1  0.83710645  0.84559362  0.12516834  1
  Ca2+  Ca21  1  0.66330773  0.34555817  0.12527020  1
  Pr3+  Pr22  1  0.66480067  0.01379913  0.62709093  1
  Pr3+  Pr23  1  0.66680242  0.01035405  0.12288842  1
  Pr3+  Pr24  1  0.33662189  0.98647055  0.37746541  1
  Pr3+  Pr25  1  0.17056363  0.84908405  0.62512132  1
  Pr3+  Pr26  1  0.67393080  0.98642291  0.37502064  1
  Pr3+  Pr27  1  0.50276012  0.84588890  0.62778210  1
  Pr3+  Pr28  1  0.16219143  0.15568412  0.37549813  1
  Pr3+  Pr29  1  0.16693044  0.84410857  0.12538463  1
  Pr3+  Pr30  1  0.66474092  0.34488085  0.62492945  1
  Pr3+  Pr31  1  0.83598778  0.51172326  0.62579192  1
  Pr3+  Pr32  1  0.33590268  0.65340332  0.37448615  1
  Pr3+  Pr33  1  0.33699048  0.98617561  0.87201845  1
  Pr3+  Pr34  1  1.00346508  0.32006853  0.87680392  1
  Pr3+  Pr35  1  -0.00142459  0.34509195  0.62543531  1
  Pr3+  Pr36  1  0.33736502  0.31992945  0.37328931  1
  Pr3+  Pr37  1  0.49695755  0.15568349  0.87491722  1
  Pr3+  Pr38  1  0.16368065  0.82281730  0.87534651  1
  Pr3+  Pr39  1  1.00315153  0.65420572  0.87647365  1
  Pr3+  Pr40  1  0.33039647  0.00906443  0.12370092  1
  Pr3+  Pr41  1  -0.00155278  0.34470481  0.12532934  1
  Pr3+  Pr42  1  1.00304624  0.98780922  0.87468999  1
  Pr3+  Pr43  1  0.50171763  0.17892254  0.62471895  1
  Pr3+  Pr44  1  0.82762131  0.15151571  0.87606754  1
  Pr3+  Pr45  1  0.16697617  0.17797511  0.62689606  1
  Pr3+  Pr46  1  0.49938014  0.81973156  0.37481044  1
  Pr3+  Pr47  1  0.17151154  0.51541677  0.62671048  1
  Pr3+  Pr48  1  0.83003533  0.48796029  0.87654090  1
  Pr3+  Pr49  1  0.33654304  0.65417800  0.87560692  1
  Pr3+  Pr50  1  0.83588111  0.17783812  0.12658507  1
  Pr3+  Pr51  1  0.83261535  0.51154428  0.12402342  1
  Pr3+  Pr52  1  0.66750037  0.65687094  0.87708815  1
  Pr3+  Pr53  1  0.49775414  0.48673309  0.37355847  1
  Pr3+  Pr54  1  0.15986735  0.48634755  0.37318549  1
  Pr3+  Pr55  1  0.66468510  0.68093320  0.62636954  1
  Pr3+  Pr56  1  0.50427120  0.18135693  0.12516981  1
  Pr3+  Pr57  1  0.32913894  0.34458447  0.62703497  1
  Pr3+  Pr58  1  0.49501792  0.48369127  0.87670068  1
  Pr3+  Pr59  1  0.50141237  0.51296338  0.62598766  1
  Pr3+  Pr60  1  0.67160793  0.65511959  0.37303498  1
  Pr3+  Pr61  1  0.49919642  0.15253678  0.37487469  1
  Pr3+  Pr62  1  0.83704553  0.17955712  0.62347086  1
  Pr3+  Pr63  1  0.17016273  0.51503423  0.12380693  1
  Pr3+  Pr64  1  0.16985703  0.18072838  0.12380552  1
  Pr3+  Pr65  1  0.83278288  0.48927819  0.37310065  1
  Pr3+  Pr66  1  -0.00304599  0.67920581  0.62406303  1
  Pr3+  Pr67  1  0.99880359  0.98821235  0.37549195  1
  Pr3+  Pr68  1  0.83829168  0.84858338  0.62449547  1
  Pr3+  Pr69  1  0.50264081  0.51373511  0.12418261  1
  Pr3+  Pr70  1  0.50446143  0.84367825  0.12157196  1
  Pr3+  Pr71  1  0.16322276  0.82059403  0.37493596  1
  Mn3.30+  Mn72  1  0.16647981  0.00101439  -0.00112594  1
  Mn3.30+  Mn73  1  0.16661168  0.00153590  0.50190992  1
  Mn3.30+  Mn74  1  0.16880299  0.33445615  -0.00137066  1
  Mn3.30+  Mn75  1  0.16512507  0.33356639  0.49959521  1
  Mn3.30+  Mn76  1  0.16716444  0.66746601  -0.00062107  1
  Mn3.30+  Mn77  1  0.16750384  0.66748501  0.50104403  1
  Mn3.30+  Mn78  1  0.50131252  -0.00142603  -0.00307302  1
  Mn3.30+  Mn79  1  0.50062003  -0.00086267  0.50194029  1
  Mn3.30+  Mn80  1  0.49782999  0.33286709  0.00219748  1
  Mn3.30+  Mn81  1  0.49991803  0.33294809  0.49889173  1
  Mn3.30+  Mn82  1  0.50118846  0.66794237  0.00017165  1
  Mn3.30+  Mn83  1  0.49878020  0.66682382  0.50156179  1
  Mn3.30+  Mn84  1  0.83210695  -0.00344790  -0.00124728  1
  Mn3.30+  Mn85  1  0.83499852  0.00068823  0.49978094  1
  Mn3.30+  Mn86  1  0.83129883  0.33260843  0.00228257  1
  Mn3.30+  Mn87  1  0.83462026  0.33241600  0.49651367  1
  Mn3.30+  Mn88  1  0.83218662  0.66947090  0.00102163  1
  Mn3.30+  Mn89  1  0.83315827  0.66780723  0.49880676  1
  Mn3.30+  Mn90  1  -0.00106550  0.16671116  0.25075470  1
  Mn3.30+  Mn91  1  -0.00072471  0.16533825  0.75052530  1
  Mn3.30+  Mn92  1  -0.00090208  0.49989933  0.24971330  1
  Mn3.30+  Mn93  1  0.00262289  0.49993044  0.75170359  1
  Mn3.30+  Mn94  1  -0.00319108  0.83352412  0.24978371  1
  Mn3.30+  Mn95  1  -0.00117575  0.83463766  0.74975442  1
  Mn3.30+  Mn96  1  0.33353112  0.16674982  0.24854960  1
  Mn3.30+  Mn97  1  0.33314289  0.16593324  0.75032306  1
  Mn3.30+  Mn98  1  0.33200618  0.49900635  0.24887790  1
  Mn3.30+  Mn99  1  0.33176000  0.49946781  0.75190399  1
  Mn3.30+  Mn100  1  0.33431015  0.83330316  0.25009481  1
  Mn3.30+  Mn101  1  0.33471188  0.83295657  0.74879148  1
  Mn3.30+  Mn102  1  0.66897715  0.16676915  0.25007122  1
  Mn3.30+  Mn103  1  0.66668358  0.16638197  0.75195111  1
  Mn3.30+  Mn104  1  0.66613002  0.49944613  0.24815021  1
  Mn3.30+  Mn105  1  0.66624068  0.50035861  0.75112348  1
  Mn3.30+  Mn106  1  0.67000459  0.83305794  0.24712256  1
  Mn3.30+  Mn107  1  0.66831252  0.83467332  0.75380372  1
  Mn3.30+  Mn108  1  0.16642866  0.00072210  0.25083042  1
  Mn3.30+  Mn109  1  0.16702160  0.00151068  0.74859730  1
  Mn3.30+  Mn110  1  0.16733078  0.33346118  0.24910827  1
  Mn3.30+  Mn111  1  0.16710512  0.33431825  0.75357332  1
  Mn3.30+  Mn112  1  0.16644265  0.66754308  0.24959252  1
  Mn3.30+  Mn113  1  0.16792579  0.66721561  0.75065199  1
  Mn3.30+  Mn114  1  0.50124798  -0.00106107  0.24939282  1
  Mn3.30+  Mn115  1  0.50115505  -0.00130412  0.75138964  1
  Mn3.30+  Mn116  1  0.50011150  0.33338988  0.24802757  1
  Mn3.30+  Mn117  1  0.49818498  0.33235394  0.75114276  1
  Mn3.30+  Mn118  1  0.50213203  0.66715281  0.24818380  1
  Mn3.30+  Mn119  1  0.49803457  0.66761136  0.75002723  1
  Mn3.30+  Mn120  1  0.83366066  -0.00146782  0.24988841  1
  Mn3.30+  Mn121  1  0.83318420  -0.00145073  0.75107630  1
  Mn3.30+  Mn122  1  0.83276546  0.33214055  0.25048348  1
  Mn3.30+  Mn123  1  0.83306505  0.33295234  0.75093650  1
  Mn3.30+  Mn124  1  0.83142032  0.66859750  0.24697591  1
  Mn3.30+  Mn125  1  0.83356248  0.66885048  0.75202444  1
  Mn3.30+  Mn126  1  -0.00028736  0.16512484  0.00112881  1
  Mn3.30+  Mn127  1  -0.00141512  0.16722086  0.49827814  1
  Mn3.30+  Mn128  1  0.00053363  0.50013997  0.00001764  1
  Mn3.30+  Mn129  1  0.00110739  0.49962024  0.49920535  1
  Mn3.30+  Mn130  1  -0.00433669  0.83304919  -0.00008315  1
  Mn3.30+  Mn131  1  -0.00007166  0.83471327  0.49998060  1
  Mn3.30+  Mn132  1  0.33418631  0.16751971  -0.00008986  1
  Mn3.30+  Mn133  1  0.33235990  0.16544063  0.50064658  1
  Mn3.30+  Mn134  1  0.33171060  0.49762432  -0.00111139  1
  Mn3.30+  Mn135  1  0.33205365  0.50101010  0.50067348  1
  Mn3.30+  Mn136  1  0.33509989  0.83319688  -0.00176077  1
  Mn3.30+  Mn137  1  0.33376314  0.83311229  0.50259734  1
  Mn3.30+  Mn138  1  0.66601346  0.16683085  -0.00025116  1
  Mn3.30+  Mn139  1  0.66956669  0.16640747  0.49851247  1
  Mn3.30+  Mn140  1  0.66552403  0.50008414  0.00146470  1
  Mn3.30+  Mn141  1  0.66705535  0.49981042  0.49970810  1
  Mn3.30+  Mn142  1  0.66876229  0.83385035  -0.00176733  1
  Mn3.30+  Mn143  1  0.66938822  0.83369095  0.50038458  1
  O2-  O144  1  0.02478922  0.16430486  0.12637209  1
  O2-  O145  1  0.02253388  0.16351554  0.62462658  1
  O2-  O146  1  0.02597814  0.49373939  0.12537341  1
  O2-  O147  1  0.02732310  0.49346686  0.62768770  1
  O2-  O148  1  0.02328919  0.83382006  0.12466666  1
  O2-  O149  1  0.02626998  0.82636579  0.62482288  1
  O2-  O150  1  0.35985636  0.15555260  0.12471093  1
  O2-  O151  1  0.35771426  0.16269349  0.62422734  1
  O2-  O152  1  0.35764120  0.49383518  0.12473674  1
  O2-  O153  1  0.35864871  0.49078561  0.62638363  1
  O2-  O154  1  0.35874700  0.83700500  0.12276721  1
  O2-  O155  1  0.36047673  0.82385204  0.62479646  1
  O2-  O156  1  0.69162843  0.15752917  0.12495255  1
  O2-  O157  1  0.69216413  0.16228985  0.62582272  1
  O2-  O158  1  0.68891245  0.49015196  0.12465564  1
  O2-  O159  1  0.69092713  0.49428800  0.62606772  1
  O2-  O160  1  0.69369144  0.83120472  0.12329375  1
  O2-  O161  1  0.69351592  0.82915451  0.62647135  1
  O2-  O162  1  0.14212299  0.32913844  0.12465396  1
  O2-  O163  1  0.14227626  0.32821803  0.62718886  1
  O2-  O164  1  0.14779780  0.66445221  0.12388818  1
  O2-  O165  1  0.14072090  0.66212673  0.62740714  1
  O2-  O166  1  0.14933557  0.99282847  0.12629828  1
  O2-  O167  1  0.13915192  0.99654426  0.62499813  1
  O2-  O168  1  0.47050181  0.32928441  0.12606154  1
  O2-  O169  1  0.47396160  0.32907898  0.62376384  1
  O2-  O170  1  0.47862498  0.66366701  0.12457197  1
  O2-  O171  1  0.47161239  0.65986834  0.62598964  1
  O2-  O172  1  0.47434018  0.99142001  0.12205388  1
  O2-  O173  1  0.47392055  0.99297519  0.62543197  1
  O2-  O174  1  0.80574795  0.32602845  0.12576940  1
  O2-  O175  1  0.80887080  0.32839043  0.62336255  1
  O2-  O176  1  0.80401435  0.65795319  0.12324641  1
  O2-  O177  1  0.80892024  0.65971986  0.62656225  1
  O2-  O178  1  0.80985541  0.99171114  0.12392807  1
  O2-  O179  1  0.80771754  0.99489936  0.62660400  1
  O2-  O180  1  0.30754972  0.17209541  0.37478464  1
  O2-  O181  1  0.31745830  0.17201335  0.87536038  1
  O2-  O182  1  0.30557662  0.50597237  0.37599799  1
  O2-  O183  1  0.30607603  0.50846774  0.87334390  1
  O2-  O184  1  0.30856339  0.83976449  0.37869221  1
  O2-  O185  1  0.30752104  0.83905143  0.87311692  1
  O2-  O186  1  0.64231817  0.16513424  0.37401824  1
  O2-  O187  1  0.64091011  0.17215339  0.87530897  1
  O2-  O188  1  0.64122914  0.50738058  0.37387716  1
  O2-  O189  1  0.64045168  0.50638327  0.87557665  1
  O2-  O190  1  0.64213014  0.83817758  0.37559946  1
  O2-  O191  1  0.63886833  0.83732903  0.87391478  1
  O2-  O192  1  0.97529669  0.17468121  0.37418087  1
  O2-  O193  1  0.97293038  0.17283321  0.87553267  1
  O2-  O194  1  0.97672837  0.50462338  0.37267698  1
  O2-  O195  1  0.97346877  0.50498440  0.87445868  1
  O2-  O196  1  0.97563904  0.83969311  0.37738588  1
  O2-  O197  1  0.97424493  0.83946024  0.87281308  1
  O2-  O198  1  0.19379587  0.00717311  0.37640710  1
  O2-  O199  1  0.19161024  0.00020643  0.87219185  1
  O2-  O200  1  0.19417695  0.33777814  0.37316241  1
  O2-  O201  1  0.19378674  0.33960914  0.87558016  1
  O2-  O202  1  0.19215984  0.67179096  0.37545084  1
  O2-  O203  1  0.19262540  0.67602108  0.87382412  1
  O2-  O204  1  0.52762898  0.00387497  0.37747067  1
  O2-  O205  1  0.52871847  0.01001590  0.87423166  1
  O2-  O206  1  0.51977848  0.33820723  0.37442753  1
  O2-  O207  1  0.51870834  0.33467467  0.87593832  1
  O2-  O208  1  0.52674840  0.67078017  0.37433605  1
  O2-  O209  1  0.52325623  0.66995261  0.87514702  1
  O2-  O210  1  0.85552115  0.00985677  0.37638879  1
  O2-  O211  1  0.86007822  0.00688358  0.87285438  1
  O2-  O212  1  0.86124860  0.34317045  0.37394449  1
  O2-  O213  1  0.85888088  0.33907199  0.87753587  1
  O2-  O214  1  0.84844090  0.67062642  0.37474140  1
  O2-  O215  1  0.85941977  0.67365539  0.87457681  1
  O2-  O216  1  0.24157564  0.09394287  0.02051576  1
  O2-  O217  1  0.23604912  0.09678102  0.51947898  1
  O2-  O218  1  0.23692973  0.42908315  0.02096717  1
  O2-  O219  1  0.23662588  0.42894256  0.52063859  1
  O2-  O220  1  0.23706777  0.76587204  0.01614028  1
  O2-  O221  1  0.23759156  0.76504031  0.51871981  1
  O2-  O222  1  0.57069957  0.09416328  0.02187151  1
  O2-  O223  1  0.57084685  0.09317829  0.52166198  1
  O2-  O224  1  0.56601041  0.42895565  0.01659525  1
  O2-  O225  1  0.57231008  0.42805772  0.52040027  1
  O2-  O226  1  0.57495423  0.76251747  0.01860444  1
  O2-  O227  1  0.57037085  0.76156779  0.52187144  1
  O2-  O228  1  0.90012759  0.09474411  0.01645629  1
  O2-  O229  1  0.90439343  0.09539116  0.51944527  1
  O2-  O230  1  0.90576370  0.42562095  0.02181254  1
  O2-  O231  1  0.90631013  0.42814877  0.52200913  1
  O2-  O232  1  0.90222324  0.76271647  0.01990096  1
  O2-  O233  1  0.90625266  0.75959007  0.52186068  1
  O2-  O234  1  0.26340840  0.26344649  0.22734242  1
  O2-  O235  1  0.25898100  0.25905609  0.72903153  1
  O2-  O236  1  0.26047940  0.59280245  0.23322219  1
  O2-  O237  1  0.26345910  0.59561091  0.72783484  1
  O2-  O238  1  0.26279252  0.92898347  0.23391294  1
  O2-  O239  1  0.26490973  0.92784391  0.72704869  1
  O2-  O240  1  0.59565589  0.25939092  0.22749294  1
  O2-  O241  1  0.59210473  0.26104181  0.72674141  1
  O2-  O242  1  0.59517059  0.59529108  0.22769729  1
  O2-  O243  1  0.59307428  0.59415060  0.72885253  1
  O2-  O244  1  0.59631405  0.92751438  0.22909588  1
  O2-  O245  1  0.59565215  0.92704374  0.72756066  1
  O2-  O246  1  0.92773315  0.26069765  0.22717111  1
  O2-  O247  1  0.92803021  0.26147096  0.73004821  1
  O2-  O248  1  0.91982928  0.58999463  0.23002549  1
  O2-  O249  1  0.93018970  0.59325228  0.73024364  1
  O2-  O250  1  0.92722152  0.92914179  0.23837956  1
  O2-  O251  1  0.93011275  0.93025944  0.72689072  1
  O2-  O252  1  0.09866787  0.23770350  0.26619373  1
  O2-  O253  1  0.09149742  0.24214515  0.76831864  1
  O2-  O254  1  0.09450535  0.57016446  0.26542920  1
  O2-  O255  1  0.09575743  0.57058193  0.77304152  1
  O2-  O256  1  0.09585430  0.90890758  0.27160178  1
  O2-  O257  1  0.09461716  0.90489564  0.76947924  1
  O2-  O258  1  0.42912226  0.23657744  0.27052485  1
  O2-  O259  1  0.42966011  0.23570928  0.76381899  1
  O2-  O260  1  0.42671460  0.57111312  0.27035436  1
  O2-  O261  1  0.42741035  0.56891007  0.77146880  1
  O2-  O262  1  0.42894241  0.90507889  0.27210726  1
  O2-  O263  1  0.43098908  0.90358437  0.77189007  1
  O2-  O264  1  0.76553770  0.23411800  0.26871255  1
  O2-  O265  1  0.76294449  0.23648027  0.76708473  1
  O2-  O266  1  0.75880928  0.57182309  0.26955213  1
  O2-  O267  1  0.76162519  0.57342002  0.77153053  1
  O2-  O268  1  0.76069088  0.90519326  0.27365271  1
  O2-  O269  1  0.76652260  0.90080454  0.76882959  1
  O2-  O270  1  0.07083963  0.07558623  0.47704149  1
  O2-  O271  1  0.07176848  0.07222174  0.98059528  1
  O2-  O272  1  0.07144758  0.40292067  0.47834426  1
  O2-  O273  1  0.07153103  0.40466993  0.98121885  1
  O2-  O274  1  0.07456267  0.74081765  0.48269643  1
  O2-  O275  1  0.07138774  0.74160350  0.97781687  1
  O2-  O276  1  0.40733369  0.07227836  0.47804740  1
  O2-  O277  1  0.40618150  0.06940857  0.97858133  1
  O2-  O278  1  0.40353443  0.40571963  0.47955380  1
  O2-  O279  1  0.40263713  0.40432171  0.97676948  1
  O2-  O280  1  0.40620198  0.73940230  0.47632685  1
  O2-  O281  1  0.40490051  0.73951018  0.98001221  1
  O2-  O282  1  0.73617602  0.06736306  0.48558371  1
  O2-  O283  1  0.73766551  0.06852926  0.97941104  1
  O2-  O284  1  0.74218450  0.40656469  0.48227826  1
  O2-  O285  1  0.74297629  0.41076132  0.98152748  1
  O2-  O286  1  0.73367938  0.73637663  0.48546303  1
  O2-  O287  1  0.73706598  0.73915491  0.97773548  1
  O2-  O288  1  0.09645268  0.23750424  0.48343006  1
  O2-  O289  1  0.09323181  0.24290853  0.98315649  1
  O2-  O290  1  0.09764467  0.56886798  0.48471332  1
  O2-  O291  1  0.09357354  0.57356042  0.97911856  1
  O2-  O292  1  0.09711249  0.90743263  0.47897514  1
  O2-  O293  1  0.09313845  0.90586139  0.98044313  1
  O2-  O294  1  0.42740584  0.23754880  0.47924288  1
  O2-  O295  1  0.43151915  0.23477008  0.98545942  1
  O2-  O296  1  0.42838609  0.57092734  0.47841046  1
  O2-  O297  1  0.42681455  0.56970484  0.98045859  1
  O2-  O298  1  0.43050089  0.90441335  0.47963662  1
  O2-  O299  1  0.42939321  0.90485450  0.97447314  1
  O2-  O300  1  0.76693236  0.23593984  0.48140480  1
  O2-  O301  1  0.76345273  0.23657902  0.98288007  1
  O2-  O302  1  0.76102625  0.57120241  0.48089835  1
  O2-  O303  1  0.76094554  0.57493132  0.97752435  1
  O2-  O304  1  0.76681983  0.90343267  0.47933279  1
  O2-  O305  1  0.76053851  0.90498512  0.97605788  1
  O2-  O306  1  0.07333106  0.07434413  0.27429612  1
  O2-  O307  1  0.06912131  0.07378217  0.76811492  1
  O2-  O308  1  0.07190442  0.40276547  0.27076345  1
  O2-  O309  1  0.07030946  0.40457322  0.77121635  1
  O2-  O310  1  0.07632450  0.74440193  0.26810585  1
  O2-  O311  1  0.07041001  0.73912711  0.77087856  1
  O2-  O312  1  0.40608166  0.07031182  0.27152888  1
  O2-  O313  1  0.40744446  0.07171313  0.77021364  1
  O2-  O314  1  0.40351718  0.40759559  0.27265838  1
  O2-  O315  1  0.40298291  0.40308841  0.77125763  1
  O2-  O316  1  0.40706927  0.73976208  0.27224010  1
  O2-  O317  1  0.40383762  0.73806438  0.77053422  1
  O2-  O318  1  0.73599136  0.06756051  0.26457691  1
  O2-  O319  1  0.73703083  0.06790507  0.77128146  1
  O2-  O320  1  0.74329525  0.40956826  0.26928487  1
  O2-  O321  1  0.74159938  0.40809971  0.76725064  1
  O2-  O322  1  0.73486699  0.73774951  0.26749704  1
  O2-  O323  1  0.73431237  0.73738175  0.76811014  1
  O2-  O324  1  0.23836274  0.09519381  0.22982159  1
  O2-  O325  1  0.24030518  0.09473339  0.72947504  1
  O2-  O326  1  0.23497672  0.43062864  0.23176735  1
  O2-  O327  1  0.23926984  0.42731282  0.72682672  1
  O2-  O328  1  0.23920388  0.76562465  0.23382113  1
  O2-  O329  1  0.23696623  0.76525838  0.73087003  1
  O2-  O330  1  0.57107448  0.09386562  0.22985023  1
  O2-  O331  1  0.57114832  0.09455642  0.72719665  1
  O2-  O332  1  0.56906875  0.43057768  0.23232215  1
  O2-  O333  1  0.57033237  0.42683429  0.73077549  1
  O2-  O334  1  0.57198391  0.76578027  0.23169886  1
  O2-  O335  1  0.57403101  0.76069940  0.72759781  1
  O2-  O336  1  0.90348551  0.09432869  0.23221055  1
  O2-  O337  1  0.90135117  0.09661231  0.73226093  1
  O2-  O338  1  0.90604985  0.42659262  0.22624538  1
  O2-  O339  1  0.90690896  0.42804363  0.72999662  1
  O2-  O340  1  0.90076700  0.76071896  0.23223806  1
  O2-  O341  1  0.90745310  0.76056342  0.72558101  1
  O2-  O342  1  0.26069056  0.26020963  0.02261902  1
  O2-  O343  1  0.26036551  0.26287765  0.52006100  1
  O2-  O344  1  0.26052509  0.59228984  0.01638527  1
  O2-  O345  1  0.26351202  0.59716331  0.52254296  1
  O2-  O346  1  0.26226905  0.92760560  0.01646177  1
  O2-  O347  1  0.26531590  0.92929360  0.52293192  1
  O2-  O348  1  0.59266707  0.26228930  0.02475382  1
  O2-  O349  1  0.59426246  0.25930110  0.52128352  1
  O2-  O350  1  0.59509235  0.59437881  0.02099825  1
  O2-  O351  1  0.59333627  0.59464324  0.52243046  1
  O2-  O352  1  0.59462665  0.92622178  0.02145189  1
  O2-  O353  1  0.59729653  0.92743309  0.52183857  1
  O2-  O354  1  0.92691352  0.26078532  0.02149595  1
  O2-  O355  1  0.92893271  0.26163462  0.52215864  1
  O2-  O356  1  0.92339192  0.59211755  0.01662887  1
  O2-  O357  1  0.92694387  0.59210206  0.52216217  1
  O2-  O358  1  0.92747916  0.92839782  0.01221826  1
  O2-  O359  1  0.93049114  0.93130622  0.52186686  1
