# generated using pymatgen
data_Sr7Ca15Pr50Mn72O216
_symmetry_space_group_name_H-M   'P 1'
_cell_length_a   16.55512478
_cell_length_b   16.60243752
_cell_length_c   15.58990807
_cell_angle_alpha   89.99144007
_cell_angle_beta   90.00331163
_cell_angle_gamma   89.99647135
_symmetry_Int_Tables_number   1
_chemical_formula_structural   Sr7Ca15Pr50Mn72O216
_chemical_formula_sum   'Sr7 Ca15 Pr50 Mn72 O216'
_cell_volume   4284.97074414
_cell_formula_units_Z   1
loop_
 _symmetry_equiv_pos_site_id
 _symmetry_equiv_pos_as_xyz
  1  'x, y, z'
loop_
 _atom_type_symbol
 _atom_type_oxidation_number
  Sr2+  2.0
  Ca2+  2.0
  Pr3+  3.0
  Mn3.30+  3.3
  O2-  -2.0
loop_
 _atom_site_type_symbol
 _atom_site_label
 _atom_site_symmetry_multiplicity
 _atom_site_fract_x
 _atom_site_fract_y
 _atom_site_fract_z
 _atom_site_occupancy
  Sr2+  Sr0  1  0.16927260  0.84394396  0.62518373  1
  Sr2+  Sr1  1  0.49833369  0.48948166  0.37567871  1
  Sr2+  Sr2  1  0.83204509  0.49184605  0.87303210  1
  Sr2+  Sr3  1  0.16673630  0.50814118  0.62435407  1
  Sr2+  Sr4  1  0.50445186  0.84710034  0.12461989  1
  Sr2+  Sr5  1  0.49931313  0.82507107  0.37382573  1
  Sr2+  Sr6  1  1.00162785  0.99276599  0.37551389  1
  Ca2+  Ca7  1  0.66979041  0.31945430  0.37621985  1
  Ca2+  Ca8  1  1.00383187  0.98474921  0.87396996  1
  Ca2+  Ca9  1  0.83930669  0.18268571  0.62495233  1
  Ca2+  Ca10  1  0.83964680  0.51520333  0.62354030  1
  Ca2+  Ca11  1  0.67073223  0.65269141  0.87534910  1
  Ca2+  Ca12  1  0.32816005  0.01213637  0.62449929  1
  Ca2+  Ca13  1  1.00081491  0.32103234  0.87252858  1
  Ca2+  Ca14  1  0.66174552  0.01314110  0.12560872  1
  Ca2+  Ca15  1  0.16849923  0.51492271  0.12612391  1
  Ca2+  Ca16  1  0.16237700  0.15105594  0.37659807  1
  Ca2+  Ca17  1  0.66918070  0.98526787  0.87651349  1
  Ca2+  Ca18  1  0.49971783  0.81946565  0.87616145  1
  Ca2+  Ca19  1  0.32752381  0.34876428  0.62358514  1
  Ca2+  Ca20  1  1.00231863  0.65141246  0.37584165  1
  Ca2+  Ca21  1  0.82773531  0.48341700  0.37757282  1
  Pr3+  Pr22  1  0.49898157  0.15376313  0.87361649  1
  Pr3+  Pr23  1  0.50376622  0.51393853  0.12573521  1
  Pr3+  Pr24  1  -0.00354762  0.34636474  0.12480544  1
  Pr3+  Pr25  1  0.16866859  0.17738948  0.12767892  1
  Pr3+  Pr26  1  0.82872307  0.15437154  0.37725816  1
  Pr3+  Pr27  1  0.17019401  0.84713692  0.12474782  1
  Pr3+  Pr28  1  -0.00303054  0.01569169  0.62678379  1
  Pr3+  Pr29  1  1.00225432  0.31955041  0.37523201  1
  Pr3+  Pr30  1  0.50451942  0.17606430  0.12471759  1
  Pr3+  Pr31  1  0.49858007  0.17904566  0.62611786  1
  Pr3+  Pr32  1  0.66930532  0.34540764  0.62420288  1
  Pr3+  Pr33  1  0.83901560  0.84510238  0.62667118  1
  Pr3+  Pr34  1  -0.00669363  0.34863310  0.62452019  1
  Pr3+  Pr35  1  0.33574181  0.32260636  0.37834530  1
  Pr3+  Pr36  1  0.83301763  0.84775238  0.12331239  1
  Pr3+  Pr37  1  0.49981012  0.51117030  0.62347207  1
  Pr3+  Pr38  1  0.15871943  0.48338989  0.87493460  1
  Pr3+  Pr39  1  0.66989310  0.65274905  0.37481334  1
  Pr3+  Pr40  1  0.67101252  0.32286113  0.87420670  1
  Pr3+  Pr41  1  0.16285182  0.48955488  0.37495264  1
  Pr3+  Pr42  1  0.16396356  0.81972347  0.87449726  1
  Pr3+  Pr43  1  0.50123645  0.15812749  0.37732514  1
  Pr3+  Pr44  1  0.66294039  0.34584755  0.12608422  1
  Pr3+  Pr45  1  0.17059400  0.17868302  0.62243173  1
  Pr3+  Pr46  1  -0.00290585  0.67936306  0.12570797  1
  Pr3+  Pr47  1  0.32881735  0.67815242  0.62318428  1
  Pr3+  Pr48  1  -0.00313751  0.01323647  0.12301450  1
  Pr3+  Pr49  1  0.33558455  0.65618330  0.87375088  1
  Pr3+  Pr50  1  0.67080420  0.98626647  0.37525906  1
  Pr3+  Pr51  1  1.00257039  0.65294946  0.87515563  1
  Pr3+  Pr52  1  0.50170842  0.84458025  0.62578616  1
  Pr3+  Pr53  1  0.83400290  0.51271049  0.12622953  1
  Pr3+  Pr54  1  0.66214333  0.67963333  0.12291277  1
  Pr3+  Pr55  1  0.66783886  0.67503287  0.62694934  1
  Pr3+  Pr56  1  0.33465888  0.32135318  0.87147464  1
  Pr3+  Pr57  1  0.33462315  0.99007733  0.37752877  1
  Pr3+  Pr58  1  0.49954859  0.49000271  0.87403349  1
  Pr3+  Pr59  1  0.83233271  0.15422061  0.87240815  1
  Pr3+  Pr60  1  0.33260843  0.68016369  0.12675353  1
  Pr3+  Pr61  1  0.83149082  0.82143222  0.37528807  1
  Pr3+  Pr62  1  0.33966075  0.98523429  0.87288267  1
  Pr3+  Pr63  1  0.33441603  0.01186730  0.12577394  1
  Pr3+  Pr64  1  0.16047398  0.15239254  0.87402017  1
  Pr3+  Pr65  1  0.32922083  0.34869195  0.12510636  1
  Pr3+  Pr66  1  0.33724682  0.65498238  0.37642755  1
  Pr3+  Pr67  1  0.83389133  0.17845860  0.12477299  1
  Pr3+  Pr68  1  -0.00294628  0.67754236  0.62421728  1
  Pr3+  Pr69  1  0.82992235  0.81985628  0.87479165  1
  Pr3+  Pr70  1  0.66634812  0.01273672  0.62722213  1
  Pr3+  Pr71  1  0.16099125  0.81953179  0.37540852  1
  Mn3.30+  Mn72  1  0.16679528  0.00006459  -0.00162298  1
  Mn3.30+  Mn73  1  0.16656425  0.00003911  0.50101352  1
  Mn3.30+  Mn74  1  0.16490383  0.33263656  0.00118716  1
  Mn3.30+  Mn75  1  0.16650559  0.33269869  0.49904321  1
  Mn3.30+  Mn76  1  0.16700476  0.66506165  0.00197863  1
  Mn3.30+  Mn77  1  0.16463469  0.66551849  0.49888158  1
  Mn3.30+  Mn78  1  0.50431510  -0.00116148  -0.00269431  1
  Mn3.30+  Mn79  1  0.49880140  0.00062253  0.50291836  1
  Mn3.30+  Mn80  1  0.49928245  0.33310233  -0.00113477  1
  Mn3.30+  Mn81  1  0.50012443  0.33411273  0.50160873  1
  Mn3.30+  Mn82  1  0.50156219  0.66843790  -0.00342019  1
  Mn3.30+  Mn83  1  0.50041465  0.66717161  0.50061120  1
  Mn3.30+  Mn84  1  0.83139428  0.00055458  -0.00231062  1
  Mn3.30+  Mn85  1  0.83441127  0.00112970  0.50197949  1
  Mn3.30+  Mn86  1  0.83408049  0.33413519  -0.00151091  1
  Mn3.30+  Mn87  1  0.83267108  0.33414081  0.49935630  1
  Mn3.30+  Mn88  1  0.83104678  0.66657191  0.00055642  1
  Mn3.30+  Mn89  1  0.83534240  0.66434528  0.49746632  1
  Mn3.30+  Mn90  1  0.00088675  0.16655164  0.25044064  1
  Mn3.30+  Mn91  1  -0.00054604  0.16808874  0.75076656  1
  Mn3.30+  Mn92  1  -0.00147469  0.50066600  0.25127032  1
  Mn3.30+  Mn93  1  -0.00193028  0.49904129  0.74962983  1
  Mn3.30+  Mn94  1  -0.00052600  0.83354314  0.25038077  1
  Mn3.30+  Mn95  1  0.00108716  0.83427327  0.75090641  1
  Mn3.30+  Mn96  1  0.33346799  0.16789793  0.25201783  1
  Mn3.30+  Mn97  1  0.33134819  0.16587731  0.74844749  1
  Mn3.30+  Mn98  1  0.33190947  0.50076125  0.24899652  1
  Mn3.30+  Mn99  1  0.33080770  0.49914842  0.75046367  1
  Mn3.30+  Mn100  1  0.33338649  0.83514477  0.25021896  1
  Mn3.30+  Mn101  1  0.33501763  0.83375664  0.75031516  1
  Mn3.30+  Mn102  1  0.66705349  0.16659955  0.25068485  1
  Mn3.30+  Mn103  1  0.66885626  0.16628906  0.74875711  1
  Mn3.30+  Mn104  1  0.66804772  0.49779009  0.25374294  1
  Mn3.30+  Mn105  1  0.66890948  0.50078171  0.74738089  1
  Mn3.30+  Mn106  1  0.66629550  0.83328377  0.24953615  1
  Mn3.30+  Mn107  1  0.66657242  0.83284074  0.75247584  1
  Mn3.30+  Mn108  1  0.16604459  0.00104871  0.25064803  1
  Mn3.30+  Mn109  1  0.16726975  -0.00091381  0.74974315  1
  Mn3.30+  Mn110  1  0.16611579  0.33391826  0.25019685  1
  Mn3.30+  Mn111  1  0.16579501  0.33199290  0.74868803  1
  Mn3.30+  Mn112  1  0.16459900  0.66547034  0.24994028  1
  Mn3.30+  Mn113  1  0.16708947  0.66501004  0.74911339  1
  Mn3.30+  Mn114  1  0.50202122  0.00143426  0.25101392  1
  Mn3.30+  Mn115  1  0.50061023  -0.00149755  0.74965636  1
  Mn3.30+  Mn116  1  0.50006855  0.33336849  0.25231077  1
  Mn3.30+  Mn117  1  0.49934227  0.33412432  0.74734005  1
  Mn3.30+  Mn118  1  0.50051913  0.66787538  0.25118549  1
  Mn3.30+  Mn119  1  0.50148627  0.66748872  0.75132064  1
  Mn3.30+  Mn120  1  0.83188249  0.00033390  0.24797942  1
  Mn3.30+  Mn121  1  0.83386107  0.00063324  0.75273472  1
  Mn3.30+  Mn122  1  0.83135607  0.33382555  0.25154019  1
  Mn3.30+  Mn123  1  0.83538714  0.33436957  0.75063026  1
  Mn3.30+  Mn124  1  0.83468201  0.66530292  0.25214831  1
  Mn3.30+  Mn125  1  0.83195879  0.66533060  0.75032030  1
  Mn3.30+  Mn126  1  -0.00019638  0.16748008  -0.00166179  1
  Mn3.30+  Mn127  1  0.00076234  0.16721288  0.50018659  1
  Mn3.30+  Mn128  1  0.00060711  0.49859808  0.00186571  1
  Mn3.30+  Mn129  1  -0.00376484  0.50102385  0.49689662  1
  Mn3.30+  Mn130  1  -0.00014456  0.83433708  -0.00037655  1
  Mn3.30+  Mn131  1  0.00098589  0.83381123  0.49931140  1
  Mn3.30+  Mn132  1  0.33312273  0.16674627  -0.00075083  1
  Mn3.30+  Mn133  1  0.33137851  0.16666729  0.50005968  1
  Mn3.30+  Mn134  1  0.33064721  0.50095242  -0.00038902  1
  Mn3.30+  Mn135  1  0.33182418  0.49889688  0.50064329  1
  Mn3.30+  Mn136  1  0.33612385  0.83389614  -0.00019674  1
  Mn3.30+  Mn137  1  0.33241109  0.83521003  0.50013991  1
  Mn3.30+  Mn138  1  0.66785263  0.16416456  -0.00220147  1
  Mn3.30+  Mn139  1  0.66841536  0.16813198  0.50381854  1
  Mn3.30+  Mn140  1  0.66733295  0.50063961  -0.00131556  1
  Mn3.30+  Mn141  1  0.67011273  0.49806942  0.49997293  1
  Mn3.30+  Mn142  1  0.66472019  0.83507132  -0.00343710  1
  Mn3.30+  Mn143  1  0.66806193  0.83175702  0.50208661  1
  O2-  O144  1  0.02378398  0.16161276  0.12347577  1
  O2-  O145  1  0.02529140  0.16367179  0.62612467  1
  O2-  O146  1  0.02684413  0.49339741  0.12597382  1
  O2-  O147  1  0.01797983  0.49667346  0.62287048  1
  O2-  O148  1  0.02570751  0.82784541  0.12461554  1
  O2-  O149  1  0.01858851  0.82575641  0.62679437  1
  O2-  O150  1  0.36043944  0.16062119  0.12653578  1
  O2-  O151  1  0.35630991  0.15583839  0.62551171  1
  O2-  O152  1  0.36002476  0.49578901  0.12240142  1
  O2-  O153  1  0.35508624  0.49528545  0.62605739  1
  O2-  O154  1  0.35361153  0.82971717  0.12422118  1
  O2-  O155  1  0.35769231  0.82479382  0.62623704  1
  O2-  O156  1  0.69031139  0.15870790  0.12002838  1
  O2-  O157  1  0.69703245  0.16023746  0.62708016  1
  O2-  O158  1  0.68937819  0.49393982  0.12928686  1
  O2-  O159  1  0.69720698  0.49469692  0.62314596  1
  O2-  O160  1  0.69024066  0.82593051  0.12218538  1
  O2-  O161  1  0.69571858  0.82424548  0.62653061  1
  O2-  O162  1  0.13988877  0.32382276  0.12669794  1
  O2-  O163  1  0.13837405  0.32704017  0.62142769  1
  O2-  O164  1  0.14027315  0.66144564  0.12553590  1
  O2-  O165  1  0.14180946  0.66434227  0.62219752  1
  O2-  O166  1  0.14183192  0.99585693  0.12225270  1
  O2-  O167  1  0.14135370  0.99931386  0.62620489  1
  O2-  O168  1  0.47391880  0.32563627  0.12327105  1
  O2-  O169  1  0.46993507  0.32819978  0.62594653  1
  O2-  O170  1  0.47807065  0.66150860  0.12334443  1
  O2-  O171  1  0.47380310  0.66172637  0.62595391  1
  O2-  O172  1  0.47830703  1.00582383  0.12370810  1
  O2-  O173  1  0.47128238  0.99308159  0.62663990  1
  O2-  O174  1  0.80682163  0.32701319  0.12553735  1
  O2-  O175  1  0.81276925  0.32526870  0.62480267  1
  O2-  O176  1  0.80656174  0.66182404  0.12648976  1
  O2-  O177  1  0.81249500  0.66361405  0.62333996  1
  O2-  O178  1  0.80384789  0.99664171  0.12104017  1
  O2-  O179  1  0.80964340  0.99233364  0.62816146  1
  O2-  O180  1  0.30440261  0.17589078  0.37480112  1
  O2-  O181  1  0.30536827  0.17382524  0.87268661  1
  O2-  O182  1  0.30840392  0.50570988  0.37449936  1
  O2-  O183  1  0.30386642  0.50746272  0.87699835  1
  O2-  O184  1  0.30645346  0.84088630  0.37356041  1
  O2-  O185  1  0.30806132  0.83667806  0.87607989  1
  O2-  O186  1  0.64500798  0.17267094  0.38126090  1
  O2-  O187  1  0.64189816  0.17701943  0.87231564  1
  O2-  O188  1  0.64590141  0.50627231  0.37618440  1
  O2-  O189  1  0.64318949  0.50284725  0.87095385  1
  O2-  O190  1  0.64949351  0.83818475  0.37786237  1
  O2-  O191  1  0.63948098  0.84294550  0.87361832  1
  O2-  O192  1  0.97335177  0.16988847  0.37423707  1
  O2-  O193  1  0.97627249  0.17656078  0.87605276  1
  O2-  O194  1  0.97014440  0.50541695  0.37292933  1
  O2-  O195  1  0.98146503  0.50624778  0.87755828  1
  O2-  O196  1  0.97442836  0.84042941  0.37155178  1
  O2-  O197  1  0.97605342  0.83727961  0.87688653  1
  O2-  O198  1  0.18971806  0.00475512  0.37538178  1
  O2-  O199  1  0.19460091  0.00558219  0.87573230  1
  O2-  O200  1  0.19201802  0.34247382  0.37319723  1
  O2-  O201  1  0.19112507  0.33600675  0.87783066  1
  O2-  O202  1  0.19254884  0.67062444  0.37383265  1
  O2-  O203  1  0.19070302  0.67096456  0.87789142  1
  O2-  O204  1  0.52734957  0.00792337  0.37881116  1
  O2-  O205  1  0.52757710  0.00866289  0.87211362  1
  O2-  O206  1  0.52612528  0.33152459  0.37864047  1
  O2-  O207  1  0.52606755  0.34002742  0.87299820  1
  O2-  O208  1  0.52428033  0.66897985  0.37752209  1
  O2-  O209  1  0.52814461  0.67016279  0.87246669  1
  O2-  O210  1  0.85063370  0.00471549  0.37624848  1
  O2-  O211  1  0.86301506  0.00589455  0.87456873  1
  O2-  O212  1  0.85815445  0.33657413  0.37368966  1
  O2-  O213  1  0.85851578  0.33703980  0.87660321  1
  O2-  O214  1  0.86196739  0.67695394  0.37285429  1
  O2-  O215  1  0.85864837  0.67123474  0.87737962  1
  O2-  O216  1  0.23810559  0.09424233  0.02140220  1
  O2-  O217  1  0.23811539  0.09411304  0.51714321  1
  O2-  O218  1  0.23419005  0.42811921  0.02228287  1
  O2-  O219  1  0.23826993  0.42619334  0.51389464  1
  O2-  O220  1  0.23689499  0.75963698  0.02065536  1
  O2-  O221  1  0.24089756  0.75926606  0.51506591  1
  O2-  O222  1  0.56980603  0.09833780  0.01369007  1
  O2-  O223  1  0.57199558  0.09347022  0.52497535  1
  O2-  O224  1  0.57030723  0.42771446  0.01931516  1
  O2-  O225  1  0.57295180  0.42494726  0.52594534  1
  O2-  O226  1  0.57460117  0.75987379  0.01759267  1
  O2-  O227  1  0.57651943  0.75895627  0.52448720  1
  O2-  O228  1  0.90399296  0.09451493  0.02047966  1
  O2-  O229  1  0.90544991  0.09721581  0.52171652  1
  O2-  O230  1  0.90523325  0.42698046  0.02509188  1
  O2-  O231  1  0.90219971  0.42832331  0.51967410  1
  O2-  O232  1  0.90313947  0.75955818  0.02131598  1
  O2-  O233  1  0.90477753  0.76176709  0.51842188  1
  O2-  O234  1  0.26339088  0.26109631  0.22752395  1
  O2-  O235  1  0.26277748  0.26211518  0.72675439  1
  O2-  O236  1  0.26172421  0.59653105  0.23104053  1
  O2-  O237  1  0.26306494  0.59566285  0.73257914  1
  O2-  O238  1  0.25984578  0.92884809  0.22902556  1
  O2-  O239  1  0.26812310  0.93038735  0.73399722  1
  O2-  O240  1  0.59428361  0.25866916  0.22821080  1
  O2-  O241  1  0.59457480  0.26003009  0.72690101  1
  O2-  O242  1  0.59609497  0.59298818  0.23140474  1
  O2-  O243  1  0.59107538  0.59072179  0.72484479  1
  O2-  O244  1  0.59682579  0.93259333  0.23549094  1
  O2-  O245  1  0.59534011  0.92435800  0.72347134  1
  O2-  O246  1  0.92796605  0.26140472  0.23015433  1
  O2-  O247  1  0.93070035  0.26393793  0.73203614  1
  O2-  O248  1  0.92702177  0.59340039  0.22451856  1
  O2-  O249  1  0.92971869  0.59700277  0.73465069  1
  O2-  O250  1  0.92553461  0.92743182  0.22453177  1
  O2-  O251  1  0.92812572  0.92812036  0.73032305  1
  O2-  O252  1  0.09592974  0.23888422  0.27191212  1
  O2-  O253  1  0.09828502  0.23543324  0.76698996  1
  O2-  O254  1  0.09398363  0.57175908  0.26993352  1
  O2-  O255  1  0.09294884  0.57158488  0.77025944  1
  O2-  O256  1  0.09592051  0.90132992  0.26470990  1
  O2-  O257  1  0.09704508  0.90511778  0.77109235  1
  O2-  O258  1  0.42783218  0.23961986  0.27257560  1
  O2-  O259  1  0.42703599  0.23861139  0.77028414  1
  O2-  O260  1  0.42564047  0.57527709  0.26578164  1
  O2-  O261  1  0.42775918  0.57364126  0.77111099  1
  O2-  O262  1  0.42478268  0.91467042  0.26794700  1
  O2-  O263  1  0.43122970  0.90274186  0.77294738  1
  O2-  O264  1  0.76406931  0.23511075  0.26641568  1
  O2-  O265  1  0.76239741  0.24117546  0.77179640  1
  O2-  O266  1  0.76422580  0.56966646  0.27168948  1
  O2-  O267  1  0.75759201  0.57595732  0.76533667  1
  O2-  O268  1  0.76241954  0.90370517  0.26740317  1
  O2-  O269  1  0.76335800  0.90279381  0.76884752  1
  O2-  O270  1  0.07229714  0.07262997  0.48751346  1
  O2-  O271  1  0.07154189  0.06896010  0.97821390  1
  O2-  O272  1  0.06887952  0.40686012  0.47802973  1
  O2-  O273  1  0.07020173  0.40040166  0.97931946  1
  O2-  O274  1  0.07154895  0.73792470  0.47724552  1
  O2-  O275  1  0.07315641  0.73659906  0.98055259  1
  O2-  O276  1  0.40633495  0.07764516  0.47623312  1
  O2-  O277  1  0.40665429  0.07171667  0.97833390  1
  O2-  O278  1  0.40493996  0.40637703  0.48208540  1
  O2-  O279  1  0.40273851  0.40634707  0.97768368  1
  O2-  O280  1  0.40373746  0.74062323  0.48263045  1
  O2-  O281  1  0.40524320  0.73689858  0.98125039  1
  O2-  O282  1  0.73728225  0.07100875  0.48255941  1
  O2-  O283  1  0.74069197  0.07324828  0.97141065  1
  O2-  O284  1  0.73555878  0.39993857  0.48112708  1
  O2-  O285  1  0.73636959  0.40220706  0.98484684  1
  O2-  O286  1  0.74095406  0.73635603  0.47948541  1
  O2-  O287  1  0.73726443  0.73933175  0.97771601  1
  O2-  O288  1  0.09603783  0.23817547  0.47622447  1
  O2-  O289  1  0.09839550  0.23528440  0.98421535  1
  O2-  O290  1  0.09243607  0.57139871  0.47775594  1
  O2-  O291  1  0.09551200  0.57256738  0.98056171  1
  O2-  O292  1  0.09662442  0.90425164  0.48195972  1
  O2-  O293  1  0.10000033  0.90414036  0.98207382  1
  O2-  O294  1  0.42722176  0.23966488  0.48119737  1
  O2-  O295  1  0.42783731  0.23980599  0.97632523  1
  O2-  O296  1  0.42404027  0.57435131  0.48485628  1
  O2-  O297  1  0.42889255  0.57359716  0.97740381  1
  O2-  O298  1  0.42645785  0.90898944  0.48152109  1
  O2-  O299  1  0.43161956  0.90811320  0.97693191  1
  O2-  O300  1  0.76383758  0.23871109  0.48227369  1
  O2-  O301  1  0.76175220  0.23788192  0.97917505  1
  O2-  O302  1  0.76373029  0.57374841  0.47595380  1
  O2-  O303  1  0.76045396  0.57285543  0.98723160  1
  O2-  O304  1  0.76180173  0.90389772  0.48344807  1
  O2-  O305  1  0.76386060  0.90280976  0.97932214  1
  O2-  O306  1  0.07423790  0.07272874  0.26226800  1
  O2-  O307  1  0.06809342  0.07154109  0.77147677  1
  O2-  O308  1  0.06900232  0.40648617  0.27185753  1
  O2-  O309  1  0.07003398  0.40330590  0.76886340  1
  O2-  O310  1  0.07002804  0.73686805  0.27088526  1
  O2-  O311  1  0.07304524  0.73813176  0.77113532  1
  O2-  O312  1  0.40638016  0.07600603  0.27368083  1
  O2-  O313  1  0.40604915  0.07476872  0.77307862  1
  O2-  O314  1  0.40134807  0.40328577  0.26666788  1
  O2-  O315  1  0.40650254  0.40991735  0.77391140  1
  O2-  O316  1  0.40252022  0.73974969  0.26700864  1
  O2-  O317  1  0.40638854  0.73822341  0.76891668  1
  O2-  O318  1  0.73805675  0.07303874  0.27164957  1
  O2-  O319  1  0.73782499  0.06988749  0.77269881  1
  O2-  O320  1  0.73481704  0.40008032  0.26872350  1
  O2-  O321  1  0.73632241  0.40216390  0.76547140  1
  O2-  O322  1  0.74085114  0.73662937  0.26999243  1
  O2-  O323  1  0.73803065  0.73891279  0.77322908  1
  O2-  O324  1  0.24374635  0.09332884  0.22804546  1
  O2-  O325  1  0.23490356  0.09706052  0.73275164  1
  O2-  O326  1  0.23634262  0.42908288  0.22695984  1
  O2-  O327  1  0.23674563  0.42512498  0.73761063  1
  O2-  O328  1  0.23570723  0.76032733  0.22994389  1
  O2-  O329  1  0.24235176  0.75872588  0.73506198  1
  O2-  O330  1  0.57033714  0.09816409  0.23575752  1
  O2-  O331  1  0.57176676  0.09389156  0.72665672  1
  O2-  O332  1  0.57025671  0.42593810  0.22813163  1
  O2-  O333  1  0.57333417  0.42780499  0.72684357  1
  O2-  O334  1  0.57702303  0.75798466  0.23189179  1
  O2-  O335  1  0.57462018  0.75854246  0.72559807  1
  O2-  O336  1  0.90439741  0.09346913  0.22855069  1
  O2-  O337  1  0.90410395  0.09861635  0.72964201  1
  O2-  O338  1  0.90500451  0.42596548  0.22691979  1
  O2-  O339  1  0.90392206  0.42915732  0.72792137  1
  O2-  O340  1  0.90543491  0.76244740  0.22666925  1
  O2-  O341  1  0.90485449  0.76018326  0.73324819  1
  O2-  O342  1  0.26099475  0.26281672  0.02169468  1
  O2-  O343  1  0.26311919  0.26071631  0.52264166  1
  O2-  O344  1  0.26307744  0.59757780  0.02139285  1
  O2-  O345  1  0.26127661  0.59520067  0.51553109  1
  O2-  O346  1  0.26311348  0.93001512  0.01962440  1
  O2-  O347  1  0.26412106  0.93126269  0.51733507  1
  O2-  O348  1  0.59553944  0.26030462  0.01941199  1
  O2-  O349  1  0.59233536  0.25749783  0.52740009  1
  O2-  O350  1  0.59208363  0.59278170  0.02022254  1
  O2-  O351  1  0.59633178  0.59179705  0.52164431  1
  O2-  O352  1  0.59911799  0.93268677  0.01948136  1
  O2-  O353  1  0.59567381  0.92621980  0.52287236  1
  O2-  O354  1  0.92473480  0.26082080  0.02376722  1
  O2-  O355  1  0.93145208  0.26530479  0.51491220  1
  O2-  O356  1  0.92748975  0.59461785  0.02164646  1
  O2-  O357  1  0.92946389  0.59688382  0.51873439  1
  O2-  O358  1  0.92469581  0.92826751  0.02233912  1
  O2-  O359  1  0.92736655  0.92856264  0.52259403  1
