# generated using pymatgen
data_Sr7Ca15Pr50Mn72O216
_symmetry_space_group_name_H-M   'P 1'
_cell_length_a   16.55853688
_cell_length_b   16.60312928
_cell_length_c   15.59393519
_cell_angle_alpha   90.00890508
_cell_angle_beta   89.99503126
_cell_angle_gamma   89.99836087
_symmetry_Int_Tables_number   1
_chemical_formula_structural   Sr7Ca15Pr50Mn72O216
_chemical_formula_sum   'Sr7 Ca15 Pr50 Mn72 O216'
_cell_volume   4287.13961473
_cell_formula_units_Z   1
loop_
 _symmetry_equiv_pos_site_id
 _symmetry_equiv_pos_as_xyz
  1  'x, y, z'
loop_
 _atom_type_symbol
 _atom_type_oxidation_number
  Sr2+  2.0
  Ca2+  2.0
  Pr3+  3.0
  Mn3.30+  3.3
  O2-  -2.0
loop_
 _atom_site_type_symbol
 _atom_site_label
 _atom_site_symmetry_multiplicity
 _atom_site_fract_x
 _atom_site_fract_y
 _atom_site_fract_z
 _atom_site_occupancy
  Sr2+  Sr0  1  0.16820943  0.50940137  0.62542636  1
  Sr2+  Sr1  1  1.00036359  0.65923552  0.37245632  1
  Sr2+  Sr2  1  0.83350953  0.82251311  0.37408185  1
  Sr2+  Sr3  1  0.99902505  0.65767133  0.87796329  1
  Sr2+  Sr4  1  0.49996659  0.48893214  0.87631931  1
  Sr2+  Sr5  1  0.83603017  0.51127190  0.62598091  1
  Sr2+  Sr6  1  0.33454350  0.32160920  0.37712494  1
  Ca2+  Ca7  1  0.50431254  0.51505890  0.12354359  1
  Ca2+  Ca8  1  0.83734138  0.18224170  0.62541778  1
  Ca2+  Ca9  1  0.49616640  0.81927933  0.37206624  1
  Ca2+  Ca10  1  0.33841778  0.32209257  0.87176607  1
  Ca2+  Ca11  1  0.49582830  0.15166559  0.37413940  1
  Ca2+  Ca12  1  0.16862031  0.84573375  0.12409417  1
  Ca2+  Ca13  1  0.66125855  0.01334625  0.12587706  1
  Ca2+  Ca14  1  -0.00457119  0.68272071  0.12397333  1
  Ca2+  Ca15  1  0.32896479  0.35055059  0.62656806  1
  Ca2+  Ca16  1  0.49733795  0.81731754  0.87814442  1
  Ca2+  Ca17  1  0.16379155  0.15148816  0.37485907  1
  Ca2+  Ca18  1  0.66869721  0.31945391  0.87391496  1
  Ca2+  Ca19  1  0.82796302  0.81385785  0.87690902  1
  Ca2+  Ca20  1  0.66901374  0.65331682  0.87670527  1
  Ca2+  Ca21  1  0.50808833  0.85172389  0.12365634  1
  Pr3+  Pr22  1  0.16374439  0.48930263  0.37493161  1
  Pr3+  Pr23  1  0.49588995  0.48800218  0.37273108  1
  Pr3+  Pr24  1  0.16279990  0.82112602  0.37209950  1
  Pr3+  Pr25  1  0.83628976  0.51577090  0.12419021  1
  Pr3+  Pr26  1  0.66572114  0.67680428  0.62777868  1
  Pr3+  Pr27  1  0.50303051  0.17692319  0.12687238  1
  Pr3+  Pr28  1  0.49979090  0.18137671  0.62254855  1
  Pr3+  Pr29  1  0.83249916  0.17738394  0.12597103  1
  Pr3+  Pr30  1  0.33289789  0.01125012  0.12488822  1
  Pr3+  Pr31  1  0.66690138  0.98526219  0.37382389  1
  Pr3+  Pr32  1  -0.00094118  0.01044544  0.12519443  1
  Pr3+  Pr33  1  0.16489156  0.82075455  0.87829203  1
  Pr3+  Pr34  1  0.33665833  0.98672135  0.37473310  1
  Pr3+  Pr35  1  0.33567443  0.65575577  0.37333866  1
  Pr3+  Pr36  1  0.33772686  0.65404687  0.87608453  1
  Pr3+  Pr37  1  0.82560587  0.48696838  0.87421569  1
  Pr3+  Pr38  1  0.82664400  0.15573093  0.87326505  1
  Pr3+  Pr39  1  0.50033241  0.51062881  0.62520260  1
  Pr3+  Pr40  1  0.66965259  0.65694805  0.37370057  1
  Pr3+  Pr41  1  0.83037600  0.15310289  0.37758223  1
  Pr3+  Pr42  1  0.33061658  0.01202458  0.62505447  1
  Pr3+  Pr43  1  0.17116222  0.17865381  0.12653002  1
  Pr3+  Pr44  1  0.16545521  0.15600360  0.87473242  1
  Pr3+  Pr45  1  0.83430013  0.84396805  0.12395394  1
  Pr3+  Pr46  1  1.00368294  0.98711573  0.37403633  1
  Pr3+  Pr47  1  0.50434529  0.84456314  0.62567856  1
  Pr3+  Pr48  1  1.00649331  0.32016084  0.37593622  1
  Pr3+  Pr49  1  0.83166175  0.49083160  0.37579333  1
  Pr3+  Pr50  1  1.00009694  0.98742736  0.87603864  1
  Pr3+  Pr51  1  0.65935716  0.34777823  0.12360020  1
  Pr3+  Pr52  1  -0.00491616  0.01510642  0.62512534  1
  Pr3+  Pr53  1  0.16878567  0.84196931  0.62646226  1
  Pr3+  Pr54  1  0.33498850  0.68174658  0.12311280  1
  Pr3+  Pr55  1  0.66028360  0.68138204  0.12269319  1
  Pr3+  Pr56  1  0.50022064  0.15893517  0.87457500  1
  Pr3+  Pr57  1  0.16572256  0.48834401  0.87485989  1
  Pr3+  Pr58  1  0.33008895  0.67568429  0.62665925  1
  Pr3+  Pr59  1  0.16755995  0.51442252  0.12410383  1
  Pr3+  Pr60  1  0.33406201  0.34636144  0.12422853  1
  Pr3+  Pr61  1  0.66739338  0.32058661  0.37615231  1
  Pr3+  Pr62  1  0.66563282  0.01240926  0.62413630  1
  Pr3+  Pr63  1  0.83606493  0.84098789  0.62620126  1
  Pr3+  Pr64  1  -0.00363863  0.34579381  0.12530903  1
  Pr3+  Pr65  1  0.66623966  0.34644577  0.62643862  1
  Pr3+  Pr66  1  0.17265852  0.18291223  0.62375796  1
  Pr3+  Pr67  1  -0.00295511  0.67630846  0.62631195  1
  Pr3+  Pr68  1  -0.00295334  0.34865067  0.62503463  1
  Pr3+  Pr69  1  0.67030697  0.98462754  0.87640072  1
  Pr3+  Pr70  1  1.00073620  0.32451407  0.87393056  1
  Pr3+  Pr71  1  0.34012982  0.98513159  0.87526986  1
  Mn3.30+  Mn72  1  0.16795177  -0.00031436  -0.00031804  1
  Mn3.30+  Mn73  1  0.16663800  0.00052165  0.50061006  1
  Mn3.30+  Mn74  1  0.16838810  0.33353546  -0.00058228  1
  Mn3.30+  Mn75  1  0.16934386  0.33306115  0.49940909  1
  Mn3.30+  Mn76  1  0.16575434  0.66876670  0.00269924  1
  Mn3.30+  Mn77  1  0.16661536  0.66627069  0.49975115  1
  Mn3.30+  Mn78  1  0.50288651  -0.00101740  -0.00045673  1
  Mn3.30+  Mn79  1  0.49929407  -0.00056770  0.49914401  1
  Mn3.30+  Mn80  1  0.49956449  0.33388959  -0.00268558  1
  Mn3.30+  Mn81  1  0.49751980  0.33280482  0.50043649  1
  Mn3.30+  Mn82  1  0.50167307  0.66762222  -0.00077652  1
  Mn3.30+  Mn83  1  0.49988916  0.66781952  0.49918009  1
  Mn3.30+  Mn84  1  0.83050412  -0.00157566  0.00087780  1
  Mn3.30+  Mn85  1  0.83314759  -0.00036691  0.50076950  1
  Mn3.30+  Mn86  1  0.82984612  0.33287868  0.00067544  1
  Mn3.30+  Mn87  1  0.83494676  0.33313491  0.49930413  1
  Mn3.30+  Mn88  1  0.83136932  0.66709900  -0.00064516  1
  Mn3.30+  Mn89  1  0.83321027  0.66688571  0.49939786  1
  Mn3.30+  Mn90  1  0.00091510  0.16601265  0.25053548  1
  Mn3.30+  Mn91  1  -0.00184517  0.16774015  0.74988267  1
  Mn3.30+  Mn92  1  -0.00025954  0.50259034  0.24881375  1
  Mn3.30+  Mn93  1  -0.00122912  0.50165531  0.75200346  1
  Mn3.30+  Mn94  1  0.00136096  0.83258454  0.24618034  1
  Mn3.30+  Mn95  1  -0.00074683  0.83261106  0.75382015  1
  Mn3.30+  Mn96  1  0.33450965  0.16634919  0.25331431  1
  Mn3.30+  Mn97  1  0.33350119  0.16911607  0.74960426  1
  Mn3.30+  Mn98  1  0.33476915  0.50084285  0.24695146  1
  Mn3.30+  Mn99  1  0.33390644  0.49818969  0.75149596  1
  Mn3.30+  Mn100  1  0.33591521  0.83421256  0.24716713  1
  Mn3.30+  Mn101  1  0.33635725  0.83209176  0.75133771  1
  Mn3.30+  Mn102  1  0.66443123  0.16488781  0.25282357  1
  Mn3.30+  Mn103  1  0.66709229  0.16793410  0.74666314  1
  Mn3.30+  Mn104  1  0.66470860  0.50051419  0.24913521  1
  Mn3.30+  Mn105  1  0.66576562  0.49994790  0.75126097  1
  Mn3.30+  Mn106  1  0.66374557  0.83427943  0.24900284  1
  Mn3.30+  Mn107  1  0.66731353  0.83105591  0.75353636  1
  Mn3.30+  Mn108  1  0.16837470  0.00010923  0.24908378  1
  Mn3.30+  Mn109  1  0.16663826  -0.00032458  0.75092198  1
  Mn3.30+  Mn110  1  0.16748753  0.33262707  0.24992088  1
  Mn3.30+  Mn111  1  0.17011585  0.33429411  0.75141865  1
  Mn3.30+  Mn112  1  0.16632041  0.66926009  0.24520455  1
  Mn3.30+  Mn113  1  0.16584828  0.66563707  0.75241210  1
  Mn3.30+  Mn114  1  0.50059368  -0.00142714  0.25086102  1
  Mn3.30+  Mn115  1  0.50139541  -0.00019975  0.75011761  1
  Mn3.30+  Mn116  1  0.49880340  0.33244811  0.25102222  1
  Mn3.30+  Mn117  1  0.49844415  0.33423530  0.75011756  1
  Mn3.30+  Mn118  1  0.50074996  0.66888694  0.24839325  1
  Mn3.30+  Mn119  1  0.50074011  0.66672571  0.75252216  1
  Mn3.30+  Mn120  1  0.83069247  -0.00112665  0.24874862  1
  Mn3.30+  Mn121  1  0.83266098  -0.00149179  0.75044549  1
  Mn3.30+  Mn122  1  0.83224662  0.33337065  0.25106044  1
  Mn3.30+  Mn123  1  0.83239155  0.33211783  0.74938554  1
  Mn3.30+  Mn124  1  0.83331495  0.66777191  0.24883577  1
  Mn3.30+  Mn125  1  0.83161625  0.66619640  0.75299987  1
  Mn3.30+  Mn126  1  -0.00127398  0.16728092  0.00003612  1
  Mn3.30+  Mn127  1  0.00112656  0.16704136  0.50069496  1
  Mn3.30+  Mn128  1  -0.00102726  0.50196060  -0.00027785  1
  Mn3.30+  Mn129  1  -0.00019359  0.50200510  0.49934720  1
  Mn3.30+  Mn130  1  -0.00108683  0.83249364  0.00056260  1
  Mn3.30+  Mn131  1  0.00175740  0.83293608  0.50022559  1
  Mn3.30+  Mn132  1  0.33466978  0.16800436  -0.00114532  1
  Mn3.30+  Mn133  1  0.33338425  0.16731407  0.49766088  1
  Mn3.30+  Mn134  1  0.33630151  0.49993935  0.00107316  1
  Mn3.30+  Mn135  1  0.33233249  0.49930136  0.49960228  1
  Mn3.30+  Mn136  1  0.33693994  0.83440026  0.00210840  1
  Mn3.30+  Mn137  1  0.33516694  0.83233804  0.49903229  1
  Mn3.30+  Mn138  1  0.66585502  0.16619299  0.00029741  1
  Mn3.30+  Mn139  1  0.66611108  0.16671835  0.50047643  1
  Mn3.30+  Mn140  1  0.66470396  0.50005402  -0.00125860  1
  Mn3.30+  Mn141  1  0.66570602  0.50046096  0.50047886  1
  Mn3.30+  Mn142  1  0.66493945  0.83299954  -0.00185520  1
  Mn3.30+  Mn143  1  0.66608608  0.83227382  0.49917428  1
  O2-  O144  1  0.02652683  0.16047067  0.12354603  1
  O2-  O145  1  0.02815784  0.16202723  0.62427732  1
  O2-  O146  1  0.02397418  0.49057361  0.12352505  1
  O2-  O147  1  0.01818897  0.49733913  0.62578406  1
  O2-  O148  1  0.02523058  0.83170566  0.12288635  1
  O2-  O149  1  0.02428190  0.82666051  0.62879105  1
  O2-  O150  1  0.35862178  0.15973416  0.12627122  1
  O2-  O151  1  0.35688559  0.15777379  0.62454408  1
  O2-  O152  1  0.36192314  0.49421621  0.12438014  1
  O2-  O153  1  0.35558206  0.49956914  0.62632697  1
  O2-  O154  1  0.36631754  0.83144362  0.12443106  1
  O2-  O155  1  0.36025029  0.82531197  0.62534496  1
  O2-  O156  1  0.68972799  0.15999003  0.13005490  1
  O2-  O157  1  0.69611758  0.16059542  0.62308176  1
  O2-  O158  1  0.69175024  0.49365119  0.12487366  1
  O2-  O159  1  0.68661795  0.49508390  0.62458752  1
  O2-  O160  1  0.69144567  0.82783852  0.12256936  1
  O2-  O161  1  0.69241033  0.82678414  0.62765721  1
  O2-  O162  1  0.13969514  0.32615016  0.12495303  1
  O2-  O163  1  0.14092434  0.32938045  0.62615392  1
  O2-  O164  1  0.13714854  0.66037059  0.12368040  1
  O2-  O165  1  0.14288379  0.66748047  0.62951350  1
  O2-  O166  1  0.14363710  0.99589546  0.12255740  1
  O2-  O167  1  0.14063070  0.99095525  0.62802370  1
  O2-  O168  1  0.47733659  0.32387551  0.12538811  1
  O2-  O169  1  0.47171399  0.32953500  0.62318841  1
  O2-  O170  1  0.47795587  0.65799603  0.12453311  1
  O2-  O171  1  0.47350917  0.66078255  0.62569631  1
  O2-  O172  1  0.47628948  0.99734827  0.12511941  1
  O2-  O173  1  0.47432506  0.99181004  0.62562952  1
  O2-  O174  1  0.80512281  0.32646698  0.12814616  1
  O2-  O175  1  0.81084965  0.32808939  0.62364957  1
  O2-  O176  1  0.80566774  0.66424856  0.12399751  1
  O2-  O177  1  0.81121260  0.67061642  0.62639358  1
  O2-  O178  1  0.80373262  0.99283336  0.12347776  1
  O2-  O179  1  0.80879613  0.98834178  0.62599053  1
  O2-  O180  1  0.30507612  0.16621408  0.37594870  1
  O2-  O181  1  0.30869686  0.17503042  0.87316919  1
  O2-  O182  1  0.30824886  0.50785814  0.37022602  1
  O2-  O183  1  0.30891004  0.50698399  0.87794940  1
  O2-  O184  1  0.30646186  0.83686853  0.37336680  1
  O2-  O185  1  0.30900985  0.83722397  0.87664094  1
  O2-  O186  1  0.63798387  0.17354620  0.37740434  1
  O2-  O187  1  0.64459747  0.17253225  0.86989459  1
  O2-  O188  1  0.64008802  0.50736712  0.37514461  1
  O2-  O189  1  0.64886810  0.50738659  0.87526109  1
  O2-  O190  1  0.63855364  0.83716064  0.37472326  1
  O2-  O191  1  0.63683094  0.84098586  0.87548367  1
  O2-  O192  1  0.97405013  0.17153278  0.37627394  1
  O2-  O193  1  0.97113458  0.17500724  0.87662969  1
  O2-  O194  1  0.97611336  0.50211246  0.37250019  1
  O2-  O195  1  0.97228368  0.49803287  0.87799521  1
  O2-  O196  1  0.98368865  0.83960401  0.37211437  1
  O2-  O197  1  0.97152763  0.84073436  0.87673926  1
  O2-  O198  1  0.19087354  0.00415700  0.37491293  1
  O2-  O199  1  0.19408146  0.00704370  0.87443522  1
  O2-  O200  1  0.18529122  0.34287168  0.37224403  1
  O2-  O201  1  0.19548727  0.33943731  0.87677292  1
  O2-  O202  1  0.19185184  0.67316051  0.36870397  1
  O2-  O203  1  0.19319472  0.67270989  0.87864458  1
  O2-  O204  1  0.52429715  0.00801367  0.37681005  1
  O2-  O205  1  0.52697918  0.01104899  0.87214583  1
  O2-  O206  1  0.52492309  0.34125166  0.37645649  1
  O2-  O207  1  0.52653248  0.32927767  0.87368419  1
  O2-  O208  1  0.52569167  0.67416909  0.37335502  1
  O2-  O209  1  0.52573994  0.67393743  0.87518260  1
  O2-  O210  1  0.85959066  0.00534900  0.37595571  1
  O2-  O211  1  0.85775796  0.01019535  0.87521507  1
  O2-  O212  1  0.86040393  0.33968644  0.37350556  1
  O2-  O213  1  0.85630646  0.33568268  0.87504354  1
  O2-  O214  1  0.84949939  0.66432185  0.37279269  1
  O2-  O215  1  0.85110329  0.66784327  0.87709031  1
  O2-  O216  1  0.23930034  0.09558308  0.01857486  1
  O2-  O217  1  0.23732515  0.09233861  0.52320604  1
  O2-  O218  1  0.23793195  0.42771820  0.02294308  1
  O2-  O219  1  0.24046787  0.42739270  0.51357383  1
  O2-  O220  1  0.24151911  0.76397294  0.02353787  1
  O2-  O221  1  0.24065664  0.76177796  0.52009307  1
  O2-  O222  1  0.57016866  0.09726952  0.01632138  1
  O2-  O223  1  0.57366471  0.09279201  0.52481203  1
  O2-  O224  1  0.57061599  0.42743881  0.02224586  1
  O2-  O225  1  0.57323439  0.42750869  0.51993499  1
  O2-  O226  1  0.57038300  0.76364983  0.02295401  1
  O2-  O227  1  0.57387143  0.75913255  0.52419575  1
  O2-  O228  1  0.90405683  0.09232047  0.02344978  1
  O2-  O229  1  0.90461716  0.09726522  0.52254500  1
  O2-  O230  1  0.90364892  0.42646538  0.02098935  1
  O2-  O231  1  0.90804455  0.42684772  0.51573352  1
  O2-  O232  1  0.90315632  0.76080925  0.01915267  1
  O2-  O233  1  0.90933456  0.76041844  0.51982943  1
  O2-  O234  1  0.26188828  0.26000861  0.22702881  1
  O2-  O235  1  0.26184825  0.26119038  0.72583032  1
  O2-  O236  1  0.26074451  0.59674571  0.22499250  1
  O2-  O237  1  0.26232795  0.59655008  0.73635973  1
  O2-  O238  1  0.26623893  0.92862987  0.23123634  1
  O2-  O239  1  0.26471390  0.92456764  0.73030855  1
  O2-  O240  1  0.59636190  0.26234430  0.23156170  1
  O2-  O241  1  0.59282955  0.26051803  0.72380112  1
  O2-  O242  1  0.59668951  0.59739253  0.23271044  1
  O2-  O243  1  0.58987262  0.59254642  0.72756040  1
  O2-  O244  1  0.59718672  0.93165156  0.23167647  1
  O2-  O245  1  0.59798798  0.92726857  0.72853466  1
  O2-  O246  1  0.92900558  0.25924568  0.22956259  1
  O2-  O247  1  0.93068950  0.26242567  0.73068452  1
  O2-  O248  1  0.92788986  0.59330327  0.22537832  1
  O2-  O249  1  0.92722506  0.59678403  0.73361356  1
  O2-  O250  1  0.92758305  0.92682658  0.22841163  1
  O2-  O251  1  0.92954864  0.92851996  0.73031015  1
  O2-  O252  1  0.09640922  0.23809969  0.27110435  1
  O2-  O253  1  0.09694898  0.24149120  0.77195743  1
  O2-  O254  1  0.09755554  0.56904356  0.26523270  1
  O2-  O255  1  0.09529364  0.57295587  0.77191842  1
  O2-  O256  1  0.09516329  0.90902627  0.26842555  1
  O2-  O257  1  0.09377597  0.90546554  0.77392627  1
  O2-  O258  1  0.43001857  0.23326862  0.26852788  1
  O2-  O259  1  0.43090821  0.23629657  0.76562804  1
  O2-  O260  1  0.42816954  0.57570491  0.27152096  1
  O2-  O261  1  0.42557017  0.57393774  0.76863555  1
  O2-  O262  1  0.42876326  0.90600350  0.27470719  1
  O2-  O263  1  0.43003487  0.90376151  0.77199730  1
  O2-  O264  1  0.76089778  0.23800870  0.27340452  1
  O2-  O265  1  0.76230856  0.23754178  0.76638105  1
  O2-  O266  1  0.76017748  0.56980490  0.26719677  1
  O2-  O267  1  0.76145865  0.57151099  0.76620244  1
  O2-  O268  1  0.75851766  0.90683325  0.26921810  1
  O2-  O269  1  0.76356043  0.90199542  0.77339745  1
  O2-  O270  1  0.06698672  0.06996053  0.48266603  1
  O2-  O271  1  0.07122653  0.07461369  0.97771934  1
  O2-  O272  1  0.07197534  0.40622581  0.48185644  1
  O2-  O273  1  0.07275598  0.40463147  0.97978358  1
  O2-  O274  1  0.07693186  0.74139667  0.48341786  1
  O2-  O275  1  0.07607970  0.74437484  0.97979720  1
  O2-  O276  1  0.40109967  0.06902016  0.48392505  1
  O2-  O277  1  0.40643722  0.07137307  0.97886906  1
  O2-  O278  1  0.40987150  0.41067597  0.48043961  1
  O2-  O279  1  0.40309709  0.39873473  0.98204386  1
  O2-  O280  1  0.40367955  0.73745809  0.48049551  1
  O2-  O281  1  0.40372321  0.73803928  0.98227903  1
  O2-  O282  1  0.73743330  0.07206340  0.47820160  1
  O2-  O283  1  0.73924226  0.07199926  0.97827595  1
  O2-  O284  1  0.73840957  0.40747982  0.47845048  1
  O2-  O285  1  0.73578041  0.40283291  0.97931486  1
  O2-  O286  1  0.73610200  0.73847333  0.48371185  1
  O2-  O287  1  0.73272093  0.73616958  0.98159243  1
  O2-  O288  1  0.09728528  0.23649588  0.47897894  1
  O2-  O289  1  0.09513254  0.24115153  0.97760248  1
  O2-  O290  1  0.09485530  0.57171254  0.48076787  1
  O2-  O291  1  0.09622540  0.56850435  0.98238298  1
  O2-  O292  1  0.09676720  0.90583854  0.48120079  1
  O2-  O293  1  0.09317058  0.90988191  0.97671230  1
  O2-  O294  1  0.43219816  0.23283892  0.48161909  1
  O2-  O295  1  0.42998656  0.23591974  0.98296655  1
  O2-  O296  1  0.42779873  0.57331253  0.47867098  1
  O2-  O297  1  0.42556912  0.57712091  0.98064132  1
  O2-  O298  1  0.42783539  0.90246900  0.47833715  1
  O2-  O299  1  0.43094369  0.90709630  0.97569982  1
  O2-  O300  1  0.76042418  0.24068657  0.47685278  1
  O2-  O301  1  0.76228006  0.23484315  0.98494794  1
  O2-  O302  1  0.75729873  0.57307462  0.48014077  1
  O2-  O303  1  0.76431503  0.56755970  0.98608206  1
  O2-  O304  1  0.75699351  0.90614413  0.48207704  1
  O2-  O305  1  0.76252925  0.90175596  0.97609797  1
  O2-  O306  1  0.06912911  0.07157999  0.26752048  1
  O2-  O307  1  0.06788453  0.07501403  0.77220496  1
  O2-  O308  1  0.07027846  0.40537836  0.26722774  1
  O2-  O309  1  0.07421781  0.40619282  0.77114369  1
  O2-  O310  1  0.07711995  0.74317311  0.26719436  1
  O2-  O311  1  0.07553906  0.74286324  0.77156307  1
  O2-  O312  1  0.40326886  0.06826975  0.26801783  1
  O2-  O313  1  0.40409340  0.07303471  0.76941904  1
  O2-  O314  1  0.40759500  0.40502951  0.26765788  1
  O2-  O315  1  0.40464829  0.40400974  0.76839113  1
  O2-  O316  1  0.40261603  0.73744387  0.26688603  1
  O2-  O317  1  0.40461938  0.73720635  0.76910712  1
  O2-  O318  1  0.73833186  0.07491990  0.27594589  1
  O2-  O319  1  0.73729781  0.06889214  0.76888238  1
  O2-  O320  1  0.73659032  0.40644554  0.27292947  1
  O2-  O321  1  0.73878872  0.40242005  0.76907256  1
  O2-  O322  1  0.73375357  0.73853720  0.26521319  1
  O2-  O323  1  0.73478318  0.73517681  0.77019380  1
  O2-  O324  1  0.23980555  0.09323622  0.22783648  1
  O2-  O325  1  0.23837685  0.09589563  0.72967689  1
  O2-  O326  1  0.23855827  0.42724287  0.22676939  1
  O2-  O327  1  0.23920452  0.42815062  0.73576394  1
  O2-  O328  1  0.24096366  0.76373899  0.22420129  1
  O2-  O329  1  0.24029826  0.76086140  0.73186630  1
  O2-  O330  1  0.57045454  0.09448478  0.23268400  1
  O2-  O331  1  0.57333246  0.09555260  0.72544661  1
  O2-  O332  1  0.57198697  0.43016621  0.22954932  1
  O2-  O333  1  0.57135079  0.42520265  0.72762838  1
  O2-  O334  1  0.57036407  0.76294564  0.22524548  1
  O2-  O335  1  0.57295611  0.75929200  0.72633011  1
  O2-  O336  1  0.90372768  0.09272386  0.22895245  1
  O2-  O337  1  0.90216820  0.09421228  0.72749894  1
  O2-  O338  1  0.90420310  0.42804736  0.22883261  1
  O2-  O339  1  0.90695554  0.42347319  0.73470962  1
  O2-  O340  1  0.90624905  0.76115796  0.22906764  1
  O2-  O341  1  0.90660646  0.75989895  0.73220521  1
  O2-  O342  1  0.25938357  0.26010826  0.02439084  1
  O2-  O343  1  0.26338772  0.26056613  0.52333487  1
  O2-  O344  1  0.26001726  0.59561611  0.02265380  1
  O2-  O345  1  0.26242091  0.59749885  0.51490401  1
  O2-  O346  1  0.26662359  0.92874413  0.01661270  1
  O2-  O347  1  0.26331897  0.92555257  0.52151979  1
  O2-  O348  1  0.59369717  0.26034174  0.02107162  1
  O2-  O349  1  0.59588948  0.26236271  0.52273376  1
  O2-  O350  1  0.59568980  0.59472933  0.01822014  1
  O2-  O351  1  0.59302903  0.59394287  0.52067976  1
  O2-  O352  1  0.59947340  0.93310345  0.01810250  1
  O2-  O353  1  0.59510332  0.92593872  0.52146503  1
  O2-  O354  1  0.92655579  0.26082647  0.02257711  1
  O2-  O355  1  0.93378660  0.26256024  0.51758927  1
  O2-  O356  1  0.92743752  0.59421129  0.02399645  1
  O2-  O357  1  0.92814569  0.59537936  0.51748197  1
  O2-  O358  1  0.92680411  0.92877620  0.02173768  1
  O2-  O359  1  0.92929098  0.92716539  0.52042423  1
