# generated using pymatgen
data_Sr7Ca15Pr50Mn72O216
_symmetry_space_group_name_H-M   'P 1'
_cell_length_a   16.55721362
_cell_length_b   16.60101591
_cell_length_c   15.58945421
_cell_angle_alpha   90.00103957
_cell_angle_beta   89.99900300
_cell_angle_gamma   89.99735309
_symmetry_Int_Tables_number   1
_chemical_formula_structural   Sr7Ca15Pr50Mn72O216
_chemical_formula_sum   'Sr7 Ca15 Pr50 Mn72 O216'
_cell_volume   4285.01974864
_cell_formula_units_Z   1
loop_
 _symmetry_equiv_pos_site_id
 _symmetry_equiv_pos_as_xyz
  1  'x, y, z'
loop_
 _atom_type_symbol
 _atom_type_oxidation_number
  Sr2+  2.0
  Ca2+  2.0
  Pr3+  3.0
  Mn3.30+  3.3
  O2-  -2.0
loop_
 _atom_site_type_symbol
 _atom_site_label
 _atom_site_symmetry_multiplicity
 _atom_site_fract_x
 _atom_site_fract_y
 _atom_site_fract_z
 _atom_site_occupancy
  Sr2+  Sr0  1  0.33563651  0.98696805  0.37659962  1
  Sr2+  Sr1  1  0.83404721  0.17422821  0.12548976  1
  Sr2+  Sr2  1  0.83609334  0.51289244  0.12635146  1
  Sr2+  Sr3  1  1.00065587  0.32316686  0.37364177  1
  Sr2+  Sr4  1  0.16612924  0.82608512  0.37166590  1
  Sr2+  Sr5  1  0.83663367  0.17584483  0.62455463  1
  Sr2+  Sr6  1  0.66989933  0.65817087  0.87574314  1
  Ca2+  Ca7  1  0.50512054  0.84917293  0.12853639  1
  Ca2+  Ca8  1  0.50190537  0.18071431  0.62204497  1
  Ca2+  Ca9  1  0.83218726  0.82142928  0.37404562  1
  Ca2+  Ca10  1  0.82977241  0.81765812  0.87575696  1
  Ca2+  Ca11  1  0.50467967  0.51621720  0.12548937  1
  Ca2+  Ca12  1  0.67011351  0.98303890  0.37512497  1
  Ca2+  Ca13  1  0.67103194  0.31776680  0.37418240  1
  Ca2+  Ca14  1  -0.00484282  0.68229499  0.12667895  1
  Ca2+  Ca15  1  0.16749430  0.84653135  0.12618288  1
  Ca2+  Ca16  1  0.16314855  0.15077821  0.87445792  1
  Ca2+  Ca17  1  0.33111976  0.01522151  0.62274893  1
  Ca2+  Ca18  1  0.49527389  0.82248844  0.37228999  1
  Ca2+  Ca19  1  0.16239333  0.48596917  0.87584665  1
  Ca2+  Ca20  1  0.33718857  0.31665215  0.37555881  1
  Ca2+  Ca21  1  -0.00359153  0.01607233  0.62348794  1
  Pr3+  Pr22  1  0.16845861  0.17687118  0.62545614  1
  Pr3+  Pr23  1  0.33366385  0.31956209  0.87488529  1
  Pr3+  Pr24  1  0.66275214  0.68237231  0.12468256  1
  Pr3+  Pr25  1  0.50218399  0.84689538  0.62304204  1
  Pr3+  Pr26  1  0.83063819  0.15334054  0.87453422  1
  Pr3+  Pr27  1  0.82879168  0.15223234  0.37541255  1
  Pr3+  Pr28  1  -0.00383768  0.34514900  0.12663813  1
  Pr3+  Pr29  1  0.66269190  0.34884108  0.12763274  1
  Pr3+  Pr30  1  0.16723204  0.51307253  0.12475278  1
  Pr3+  Pr31  1  0.16538333  0.48807712  0.37381065  1
  Pr3+  Pr32  1  0.49759235  0.15358989  0.37710747  1
  Pr3+  Pr33  1  0.17048989  0.17759460  0.12471577  1
  Pr3+  Pr34  1  0.33121467  0.34650189  0.12761784  1
  Pr3+  Pr35  1  0.33346613  0.00885658  0.12763666  1
  Pr3+  Pr36  1  0.83553968  0.51190895  0.62369305  1
  Pr3+  Pr37  1  0.50267757  0.51206351  0.62455097  1
  Pr3+  Pr38  1  0.66263475  0.01642366  0.62231361  1
  Pr3+  Pr39  1  1.00132664  0.65318485  0.87749519  1
  Pr3+  Pr40  1  0.33148002  0.68254104  0.12464714  1
  Pr3+  Pr41  1  0.83477927  0.84087866  0.12557371  1
  Pr3+  Pr42  1  0.82840842  0.48844605  0.87737790  1
  Pr3+  Pr43  1  0.49880919  0.48763424  0.87789193  1
  Pr3+  Pr44  1  0.17035442  0.84990226  0.62403183  1
  Pr3+  Pr45  1  0.82891351  0.48455439  0.37253616  1
  Pr3+  Pr46  1  0.33492282  0.65246030  0.87604348  1
  Pr3+  Pr47  1  0.49503191  0.48496956  0.37246380  1
  Pr3+  Pr48  1  0.66374278  0.34362425  0.62225799  1
  Pr3+  Pr49  1  1.00169049  0.98898442  0.87387558  1
  Pr3+  Pr50  1  0.66744902  0.65832819  0.37403091  1
  Pr3+  Pr51  1  0.49793993  0.15360947  0.87257452  1
  Pr3+  Pr52  1  0.16347112  0.82224069  0.87690221  1
  Pr3+  Pr53  1  0.83744467  0.84773918  0.62403615  1
  Pr3+  Pr54  1  0.33461593  0.98809394  0.87335707  1
  Pr3+  Pr55  1  0.67268542  0.98516705  0.87430672  1
  Pr3+  Pr56  1  1.00244639  0.65723317  0.37247917  1
  Pr3+  Pr57  1  0.33209389  0.34364388  0.62266022  1
  Pr3+  Pr58  1  -0.00104290  0.00938765  0.12660995  1
  Pr3+  Pr59  1  -0.00229738  0.67975488  0.62459395  1
  Pr3+  Pr60  1  0.66280849  0.01068595  0.12739633  1
  Pr3+  Pr61  1  0.16909857  0.51186036  0.62525672  1
  Pr3+  Pr62  1  0.50378332  0.17717703  0.12646264  1
  Pr3+  Pr63  1  0.16552435  0.15446152  0.37555790  1
  Pr3+  Pr64  1  1.00355465  0.98886801  0.37653030  1
  Pr3+  Pr65  1  0.66955298  0.32156058  0.87605107  1
  Pr3+  Pr66  1  0.33610041  0.65976908  0.37406045  1
  Pr3+  Pr67  1  0.49779768  0.81988301  0.87655736  1
  Pr3+  Pr68  1  1.00417392  0.31898399  0.87659548  1
  Pr3+  Pr69  1  0.32962861  0.67952105  0.62509750  1
  Pr3+  Pr70  1  0.66499229  0.68084034  0.62536871  1
  Pr3+  Pr71  1  -0.00366506  0.34420525  0.62365505  1
  Mn3.30+  Mn72  1  0.16734969  -0.00044875  0.00006451  1
  Mn3.30+  Mn73  1  0.16702851  0.00063326  0.50147024  1
  Mn3.30+  Mn74  1  0.16660435  0.33331424  -0.00072205  1
  Mn3.30+  Mn75  1  0.16738219  0.33262726  0.49846933  1
  Mn3.30+  Mn76  1  0.16459070  0.66725425  0.00211323  1
  Mn3.30+  Mn77  1  0.16652816  0.66875472  0.49855035  1
  Mn3.30+  Mn78  1  0.50102048  -0.00117437  -0.00113543  1
  Mn3.30+  Mn79  1  0.49979240  -0.00017758  0.49977565  1
  Mn3.30+  Mn80  1  0.49945839  0.33407680  0.00164785  1
  Mn3.30+  Mn81  1  0.49986839  0.33201013  0.49743643  1
  Mn3.30+  Mn82  1  0.49966837  0.66682926  0.00140871  1
  Mn3.30+  Mn83  1  0.50017494  0.66829734  0.49923071  1
  Mn3.30+  Mn84  1  0.83380956  -0.00274128  0.00032859  1
  Mn3.30+  Mn85  1  0.83297535  -0.00138641  0.49874265  1
  Mn3.30+  Mn86  1  0.83408702  0.33315223  0.00224139  1
  Mn3.30+  Mn87  1  0.83117881  0.33116042  0.49813065  1
  Mn3.30+  Mn88  1  0.83432404  0.66743843  0.00146502  1
  Mn3.30+  Mn89  1  0.83312236  0.66809890  0.49807347  1
  Mn3.30+  Mn90  1  -0.00085018  0.16637736  0.25011488  1
  Mn3.30+  Mn91  1  0.00126471  0.16554375  0.75029252  1
  Mn3.30+  Mn92  1  -0.00051828  0.50167666  0.24955892  1
  Mn3.30+  Mn93  1  0.00054286  0.49942409  0.75147212  1
  Mn3.30+  Mn94  1  -0.00028508  0.83272295  0.24904872  1
  Mn3.30+  Mn95  1  -0.00093039  0.83457463  0.75059990  1
  Mn3.30+  Mn96  1  0.33517151  0.16625944  0.25139700  1
  Mn3.30+  Mn97  1  0.33318341  0.16539270  0.74845841  1
  Mn3.30+  Mn98  1  0.33487229  0.50098172  0.24831595  1
  Mn3.30+  Mn99  1  0.33190004  0.49835727  0.75187017  1
  Mn3.30+  Mn100  1  0.33499808  0.83401708  0.24886762  1
  Mn3.30+  Mn101  1  0.33270762  0.83465137  0.74984321  1
  Mn3.30+  Mn102  1  0.66641696  0.16610436  0.25205336  1
  Mn3.30+  Mn103  1  0.66538579  0.16764835  0.74786065  1
  Mn3.30+  Mn104  1  0.66398810  0.50138289  0.24990063  1
  Mn3.30+  Mn105  1  0.66708586  0.50021802  0.75021151  1
  Mn3.30+  Mn106  1  0.66538271  0.83459584  0.25334812  1
  Mn3.30+  Mn107  1  0.66893456  0.83401008  0.74892759  1
  Mn3.30+  Mn108  1  0.16722670  -0.00139394  0.24979393  1
  Mn3.30+  Mn109  1  0.16678406  0.00170763  0.74895672  1
  Mn3.30+  Mn110  1  0.16785753  0.33306985  0.25113402  1
  Mn3.30+  Mn111  1  0.16609954  0.33276967  0.75134623  1
  Mn3.30+  Mn112  1  0.16594171  0.66995242  0.24657274  1
  Mn3.30+  Mn113  1  0.16552971  0.66591674  0.75227439  1
  Mn3.30+  Mn114  1  0.50116653  -0.00266393  0.25378036  1
  Mn3.30+  Mn115  1  0.49964667  0.00140996  0.74708096  1
  Mn3.30+  Mn116  1  0.49950285  0.33353044  0.25164467  1
  Mn3.30+  Mn117  1  0.49983480  0.33251590  0.74925373  1
  Mn3.30+  Mn118  1  0.50027797  0.66880062  0.24847155  1
  Mn3.30+  Mn119  1  0.49959022  0.66606372  0.75118054  1
  Mn3.30+  Mn120  1  0.83138598  -0.00347365  0.25168881  1
  Mn3.30+  Mn121  1  0.83545042  -0.00052179  0.74849494  1
  Mn3.30+  Mn122  1  0.83131965  0.33121263  0.25014356  1
  Mn3.30+  Mn123  1  0.83384533  0.33304195  0.74968557  1
  Mn3.30+  Mn124  1  0.83394214  0.66772808  0.25060730  1
  Mn3.30+  Mn125  1  0.83332140  0.66774825  0.75037473  1
  Mn3.30+  Mn126  1  0.00160127  0.16511128  0.00018385  1
  Mn3.30+  Mn127  1  -0.00111071  0.16662080  0.49939496  1
  Mn3.30+  Mn128  1  0.00008420  0.50094261  0.00067169  1
  Mn3.30+  Mn129  1  0.00047590  0.50023483  0.49880659  1
  Mn3.30+  Mn130  1  -0.00087165  0.83214979  0.00042055  1
  Mn3.30+  Mn131  1  0.00011088  0.83518824  0.49984504  1
  Mn3.30+  Mn132  1  0.33311607  0.16553539  -0.00133301  1
  Mn3.30+  Mn133  1  0.33492657  0.16581519  0.50155631  1
  Mn3.30+  Mn134  1  0.33271356  0.49955265  0.00146386  1
  Mn3.30+  Mn135  1  0.33397976  0.49944217  0.49829704  1
  Mn3.30+  Mn136  1  0.33272496  0.83445500  0.00241734  1
  Mn3.30+  Mn137  1  0.33518831  0.83476111  0.49898673  1
  Mn3.30+  Mn138  1  0.66674041  0.16652893  0.00067116  1
  Mn3.30+  Mn139  1  0.66502365  0.16713950  0.49902806  1
  Mn3.30+  Mn140  1  0.66558367  0.50249453  0.00225395  1
  Mn3.30+  Mn141  1  0.66587788  0.49945579  0.49748096  1
  Mn3.30+  Mn142  1  0.66713843  0.83366071  0.00019034  1
  Mn3.30+  Mn143  1  0.66719024  0.83492049  0.49691994  1
  O2-  O144  1  0.02648724  0.15916324  0.12446674  1
  O2-  O145  1  0.02386646  0.16373424  0.62547071  1
  O2-  O146  1  0.02424532  0.49209280  0.12510238  1
  O2-  O147  1  0.02458955  0.49414298  0.62506337  1
  O2-  O148  1  0.02505013  0.82819622  0.12325772  1
  O2-  O149  1  0.02748609  0.82509489  0.62683121  1
  O2-  O150  1  0.35965089  0.15912262  0.12320429  1
  O2-  O151  1  0.35950199  0.16245865  0.62540257  1
  O2-  O152  1  0.36278725  0.49326919  0.12554877  1
  O2-  O153  1  0.35915078  0.49351889  0.62482839  1
  O2-  O154  1  0.36270080  0.83203205  0.12276364  1
  O2-  O155  1  0.35842195  0.82535253  0.62601540  1
  O2-  O156  1  0.68417541  0.15897506  0.12614600  1
  O2-  O157  1  0.68782004  0.16469656  0.62430166  1
  O2-  O158  1  0.68621778  0.49647539  0.12578625  1
  O2-  O159  1  0.69128798  0.49278360  0.62158991  1
  O2-  O160  1  0.69034675  0.83283623  0.12731601  1
  O2-  O161  1  0.69243303  0.82965294  0.62388394  1
  O2-  O162  1  0.14132507  0.32625795  0.12463652  1
  O2-  O163  1  0.14037950  0.32660039  0.62690702  1
  O2-  O164  1  0.13627334  0.65817449  0.12304430  1
  O2-  O165  1  0.14136725  0.65905553  0.62749470  1
  O2-  O166  1  0.14376637  0.99655839  0.12473197  1
  O2-  O167  1  0.13939457  0.99726095  0.62689652  1
  O2-  O168  1  0.47318536  0.32378287  0.12502448  1
  O2-  O169  1  0.47560826  0.33054759  0.62310648  1
  O2-  O170  1  0.47511628  0.65893025  0.12382454  1
  O2-  O171  1  0.47409351  0.65995842  0.62771194  1
  O2-  O172  1  0.47894007  0.99622301  0.12565613  1
  O2-  O173  1  0.47290718  0.99132836  0.62505489  1
  O2-  O174  1  0.80797681  0.33012081  0.12609410  1
  O2-  O175  1  0.80834185  0.33299065  0.62270825  1
  O2-  O176  1  0.80829343  0.66921379  0.12720853  1
  O2-  O177  1  0.80940215  0.65972813  0.62235247  1
  O2-  O178  1  0.80593087  0.99083271  0.12649776  1
  O2-  O179  1  0.80627480  0.99443988  0.62361758  1
  O2-  O180  1  0.30957511  0.17200173  0.37712309  1
  O2-  O181  1  0.30579942  0.17194494  0.87473815  1
  O2-  O182  1  0.30803694  0.51091172  0.37264861  1
  O2-  O183  1  0.30442492  0.50440186  0.87694200  1
  O2-  O184  1  0.31580708  0.82801231  0.37561939  1
  O2-  O185  1  0.30793650  0.83933351  0.87579503  1
  O2-  O186  1  0.64047118  0.17418129  0.37553706  1
  O2-  O187  1  0.64188877  0.17202473  0.87362601  1
  O2-  O188  1  0.63846677  0.51070270  0.37483099  1
  O2-  O189  1  0.64285556  0.50100924  0.87794638  1
  O2-  O190  1  0.63725871  0.83547973  0.37646781  1
  O2-  O191  1  0.64159295  0.83819375  0.87253300  1
  O2-  O192  1  0.97503369  0.16736856  0.37367870  1
  O2-  O193  1  0.97458047  0.17050998  0.87648054  1
  O2-  O194  1  0.97493129  0.50805015  0.37454653  1
  O2-  O195  1  0.97201472  0.50489017  0.87623944  1
  O2-  O196  1  0.97484130  0.84086955  0.37583480  1
  O2-  O197  1  0.97143644  0.84197132  0.87351708  1
  O2-  O198  1  0.18539902  0.00557005  0.37446828  1
  O2-  O199  1  0.19154668  0.00261791  0.87418068  1
  O2-  O200  1  0.19533655  0.33976705  0.37304526  1
  O2-  O201  1  0.19164098  0.34293323  0.87532127  1
  O2-  O202  1  0.19200726  0.66956161  0.37106090  1
  O2-  O203  1  0.19289012  0.67538933  0.87754990  1
  O2-  O204  1  0.52802391  0.00791120  0.37769424  1
  O2-  O205  1  0.52799844  0.00665391  0.87072431  1
  O2-  O206  1  0.52871326  0.33879866  0.37446812  1
  O2-  O207  1  0.52542585  0.33952360  0.87740349  1
  O2-  O208  1  0.52264442  0.67607301  0.37360769  1
  O2-  O209  1  0.51958704  0.67161107  0.87519363  1
  O2-  O210  1  0.85969110  0.00472801  0.37512412  1
  O2-  O211  1  0.85722585  0.00626684  0.87432319  1
  O2-  O212  1  0.85156812  0.33639345  0.37414398  1
  O2-  O213  1  0.85815841  0.34035658  0.87705265  1
  O2-  O214  1  0.85809853  0.67457022  0.37609954  1
  O2-  O215  1  0.85674758  0.67128834  0.87510528  1
  O2-  O216  1  0.24228668  0.09275878  0.02229531  1
  O2-  O217  1  0.23788186  0.09545002  0.51865817  1
  O2-  O218  1  0.24102372  0.42724483  0.02535626  1
  O2-  O219  1  0.23945062  0.42795488  0.52090874  1
  O2-  O220  1  0.23724729  0.76318795  0.02311910  1
  O2-  O221  1  0.23920032  0.75983527  0.52316150  1
  O2-  O222  1  0.57087159  0.09465427  0.01732683  1
  O2-  O223  1  0.57061662  0.09604875  0.52250082  1
  O2-  O224  1  0.56897550  0.42922161  0.02144550  1
  O2-  O225  1  0.57033852  0.42909513  0.51980422  1
  O2-  O226  1  0.57065615  0.76540946  0.02019547  1
  O2-  O227  1  0.57397272  0.76002898  0.52449898  1
  O2-  O228  1  0.90873517  0.08943086  0.01769162  1
  O2-  O229  1  0.90516048  0.09285625  0.51393858  1
  O2-  O230  1  0.90768531  0.42652167  0.01920443  1
  O2-  O231  1  0.90515989  0.42734026  0.51735941  1
  O2-  O232  1  0.90550215  0.76120985  0.01855366  1
  O2-  O233  1  0.90772359  0.76174254  0.52271462  1
  O2-  O234  1  0.26094275  0.25965025  0.22753730  1
  O2-  O235  1  0.26328982  0.26080639  0.72871095  1
  O2-  O236  1  0.25962950  0.59555431  0.22516652  1
  O2-  O237  1  0.26238254  0.59332102  0.73012961  1
  O2-  O238  1  0.26158899  0.92645743  0.23100705  1
  O2-  O239  1  0.26183535  0.92942513  0.72859279  1
  O2-  O240  1  0.59255087  0.26228031  0.22788524  1
  O2-  O241  1  0.59631303  0.26468116  0.73307575  1
  O2-  O242  1  0.59524034  0.59924390  0.23253926  1
  O2-  O243  1  0.59363219  0.59239737  0.72778569  1
  O2-  O244  1  0.59757926  0.92989638  0.23281544  1
  O2-  O245  1  0.59654598  0.92976280  0.72847263  1
  O2-  O246  1  0.92953085  0.25850542  0.23012976  1
  O2-  O247  1  0.93110162  0.26468868  0.73490512  1
  O2-  O248  1  0.93124479  0.59777597  0.23347856  1
  O2-  O249  1  0.92910461  0.59457475  0.73043858  1
  O2-  O250  1  0.92634226  0.92449848  0.22761186  1
  O2-  O251  1  0.93027584  0.92926534  0.72531296  1
  O2-  O252  1  0.09833797  0.23729757  0.26685608  1
  O2-  O253  1  0.09699554  0.23817001  0.77317487  1
  O2-  O254  1  0.09561865  0.57285392  0.27045368  1
  O2-  O255  1  0.09603596  0.57137832  0.77266053  1
  O2-  O256  1  0.08852854  0.91083088  0.26663228  1
  O2-  O257  1  0.09540645  0.90469314  0.77105794  1
  O2-  O258  1  0.43099284  0.23693639  0.26873996  1
  O2-  O259  1  0.42639041  0.24017021  0.77242322  1
  O2-  O260  1  0.42777624  0.57413594  0.27213106  1
  O2-  O261  1  0.42590554  0.56933312  0.77184866  1
  O2-  O262  1  0.43253971  0.90541295  0.26821991  1
  O2-  O263  1  0.43006742  0.90561581  0.77168897  1
  O2-  O264  1  0.75930066  0.23555720  0.26921119  1
  O2-  O265  1  0.76182880  0.24107343  0.77256935  1
  O2-  O266  1  0.76190909  0.57523865  0.27317592  1
  O2-  O267  1  0.76367233  0.56842074  0.76516995  1
  O2-  O268  1  0.76244036  0.90124491  0.27229484  1
  O2-  O269  1  0.76407430  0.90487159  0.77075758  1
  O2-  O270  1  0.07251580  0.07551713  0.47982756  1
  O2-  O271  1  0.07210448  0.07077821  0.98089286  1
  O2-  O272  1  0.07582683  0.40880908  0.48194357  1
  O2-  O273  1  0.07022445  0.40455684  0.98254881  1
  O2-  O274  1  0.06972348  0.73745829  0.48299372  1
  O2-  O275  1  0.07100342  0.74167457  0.97439144  1
  O2-  O276  1  0.40889056  0.07361848  0.48075185  1
  O2-  O277  1  0.40564219  0.07223554  0.97742410  1
  O2-  O278  1  0.40522232  0.40409850  0.47666133  1
  O2-  O279  1  0.40414242  0.40362084  0.97847978  1
  O2-  O280  1  0.40292073  0.73515495  0.48664382  1
  O2-  O281  1  0.40181621  0.73923552  0.98003225  1
  O2-  O282  1  0.73647027  0.06973944  0.47906129  1
  O2-  O283  1  0.74087836  0.07082011  0.97957884  1
  O2-  O284  1  0.73528027  0.40606371  0.47670004  1
  O2-  O285  1  0.73678806  0.40732001  0.98230654  1
  O2-  O286  1  0.73525935  0.73734693  0.48310934  1
  O2-  O287  1  0.73754079  0.74071584  0.98779197  1
  O2-  O288  1  0.09759294  0.23751606  0.48173193  1
  O2-  O289  1  0.09682182  0.23624534  0.97858153  1
  O2-  O290  1  0.09575254  0.57370678  0.47917032  1
  O2-  O291  1  0.09577164  0.56959006  0.97693121  1
  O2-  O292  1  0.09345188  0.90692077  0.48411405  1
  O2-  O293  1  0.09148880  0.90655074  0.97832739  1
  O2-  O294  1  0.42828794  0.23962721  0.48025175  1
  O2-  O295  1  0.42784369  0.23746912  0.97804370  1
  O2-  O296  1  0.42888768  0.57139195  0.47961533  1
  O2-  O297  1  0.42422432  0.57131165  0.97729909  1
  O2-  O298  1  0.43363285  0.90062063  0.48292031  1
  O2-  O299  1  0.42854862  0.90767899  0.97566277  1
  O2-  O300  1  0.75977908  0.23661122  0.47977925  1
  O2-  O301  1  0.75990896  0.24015489  0.97842117  1
  O2-  O302  1  0.76062882  0.57059067  0.47809311  1
  O2-  O303  1  0.76396269  0.57260440  0.98315781  1
  O2-  O304  1  0.76459623  0.90117467  0.48023044  1
  O2-  O305  1  0.76278671  0.90385539  0.97733514  1
  O2-  O306  1  0.07347535  0.07403966  0.26936434  1
  O2-  O307  1  0.07337868  0.07199753  0.77132842  1
  O2-  O308  1  0.07731929  0.40915790  0.26726186  1
  O2-  O309  1  0.06875454  0.40433547  0.76885661  1
  O2-  O310  1  0.06991426  0.73937411  0.26870637  1
  O2-  O311  1  0.07025198  0.73911873  0.77287447  1
  O2-  O312  1  0.40896053  0.07246349  0.26815403  1
  O2-  O313  1  0.40548651  0.07363471  0.77360142  1
  O2-  O314  1  0.40404011  0.40160006  0.27327676  1
  O2-  O315  1  0.40495564  0.40504832  0.77170069  1
  O2-  O316  1  0.40322486  0.73538154  0.26341235  1
  O2-  O317  1  0.40352023  0.73857699  0.77100595  1
  O2-  O318  1  0.73891093  0.06928729  0.27240217  1
  O2-  O319  1  0.73803705  0.07245254  0.76858723  1
  O2-  O320  1  0.73448739  0.40623018  0.26937844  1
  O2-  O321  1  0.73850095  0.40508416  0.77046935  1
  O2-  O322  1  0.73473209  0.73865411  0.26740810  1
  O2-  O323  1  0.74007771  0.73868576  0.76226524  1
  O2-  O324  1  0.24054632  0.09329278  0.23013428  1
  O2-  O325  1  0.23948002  0.09466937  0.72939113  1
  O2-  O326  1  0.23966601  0.42864335  0.22759603  1
  O2-  O327  1  0.23989229  0.42560289  0.72606370  1
  O2-  O328  1  0.23810352  0.75986292  0.22317564  1
  O2-  O329  1  0.23639964  0.76118518  0.73004044  1
  O2-  O330  1  0.57183184  0.09478051  0.23207307  1
  O2-  O331  1  0.56840547  0.09629918  0.72677750  1
  O2-  O332  1  0.56587813  0.42932513  0.22898442  1
  O2-  O333  1  0.57187222  0.42828636  0.73019905  1
  O2-  O334  1  0.57210165  0.76209031  0.22587374  1
  O2-  O335  1  0.57307455  0.76255048  0.72964665  1
  O2-  O336  1  0.90815749  0.08795312  0.23175161  1
  O2-  O337  1  0.90545640  0.09337302  0.73652696  1
  O2-  O338  1  0.90861690  0.42567421  0.23544392  1
  O2-  O339  1  0.90365439  0.42816004  0.72891027  1
  O2-  O340  1  0.90451770  0.76147349  0.23224743  1
  O2-  O341  1  0.90771117  0.76082771  0.72687281  1
  O2-  O342  1  0.26376080  0.26086514  0.02107926  1
  O2-  O343  1  0.26042329  0.25937873  0.52283441  1
  O2-  O344  1  0.26214830  0.59473103  0.02297380  1
  O2-  O345  1  0.26048256  0.59426023  0.52092560  1
  O2-  O346  1  0.26445169  0.92908612  0.01826166  1
  O2-  O347  1  0.26251206  0.92627955  0.52237141  1
  O2-  O348  1  0.59347942  0.26365047  0.02044635  1
  O2-  O349  1  0.59373275  0.26262324  0.51946543  1
  O2-  O350  1  0.59516936  0.59542589  0.01948680  1
  O2-  O351  1  0.59469091  0.59488505  0.52083902  1
  O2-  O352  1  0.59937646  0.93093328  0.01472495  1
  O2-  O353  1  0.59552657  0.92847989  0.52296284  1
  O2-  O354  1  0.93279676  0.26088591  0.01756793  1
  O2-  O355  1  0.93000219  0.26079348  0.51781533  1
  O2-  O356  1  0.93342472  0.59812258  0.01759020  1
  O2-  O357  1  0.92816956  0.59398104  0.52050726  1
  O2-  O358  1  0.92816624  0.92582298  0.02245431  1
  O2-  O359  1  0.92947508  0.92876379  0.52304398  1
