# generated using pymatgen
data_Sr7Ca15Pr50Mn72O216
_symmetry_space_group_name_H-M   'P 1'
_cell_length_a   16.55751838
_cell_length_b   16.60048895
_cell_length_c   15.58957248
_cell_angle_alpha   90.00022689
_cell_angle_beta   90.00709885
_cell_angle_gamma   89.99280008
_symmetry_Int_Tables_number   1
_chemical_formula_structural   Sr7Ca15Pr50Mn72O216
_chemical_formula_sum   'Sr7 Ca15 Pr50 Mn72 O216'
_cell_volume   4284.99504678
_cell_formula_units_Z   1
loop_
 _symmetry_equiv_pos_site_id
 _symmetry_equiv_pos_as_xyz
  1  'x, y, z'
loop_
 _atom_type_symbol
 _atom_type_oxidation_number
  Sr2+  2.0
  Ca2+  2.0
  Pr3+  3.0
  Mn3.30+  3.3
  O2-  -2.0
loop_
 _atom_site_type_symbol
 _atom_site_label
 _atom_site_symmetry_multiplicity
 _atom_site_fract_x
 _atom_site_fract_y
 _atom_site_fract_z
 _atom_site_occupancy
  Sr2+  Sr0  1  0.49718833  0.17448277  0.12710474  1
  Sr2+  Sr1  1  0.33175549  0.00980896  0.62213493  1
  Sr2+  Sr2  1  0.50217923  0.51020176  0.12792742  1
  Sr2+  Sr3  1  0.33439302  0.98951119  0.37449491  1
  Sr2+  Sr4  1  0.33482385  0.34316984  0.12598402  1
  Sr2+  Sr5  1  0.49908328  0.17221207  0.62310496  1
  Sr2+  Sr6  1  0.16892428  0.50958159  0.62431438  1
  Ca2+  Ca7  1  0.66314013  0.68387634  0.62301325  1
  Ca2+  Ca8  1  0.16478503  0.82264629  0.37737568  1
  Ca2+  Ca9  1  0.83536016  0.17884472  0.62372723  1
  Ca2+  Ca10  1  0.66338949  0.68102860  0.12712607  1
  Ca2+  Ca11  1  -0.00275976  0.01402884  0.12892503  1
  Ca2+  Ca12  1  0.66334010  0.01335138  0.62143075  1
  Ca2+  Ca13  1  0.32940747  0.01424834  0.12867910  1
  Ca2+  Ca14  1  0.16422773  0.15022622  0.87650414  1
  Ca2+  Ca15  1  1.00652641  0.98320806  0.37419771  1
  Ca2+  Ca16  1  0.49615593  0.48623980  0.37364753  1
  Ca2+  Ca17  1  0.83332759  0.84885628  0.62191524  1
  Ca2+  Ca18  1  0.49880396  0.82250115  0.37572311  1
  Ca2+  Ca19  1  0.16362112  0.14792781  0.37388947  1
  Ca2+  Ca20  1  0.66737560  0.98633365  0.37772150  1
  Ca2+  Ca21  1  0.83427220  0.51598438  0.12624810  1
  Pr3+  Pr22  1  0.66790305  0.98852195  0.87362068  1
  Pr3+  Pr23  1  0.49823763  0.82131007  0.87445081  1
  Pr3+  Pr24  1  0.33409100  0.98960080  0.87585079  1
  Pr3+  Pr25  1  0.49717809  0.15331545  0.87528433  1
  Pr3+  Pr26  1  0.33192712  0.34292240  0.62379084  1
  Pr3+  Pr27  1  0.82958135  0.14990613  0.37692172  1
  Pr3+  Pr28  1  0.49890175  0.48590814  0.87666302  1
  Pr3+  Pr29  1  0.66903987  0.31930860  0.87507471  1
  Pr3+  Pr30  1  0.17141382  0.84940960  0.12747226  1
  Pr3+  Pr31  1  0.67026090  0.65448107  0.87572543  1
  Pr3+  Pr32  1  0.33744482  0.65320776  0.87436707  1
  Pr3+  Pr33  1  0.82914122  0.82264423  0.87454686  1
  Pr3+  Pr34  1  1.00598611  0.31667343  0.37507998  1
  Pr3+  Pr35  1  0.50140445  0.84385449  0.12883496  1
  Pr3+  Pr36  1  0.66327734  0.01194827  0.12781844  1
  Pr3+  Pr37  1  0.83060833  0.15256991  0.87332694  1
  Pr3+  Pr38  1  0.83087407  0.48775228  0.37366922  1
  Pr3+  Pr39  1  0.66467543  0.34210950  0.62356314  1
  Pr3+  Pr40  1  0.16493423  0.48810471  0.37553415  1
  Pr3+  Pr41  1  -0.00266074  0.34402434  0.62407137  1
  Pr3+  Pr42  1  0.83580826  0.84804533  0.12703809  1
  Pr3+  Pr43  1  1.00539864  0.31539447  0.87443913  1
  Pr3+  Pr44  1  0.17267743  0.51259252  0.12580474  1
  Pr3+  Pr45  1  0.33487407  0.31883419  0.87662762  1
  Pr3+  Pr46  1  0.17162589  0.17520080  0.62311287  1
  Pr3+  Pr47  1  1.00312029  0.65688497  0.37558448  1
  Pr3+  Pr48  1  1.00052955  0.65399492  0.87412638  1
  Pr3+  Pr49  1  -0.00464436  0.34803209  0.12568842  1
  Pr3+  Pr50  1  0.66627009  0.65606252  0.37413985  1
  Pr3+  Pr51  1  0.33571953  0.32158618  0.37371428  1
  Pr3+  Pr52  1  0.16376404  0.82260278  0.87341226  1
  Pr3+  Pr53  1  0.83590091  0.51373544  0.62391744  1
  Pr3+  Pr54  1  0.33783610  0.65777170  0.37547524  1
  Pr3+  Pr55  1  0.16431056  0.48591672  0.87420472  1
  Pr3+  Pr56  1  0.17007578  0.84806163  0.62198468  1
  Pr3+  Pr57  1  0.17031120  0.17651539  0.12695723  1
  Pr3+  Pr58  1  -0.00316721  0.67875032  0.12586996  1
  Pr3+  Pr59  1  0.50448737  0.84791070  0.62165030  1
  Pr3+  Pr60  1  0.50635167  0.51442551  0.62255144  1
  Pr3+  Pr61  1  0.83784375  0.17715418  0.12621825  1
  Pr3+  Pr62  1  1.00278894  0.98913585  0.87600842  1
  Pr3+  Pr63  1  0.82979343  0.48612475  0.87621246  1
  Pr3+  Pr64  1  0.33100075  0.68009428  0.62406018  1
  Pr3+  Pr65  1  -0.00476693  0.01319540  0.62191016  1
  Pr3+  Pr66  1  0.83074183  0.82453005  0.37586832  1
  Pr3+  Pr67  1  0.49736968  0.15409192  0.37492490  1
  Pr3+  Pr68  1  0.66222992  0.34561622  0.12600765  1
  Pr3+  Pr69  1  -0.00433600  0.68341396  0.62405460  1
  Pr3+  Pr70  1  0.66700050  0.32138917  0.37438020  1
  Pr3+  Pr71  1  0.33207118  0.67777678  0.12578961  1
  Mn3.30+  Mn72  1  0.16610514  0.00098563  0.00259547  1
  Mn3.30+  Mn73  1  0.16436575  -0.00084302  0.49568217  1
  Mn3.30+  Mn74  1  0.16623175  0.33132311  0.00078463  1
  Mn3.30+  Mn75  1  0.16703044  0.33089224  0.49885690  1
  Mn3.30+  Mn76  1  0.16610037  0.66728533  -0.00119218  1
  Mn3.30+  Mn77  1  0.16682500  0.66779517  0.50044117  1
  Mn3.30+  Mn78  1  0.49853954  -0.00068324  0.00270870  1
  Mn3.30+  Mn79  1  0.50246275  -0.00060172  0.49798357  1
  Mn3.30+  Mn80  1  0.50091302  0.33228810  0.00180861  1
  Mn3.30+  Mn81  1  0.50016491  0.33348640  0.49962235  1
  Mn3.30+  Mn82  1  0.50260188  0.66599576  0.00161564  1
  Mn3.30+  Mn83  1  0.50183071  0.66796490  0.49917012  1
  Mn3.30+  Mn84  1  0.83492211  0.00052152  0.00120290  1
  Mn3.30+  Mn85  1  0.83200354  -0.00056898  0.50048225  1
  Mn3.30+  Mn86  1  0.83384635  0.33363748  0.00123472  1
  Mn3.30+  Mn87  1  0.83389694  0.33143549  0.49920277  1
  Mn3.30+  Mn88  1  0.83196576  0.66678224  0.00257823  1
  Mn3.30+  Mn89  1  0.83106931  0.66985809  0.50098999  1
  Mn3.30+  Mn90  1  0.00176992  0.16258882  0.25187052  1
  Mn3.30+  Mn91  1  0.00030868  0.16493930  0.74840937  1
  Mn3.30+  Mn92  1  -0.00077971  0.50082808  0.24943170  1
  Mn3.30+  Mn93  1  -0.00084253  0.49979773  0.74913395  1
  Mn3.30+  Mn94  1  0.00218235  0.83553816  0.25048482  1
  Mn3.30+  Mn95  1  -0.00321782  0.83541244  0.74872647  1
  Mn3.30+  Mn96  1  0.33104087  0.16525080  0.25067654  1
  Mn3.30+  Mn97  1  0.33148446  0.16504332  0.75057781  1
  Mn3.30+  Mn98  1  0.33513269  0.50100925  0.25067235  1
  Mn3.30+  Mn99  1  0.33464884  0.49888889  0.74893288  1
  Mn3.30+  Mn100  1  0.33370668  0.83476002  0.25246077  1
  Mn3.30+  Mn101  1  0.33323451  0.83439697  0.74936286  1
  Mn3.30+  Mn102  1  0.66698178  0.16451089  0.25183561  1
  Mn3.30+  Mn103  1  0.66722252  0.16488023  0.74659362  1
  Mn3.30+  Mn104  1  0.66608737  0.50194193  0.25020737  1
  Mn3.30+  Mn105  1  0.66754168  0.50107735  0.74861160  1
  Mn3.30+  Mn106  1  0.66572219  0.83368867  0.25239835  1
  Mn3.30+  Mn107  1  0.66781165  0.83443032  0.74572316  1
  Mn3.30+  Mn108  1  0.16453725  -0.00075551  0.25148838  1
  Mn3.30+  Mn109  1  0.16577363  0.00108487  0.75012100  1
  Mn3.30+  Mn110  1  0.16666132  0.33170740  0.24997196  1
  Mn3.30+  Mn111  1  0.16684882  0.33001079  0.75044522  1
  Mn3.30+  Mn112  1  0.16674434  0.66918217  0.25165932  1
  Mn3.30+  Mn113  1  0.16634237  0.66644558  0.74843808  1
  Mn3.30+  Mn114  1  0.49893658  -0.00147124  0.25182863  1
  Mn3.30+  Mn115  1  0.50160373  0.00023941  0.74786583  1
  Mn3.30+  Mn116  1  0.50080882  0.33417893  0.25021291  1
  Mn3.30+  Mn117  1  0.50042890  0.33163606  0.74880969  1
  Mn3.30+  Mn118  1  0.50134417  0.66694678  0.25045891  1
  Mn3.30+  Mn119  1  0.50284591  0.66713871  0.74872081  1
  Mn3.30+  Mn120  1  0.83511295  -0.00032095  0.25325485  1
  Mn3.30+  Mn121  1  0.83193268  0.00011858  0.74539799  1
  Mn3.30+  Mn122  1  0.83394854  0.33352941  0.25010882  1
  Mn3.30+  Mn123  1  0.83403436  0.33162690  0.74908787  1
  Mn3.30+  Mn124  1  0.83181797  0.66729627  0.24919841  1
  Mn3.30+  Mn125  1  0.83095823  0.66978107  0.74706994  1
  Mn3.30+  Mn126  1  0.00193692  0.16442774  0.00116302  1
  Mn3.30+  Mn127  1  0.00016564  0.16398479  0.49848361  1
  Mn3.30+  Mn128  1  -0.00142942  0.49995047  0.00057700  1
  Mn3.30+  Mn129  1  -0.00022225  0.50069425  0.50054744  1
  Mn3.30+  Mn130  1  -0.00032325  0.83490924  0.00154201  1
  Mn3.30+  Mn131  1  -0.00096283  0.83556614  0.49904219  1
  Mn3.30+  Mn132  1  0.33066267  0.16516214  0.00108708  1
  Mn3.30+  Mn133  1  0.33202828  0.16487383  0.49782910  1
  Mn3.30+  Mn134  1  0.33373784  0.49959541  0.00092872  1
  Mn3.30+  Mn135  1  0.33566876  0.50021682  0.49974200  1
  Mn3.30+  Mn136  1  0.33294991  0.83458204  0.00137434  1
  Mn3.30+  Mn137  1  0.33431484  0.83450472  0.49675912  1
  Mn3.30+  Mn138  1  0.66683858  0.16576846  0.00086122  1
  Mn3.30+  Mn139  1  0.66755919  0.16377880  0.50085424  1
  Mn3.30+  Mn140  1  0.66765855  0.50182197  0.00315728  1
  Mn3.30+  Mn141  1  0.66615180  0.50120572  0.49825437  1
  Mn3.30+  Mn142  1  0.66623880  0.83261067  0.00182348  1
  Mn3.30+  Mn143  1  0.66685426  0.83505842  0.49980868  1
  O2-  O144  1  0.02532051  0.16029156  0.12833381  1
  O2-  O145  1  0.02768640  0.16148348  0.62387324  1
  O2-  O146  1  0.02850639  0.49647063  0.12471954  1
  O2-  O147  1  0.01902998  0.49399487  0.62509072  1
  O2-  O148  1  0.02723988  0.82451555  0.12580601  1
  O2-  O149  1  0.02585730  0.83049215  0.62483777  1
  O2-  O150  1  0.34850023  0.16005623  0.12548034  1
  O2-  O151  1  0.34856643  0.16811176  0.62487244  1
  O2-  O152  1  0.35094038  0.50353575  0.12554040  1
  O2-  O153  1  0.36209752  0.49243359  0.62521378  1
  O2-  O154  1  0.35737835  0.82551503  0.12512798  1
  O2-  O155  1  0.35829256  0.82865919  0.62371183  1
  O2-  O156  1  0.69384340  0.15998232  0.12753913  1
  O2-  O157  1  0.69365072  0.16159022  0.62416451  1
  O2-  O158  1  0.69452997  0.49101308  0.12600932  1
  O2-  O159  1  0.69362158  0.48961534  0.62394340  1
  O2-  O160  1  0.69199390  0.82754419  0.12736680  1
  O2-  O161  1  0.69324690  0.82462417  0.62426838  1
  O2-  O162  1  0.13902008  0.32661372  0.12480754  1
  O2-  O163  1  0.14152747  0.32359959  0.62413179  1
  O2-  O164  1  0.14130422  0.65951392  0.12459713  1
  O2-  O165  1  0.14080290  0.66445911  0.62624263  1
  O2-  O166  1  0.13811361  0.99501683  0.12652249  1
  O2-  O167  1  0.14114191  0.99627539  0.62149819  1
  O2-  O168  1  0.48465948  0.33148921  0.12548194  1
  O2-  O169  1  0.47627160  0.33050725  0.62581028  1
  O2-  O170  1  0.47549943  0.66574628  0.12427600  1
  O2-  O171  1  0.47487217  0.66157462  0.62476377  1
  O2-  O172  1  0.47310854  0.99190969  0.12668931  1
  O2-  O173  1  0.48050587  0.99558180  0.62373887  1
  O2-  O174  1  0.80707490  0.32332930  0.12568626  1
  O2-  O175  1  0.80912602  0.32637747  0.62356267  1
  O2-  O176  1  0.80650582  0.66139594  0.12703821  1
  O2-  O177  1  0.80369798  0.65867291  0.62407207  1
  O2-  O178  1  0.80755724  0.99762179  0.12812714  1
  O2-  O179  1  0.80510122  0.99205257  0.62459417  1
  O2-  O180  1  0.30699899  0.17399070  0.37424031  1
  O2-  O181  1  0.30635497  0.17036646  0.87605660  1
  O2-  O182  1  0.30793831  0.50766347  0.37530915  1
  O2-  O183  1  0.30895434  0.50532809  0.87455002  1
  O2-  O184  1  0.30772591  0.82912945  0.37420455  1
  O2-  O185  1  0.30796573  0.83977845  0.87663012  1
  O2-  O186  1  0.64240515  0.17396818  0.37510561  1
  O2-  O187  1  0.64293539  0.17071616  0.87374985  1
  O2-  O188  1  0.63858355  0.50756262  0.37578729  1
  O2-  O189  1  0.64270462  0.50698035  0.87410449  1
  O2-  O190  1  0.64066386  0.84105481  0.37532029  1
  O2-  O191  1  0.64206206  0.84078356  0.87345505  1
  O2-  O192  1  0.97201454  0.17310675  0.37481075  1
  O2-  O193  1  0.97374540  0.16805922  0.87276525  1
  O2-  O194  1  0.97541621  0.50646132  0.37563653  1
  O2-  O195  1  0.97360079  0.50452706  0.87421253  1
  O2-  O196  1  0.97483108  0.83609006  0.37373210  1
  O2-  O197  1  0.97302742  0.84109769  0.87522461  1
  O2-  O198  1  0.18564437  0.00462078  0.37391552  1
  O2-  O199  1  0.18955833  0.00267548  0.87807662  1
  O2-  O200  1  0.19056828  0.34134302  0.37481325  1
  O2-  O201  1  0.19055841  0.33971410  0.87619119  1
  O2-  O202  1  0.19120849  0.67359615  0.37575900  1
  O2-  O203  1  0.19211076  0.67417618  0.87265664  1
  O2-  O204  1  0.52616809  0.00681958  0.37456039  1
  O2-  O205  1  0.52341964  0.00239460  0.87482587  1
  O2-  O206  1  0.52324561  0.33821756  0.37536413  1
  O2-  O207  1  0.52482771  0.33664321  0.87414254  1
  O2-  O208  1  0.52356956  0.67690563  0.37573733  1
  O2-  O209  1  0.52652772  0.67244514  0.87431038  1
  O2-  O210  1  0.86327691  0.00240227  0.37542007  1
  O2-  O211  1  0.85877967  0.00444189  0.87262276  1
  O2-  O212  1  0.86158383  0.34009679  0.37415188  1
  O2-  O213  1  0.86058932  0.33868516  0.87606640  1
  O2-  O214  1  0.85933280  0.67411399  0.37568440  1
  O2-  O215  1  0.85747818  0.67456959  0.87335415  1
  O2-  O216  1  0.23521040  0.09420381  0.01894493  1
  O2-  O217  1  0.23549889  0.09414632  0.51442867  1
  O2-  O218  1  0.23330331  0.42886584  0.01626074  1
  O2-  O219  1  0.24220704  0.42518646  0.51758376  1
  O2-  O220  1  0.23792948  0.76222806  0.01982967  1
  O2-  O221  1  0.23938747  0.75880959  0.52300750  1
  O2-  O222  1  0.57415450  0.09130874  0.01771273  1
  O2-  O223  1  0.57468802  0.09422877  0.51417116  1
  O2-  O224  1  0.57634082  0.42880216  0.01515486  1
  O2-  O225  1  0.57480509  0.42709050  0.52179561  1
  O2-  O226  1  0.56880939  0.76371300  0.01666409  1
  O2-  O227  1  0.57235418  0.76220565  0.51976395  1
  O2-  O228  1  0.90350309  0.09686374  0.01712246  1
  O2-  O229  1  0.90166064  0.09591108  0.52241015  1
  O2-  O230  1  0.90362969  0.42949943  0.02362261  1
  O2-  O231  1  0.90401449  0.42680627  0.51986812  1
  O2-  O232  1  0.90424335  0.76190553  0.02143378  1
  O2-  O233  1  0.90389310  0.76331243  0.52243886  1
  O2-  O234  1  0.25763366  0.26036952  0.23150294  1
  O2-  O235  1  0.26113614  0.26151499  0.73168064  1
  O2-  O236  1  0.26030585  0.59698215  0.23192755  1
  O2-  O237  1  0.26774805  0.59386819  0.73234985  1
  O2-  O238  1  0.26156742  0.92768783  0.22761043  1
  O2-  O239  1  0.25773006  0.92598855  0.73317919  1
  O2-  O240  1  0.59843010  0.26133832  0.23533953  1
  O2-  O241  1  0.59841756  0.26278900  0.73264760  1
  O2-  O242  1  0.59919222  0.59843502  0.23207931  1
  O2-  O243  1  0.59860897  0.59548043  0.72709344  1
  O2-  O244  1  0.59430467  0.92534534  0.22678742  1
  O2-  O245  1  0.59820650  0.92755954  0.72794602  1
  O2-  O246  1  0.93054655  0.26096005  0.22929326  1
  O2-  O247  1  0.93360090  0.26171373  0.73216365  1
  O2-  O248  1  0.92997305  0.59585038  0.23194373  1
  O2-  O249  1  0.92475758  0.59886303  0.72952765  1
  O2-  O250  1  0.92867179  0.92694501  0.22655674  1
  O2-  O251  1  0.92885002  0.93023263  0.73023086  1
  O2-  O252  1  0.09317013  0.23456056  0.27250375  1
  O2-  O253  1  0.09572704  0.23420103  0.77228201  1
  O2-  O254  1  0.09634889  0.57278541  0.27113073  1
  O2-  O255  1  0.09231523  0.57323628  0.77280252  1
  O2-  O256  1  0.09933455  0.89985151  0.26882452  1
  O2-  O257  1  0.09362561  0.90607892  0.76989963  1
  O2-  O258  1  0.42577463  0.24256456  0.27079974  1
  O2-  O259  1  0.42451296  0.23877278  0.77329890  1
  O2-  O260  1  0.42809447  0.57459344  0.27356075  1
  O2-  O261  1  0.43118213  0.57065013  0.77031593  1
  O2-  O262  1  0.43117177  0.90104523  0.26945301  1
  O2-  O263  1  0.42719079  0.90614128  0.76949196  1
  O2-  O264  1  0.76310047  0.23817364  0.27199779  1
  O2-  O265  1  0.76181222  0.24040759  0.77183434  1
  O2-  O266  1  0.76042570  0.57340451  0.27449222  1
  O2-  O267  1  0.76248035  0.57123972  0.77091116  1
  O2-  O268  1  0.76400937  0.90466929  0.26725690  1
  O2-  O269  1  0.76013891  0.90714988  0.77308836  1
  O2-  O270  1  0.06498811  0.06764321  0.48136997  1
  O2-  O271  1  0.07085421  0.07063469  0.98078509  1
  O2-  O272  1  0.07422440  0.40283671  0.48067495  1
  O2-  O273  1  0.06980174  0.40354346  0.97944915  1
  O2-  O274  1  0.06747222  0.73874083  0.48407253  1
  O2-  O275  1  0.07129813  0.73835433  0.97739703  1
  O2-  O276  1  0.40961334  0.07711029  0.48088077  1
  O2-  O277  1  0.40580202  0.07382928  0.97813302  1
  O2-  O278  1  0.40394723  0.40541410  0.48105593  1
  O2-  O279  1  0.40709859  0.40703128  0.97872708  1
  O2-  O280  1  0.40392677  0.73643466  0.48460652  1
  O2-  O281  1  0.40622298  0.73801924  0.97882476  1
  O2-  O282  1  0.74013553  0.07119106  0.47532932  1
  O2-  O283  1  0.73917729  0.07167603  0.97965055  1
  O2-  O284  1  0.73888845  0.40712738  0.47705658  1
  O2-  O285  1  0.73876719  0.40549364  0.97822594  1
  O2-  O286  1  0.73850396  0.74124579  0.47548319  1
  O2-  O287  1  0.73898591  0.74107109  0.97803934  1
  O2-  O288  1  0.09586299  0.23451884  0.47712425  1
  O2-  O289  1  0.09476082  0.23678300  0.97823753  1
  O2-  O290  1  0.09437302  0.57489204  0.47842514  1
  O2-  O291  1  0.09463240  0.57145590  0.97726699  1
  O2-  O292  1  0.09581892  0.90196589  0.48158583  1
  O2-  O293  1  0.09625546  0.90481945  0.97967613  1
  O2-  O294  1  0.42454847  0.24137758  0.47764210  1
  O2-  O295  1  0.42453734  0.23927067  0.97936486  1
  O2-  O296  1  0.43231981  0.57129015  0.47998111  1
  O2-  O297  1  0.42981540  0.57481206  0.97691966  1
  O2-  O298  1  0.43139435  0.90300575  0.48222270  1
  O2-  O299  1  0.42722856  0.90529071  0.97866762  1
  O2-  O300  1  0.76106761  0.24023419  0.47729368  1
  O2-  O301  1  0.76307953  0.23815628  0.97884128  1
  O2-  O302  1  0.76143026  0.57205644  0.47747999  1
  O2-  O303  1  0.76216142  0.57258275  0.97753615  1
  O2-  O304  1  0.76210126  0.90545665  0.47894010  1
  O2-  O305  1  0.76206473  0.90644740  0.98179294  1
  O2-  O306  1  0.06739245  0.06781760  0.27037221  1
  O2-  O307  1  0.06713982  0.06871426  0.76655325  1
  O2-  O308  1  0.07074918  0.40465104  0.26922580  1
  O2-  O309  1  0.07443391  0.40170375  0.76958562  1
  O2-  O310  1  0.07002760  0.73556780  0.26742923  1
  O2-  O311  1  0.06688219  0.74210519  0.77027747  1
  O2-  O312  1  0.40959743  0.07660256  0.26931246  1
  O2-  O313  1  0.40523088  0.07450194  0.77218303  1
  O2-  O314  1  0.40540367  0.40815307  0.26972662  1
  O2-  O315  1  0.40585929  0.40520497  0.77231629  1
  O2-  O316  1  0.40344592  0.73646531  0.26476337  1
  O2-  O317  1  0.40541767  0.73894708  0.77061276  1
  O2-  O318  1  0.73904467  0.07042689  0.27400228  1
  O2-  O319  1  0.74058091  0.07329262  0.77314668  1
  O2-  O320  1  0.73919258  0.40694513  0.27291243  1
  O2-  O321  1  0.73782900  0.40676623  0.77130826  1
  O2-  O322  1  0.73888492  0.74243342  0.27427826  1
  O2-  O323  1  0.73842308  0.74050282  0.77309000  1
  O2-  O324  1  0.23437188  0.09243630  0.23285955  1
  O2-  O325  1  0.23553853  0.09492339  0.73398839  1
  O2-  O326  1  0.23681446  0.43188730  0.23466846  1
  O2-  O327  1  0.24234359  0.42454831  0.73215880  1
  O2-  O328  1  0.23893439  0.75963042  0.22652370  1
  O2-  O329  1  0.23918512  0.76205808  0.72913749  1
  O2-  O330  1  0.57517957  0.09103571  0.23133180  1
  O2-  O331  1  0.57337581  0.09474827  0.73700476  1
  O2-  O332  1  0.57785247  0.42515432  0.23298279  1
  O2-  O333  1  0.57353311  0.42985517  0.73066150  1
  O2-  O334  1  0.57201792  0.76089366  0.23117821  1
  O2-  O335  1  0.57049260  0.76499006  0.73178165  1
  O2-  O336  1  0.90255624  0.09730517  0.23289873  1
  O2-  O337  1  0.90344599  0.09591818  0.72624755  1
  O2-  O338  1  0.90400535  0.42907323  0.22715324  1
  O2-  O339  1  0.90338572  0.42697483  0.72936762  1
  O2-  O340  1  0.90596463  0.76175075  0.22859065  1
  O2-  O341  1  0.90197271  0.76424634  0.72688336  1
  O2-  O342  1  0.25867299  0.26049935  0.01826621  1
  O2-  O343  1  0.26028210  0.26181116  0.51892356  1
  O2-  O344  1  0.26075370  0.59616237  0.01657165  1
  O2-  O345  1  0.26631998  0.59486415  0.51836183  1
  O2-  O346  1  0.26064856  0.93111160  0.02268819  1
  O2-  O347  1  0.25771156  0.92369305  0.51726359  1
  O2-  O348  1  0.59908914  0.26177669  0.01563889  1
  O2-  O349  1  0.59745029  0.26202389  0.51597630  1
  O2-  O350  1  0.60005861  0.59935943  0.01790458  1
  O2-  O351  1  0.59709759  0.59667628  0.52219754  1
  O2-  O352  1  0.59527745  0.92673758  0.02133115  1
  O2-  O353  1  0.59705608  0.92653304  0.52320026  1
  O2-  O354  1  0.93067137  0.26092271  0.02003557  1
  O2-  O355  1  0.93302992  0.26151712  0.51732590  1
  O2-  O356  1  0.92984444  0.59729505  0.01700197  1
  O2-  O357  1  0.92463773  0.59782238  0.52073051  1
  O2-  O358  1  0.92844493  0.92982418  0.02287202  1
  O2-  O359  1  0.92704194  0.92828875  0.51988971  1
