# generated using pymatgen
data_Sr7Ca15Pr50Mn72O216
_symmetry_space_group_name_H-M   'P 1'
_cell_length_a   16.55874311
_cell_length_b   16.60464612
_cell_length_c   15.59455706
_cell_angle_alpha   90.00194419
_cell_angle_beta   90.00155658
_cell_angle_gamma   89.99855009
_symmetry_Int_Tables_number   1
_chemical_formula_structural   Sr7Ca15Pr50Mn72O216
_chemical_formula_sum   'Sr7 Ca15 Pr50 Mn72 O216'
_cell_volume   4287.75573023
_cell_formula_units_Z   1
loop_
 _symmetry_equiv_pos_site_id
 _symmetry_equiv_pos_as_xyz
  1  'x, y, z'
loop_
 _atom_type_symbol
 _atom_type_oxidation_number
  Sr2+  2.0
  Ca2+  2.0
  Pr3+  3.0
  Mn3.30+  3.3
  O2-  -2.0
loop_
 _atom_site_type_symbol
 _atom_site_label
 _atom_site_symmetry_multiplicity
 _atom_site_fract_x
 _atom_site_fract_y
 _atom_site_fract_z
 _atom_site_occupancy
  Sr2+  Sr0  1  0.50301407  0.84130353  0.62380796  1
  Sr2+  Sr1  1  0.32881399  0.67658329  0.12775939  1
  Sr2+  Sr2  1  -0.00435220  0.67802451  0.12544301  1
  Sr2+  Sr3  1  0.33451431  0.98949587  0.87678379  1
  Sr2+  Sr4  1  0.66518253  0.32606221  0.37338371  1
  Sr2+  Sr5  1  0.16985672  0.84147299  0.12683137  1
  Sr2+  Sr6  1  0.33715902  0.65474880  0.37357943  1
  Ca2+  Ca7  1  -0.00577717  0.34875793  0.62564290  1
  Ca2+  Ca8  1  0.66318598  0.34934926  0.12577462  1
  Ca2+  Ca9  1  0.50093740  0.48880178  0.37397683  1
  Ca2+  Ca10  1  0.50460791  0.17968523  0.62504651  1
  Ca2+  Ca11  1  0.83285875  0.84604481  0.62244987  1
  Ca2+  Ca12  1  0.32613287  0.01331540  0.12688291  1
  Ca2+  Ca13  1  0.67069219  0.31850160  0.87613948  1
  Ca2+  Ca14  1  0.33821367  0.98485487  0.37234279  1
  Ca2+  Ca15  1  1.00127488  0.65307086  0.87709477  1
  Ca2+  Ca16  1  0.84019313  0.84547274  0.12770757  1
  Ca2+  Ca17  1  0.66315120  0.68319463  0.62220229  1
  Ca2+  Ca18  1  0.82651433  0.81516659  0.37331056  1
  Ca2+  Ca19  1  0.67017098  0.65302183  0.37564310  1
  Ca2+  Ca20  1  0.17118067  0.17774172  0.12444456  1
  Ca2+  Ca21  1  0.83504220  0.51550233  0.12648557  1
  Pr3+  Pr22  1  0.33546834  0.31932125  0.87593696  1
  Pr3+  Pr23  1  0.66923137  0.65526890  0.87386349  1
  Pr3+  Pr24  1  0.83679404  0.18272175  0.62403331  1
  Pr3+  Pr25  1  0.83498400  0.17986690  0.12597375  1
  Pr3+  Pr26  1  0.16163172  0.48961212  0.87615209  1
  Pr3+  Pr27  1  0.66757937  0.67849627  0.12684616  1
  Pr3+  Pr28  1  0.82840338  0.49059242  0.37241147  1
  Pr3+  Pr29  1  0.67050018  0.98561668  0.37485942  1
  Pr3+  Pr30  1  0.33002306  0.34467215  0.12439556  1
  Pr3+  Pr31  1  0.82975295  0.15381555  0.87523608  1
  Pr3+  Pr32  1  0.66231275  0.34443010  0.62509805  1
  Pr3+  Pr33  1  0.50282862  0.17920317  0.12479719  1
  Pr3+  Pr34  1  0.50247309  0.51210043  0.12738693  1
  Pr3+  Pr35  1  0.66576960  0.01020700  0.12584474  1
  Pr3+  Pr36  1  0.16914751  0.51421567  0.12533839  1
  Pr3+  Pr37  1  0.49794683  0.84433257  0.12681100  1
  Pr3+  Pr38  1  0.50688431  0.51474289  0.62269800  1
  Pr3+  Pr39  1  0.99957431  0.65486610  0.37439567  1
  Pr3+  Pr40  1  0.33531406  0.65700951  0.87639892  1
  Pr3+  Pr41  1  0.83033318  0.48744527  0.87713920  1
  Pr3+  Pr42  1  -0.00404834  0.01166746  0.62401531  1
  Pr3+  Pr43  1  0.83338301  0.51224125  0.62366574  1
  Pr3+  Pr44  1  0.33968772  0.32478989  0.37403653  1
  Pr3+  Pr45  1  0.49548723  0.15317210  0.37565862  1
  Pr3+  Pr46  1  0.66896828  0.98666687  0.87543716  1
  Pr3+  Pr47  1  0.49748032  0.82216909  0.87454275  1
  Pr3+  Pr48  1  0.66129471  0.01285322  0.62443593  1
  Pr3+  Pr49  1  0.16776674  0.51204138  0.62470610  1
  Pr3+  Pr50  1  0.16179657  0.81856207  0.87610947  1
  Pr3+  Pr51  1  -0.00646350  0.68148838  0.62521274  1
  Pr3+  Pr52  1  0.33248030  0.68031460  0.62233487  1
  Pr3+  Pr53  1  0.16549950  0.48908197  0.37329353  1
  Pr3+  Pr54  1  0.16634804  0.82040473  0.37435405  1
  Pr3+  Pr55  1  -0.00315089  0.34811037  0.12421821  1
  Pr3+  Pr56  1  0.49826358  0.48644584  0.87601875  1
  Pr3+  Pr57  1  0.49889652  0.81961632  0.37618697  1
  Pr3+  Pr58  1  -0.00037735  0.00933290  0.12582212  1
  Pr3+  Pr59  1  1.00119348  0.98556303  0.37479684  1
  Pr3+  Pr60  1  1.00263795  0.32252343  0.37529833  1
  Pr3+  Pr61  1  0.33472240  0.34526103  0.62583497  1
  Pr3+  Pr62  1  1.00394691  0.98625518  0.87539113  1
  Pr3+  Pr63  1  0.49812730  0.15322531  0.87420505  1
  Pr3+  Pr64  1  0.82883822  0.15545225  0.37474944  1
  Pr3+  Pr65  1  0.16848903  0.17971993  0.62547760  1
  Pr3+  Pr66  1  0.17010747  0.84643834  0.62325164  1
  Pr3+  Pr67  1  0.16496567  0.15155002  0.87720764  1
  Pr3+  Pr68  1  1.00250572  0.32053624  0.87442101  1
  Pr3+  Pr69  1  0.16639150  0.15341305  0.37277182  1
  Pr3+  Pr70  1  0.33436400  0.01234378  0.62325459  1
  Pr3+  Pr71  1  0.83189199  0.81977640  0.87583114  1
  Mn3.30+  Mn72  1  0.16859758  -0.00191127  0.00264039  1
  Mn3.30+  Mn73  1  0.16797868  0.00042712  0.49772960  1
  Mn3.30+  Mn74  1  0.16587452  0.33171995  0.00044313  1
  Mn3.30+  Mn75  1  0.16677711  0.33349867  0.50130713  1
  Mn3.30+  Mn76  1  0.16469196  0.66714549  0.00016732  1
  Mn3.30+  Mn77  1  0.16531267  0.66599987  0.49962583  1
  Mn3.30+  Mn78  1  0.49761390  -0.00035772  0.00254915  1
  Mn3.30+  Mn79  1  0.49991324  -0.00031569  0.49918087  1
  Mn3.30+  Mn80  1  0.50335811  0.33299728  -0.00049519  1
  Mn3.30+  Mn81  1  0.50070276  0.33292688  0.49993155  1
  Mn3.30+  Mn82  1  0.50066048  0.66701196  0.00221836  1
  Mn3.30+  Mn83  1  0.50399179  0.66550699  0.49745961  1
  Mn3.30+  Mn84  1  0.83426058  -0.00135581  0.00105301  1
  Mn3.30+  Mn85  1  0.83184696  -0.00266149  0.49993084  1
  Mn3.30+  Mn86  1  0.83033148  0.33489618  0.00192826  1
  Mn3.30+  Mn87  1  0.83323163  0.33497521  0.49917767  1
  Mn3.30+  Mn88  1  0.83513227  0.66656758  -0.00017682  1
  Mn3.30+  Mn89  1  0.82921462  0.66940315  0.50119201  1
  Mn3.30+  Mn90  1  0.00135428  0.16667462  0.24886483  1
  Mn3.30+  Mn91  1  -0.00057867  0.16762700  0.74914447  1
  Mn3.30+  Mn92  1  -0.00294100  0.50088756  0.24918165  1
  Mn3.30+  Mn93  1  -0.00167259  0.50050737  0.74971215  1
  Mn3.30+  Mn94  1  -0.00318166  0.83239960  0.25097559  1
  Mn3.30+  Mn95  1  -0.00205900  0.83252025  0.74840569  1
  Mn3.30+  Mn96  1  0.33228036  0.16477883  0.24949724  1
  Mn3.30+  Mn97  1  0.33552450  0.16610844  0.74838792  1
  Mn3.30+  Mn98  1  0.33515701  0.49930119  0.25120227  1
  Mn3.30+  Mn99  1  0.33389683  0.50096199  0.74945077  1
  Mn3.30+  Mn100  1  0.33344068  0.83446009  0.25061014  1
  Mn3.30+  Mn101  1  0.33331551  0.83442424  0.74993744  1
  Mn3.30+  Mn102  1  0.66585271  0.16821652  0.24977180  1
  Mn3.30+  Mn103  1  0.66626452  0.16743215  0.75045081  1
  Mn3.30+  Mn104  1  0.66738615  0.50068189  0.24909674  1
  Mn3.30+  Mn105  1  0.66693536  0.49939991  0.75131686  1
  Mn3.30+  Mn106  1  0.66994845  0.83212651  0.24932452  1
  Mn3.30+  Mn107  1  0.66776047  0.83241054  0.74813737  1
  Mn3.30+  Mn108  1  0.16996322  -0.00077666  0.25052878  1
  Mn3.30+  Mn109  1  0.16673882  -0.00065403  0.74941805  1
  Mn3.30+  Mn110  1  0.16728026  0.33138576  0.24937324  1
  Mn3.30+  Mn111  1  0.16503675  0.33381642  0.74839788  1
  Mn3.30+  Mn112  1  0.16634218  0.66684755  0.25139175  1
  Mn3.30+  Mn113  1  0.16397794  0.66650391  0.74883091  1
  Mn3.30+  Mn114  1  0.49717749  -0.00003059  0.24921193  1
  Mn3.30+  Mn115  1  0.50030143  -0.00047524  0.74917831  1
  Mn3.30+  Mn116  1  0.50179675  0.33413928  0.24912176  1
  Mn3.30+  Mn117  1  0.50222333  0.33190749  0.75180858  1
  Mn3.30+  Mn118  1  0.50160758  0.66579718  0.25094126  1
  Mn3.30+  Mn119  1  0.50256110  0.66701387  0.74935878  1
  Mn3.30+  Mn120  1  0.83352626  -0.00242604  0.25055393  1
  Mn3.30+  Mn121  1  0.83268902  -0.00138792  0.74831632  1
  Mn3.30+  Mn122  1  0.83130265  0.33558443  0.24763286  1
  Mn3.30+  Mn123  1  0.83254931  0.33407839  0.75121698  1
  Mn3.30+  Mn124  1  0.83185641  0.66820888  0.25030731  1
  Mn3.30+  Mn125  1  0.83265090  0.66776336  0.74864421  1
  Mn3.30+  Mn126  1  0.00090570  0.16635980  0.00239810  1
  Mn3.30+  Mn127  1  -0.00027565  0.16798915  0.49936755  1
  Mn3.30+  Mn128  1  -0.00320037  0.50216855  0.00016062  1
  Mn3.30+  Mn129  1  -0.00119984  0.49913832  0.50075672  1
  Mn3.30+  Mn130  1  -0.00146207  0.83171402  0.00210111  1
  Mn3.30+  Mn131  1  -0.00419588  0.83293355  0.49869757  1
  Mn3.30+  Mn132  1  0.33299156  0.16444498  0.00183805  1
  Mn3.30+  Mn133  1  0.33468629  0.16645808  0.50043930  1
  Mn3.30+  Mn134  1  0.33242744  0.50015231  -0.00090019  1
  Mn3.30+  Mn135  1  0.33662267  0.49976900  0.50009729  1
  Mn3.30+  Mn136  1  0.33154721  0.83409642  0.00070196  1
  Mn3.30+  Mn137  1  0.33531953  0.83473088  0.49894668  1
  Mn3.30+  Mn138  1  0.66684031  0.16860571  0.00116207  1
  Mn3.30+  Mn139  1  0.66516045  0.16736005  0.49915330  1
  Mn3.30+  Mn140  1  0.66789986  0.49854526  0.00168764  1
  Mn3.30+  Mn141  1  0.66650994  0.50198639  0.49800204  1
  Mn3.30+  Mn142  1  0.66858977  0.83329016  0.00302568  1
  Mn3.30+  Mn143  1  0.66916137  0.83121946  0.49952871  1
  O2-  O144  1  0.02839915  0.15983364  0.12676462  1
  O2-  O145  1  0.02514872  0.15868511  0.62395057  1
  O2-  O146  1  0.02538669  0.49527869  0.12491963  1
  O2-  O147  1  0.02381272  0.49361992  0.62470221  1
  O2-  O148  1  0.01895963  0.83582771  0.12726099  1
  O2-  O149  1  0.02615327  0.82943670  0.62355891  1
  O2-  O150  1  0.35889726  0.16119895  0.12440785  1
  O2-  O151  1  0.36177176  0.16102909  0.62374787  1
  O2-  O152  1  0.35663654  0.49405860  0.12453978  1
  O2-  O153  1  0.36146154  0.49486388  0.62710321  1
  O2-  O154  1  0.35456961  0.82833499  0.12598846  1
  O2-  O155  1  0.35206303  0.82831439  0.62421007  1
  O2-  O156  1  0.69191641  0.15719042  0.12467200  1
  O2-  O157  1  0.69267245  0.16131616  0.62355666  1
  O2-  O158  1  0.69319811  0.49398661  0.12271110  1
  O2-  O159  1  0.69032292  0.49014070  0.62741608  1
  O2-  O160  1  0.69832386  0.82804823  0.12533456  1
  O2-  O161  1  0.69195883  0.82851342  0.62231139  1
  O2-  O162  1  0.14090745  0.32520934  0.12262267  1
  O2-  O163  1  0.13618757  0.32648016  0.62401847  1
  O2-  O164  1  0.14765647  0.66193335  0.12802036  1
  O2-  O165  1  0.13905564  0.66128925  0.62420909  1
  O2-  O166  1  0.14198725  0.99502097  0.12687663  1
  O2-  O167  1  0.13992175  0.99546085  0.62240900  1
  O2-  O168  1  0.47358574  0.32881577  0.12211407  1
  O2-  O169  1  0.47831484  0.32712087  0.62677015  1
  O2-  O170  1  0.47822855  0.66131938  0.12507830  1
  O2-  O171  1  0.47586764  0.66133472  0.62416557  1
  O2-  O172  1  0.47053691  0.99367774  0.12691985  1
  O2-  O173  1  0.47760183  0.99496554  0.62392711  1
  O2-  O174  1  0.80473155  0.32540625  0.12421052  1
  O2-  O175  1  0.80668003  0.33022591  0.62592567  1
  O2-  O176  1  0.81009519  0.65936168  0.12424673  1
  O2-  O177  1  0.80388985  0.65811681  0.62544738  1
  O2-  O178  1  0.80997994  0.99242443  0.12673675  1
  O2-  O179  1  0.80611695  0.99284862  0.62431842  1
  O2-  O180  1  0.30830824  0.17841015  0.37672363  1
  O2-  O181  1  0.30885737  0.17175900  0.87480558  1
  O2-  O182  1  0.31022055  0.49291902  0.37603987  1
  O2-  O183  1  0.30665074  0.50678182  0.87216788  1
  O2-  O184  1  0.31109627  0.83981033  0.37671815  1
  O2-  O185  1  0.30802297  0.83354306  0.87317806  1
  O2-  O186  1  0.64134822  0.16838921  0.37347407  1
  O2-  O187  1  0.64252265  0.17138673  0.87863367  1
  O2-  O188  1  0.64243806  0.50733661  0.37421198  1
  O2-  O189  1  0.64016468  0.50924208  0.87552417  1
  O2-  O190  1  0.64145860  0.84063642  0.37270631  1
  O2-  O191  1  0.64167404  0.83828711  0.87884320  1
  O2-  O192  1  0.97291017  0.17420064  0.37407401  1
  O2-  O193  1  0.97378696  0.17146985  0.87503480  1
  O2-  O194  1  0.97418520  0.50308679  0.37552813  1
  O2-  O195  1  0.97538407  0.50554291  0.87446631  1
  O2-  O196  1  0.97015245  0.83800947  0.37698864  1
  O2-  O197  1  0.97519128  0.84028476  0.87274346  1
  O2-  O198  1  0.19598663  0.00683059  0.37595758  1
  O2-  O199  1  0.18447938  0.00386631  0.87550073  1
  O2-  O200  1  0.19466336  0.34045874  0.37737820  1
  O2-  O201  1  0.19133840  0.34072227  0.87530318  1
  O2-  O202  1  0.18520303  0.66890381  0.37729871  1
  O2-  O203  1  0.19046248  0.66889885  0.87064688  1
  O2-  O204  1  0.52621782  0.00597373  0.37342861  1
  O2-  O205  1  0.52516637  0.00440085  0.87603397  1
  O2-  O206  1  0.51544284  0.33967496  0.37453479  1
  O2-  O207  1  0.52864042  0.33908493  0.87689874  1
  O2-  O208  1  0.52845702  0.67266904  0.37292795  1
  O2-  O209  1  0.52485838  0.67269549  0.87767258  1
  O2-  O210  1  0.85792715  0.01026928  0.37497660  1
  O2-  O211  1  0.85913600  0.00674114  0.87378677  1
  O2-  O212  1  0.85942613  0.34039912  0.37164650  1
  O2-  O213  1  0.85977297  0.33774959  0.87786185  1
  O2-  O214  1  0.85701681  0.66994780  0.37735024  1
  O2-  O215  1  0.86011988  0.67319776  0.87274152  1
  O2-  O216  1  0.23557299  0.09658319  0.01722059  1
  O2-  O217  1  0.23895284  0.09632079  0.52245240  1
  O2-  O218  1  0.23741473  0.42696974  0.02042580  1
  O2-  O219  1  0.23844746  0.42570013  0.52457634  1
  O2-  O220  1  0.23804479  0.76083097  0.00990915  1
  O2-  O221  1  0.23776812  0.76011691  0.51818734  1
  O2-  O222  1  0.57340162  0.09344627  0.02129851  1
  O2-  O223  1  0.56964424  0.09493094  0.52016029  1
  O2-  O224  1  0.56888355  0.43052595  0.01865131  1
  O2-  O225  1  0.57412655  0.42672022  0.52043698  1
  O2-  O226  1  0.57565582  0.76224003  0.02375847  1
  O2-  O227  1  0.57415431  0.76140920  0.51379880  1
  O2-  O228  1  0.90597406  0.09489805  0.02187648  1
  O2-  O229  1  0.90320305  0.09352114  0.52084548  1
  O2-  O230  1  0.90278737  0.42870088  0.02178040  1
  O2-  O231  1  0.90475104  0.42954757  0.51862642  1
  O2-  O232  1  0.90099032  0.76651465  0.01655141  1
  O2-  O233  1  0.90248919  0.75997440  0.52511858  1
  O2-  O234  1  0.26444671  0.26157074  0.23101568  1
  O2-  O235  1  0.26119934  0.26097200  0.72908564  1
  O2-  O236  1  0.25775796  0.58599107  0.23599486  1
  O2-  O237  1  0.26111796  0.59589438  0.72646488  1
  O2-  O238  1  0.26414702  0.93177080  0.23379790  1
  O2-  O239  1  0.25943956  0.92769691  0.72656783  1
  O2-  O240  1  0.59273226  0.26122951  0.22627019  1
  O2-  O241  1  0.59765137  0.26051843  0.73171619  1
  O2-  O242  1  0.59480760  0.59239761  0.22515768  1
  O2-  O243  1  0.59655343  0.59477406  0.72889182  1
  O2-  O244  1  0.59606268  0.92662203  0.22799343  1
  O2-  O245  1  0.59803012  0.93082759  0.73454046  1
  O2-  O246  1  0.92831306  0.26267433  0.22756580  1
  O2-  O247  1  0.92995873  0.26291904  0.72909977  1
  O2-  O248  1  0.92627109  0.59547218  0.23834108  1
  O2-  O249  1  0.92516757  0.59450547  0.72589782  1
  O2-  O250  1  0.93130487  0.93152143  0.23513701  1
  O2-  O251  1  0.93084978  0.93013241  0.73136129  1
  O2-  O252  1  0.09450674  0.24159353  0.27434923  1
  O2-  O253  1  0.09604665  0.23787863  0.77200484  1
  O2-  O254  1  0.09108529  0.57122250  0.27034514  1
  O2-  O255  1  0.09691600  0.57000207  0.76621289  1
  O2-  O256  1  0.09455444  0.90732503  0.27553243  1
  O2-  O257  1  0.09409923  0.90297171  0.76790116  1
  O2-  O258  1  0.42902913  0.23713145  0.26720802  1
  O2-  O259  1  0.42793194  0.24143258  0.77374287  1
  O2-  O260  1  0.43080626  0.56753635  0.26753275  1
  O2-  O261  1  0.43007822  0.57374997  0.77128446  1
  O2-  O262  1  0.43181688  0.90375237  0.26900332  1
  O2-  O263  1  0.43008190  0.90554907  0.76902956  1
  O2-  O264  1  0.76539733  0.23764433  0.26693288  1
  O2-  O265  1  0.76543662  0.23672879  0.76779877  1
  O2-  O266  1  0.76087427  0.57361207  0.26791617  1
  O2-  O267  1  0.76196548  0.57120388  0.77230201  1
  O2-  O268  1  0.76163128  0.90560923  0.27382639  1
  O2-  O269  1  0.76075094  0.90634867  0.77280116  1
  O2-  O270  1  0.07345287  0.07242034  0.47731612  1
  O2-  O271  1  0.07187519  0.07099167  0.98072256  1
  O2-  O272  1  0.07602146  0.40656928  0.47594630  1
  O2-  O273  1  0.06886942  0.40635013  0.98040172  1
  O2-  O274  1  0.06828898  0.74041213  0.48017760  1
  O2-  O275  1  0.07085457  0.73906975  0.97761659  1
  O2-  O276  1  0.40237704  0.07144249  0.47766186  1
  O2-  O277  1  0.40929907  0.07751673  0.97976248  1
  O2-  O278  1  0.40363915  0.40157801  0.48827298  1
  O2-  O279  1  0.40464139  0.40545845  0.97780428  1
  O2-  O280  1  0.40957822  0.73852574  0.48330571  1
  O2-  O281  1  0.40764804  0.74146956  0.97835582  1
  O2-  O282  1  0.73776413  0.07119578  0.48010372  1
  O2-  O283  1  0.73955952  0.07196366  0.98040357  1
  O2-  O284  1  0.74093402  0.40895756  0.48140110  1
  O2-  O285  1  0.73768642  0.40556114  0.97437071  1
  O2-  O286  1  0.73670384  0.73685338  0.47719021  1
  O2-  O287  1  0.73902215  0.73773231  0.97885175  1
  O2-  O288  1  0.09752961  0.23972955  0.47722215  1
  O2-  O289  1  0.09323900  0.23958080  0.97564864  1
  O2-  O290  1  0.09303545  0.57105547  0.48030646  1
  O2-  O291  1  0.09477637  0.57035217  0.98318563  1
  O2-  O292  1  0.09489399  0.90598420  0.47803698  1
  O2-  O293  1  0.09294971  0.90487957  0.97880283  1
  O2-  O294  1  0.42706354  0.23932238  0.47925008  1
  O2-  O295  1  0.43010374  0.23992408  0.97876704  1
  O2-  O296  1  0.43446446  0.56859343  0.48181443  1
  O2-  O297  1  0.42600796  0.57196895  0.97868239  1
  O2-  O298  1  0.43055442  0.90719638  0.47958074  1
  O2-  O299  1  0.43053113  0.90218510  0.98319931  1
  O2-  O300  1  0.76447733  0.23742110  0.48311810  1
  O2-  O301  1  0.76455949  0.23621332  0.98186847  1
  O2-  O302  1  0.76414982  0.57020193  0.48253951  1
  O2-  O303  1  0.75921258  0.57431543  0.97675472  1
  O2-  O304  1  0.76333921  0.90434925  0.47549065  1
  O2-  O305  1  0.75981154  0.90691837  0.97682705  1
  O2-  O306  1  0.07292189  0.07117288  0.27336124  1
  O2-  O307  1  0.07182447  0.07254268  0.76923575  1
  O2-  O308  1  0.07199402  0.40592883  0.26918377  1
  O2-  O309  1  0.07205936  0.40667276  0.77253124  1
  O2-  O310  1  0.07024585  0.74223158  0.27354639  1
  O2-  O311  1  0.06864509  0.73643263  0.76989713  1
  O2-  O312  1  0.40418501  0.07411274  0.27454689  1
  O2-  O313  1  0.40840981  0.07323672  0.76739719  1
  O2-  O314  1  0.40316947  0.40169543  0.26198166  1
  O2-  O315  1  0.40550511  0.40508707  0.77217094  1
  O2-  O316  1  0.41269428  0.74223070  0.26933573  1
  O2-  O317  1  0.40535059  0.73789027  0.76827021  1
  O2-  O318  1  0.73966961  0.07135921  0.26871977  1
  O2-  O319  1  0.73717353  0.07260833  0.77070149  1
  O2-  O320  1  0.74153119  0.41046264  0.26991176  1
  O2-  O321  1  0.73610511  0.40448151  0.77371807  1
  O2-  O322  1  0.73454050  0.73494975  0.26898074  1
  O2-  O323  1  0.74082422  0.73998565  0.77356054  1
  O2-  O324  1  0.23507989  0.09904618  0.23171685  1
  O2-  O325  1  0.23938552  0.09436495  0.72876242  1
  O2-  O326  1  0.23731071  0.42513669  0.22805331  1
  O2-  O327  1  0.23818830  0.42700337  0.72758303  1
  O2-  O328  1  0.24057446  0.76148532  0.24182653  1
  O2-  O329  1  0.23521610  0.76012580  0.72898331  1
  O2-  O330  1  0.57004303  0.09250703  0.22830786  1
  O2-  O331  1  0.57177135  0.09514894  0.73060251  1
  O2-  O332  1  0.57253994  0.42775294  0.22984073  1
  O2-  O333  1  0.57012981  0.42844409  0.73092412  1
  O2-  O334  1  0.57533704  0.76211635  0.22693659  1
  O2-  O335  1  0.57373299  0.75986051  0.73674296  1
  O2-  O336  1  0.90573502  0.09390101  0.22888669  1
  O2-  O337  1  0.90387253  0.09492239  0.72784772  1
  O2-  O338  1  0.90554630  0.42830200  0.22599462  1
  O2-  O339  1  0.90080621  0.42952519  0.73347313  1
  O2-  O340  1  0.90055028  0.76286226  0.23353899  1
  O2-  O341  1  0.90316764  0.76398667  0.72551718  1
  O2-  O342  1  0.26498518  0.26117431  0.01621880  1
  O2-  O343  1  0.26061580  0.26131637  0.52532828  1
  O2-  O344  1  0.25801240  0.59159447  0.01529536  1
  O2-  O345  1  0.26177951  0.59104598  0.52192250  1
  O2-  O346  1  0.26268166  0.93018448  0.01904351  1
  O2-  O347  1  0.25892946  0.92846084  0.52228479  1
  O2-  O348  1  0.59532317  0.26064386  0.02498141  1
  O2-  O349  1  0.59418653  0.26160596  0.51888300  1
  O2-  O350  1  0.59555191  0.59331305  0.02138045  1
  O2-  O351  1  0.59699165  0.59424325  0.52443069  1
  O2-  O352  1  0.59485937  0.92713860  0.02290749  1
  O2-  O353  1  0.60064685  0.93005215  0.51471174  1
  O2-  O354  1  0.92834245  0.26217827  0.02205811  1
  O2-  O355  1  0.92873403  0.26385700  0.52069264  1
  O2-  O356  1  0.92587865  0.59370086  0.01575044  1
  O2-  O357  1  0.92637456  0.59679655  0.52019449  1
  O2-  O358  1  0.93105580  0.93096268  0.01524166  1
  O2-  O359  1  0.93043525  0.93051934  0.51842985  1
