# generated using pymatgen
data_Sr7Ca15Pr50Mn72O216
_symmetry_space_group_name_H-M   'P 1'
_cell_length_a   16.55972090
_cell_length_b   16.60380269
_cell_length_c   15.59322734
_cell_angle_alpha   90.00601364
_cell_angle_beta   89.99751934
_cell_angle_gamma   90.02080307
_symmetry_Int_Tables_number   1
_chemical_formula_structural   Sr7Ca15Pr50Mn72O216
_chemical_formula_sum   'Sr7 Ca15 Pr50 Mn72 O216'
_cell_volume   4287.42519695
_cell_formula_units_Z   1
loop_
 _symmetry_equiv_pos_site_id
 _symmetry_equiv_pos_as_xyz
  1  'x, y, z'
loop_
 _atom_type_symbol
 _atom_type_oxidation_number
  Sr2+  2.0
  Ca2+  2.0
  Pr3+  3.0
  Mn3.30+  3.3
  O2-  -2.0
loop_
 _atom_site_type_symbol
 _atom_site_label
 _atom_site_symmetry_multiplicity
 _atom_site_fract_x
 _atom_site_fract_y
 _atom_site_fract_z
 _atom_site_occupancy
  Sr2+  Sr0  1  0.50362085  0.17812484  0.62517593  1
  Sr2+  Sr1  1  0.49909246  0.51018816  0.12593547  1
  Sr2+  Sr2  1  0.83189838  0.49044672  0.87409827  1
  Sr2+  Sr3  1  0.16539993  0.82437753  0.37539022  1
  Sr2+  Sr4  1  0.66137561  0.67942525  0.12460980  1
  Sr2+  Sr5  1  0.99934766  0.65545921  0.87410098  1
  Sr2+  Sr6  1  0.16711403  0.84163033  0.62354565  1
  Ca2+  Ca7  1  0.50421201  0.51270701  0.62392779  1
  Ca2+  Ca8  1  0.50649333  0.84589485  0.12808540  1
  Ca2+  Ca9  1  0.33879313  0.31834970  0.37451775  1
  Ca2+  Ca10  1  0.66970216  0.98596315  0.87168808  1
  Ca2+  Ca11  1  0.66974028  0.98143321  0.37760571  1
  Ca2+  Ca12  1  -0.00126113  0.34625840  0.62503367  1
  Ca2+  Ca13  1  0.49875924  0.82060935  0.37282896  1
  Ca2+  Ca14  1  0.66431972  0.01304090  0.62369781  1
  Ca2+  Ca15  1  0.16906365  0.84738103  0.12566145  1
  Ca2+  Ca16  1  0.17086493  0.17907714  0.62359163  1
  Ca2+  Ca17  1  0.82829417  0.82011468  0.37555355  1
  Ca2+  Ca18  1  0.66053130  0.34943151  0.62469654  1
  Ca2+  Ca19  1  0.33046072  0.34826061  0.12794616  1
  Ca2+  Ca20  1  0.83580082  0.84846322  0.62304907  1
  Ca2+  Ca21  1  -0.00214718  0.01290146  0.12644270  1
  Pr3+  Pr22  1  0.33587926  0.98725342  0.87425986  1
  Pr3+  Pr23  1  0.50091709  0.82220831  0.87562226  1
  Pr3+  Pr24  1  1.00152768  0.32278808  0.87182145  1
  Pr3+  Pr25  1  0.33448122  0.65494652  0.87316070  1
  Pr3+  Pr26  1  0.49477057  0.48674114  0.37547388  1
  Pr3+  Pr27  1  0.16716880  0.51167397  0.62480768  1
  Pr3+  Pr28  1  0.49972514  0.15275144  0.87310538  1
  Pr3+  Pr29  1  0.66432344  0.67837397  0.62538227  1
  Pr3+  Pr30  1  1.00178493  0.98612307  0.37385082  1
  Pr3+  Pr31  1  0.50270576  0.17960716  0.12552862  1
  Pr3+  Pr32  1  0.83473061  0.17971756  0.62449384  1
  Pr3+  Pr33  1  0.83466998  0.84794116  0.12677928  1
  Pr3+  Pr34  1  0.49926959  0.48941567  0.87465591  1
  Pr3+  Pr35  1  0.32889668  0.01444243  0.62370433  1
  Pr3+  Pr36  1  0.16650230  0.48779534  0.37634308  1
  Pr3+  Pr37  1  0.83503327  0.51418022  0.12526062  1
  Pr3+  Pr38  1  0.82890951  0.82184759  0.87436492  1
  Pr3+  Pr39  1  0.33092920  0.68188788  0.12450674  1
  Pr3+  Pr40  1  0.33708607  0.65821970  0.37614770  1
  Pr3+  Pr41  1  0.82841288  0.15001779  0.37622327  1
  Pr3+  Pr42  1  0.33377585  0.00890997  0.12614396  1
  Pr3+  Pr43  1  0.66558014  0.65715538  0.37362993  1
  Pr3+  Pr44  1  0.67066632  0.65245958  0.87641003  1
  Pr3+  Pr45  1  0.16111395  0.48675916  0.87398552  1
  Pr3+  Pr46  1  0.33696924  0.32077968  0.87605374  1
  Pr3+  Pr47  1  0.49732727  0.15326139  0.37735251  1
  Pr3+  Pr48  1  0.16215227  0.82015496  0.87524490  1
  Pr3+  Pr49  1  -0.00200091  0.00923588  0.62330058  1
  Pr3+  Pr50  1  1.00307034  0.31999824  0.37827635  1
  Pr3+  Pr51  1  0.16998980  0.18010473  0.12613849  1
  Pr3+  Pr52  1  0.83705834  0.17586874  0.12569364  1
  Pr3+  Pr53  1  0.66803336  0.32033202  0.37713325  1
  Pr3+  Pr54  1  0.66179140  0.00808244  0.12527686  1
  Pr3+  Pr55  1  -0.00637903  0.68310273  0.62537247  1
  Pr3+  Pr56  1  0.50509803  0.84802047  0.62261891  1
  Pr3+  Pr57  1  0.83485324  0.51063258  0.62513456  1
  Pr3+  Pr58  1  0.66395917  0.34604923  0.12616093  1
  Pr3+  Pr59  1  0.82945123  0.48766665  0.37562508  1
  Pr3+  Pr60  1  0.33785248  0.98342096  0.37521891  1
  Pr3+  Pr61  1  1.00223868  0.98767788  0.87621177  1
  Pr3+  Pr62  1  -0.00258097  0.67979970  0.12467547  1
  Pr3+  Pr63  1  0.16356266  0.15346895  0.87399377  1
  Pr3+  Pr64  1  0.67167417  0.32254151  0.87246001  1
  Pr3+  Pr65  1  -0.00183753  0.34551754  0.12634016  1
  Pr3+  Pr66  1  1.00232275  0.65705369  0.37581453  1
  Pr3+  Pr67  1  0.82973964  0.15134732  0.87368117  1
  Pr3+  Pr68  1  0.33220742  0.34332378  0.62280530  1
  Pr3+  Pr69  1  0.17213697  0.51260500  0.12488303  1
  Pr3+  Pr70  1  0.16630412  0.15353527  0.37632266  1
  Pr3+  Pr71  1  0.33259529  0.67869868  0.62459986  1
  Mn3.30+  Mn72  1  0.16593643  -0.00058030  0.00321963  1
  Mn3.30+  Mn73  1  0.16630325  -0.00071690  0.49999204  1
  Mn3.30+  Mn74  1  0.16856299  0.33306651  0.00078687  1
  Mn3.30+  Mn75  1  0.16793852  0.33146859  0.50067584  1
  Mn3.30+  Mn76  1  0.16557324  0.66794369  0.00058230  1
  Mn3.30+  Mn77  1  0.16661931  0.66792714  0.49977420  1
  Mn3.30+  Mn78  1  0.50135128  -0.00191917  -0.00110458  1
  Mn3.30+  Mn79  1  0.50359973  -0.00068977  0.49925687  1
  Mn3.30+  Mn80  1  0.50062596  0.33366142  0.00062367  1
  Mn3.30+  Mn81  1  0.50059589  0.33344075  0.50145104  1
  Mn3.30+  Mn82  1  0.50003936  0.66788141  0.00079866  1
  Mn3.30+  Mn83  1  0.50108306  0.66719141  0.50085648  1
  Mn3.30+  Mn84  1  0.83275265  -0.00008837  0.00017773  1
  Mn3.30+  Mn85  1  0.82936660  -0.00288301  0.50029609  1
  Mn3.30+  Mn86  1  0.83379895  0.33264790  -0.00031170  1
  Mn3.30+  Mn87  1  0.83277112  0.33287776  0.50245754  1
  Mn3.30+  Mn88  1  0.83194985  0.66777923  0.00115727  1
  Mn3.30+  Mn89  1  0.83184733  0.66932157  0.49906573  1
  Mn3.30+  Mn90  1  -0.00000438  0.16517836  0.25133205  1
  Mn3.30+  Mn91  1  0.00072187  0.16721533  0.74648935  1
  Mn3.30+  Mn92  1  0.00102629  0.50009814  0.25105371  1
  Mn3.30+  Mn93  1  -0.00092195  0.49858496  0.74873772  1
  Mn3.30+  Mn94  1  0.00002499  0.83489105  0.24891417  1
  Mn3.30+  Mn95  1  -0.00252493  0.83494296  0.74923245  1
  Mn3.30+  Mn96  1  0.33434973  0.16731057  0.25027161  1
  Mn3.30+  Mn97  1  0.33280966  0.16732378  0.74923012  1
  Mn3.30+  Mn98  1  0.33333260  0.49965800  0.25056704  1
  Mn3.30+  Mn99  1  0.33451597  0.49877987  0.74809297  1
  Mn3.30+  Mn100  1  0.33533986  0.83292190  0.24840105  1
  Mn3.30+  Mn101  1  0.33351841  0.83384400  0.74968274  1
  Mn3.30+  Mn102  1  0.66657744  0.16322369  0.25131387  1
  Mn3.30+  Mn103  1  0.66652635  0.16571355  0.74795652  1
  Mn3.30+  Mn104  1  0.66441986  0.50086966  0.25082091  1
  Mn3.30+  Mn105  1  0.66532812  0.49865147  0.74788937  1
  Mn3.30+  Mn106  1  0.66557786  0.83389497  0.25307828  1
  Mn3.30+  Mn107  1  0.66827562  0.83605001  0.74666594  1
  Mn3.30+  Mn108  1  0.16574298  -0.00149995  0.24804907  1
  Mn3.30+  Mn109  1  0.16635932  0.00030799  0.74884720  1
  Mn3.30+  Mn110  1  0.17017704  0.33325708  0.25281059  1
  Mn3.30+  Mn111  1  0.16710035  0.33106634  0.74657984  1
  Mn3.30+  Mn112  1  0.16710376  0.66917737  0.25021102  1
  Mn3.30+  Mn113  1  0.16527391  0.66673145  0.74868905  1
  Mn3.30+  Mn114  1  0.50192225  -0.00324589  0.25266752  1
  Mn3.30+  Mn115  1  0.50321262  0.00033132  0.74872064  1
  Mn3.30+  Mn116  1  0.49774576  0.33298169  0.24991294  1
  Mn3.30+  Mn117  1  0.50280663  0.33425150  0.74842612  1
  Mn3.30+  Mn118  1  0.50004475  0.66899032  0.24895485  1
  Mn3.30+  Mn119  1  0.50082782  0.66626812  0.74944421  1
  Mn3.30+  Mn120  1  0.83171152  -0.00199282  0.25162087  1
  Mn3.30+  Mn121  1  0.83053730  -0.00097937  0.74726579  1
  Mn3.30+  Mn122  1  0.83346830  0.33176715  0.25152181  1
  Mn3.30+  Mn123  1  0.83333484  0.33340831  0.74682545  1
  Mn3.30+  Mn124  1  0.83238117  0.66955044  0.25072861  1
  Mn3.30+  Mn125  1  0.83125283  0.66747504  0.74942530  1
  Mn3.30+  Mn126  1  0.00003059  0.16616965  0.00006423  1
  Mn3.30+  Mn127  1  0.00062819  0.16684972  0.50245074  1
  Mn3.30+  Mn128  1  0.00030291  0.49942814  -0.00032672  1
  Mn3.30+  Mn129  1  -0.00080222  0.49951926  0.50065584  1
  Mn3.30+  Mn130  1  0.00073598  0.83512803  0.00294489  1
  Mn3.30+  Mn131  1  -0.00424730  0.83438458  0.49859983  1
  Mn3.30+  Mn132  1  0.33398572  0.16704890  0.00139185  1
  Mn3.30+  Mn133  1  0.33315373  0.16747744  0.49966525  1
  Mn3.30+  Mn134  1  0.33285982  0.49982588  -0.00048712  1
  Mn3.30+  Mn135  1  0.33549694  0.49887131  0.50179623  1
  Mn3.30+  Mn136  1  0.33362703  0.83406962  0.00159424  1
  Mn3.30+  Mn137  1  0.33582982  0.83288108  0.49947479  1
  Mn3.30+  Mn138  1  0.66780975  0.16446609  -0.00034626  1
  Mn3.30+  Mn139  1  0.66544703  0.16473867  0.50148976  1
  Mn3.30+  Mn140  1  0.66593090  0.49952204  0.00093607  1
  Mn3.30+  Mn141  1  0.66413684  0.49950899  0.50036860  1
  Mn3.30+  Mn142  1  0.66503499  0.83480423  -0.00004698  1
  Mn3.30+  Mn143  1  0.66897698  0.83468046  0.49976019  1
  O2-  O144  1  0.02453271  0.16191020  0.12666760  1
  O2-  O145  1  0.02900087  0.15525637  0.62441922  1
  O2-  O146  1  0.02754160  0.49324710  0.12729486  1
  O2-  O147  1  0.02309819  0.49455252  0.62306532  1
  O2-  O148  1  0.02788681  0.82591061  0.12498397  1
  O2-  O149  1  0.01749167  0.83192452  0.62476665  1
  O2-  O150  1  0.35983407  0.15666950  0.12537427  1
  O2-  O151  1  0.35391263  0.16177382  0.62400211  1
  O2-  O152  1  0.34941709  0.49418469  0.12403319  1
  O2-  O153  1  0.36346193  0.49073372  0.62567394  1
  O2-  O154  1  0.36357722  0.83059709  0.12325950  1
  O2-  O155  1  0.35949785  0.82932632  0.62507291  1
  O2-  O156  1  0.69385616  0.15651491  0.12506355  1
  O2-  O157  1  0.69198105  0.15673823  0.62457127  1
  O2-  O158  1  0.69057795  0.49393238  0.12781269  1
  O2-  O159  1  0.69055370  0.49695309  0.62271127  1
  O2-  O160  1  0.68956793  0.83685212  0.12714798  1
  O2-  O161  1  0.69559636  0.82346158  0.62367756  1
  O2-  O162  1  0.14113538  0.32927334  0.12865520  1
  O2-  O163  1  0.14077258  0.32485026  0.62365595  1
  O2-  O164  1  0.14094763  0.65823977  0.12694687  1
  O2-  O165  1  0.14016956  0.66135792  0.62530415  1
  O2-  O166  1  0.14024064  0.99397125  0.12503394  1
  O2-  O167  1  0.14297337  0.99491628  0.62521476  1
  O2-  O168  1  0.47330573  0.32665796  0.12544276  1
  O2-  O169  1  0.47463147  0.33020231  0.62528717  1
  O2-  O170  1  0.47439748  0.66286759  0.12272066  1
  O2-  O171  1  0.47649534  0.65961395  0.62659216  1
  O2-  O172  1  0.47804202  0.99300271  0.12638537  1
  O2-  O173  1  0.47354382  0.99546874  0.62461908  1
  O2-  O174  1  0.80881873  0.32467438  0.12715109  1
  O2-  O175  1  0.80390488  0.32788675  0.62293295  1
  O2-  O176  1  0.81291597  0.66235507  0.12683437  1
  O2-  O177  1  0.80762056  0.65844589  0.62356555  1
  O2-  O178  1  0.80575262  0.99751977  0.12604610  1
  O2-  O179  1  0.80628329  0.99367461  0.62347675  1
  O2-  O180  1  0.30982590  0.17164911  0.37392987  1
  O2-  O181  1  0.30780095  0.17200234  0.87693575  1
  O2-  O182  1  0.30840565  0.51102154  0.37742113  1
  O2-  O183  1  0.30447901  0.50566056  0.87263124  1
  O2-  O184  1  0.31477809  0.83410446  0.37457502  1
  O2-  O185  1  0.30634366  0.83822260  0.87578838  1
  O2-  O186  1  0.64103690  0.17515878  0.37618143  1
  O2-  O187  1  0.64267171  0.17676694  0.87497256  1
  O2-  O188  1  0.64064905  0.50548726  0.37574353  1
  O2-  O189  1  0.64430348  0.50141026  0.87372010  1
  O2-  O190  1  0.63972355  0.83636579  0.37753307  1
  O2-  O191  1  0.64389259  0.84073744  0.87166289  1
  O2-  O192  1  0.97316590  0.17318351  0.37762738  1
  O2-  O193  1  0.97490645  0.17370349  0.87168232  1
  O2-  O194  1  0.97406123  0.50641962  0.37563565  1
  O2-  O195  1  0.98246995  0.49529768  0.87467028  1
  O2-  O196  1  0.97146962  0.83797095  0.37317849  1
  O2-  O197  1  0.97392804  0.84013132  0.87692162  1
  O2-  O198  1  0.19206162  0.00513259  0.37325465  1
  O2-  O199  1  0.19147155  0.00632917  0.87683136  1
  O2-  O200  1  0.19621802  0.33967170  0.37613725  1
  O2-  O201  1  0.19245029  0.33896576  0.87204872  1
  O2-  O202  1  0.19135493  0.66813149  0.37378251  1
  O2-  O203  1  0.18951563  0.67116704  0.87317940  1
  O2-  O204  1  0.52731880  0.00779547  0.37568872  1
  O2-  O205  1  0.52612939  0.00406958  0.87239421  1
  O2-  O206  1  0.52461950  0.33760973  0.37547873  1
  O2-  O207  1  0.52752503  0.34061813  0.87424043  1
  O2-  O208  1  0.52108300  0.67417355  0.37631838  1
  O2-  O209  1  0.52569088  0.67364481  0.87373787  1
  O2-  O210  1  0.85948645  0.00570530  0.37538630  1
  O2-  O211  1  0.85932172  0.00358684  0.87509935  1
  O2-  O212  1  0.85857335  0.33794054  0.37658747  1
  O2-  O213  1  0.85724727  0.33350527  0.87343927  1
  O2-  O214  1  0.85889655  0.67305406  0.37439088  1
  O2-  O215  1  0.84950390  0.67282813  0.87540336  1
  O2-  O216  1  0.23725854  0.09366584  0.02221840  1
  O2-  O217  1  0.23791167  0.09524275  0.51827529  1
  O2-  O218  1  0.23534540  0.42975182  0.01526823  1
  O2-  O219  1  0.23836323  0.42659833  0.52277300  1
  O2-  O220  1  0.23983779  0.76405511  0.02161579  1
  O2-  O221  1  0.24454449  0.75608943  0.51882423  1
  O2-  O222  1  0.57207835  0.09548292  0.01967262  1
  O2-  O223  1  0.57192102  0.09618895  0.51556656  1
  O2-  O224  1  0.57427478  0.42467372  0.01936703  1
  O2-  O225  1  0.56736770  0.43188271  0.51677455  1
  O2-  O226  1  0.56769366  0.76606678  0.01532198  1
  O2-  O227  1  0.57401061  0.75998704  0.52368454  1
  O2-  O228  1  0.90111979  0.09567926  0.01654230  1
  O2-  O229  1  0.90399245  0.09408909  0.52099280  1
  O2-  O230  1  0.90780396  0.42638364  0.02506281  1
  O2-  O231  1  0.90271920  0.42907408  0.51706276  1
  O2-  O232  1  0.90711019  0.76311785  0.02079736  1
  O2-  O233  1  0.90258466  0.76131625  0.52304052  1
  O2-  O234  1  0.26076275  0.26161285  0.22628526  1
  O2-  O235  1  0.26420312  0.26294282  0.73223454  1
  O2-  O236  1  0.26109161  0.59574934  0.22925491  1
  O2-  O237  1  0.26247209  0.59139574  0.72672288  1
  O2-  O238  1  0.26611606  0.92772231  0.23238767  1
  O2-  O239  1  0.26332336  0.93220545  0.73373204  1
  O2-  O240  1  0.59662795  0.25830506  0.22880689  1
  O2-  O241  1  0.59942553  0.26667995  0.73233331  1
  O2-  O242  1  0.59158628  0.59651732  0.23757116  1
  O2-  O243  1  0.59568963  0.59631564  0.73437356  1
  O2-  O244  1  0.59755359  0.92957497  0.23394603  1
  O2-  O245  1  0.59632261  0.92672151  0.72373008  1
  O2-  O246  1  0.92906458  0.26077474  0.23122587  1
  O2-  O247  1  0.93023086  0.26017619  0.72508632  1
  O2-  O248  1  0.92962778  0.59305522  0.23016918  1
  O2-  O249  1  0.92413560  0.59391516  0.72891026  1
  O2-  O250  1  0.92802623  0.92990798  0.22641298  1
  O2-  O251  1  0.92922603  0.93130136  0.73293606  1
  O2-  O252  1  0.09738513  0.24072371  0.27251966  1
  O2-  O253  1  0.09524527  0.23974782  0.77303723  1
  O2-  O254  1  0.09441579  0.57094597  0.27188454  1
  O2-  O255  1  0.09573292  0.56979139  0.76495680  1
  O2-  O256  1  0.09057942  0.90834428  0.27019006  1
  O2-  O257  1  0.09407582  0.90852783  0.77329427  1
  O2-  O258  1  0.43095779  0.23604963  0.26850972  1
  O2-  O259  1  0.42935687  0.24183766  0.77379887  1
  O2-  O260  1  0.42530641  0.57369658  0.27164746  1
  O2-  O261  1  0.42519160  0.57330717  0.77375222  1
  O2-  O262  1  0.42965482  0.90555517  0.27330500  1
  O2-  O263  1  0.42845877  0.90558369  0.77035498  1
  O2-  O264  1  0.76023137  0.23525732  0.27102374  1
  O2-  O265  1  0.76348096  0.23619637  0.76806215  1
  O2-  O266  1  0.76091892  0.57230014  0.27065253  1
  O2-  O267  1  0.75708683  0.57383597  0.76597054  1
  O2-  O268  1  0.76567216  0.90179252  0.26878826  1
  O2-  O269  1  0.76338761  0.90466255  0.76972800  1
  O2-  O270  1  0.07051426  0.07352546  0.47726946  1
  O2-  O271  1  0.07175818  0.07491603  0.97833279  1
  O2-  O272  1  0.07591547  0.40571115  0.47792760  1
  O2-  O273  1  0.07170939  0.40206153  0.98157976  1
  O2-  O274  1  0.06537620  0.73989730  0.48428816  1
  O2-  O275  1  0.07381046  0.74008270  0.98125150  1
  O2-  O276  1  0.40379996  0.07189644  0.47943258  1
  O2-  O277  1  0.40769584  0.07150320  0.97936064  1
  O2-  O278  1  0.40327789  0.40453373  0.47682685  1
  O2-  O279  1  0.40570661  0.40977862  0.97618387  1
  O2-  O280  1  0.40563622  0.73673098  0.48634816  1
  O2-  O281  1  0.40339018  0.73872681  0.97715848  1
  O2-  O282  1  0.73970830  0.07042506  0.47648780  1
  O2-  O283  1  0.73692427  0.06995212  0.97629905  1
  O2-  O284  1  0.73777115  0.40798474  0.47714407  1
  O2-  O285  1  0.73917843  0.40113486  0.98562277  1
  O2-  O286  1  0.73514584  0.73640237  0.48011366  1
  O2-  O287  1  0.73590684  0.74340530  0.97998008  1
  O2-  O288  1  0.09538238  0.23993107  0.47541320  1
  O2-  O289  1  0.09792136  0.23958096  0.98101543  1
  O2-  O290  1  0.09397810  0.57279219  0.48011239  1
  O2-  O291  1  0.09568036  0.56751956  0.98368393  1
  O2-  O292  1  0.08849401  0.90950656  0.48060548  1
  O2-  O293  1  0.09415204  0.90673113  0.97725622  1
  O2-  O294  1  0.42835212  0.23901455  0.48056355  1
  O2-  O295  1  0.43095078  0.24002986  0.97803080  1
  O2-  O296  1  0.42821785  0.57385579  0.47949490  1
  O2-  O297  1  0.42319447  0.57453813  0.97555422  1
  O2-  O298  1  0.43173492  0.90397265  0.47944540  1
  O2-  O299  1  0.42550899  0.90653010  0.97472635  1
  O2-  O300  1  0.76259334  0.23666147  0.48019976  1
  O2-  O301  1  0.76218802  0.23546922  0.98076851  1
  O2-  O302  1  0.76128663  0.57292727  0.47807356  1
  O2-  O303  1  0.75703332  0.57241149  0.98522182  1
  O2-  O304  1  0.76304780  0.90222858  0.47690431  1
  O2-  O305  1  0.76543485  0.90418829  0.98405219  1
  O2-  O306  1  0.07248423  0.07563008  0.27295260  1
  O2-  O307  1  0.07096810  0.07211721  0.77204366  1
  O2-  O308  1  0.07130872  0.40494317  0.27351525  1
  O2-  O309  1  0.07576150  0.40399206  0.76778067  1
  O2-  O310  1  0.06953713  0.73600033  0.26797585  1
  O2-  O311  1  0.07170254  0.74378755  0.76601565  1
  O2-  O312  1  0.40718837  0.06945553  0.27084666  1
  O2-  O313  1  0.40410283  0.07369072  0.76994985  1
  O2-  O314  1  0.40321375  0.40767534  0.27279611  1
  O2-  O315  1  0.40479191  0.40578935  0.77344973  1
  O2-  O316  1  0.40136254  0.73549517  0.26481340  1
  O2-  O317  1  0.40777284  0.73876854  0.77013343  1
  O2-  O318  1  0.73591401  0.06858447  0.27381587  1
  O2-  O319  1  0.74064929  0.07188685  0.77312750  1
  O2-  O320  1  0.74065359  0.40439811  0.27107738  1
  O2-  O321  1  0.73659934  0.40514306  0.76567722  1
  O2-  O322  1  0.73608245  0.74074395  0.27016916  1
  O2-  O323  1  0.73628576  0.73918679  0.77015266  1
  O2-  O324  1  0.23908832  0.09376846  0.22903411  1
  O2-  O325  1  0.23524870  0.09515593  0.73098199  1
  O2-  O326  1  0.23461004  0.43133582  0.23496504  1
  O2-  O327  1  0.23921395  0.42618873  0.72619971  1
  O2-  O328  1  0.23933490  0.76161012  0.22495832  1
  O2-  O329  1  0.24301220  0.75756691  0.73231510  1
  O2-  O330  1  0.57105828  0.09474609  0.22882683  1
  O2-  O331  1  0.57285823  0.09709439  0.73637900  1
  O2-  O332  1  0.57394513  0.42382199  0.23337668  1
  O2-  O333  1  0.56786905  0.43272384  0.73106056  1
  O2-  O334  1  0.56926784  0.76447707  0.23306303  1
  O2-  O335  1  0.57318608  0.76326741  0.72885189  1
  O2-  O336  1  0.90064313  0.09467363  0.23390932  1
  O2-  O337  1  0.90392637  0.09363132  0.72810146  1
  O2-  O338  1  0.90703223  0.42897766  0.23006806  1
  O2-  O339  1  0.90543395  0.42616025  0.72815972  1
  O2-  O340  1  0.90823439  0.76137918  0.22644469  1
  O2-  O341  1  0.90224935  0.76177323  0.73046768  1
  O2-  O342  1  0.26270878  0.26368072  0.02288211  1
  O2-  O343  1  0.26123454  0.26089881  0.51935645  1
  O2-  O344  1  0.26091035  0.59629305  0.01859206  1
  O2-  O345  1  0.26312815  0.58960787  0.52465771  1
  O2-  O346  1  0.26422472  0.92953062  0.01893849  1
  O2-  O347  1  0.26597296  0.92867137  0.51481317  1
  O2-  O348  1  0.59736341  0.25873821  0.02303561  1
  O2-  O349  1  0.59866483  0.26667368  0.51723940  1
  O2-  O350  1  0.59063550  0.59484858  0.01040917  1
  O2-  O351  1  0.59661402  0.59718524  0.51679340  1
  O2-  O352  1  0.59540993  0.92876970  0.01643292  1
  O2-  O353  1  0.59854557  0.92604910  0.52470457  1
  O2-  O354  1  0.92961610  0.26098363  0.02027700  1
  O2-  O355  1  0.93111101  0.26091087  0.52377826  1
  O2-  O356  1  0.92845455  0.59051480  0.02121831  1
  O2-  O357  1  0.92585585  0.59645451  0.52019244  1
  O2-  O358  1  0.92935750  0.93019781  0.02352212  1
  O2-  O359  1  0.92747097  0.93094133  0.51743791  1
