# generated using pymatgen
data_Sr7Ca15Pr50Mn72O216
_symmetry_space_group_name_H-M   'P 1'
_cell_length_a   16.55715784
_cell_length_b   16.60669092
_cell_length_c   15.59463814
_cell_angle_alpha   89.99860011
_cell_angle_beta   89.99520989
_cell_angle_gamma   89.99921702
_symmetry_Int_Tables_number   1
_chemical_formula_structural   Sr7Ca15Pr50Mn72O216
_chemical_formula_sum   'Sr7 Ca15 Pr50 Mn72 O216'
_cell_volume   4287.89549025
_cell_formula_units_Z   1
loop_
 _symmetry_equiv_pos_site_id
 _symmetry_equiv_pos_as_xyz
  1  'x, y, z'
loop_
 _atom_type_symbol
 _atom_type_oxidation_number
  Sr2+  2.0
  Ca2+  2.0
  Pr3+  3.0
  Mn3.30+  3.3
  O2-  -2.0
loop_
 _atom_site_type_symbol
 _atom_site_label
 _atom_site_symmetry_multiplicity
 _atom_site_fract_x
 _atom_site_fract_y
 _atom_site_fract_z
 _atom_site_occupancy
  Sr2+  Sr0  1  0.83226128  0.50855754  0.12589024  1
  Sr2+  Sr1  1  0.16884962  0.17928465  0.12257389  1
  Sr2+  Sr2  1  0.83050029  0.15777981  0.87429803  1
  Sr2+  Sr3  1  0.33013304  0.00667669  0.62351306  1
  Sr2+  Sr4  1  0.33190217  0.67851210  0.62446816  1
  Sr2+  Sr5  1  0.17011970  0.84297203  0.62520409  1
  Sr2+  Sr6  1  0.83089885  0.15897772  0.37562696  1
  Ca2+  Ca7  1  0.82693783  0.81475914  0.37432889  1
  Ca2+  Ca8  1  0.16517386  0.48591225  0.37327031  1
  Ca2+  Ca9  1  0.16232476  0.15232957  0.87547654  1
  Ca2+  Ca10  1  0.50562037  0.51317089  0.12758250  1
  Ca2+  Ca11  1  0.16502253  0.48780716  0.87615992  1
  Ca2+  Ca12  1  0.66856291  0.65102702  0.37282533  1
  Ca2+  Ca13  1  0.32891244  0.34777365  0.62453415  1
  Ca2+  Ca14  1  0.17016276  0.51207159  0.12579110  1
  Ca2+  Ca15  1  0.49802921  0.48533270  0.37349163  1
  Ca2+  Ca16  1  0.49588465  0.81842021  0.87531315  1
  Ca2+  Ca17  1  0.66162690  0.35040065  0.12633015  1
  Ca2+  Ca18  1  0.33595572  0.98691508  0.37621704  1
  Ca2+  Ca19  1  0.66741739  0.32171300  0.37231648  1
  Ca2+  Ca20  1  0.83096065  0.81776687  0.87551184  1
  Ca2+  Ca21  1  0.67009728  0.32017629  0.87820171  1
  Pr3+  Pr22  1  0.50141019  0.84639692  0.62668212  1
  Pr3+  Pr23  1  0.33722471  0.65023477  0.37725653  1
  Pr3+  Pr24  1  0.83532640  0.18134735  0.12515243  1
  Pr3+  Pr25  1  0.33141781  0.01455318  0.12601090  1
  Pr3+  Pr26  1  0.50464347  0.18393430  0.12476256  1
  Pr3+  Pr27  1  0.33600315  0.32396494  0.37566523  1
  Pr3+  Pr28  1  0.82699586  0.48688900  0.37327194  1
  Pr3+  Pr29  1  0.49908466  0.51208487  0.62318673  1
  Pr3+  Pr30  1  0.33591065  0.65515232  0.87330099  1
  Pr3+  Pr31  1  1.00361285  0.65248975  0.87533600  1
  Pr3+  Pr32  1  1.00254577  0.65241621  0.37477685  1
  Pr3+  Pr33  1  0.83723920  0.84597095  0.62452433  1
  Pr3+  Pr34  1  0.66418614  0.01453246  0.12496812  1
  Pr3+  Pr35  1  -0.00242963  0.34638469  0.62466106  1
  Pr3+  Pr36  1  0.67312761  0.98380172  0.87473801  1
  Pr3+  Pr37  1  0.66205973  0.01440113  0.62485535  1
  Pr3+  Pr38  1  0.16913403  0.84468659  0.12502867  1
  Pr3+  Pr39  1  1.00004389  0.98804204  0.37388548  1
  Pr3+  Pr40  1  0.16493192  0.15423528  0.37336850  1
  Pr3+  Pr41  1  -0.00172605  0.68009378  0.62375467  1
  Pr3+  Pr42  1  -0.00327935  0.67585169  0.12604198  1
  Pr3+  Pr43  1  0.33318763  0.67592018  0.12612163  1
  Pr3+  Pr44  1  0.49647579  0.82107780  0.37501300  1
  Pr3+  Pr45  1  0.83617272  0.51308576  0.62387780  1
  Pr3+  Pr46  1  0.17244462  0.51202109  0.62405252  1
  Pr3+  Pr47  1  0.83562716  0.18030920  0.62490440  1
  Pr3+  Pr48  1  0.67268736  0.98641493  0.37494923  1
  Pr3+  Pr49  1  0.16491825  0.82098625  0.87363233  1
  Pr3+  Pr50  1  0.49979689  0.15738508  0.87527192  1
  Pr3+  Pr51  1  1.00485130  0.31956042  0.87585961  1
  Pr3+  Pr52  1  0.16786831  0.82278536  0.37658896  1
  Pr3+  Pr53  1  -0.00209656  0.34755511  0.12485997  1
  Pr3+  Pr54  1  0.49846942  0.18005538  0.62522857  1
  Pr3+  Pr55  1  0.82832218  0.48560291  0.87711551  1
  Pr3+  Pr56  1  0.17463924  0.18045244  0.62664653  1
  Pr3+  Pr57  1  0.33255764  0.32184967  0.87441520  1
  Pr3+  Pr58  1  -0.00304903  0.01401626  0.12453811  1
  Pr3+  Pr59  1  1.00274259  0.32229414  0.37329174  1
  Pr3+  Pr60  1  0.33054261  0.35013389  0.12512670  1
  Pr3+  Pr61  1  0.49723671  0.48756897  0.87619248  1
  Pr3+  Pr62  1  0.33528288  0.98775443  0.87584008  1
  Pr3+  Pr63  1  0.66412996  0.34399189  0.62510853  1
  Pr3+  Pr64  1  0.50509342  0.84629257  0.12392074  1
  Pr3+  Pr65  1  0.49671720  0.15431340  0.37472596  1
  Pr3+  Pr66  1  0.66402882  0.67613292  0.12688701  1
  Pr3+  Pr67  1  0.83588180  0.84366761  0.12539348  1
  Pr3+  Pr68  1  0.00043897  0.01222134  0.62517288  1
  Pr3+  Pr69  1  0.66835281  0.65505424  0.87559543  1
  Pr3+  Pr70  1  1.00148742  0.98787348  0.87561638  1
  Pr3+  Pr71  1  0.66351150  0.67912070  0.62303585  1
  Mn3.30+  Mn72  1  0.16702586  0.00085965  0.00018911  1
  Mn3.30+  Mn73  1  0.16847526  -0.00059428  0.49830461  1
  Mn3.30+  Mn74  1  0.16701264  0.33566039  0.00015652  1
  Mn3.30+  Mn75  1  0.16790567  0.33417117  0.49956353  1
  Mn3.30+  Mn76  1  0.16681156  0.66362106  0.00123488  1
  Mn3.30+  Mn77  1  0.16802053  0.66552422  0.49797276  1
  Mn3.30+  Mn78  1  0.50142532  0.00046610  -0.00164564  1
  Mn3.30+  Mn79  1  0.49875107  0.00040684  0.49972538  1
  Mn3.30+  Mn80  1  0.50206701  0.33597745  -0.00018253  1
  Mn3.30+  Mn81  1  0.49919474  0.33483965  0.49999431  1
  Mn3.30+  Mn82  1  0.50025873  0.66581320  0.00020221  1
  Mn3.30+  Mn83  1  0.50177243  0.66558291  0.49827124  1
  Mn3.30+  Mn84  1  0.83250964  -0.00076242  -0.00106610  1
  Mn3.30+  Mn85  1  0.83256330  -0.00042853  0.49919649  1
  Mn3.30+  Mn86  1  0.83077279  0.33401511  0.00105648  1
  Mn3.30+  Mn87  1  0.83099358  0.33395414  0.49863663  1
  Mn3.30+  Mn88  1  0.83352272  0.66597093  -0.00008703  1
  Mn3.30+  Mn89  1  0.83086410  0.66673331  0.49754179  1
  Mn3.30+  Mn90  1  0.00007052  0.16757235  0.24938690  1
  Mn3.30+  Mn91  1  0.00230266  0.16629454  0.75063776  1
  Mn3.30+  Mn92  1  0.00185373  0.49995166  0.24980837  1
  Mn3.30+  Mn93  1  0.00159520  0.49954047  0.75084323  1
  Mn3.30+  Mn94  1  -0.00154717  0.83238434  0.25211297  1
  Mn3.30+  Mn95  1  -0.00123930  0.83331801  0.75038092  1
  Mn3.30+  Mn96  1  0.33368312  0.16799868  0.24976950  1
  Mn3.30+  Mn97  1  0.33149827  0.16670375  0.75173225  1
  Mn3.30+  Mn98  1  0.33468032  0.50000707  0.25011840  1
  Mn3.30+  Mn99  1  0.33131582  0.49878595  0.75097664  1
  Mn3.30+  Mn100  1  0.33481088  0.83333213  0.24954574  1
  Mn3.30+  Mn101  1  0.33399758  0.83327570  0.75101375  1
  Mn3.30+  Mn102  1  0.66684104  0.17014381  0.25057379  1
  Mn3.30+  Mn103  1  0.66654467  0.16848082  0.75066253  1
  Mn3.30+  Mn104  1  0.66304656  0.49926019  0.25153971  1
  Mn3.30+  Mn105  1  0.66622529  0.49872461  0.74997885  1
  Mn3.30+  Mn106  1  0.66776446  0.83142398  0.25135620  1
  Mn3.30+  Mn107  1  0.66790142  0.83222465  0.75124548  1
  Mn3.30+  Mn108  1  0.16826987  0.00013508  0.25002172  1
  Mn3.30+  Mn109  1  0.16749542  0.00026434  0.75095776  1
  Mn3.30+  Mn110  1  0.16812252  0.33607048  0.24865550  1
  Mn3.30+  Mn111  1  0.16747004  0.33396030  0.75109344  1
  Mn3.30+  Mn112  1  0.16713130  0.66376588  0.25014621  1
  Mn3.30+  Mn113  1  0.16780983  0.66527969  0.75041312  1
  Mn3.30+  Mn114  1  0.49977139  0.00061693  0.25067139  1
  Mn3.30+  Mn115  1  0.50008051  0.00011019  0.75202276  1
  Mn3.30+  Mn116  1  0.50232883  0.33660610  0.25099844  1
  Mn3.30+  Mn117  1  0.49855407  0.33417393  0.74985863  1
  Mn3.30+  Mn118  1  0.50100506  0.66338782  0.25259904  1
  Mn3.30+  Mn119  1  0.50036582  0.66789508  0.74945133  1
  Mn3.30+  Mn120  1  0.83221921  -0.00084779  0.25088626  1
  Mn3.30+  Mn121  1  0.83283325  -0.00031767  0.75027895  1
  Mn3.30+  Mn122  1  0.82974975  0.33426279  0.24929751  1
  Mn3.30+  Mn123  1  0.83204058  0.33371389  0.75107927  1
  Mn3.30+  Mn124  1  0.83121386  0.66558855  0.25117522  1
  Mn3.30+  Mn125  1  0.83361857  0.66701756  0.75086669  1
  Mn3.30+  Mn126  1  0.00094053  0.16714128  -0.00067847  1
  Mn3.30+  Mn127  1  0.00140391  0.16662411  0.49983619  1
  Mn3.30+  Mn128  1  0.00176575  0.49989636  0.00049690  1
  Mn3.30+  Mn129  1  0.00171316  0.49973893  0.49839484  1
  Mn3.30+  Mn130  1  -0.00089068  0.83213834  -0.00043180  1
  Mn3.30+  Mn131  1  -0.00211287  0.83357324  0.49761828  1
  Mn3.30+  Mn132  1  0.33230222  0.16841828  -0.00139564  1
  Mn3.30+  Mn133  1  0.33268460  0.16654830  0.50003804  1
  Mn3.30+  Mn134  1  0.33242500  0.50098480  0.00085440  1
  Mn3.30+  Mn135  1  0.33358230  0.49784277  0.49861850  1
  Mn3.30+  Mn136  1  0.33557376  0.83232928  0.00062761  1
  Mn3.30+  Mn137  1  0.33310146  0.83391388  0.49925689  1
  Mn3.30+  Mn138  1  0.66785259  0.16989752  0.00006669  1
  Mn3.30+  Mn139  1  0.66571307  0.16868120  0.49896330  1
  Mn3.30+  Mn140  1  0.66422758  0.49843752  0.00178968  1
  Mn3.30+  Mn141  1  0.66476475  0.49915273  0.49712224  1
  Mn3.30+  Mn142  1  0.66743794  0.83172214  -0.00176523  1
  Mn3.30+  Mn143  1  0.66801976  0.83190680  0.49867400  1
  O2-  O144  1  0.01982962  0.16217064  0.12376861  1
  O2-  O145  1  0.02963472  0.16192925  0.62388824  1
  O2-  O146  1  0.02700038  0.49602216  0.12518593  1
  O2-  O147  1  0.02656472  0.49488595  0.62390127  1
  O2-  O148  1  0.02547468  0.82568228  0.12702701  1
  O2-  O149  1  0.01924293  0.82903743  0.62374128  1
  O2-  O150  1  0.36018758  0.16255131  0.12333864  1
  O2-  O151  1  0.35542057  0.16048415  0.62571182  1
  O2-  O152  1  0.36305878  0.49799409  0.12527188  1
  O2-  O153  1  0.35576216  0.49349059  0.62542649  1
  O2-  O154  1  0.36065298  0.82591102  0.12518225  1
  O2-  O155  1  0.35655356  0.83446617  0.62705885  1
  O2-  O156  1  0.69072217  0.15963910  0.12493885  1
  O2-  O157  1  0.69004136  0.16207821  0.62492434  1
  O2-  O158  1  0.68423375  0.49629473  0.12511049  1
  O2-  O159  1  0.69315692  0.49231824  0.62488750  1
  O2-  O160  1  0.69229115  0.82611750  0.12566034  1
  O2-  O161  1  0.69441489  0.82711811  0.62447737  1
  O2-  O162  1  0.14157206  0.33070633  0.12396307  1
  O2-  O163  1  0.14044892  0.32702140  0.62529788  1
  O2-  O164  1  0.14043071  0.65884749  0.12590695  1
  O2-  O165  1  0.14244727  0.65994711  0.62229124  1
  O2-  O166  1  0.14148510  0.99295407  0.12556524  1
  O2-  O167  1  0.14482854  0.99851971  0.62537301  1
  O2-  O168  1  0.47344827  0.32853730  0.12399051  1
  O2-  O169  1  0.47004858  0.32817182  0.62609171  1
  O2-  O170  1  0.47649928  0.65955642  0.12758918  1
  O2-  O171  1  0.48083823  0.66146527  0.62393759  1
  O2-  O172  1  0.47632376  0.99510980  0.12420269  1
  O2-  O173  1  0.48117886  0.99503570  0.62777884  1
  O2-  O174  1  0.80703782  0.33014081  0.12569848  1
  O2-  O175  1  0.81040872  0.33233920  0.62487989  1
  O2-  O176  1  0.80923680  0.66518065  0.12542765  1
  O2-  O177  1  0.80856379  0.66053895  0.62365541  1
  O2-  O178  1  0.80741183  0.99077914  0.12405907  1
  O2-  O179  1  0.80615583  0.99245133  0.62388518  1
  O2-  O180  1  0.30841118  0.17696382  0.37508898  1
  O2-  O181  1  0.30503195  0.17462899  0.87611074  1
  O2-  O182  1  0.30657970  0.50200816  0.37389019  1
  O2-  O183  1  0.30658442  0.50675483  0.87591302  1
  O2-  O184  1  0.31243741  0.83930330  0.37055559  1
  O2-  O185  1  0.30903248  0.83720534  0.87828911  1
  O2-  O186  1  0.64123038  0.17306167  0.37542352  1
  O2-  O187  1  0.64377642  0.17426598  0.87511895  1
  O2-  O188  1  0.63898050  0.50816024  0.37645533  1
  O2-  O189  1  0.64096418  0.50836656  0.87397818  1
  O2-  O190  1  0.63910370  0.84182572  0.37468368  1
  O2-  O191  1  0.63821969  0.83717715  0.87483088  1
  O2-  O192  1  0.98086798  0.17234536  0.37595655  1
  O2-  O193  1  0.97904507  0.17099089  0.87592330  1
  O2-  O194  1  0.97281644  0.50322073  0.37564046  1
  O2-  O195  1  0.97298888  0.50474809  0.87469354  1
  O2-  O196  1  0.96903988  0.84019731  0.37457620  1
  O2-  O197  1  0.97316916  0.83865565  0.87429783  1
  O2-  O198  1  0.19294097  0.00564584  0.37136593  1
  O2-  O199  1  0.18954153  0.00356926  0.87740649  1
  O2-  O200  1  0.19151744  0.33996446  0.37421072  1
  O2-  O201  1  0.19033713  0.34510764  0.87613006  1
  O2-  O202  1  0.19261082  0.67486561  0.37349331  1
  O2-  O203  1  0.19140868  0.67357513  0.87793210  1
  O2-  O204  1  0.52820484  0.00528507  0.37364887  1
  O2-  O205  1  0.52965588  0.00973988  0.87509153  1
  O2-  O206  1  0.52551846  0.33846563  0.37581724  1
  O2-  O207  1  0.52784107  0.33949216  0.87448998  1
  O2-  O208  1  0.52825609  0.67604419  0.37613458  1
  O2-  O209  1  0.52462220  0.67183227  0.87258135  1
  O2-  O210  1  0.85682552  0.00642682  0.37641653  1
  O2-  O211  1  0.85800170  0.00487472  0.87536853  1
  O2-  O212  1  0.85773398  0.33800461  0.37532827  1
  O2-  O213  1  0.85856969  0.33762783  0.87436774  1
  O2-  O214  1  0.85799714  0.66879674  0.37511789  1
  O2-  O215  1  0.85899248  0.67137558  0.87556552  1
  O2-  O216  1  0.24436756  0.09092228  0.01946831  1
  O2-  O217  1  0.23565406  0.09990545  0.51403637  1
  O2-  O218  1  0.23996529  0.43030949  0.02402264  1
  O2-  O219  1  0.23666922  0.42628975  0.51991297  1
  O2-  O220  1  0.23711140  0.75964761  0.02211563  1
  O2-  O221  1  0.24000095  0.76074907  0.51161346  1
  O2-  O222  1  0.57216170  0.09703794  0.02020553  1
  O2-  O223  1  0.57019700  0.09543990  0.51962574  1
  O2-  O224  1  0.56580525  0.43333571  0.01703402  1
  O2-  O225  1  0.57250585  0.42636118  0.52553214  1
  O2-  O226  1  0.57342560  0.75939943  0.02255940  1
  O2-  O227  1  0.57196043  0.76331164  0.52198894  1
  O2-  O228  1  0.90429189  0.09213794  0.02252970  1
  O2-  O229  1  0.90838687  0.09329200  0.52417009  1
  O2-  O230  1  0.90756868  0.42654307  0.01714428  1
  O2-  O231  1  0.90562897  0.42869507  0.51979493  1
  O2-  O232  1  0.90729378  0.75990802  0.02217732  1
  O2-  O233  1  0.90500018  0.76039697  0.52005532  1
  O2-  O234  1  0.26366385  0.26628675  0.23222314  1
  O2-  O235  1  0.26319176  0.26390815  0.72971572  1
  O2-  O236  1  0.26664504  0.59550888  0.23293932  1
  O2-  O237  1  0.25959394  0.59183747  0.73161276  1
  O2-  O238  1  0.25991774  0.92613207  0.22542652  1
  O2-  O239  1  0.26143085  0.92887035  0.74102842  1
  O2-  O240  1  0.59368167  0.26317550  0.22716739  1
  O2-  O241  1  0.58960151  0.26079070  0.72682492  1
  O2-  O242  1  0.59555170  0.59566785  0.23140280  1
  O2-  O243  1  0.59603235  0.59276971  0.72907925  1
  O2-  O244  1  0.59643359  0.92833133  0.22870104  1
  O2-  O245  1  0.59821858  0.92673796  0.72989978  1
  O2-  O246  1  0.92694280  0.26070953  0.22990060  1
  O2-  O247  1  0.92907476  0.26053138  0.72899329  1
  O2-  O248  1  0.93157715  0.59507394  0.23428292  1
  O2-  O249  1  0.93053987  0.59418199  0.72865694  1
  O2-  O250  1  0.92955012  0.92717705  0.22843155  1
  O2-  O251  1  0.92713932  0.92937428  0.72874668  1
  O2-  O252  1  0.09508729  0.24249223  0.27073044  1
  O2-  O253  1  0.09819159  0.23894228  0.77180014  1
  O2-  O254  1  0.09457428  0.57248941  0.27493858  1
  O2-  O255  1  0.09395918  0.56985265  0.77124700  1
  O2-  O256  1  0.09364201  0.90496736  0.27156465  1
  O2-  O257  1  0.09236308  0.90693625  0.77223126  1
  O2-  O258  1  0.43041566  0.23924165  0.26949706  1
  O2-  O259  1  0.42697095  0.23953071  0.77254738  1
  O2-  O260  1  0.42806622  0.57186907  0.27707994  1
  O2-  O261  1  0.42620033  0.57227426  0.76913150  1
  O2-  O262  1  0.43288392  0.90468756  0.26592296  1
  O2-  O263  1  0.42957925  0.90661510  0.77384659  1
  O2-  O264  1  0.76009256  0.23792574  0.26493015  1
  O2-  O265  1  0.76001912  0.23928399  0.76112150  1
  O2-  O266  1  0.75940822  0.57080199  0.26939607  1
  O2-  O267  1  0.76370169  0.57170484  0.76950978  1
  O2-  O268  1  0.76273216  0.90238976  0.27141329  1
  O2-  O269  1  0.76229847  0.90080679  0.77210891  1
  O2-  O270  1  0.07206160  0.07148033  0.47821189  1
  O2-  O271  1  0.06926231  0.07038418  0.98333095  1
  O2-  O272  1  0.06887995  0.40267980  0.48227208  1
  O2-  O273  1  0.06918074  0.40376718  0.98188844  1
  O2-  O274  1  0.07037645  0.74009148  0.47860061  1
  O2-  O275  1  0.07304405  0.73755949  0.97967484  1
  O2-  O276  1  0.40524370  0.07400031  0.47577280  1
  O2-  O277  1  0.40648158  0.07462641  0.97845018  1
  O2-  O278  1  0.40622404  0.40608788  0.47991616  1
  O2-  O279  1  0.40356378  0.40580194  0.97756217  1
  O2-  O280  1  0.40842665  0.73954335  0.47842325  1
  O2-  O281  1  0.40486047  0.73706084  0.98218750  1
  O2-  O282  1  0.73672457  0.06800707  0.48434483  1
  O2-  O283  1  0.73557174  0.06748411  0.98393410  1
  O2-  O284  1  0.73482961  0.40581584  0.47722834  1
  O2-  O285  1  0.73687046  0.40758406  0.97746061  1
  O2-  O286  1  0.73326819  0.73441569  0.48002774  1
  O2-  O287  1  0.73684931  0.73823259  0.98063732  1
  O2-  O288  1  0.09709955  0.23945053  0.47884559  1
  O2-  O289  1  0.09527698  0.24060582  0.97719226  1
  O2-  O290  1  0.09466569  0.57064997  0.47679078  1
  O2-  O291  1  0.09475363  0.57191843  0.97578590  1
  O2-  O292  1  0.08965673  0.90680030  0.47514938  1
  O2-  O293  1  0.09370756  0.90385254  0.98055723  1
  O2-  O294  1  0.42777511  0.23880301  0.47939294  1
  O2-  O295  1  0.42914952  0.24053624  0.97858801  1
  O2-  O296  1  0.42971813  0.57142483  0.47929489  1
  O2-  O297  1  0.42573503  0.57405246  0.97554414  1
  O2-  O298  1  0.43073544  0.90498886  0.48304114  1
  O2-  O299  1  0.43085310  0.90678629  0.97870886  1
  O2-  O300  1  0.75938064  0.23966766  0.48838760  1
  O2-  O301  1  0.76135259  0.23757387  0.98599599  1
  O2-  O302  1  0.76319514  0.56762534  0.48315264  1
  O2-  O303  1  0.75942705  0.57281995  0.97854213  1
  O2-  O304  1  0.76245527  0.90091310  0.47784605  1
  O2-  O305  1  0.76298146  0.90219689  0.97784183  1
  O2-  O306  1  0.07267331  0.07189146  0.26905154  1
  O2-  O307  1  0.07012738  0.06912617  0.76850470  1
  O2-  O308  1  0.07108669  0.40469439  0.26869890  1
  O2-  O309  1  0.06792752  0.40209352  0.76621120  1
  O2-  O310  1  0.07076517  0.74019774  0.27273503  1
  O2-  O311  1  0.07225144  0.73787883  0.76918131  1
  O2-  O312  1  0.40586272  0.07038310  0.27074717  1
  O2-  O313  1  0.40584804  0.07584183  0.77601144  1
  O2-  O314  1  0.40264967  0.40318935  0.26826870  1
  O2-  O315  1  0.40617100  0.40797570  0.77458010  1
  O2-  O316  1  0.40679554  0.73629244  0.27122006  1
  O2-  O317  1  0.40676211  0.74118656  0.76969812  1
  O2-  O318  1  0.73411772  0.06911985  0.26540263  1
  O2-  O319  1  0.73671816  0.06743514  0.76588891  1
  O2-  O320  1  0.73613786  0.40803369  0.27318954  1
  O2-  O321  1  0.73606459  0.40582507  0.77254120  1
  O2-  O322  1  0.73466484  0.73675406  0.26988319  1
  O2-  O323  1  0.73606501  0.73672506  0.76845838  1
  O2-  O324  1  0.24148869  0.09421373  0.23054623  1
  O2-  O325  1  0.23663621  0.09686288  0.73542877  1
  O2-  O326  1  0.23960359  0.42965978  0.22613307  1
  O2-  O327  1  0.23684657  0.42746621  0.73006761  1
  O2-  O328  1  0.23766180  0.75982126  0.22864549  1
  O2-  O329  1  0.23959175  0.76097738  0.73868197  1
  O2-  O330  1  0.57013646  0.09669887  0.23015276  1
  O2-  O331  1  0.57143347  0.09636489  0.73013683  1
  O2-  O332  1  0.56840710  0.43019055  0.23082108  1
  O2-  O333  1  0.56958953  0.42779150  0.72709511  1
  O2-  O334  1  0.57125142  0.76210731  0.22886806  1
  O2-  O335  1  0.57541524  0.76124309  0.72626981  1
  O2-  O336  1  0.90508890  0.09138675  0.22822720  1
  O2-  O337  1  0.90729576  0.09363086  0.72551742  1
  O2-  O338  1  0.90884384  0.42546762  0.23282258  1
  O2-  O339  1  0.90551523  0.42952744  0.73016000  1
  O2-  O340  1  0.90595977  0.75979260  0.22920300  1
  O2-  O341  1  0.90531951  0.75889471  0.72783638  1
  O2-  O342  1  0.26482970  0.26637852  0.01690311  1
  O2-  O343  1  0.26227011  0.26260915  0.52133084  1
  O2-  O344  1  0.26380852  0.59695335  0.02009358  1
  O2-  O345  1  0.26239192  0.59031264  0.51638135  1
  O2-  O346  1  0.26312202  0.92641285  0.02148704  1
  O2-  O347  1  0.25835536  0.92697327  0.51027640  1
  O2-  O348  1  0.59364320  0.26400416  0.02288252  1
  O2-  O349  1  0.58895379  0.26133975  0.52421458  1
  O2-  O350  1  0.59632440  0.59672530  0.01600674  1
  O2-  O351  1  0.59477689  0.59230676  0.52316319  1
  O2-  O352  1  0.59804039  0.92687628  0.02108766  1
  O2-  O353  1  0.59677080  0.92714921  0.52051379  1
  O2-  O354  1  0.92803735  0.26070574  0.02048769  1
  O2-  O355  1  0.92903486  0.25956162  0.52088821  1
  O2-  O356  1  0.93216821  0.59550266  0.01679796  1
  O2-  O357  1  0.93012990  0.59424872  0.51996887  1
  O2-  O358  1  0.92789222  0.92798313  0.02173980  1
  O2-  O359  1  0.92759534  0.92913890  0.52084154  1
