# generated using pymatgen
data_Sr7Ca15Pr50Mn72O216
_symmetry_space_group_name_H-M   'P 1'
_cell_length_a   16.55850958
_cell_length_b   16.60579863
_cell_length_c   15.59247079
_cell_angle_alpha   90.00203189
_cell_angle_beta   90.00436915
_cell_angle_gamma   90.01022091
_symmetry_Int_Tables_number   1
_chemical_formula_structural   Sr7Ca15Pr50Mn72O216
_chemical_formula_sum   'Sr7 Ca15 Pr50 Mn72 O216'
_cell_volume   4287.41913272
_cell_formula_units_Z   1
loop_
 _symmetry_equiv_pos_site_id
 _symmetry_equiv_pos_as_xyz
  1  'x, y, z'
loop_
 _atom_type_symbol
 _atom_type_oxidation_number
  Sr2+  2.0
  Ca2+  2.0
  Pr3+  3.0
  Mn3.30+  3.3
  O2-  -2.0
loop_
 _atom_site_type_symbol
 _atom_site_label
 _atom_site_symmetry_multiplicity
 _atom_site_fract_x
 _atom_site_fract_y
 _atom_site_fract_z
 _atom_site_occupancy
  Sr2+  Sr0  1  0.50167361  0.84145525  0.12629624  1
  Sr2+  Sr1  1  0.33043755  0.34508593  0.62485515  1
  Sr2+  Sr2  1  0.66782691  0.65793797  0.36982878  1
  Sr2+  Sr3  1  0.83089892  0.84002633  0.12537294  1
  Sr2+  Sr4  1  0.33529205  0.32358883  0.87759512  1
  Sr2+  Sr5  1  0.33740483  0.32253447  0.37278011  1
  Sr2+  Sr6  1  0.16813379  0.82502412  0.87587898  1
  Ca2+  Ca7  1  0.83461095  0.18036911  0.12458471  1
  Ca2+  Ca8  1  1.00346022  0.65257036  0.37229593  1
  Ca2+  Ca9  1  0.33024988  0.34866398  0.12539167  1
  Ca2+  Ca10  1  0.33296593  0.01211317  0.12537207  1
  Ca2+  Ca11  1  0.49887517  0.18049552  0.12687864  1
  Ca2+  Ca12  1  0.66065117  0.68205385  0.12736026  1
  Ca2+  Ca13  1  0.49277671  0.15105764  0.37109338  1
  Ca2+  Ca14  1  0.33561070  0.98584142  0.87894553  1
  Ca2+  Ca15  1  0.66362559  0.34508715  0.12549322  1
  Ca2+  Ca16  1  1.00527530  0.98401821  0.87727990  1
  Ca2+  Ca17  1  0.17220339  0.51465627  0.12527362  1
  Ca2+  Ca18  1  0.33742057  0.98765364  0.37209703  1
  Ca2+  Ca19  1  0.33467646  0.65215630  0.87756809  1
  Ca2+  Ca20  1  0.33720233  0.65006371  0.37274609  1
  Ca2+  Ca21  1  0.17279895  0.51361260  0.62457017  1
  Pr3+  Pr22  1  0.32727490  0.67506460  0.62419958  1
  Pr3+  Pr23  1  1.00410133  0.98739865  0.37331763  1
  Pr3+  Pr24  1  0.17154539  0.18036192  0.62489586  1
  Pr3+  Pr25  1  0.49184524  0.81797660  0.87700149  1
  Pr3+  Pr26  1  0.66229598  0.34746248  0.62491560  1
  Pr3+  Pr27  1  -0.00037329  0.34880566  0.62390005  1
  Pr3+  Pr28  1  0.66052147  0.01287969  0.12552630  1
  Pr3+  Pr29  1  -0.00438448  0.01211516  0.12237299  1
  Pr3+  Pr30  1  0.83024593  0.15249243  0.87862131  1
  Pr3+  Pr31  1  0.33061949  0.01280372  0.62522184  1
  Pr3+  Pr32  1  -0.00054706  0.01178621  0.62758051  1
  Pr3+  Pr33  1  0.17409093  0.17962519  0.12540294  1
  Pr3+  Pr34  1  0.66568503  0.32217563  0.37098920  1
  Pr3+  Pr35  1  0.66201730  0.67929897  0.62374181  1
  Pr3+  Pr36  1  0.83307790  0.51255243  0.12531562  1
  Pr3+  Pr37  1  0.83057158  0.48920984  0.37341001  1
  Pr3+  Pr38  1  0.49271951  0.15206488  0.87784996  1
  Pr3+  Pr39  1  0.66266851  0.01476145  0.62475524  1
  Pr3+  Pr40  1  0.83103073  0.81946141  0.37309512  1
  Pr3+  Pr41  1  0.50120181  0.84681613  0.62354511  1
  Pr3+  Pr42  1  0.16832021  0.15536183  0.37435743  1
  Pr3+  Pr43  1  0.66656225  0.98829611  0.37344142  1
  Pr3+  Pr44  1  0.17093474  0.84574814  0.62579094  1
  Pr3+  Pr45  1  -0.00193757  0.34661694  0.12521041  1
  Pr3+  Pr46  1  0.16836863  0.48993726  0.87670711  1
  Pr3+  Pr47  1  0.00152657  0.67880313  0.12616899  1
  Pr3+  Pr48  1  1.00468605  0.65657480  0.87704333  1
  Pr3+  Pr49  1  0.00097644  0.67781803  0.62395149  1
  Pr3+  Pr50  1  0.32911309  0.67813256  0.12598294  1
  Pr3+  Pr51  1  0.66809099  0.65615730  0.87973355  1
  Pr3+  Pr52  1  1.00541944  0.32095864  0.87640785  1
  Pr3+  Pr53  1  0.16626705  0.81792442  0.37397942  1
  Pr3+  Pr54  1  0.16632779  0.48884663  0.37321231  1
  Pr3+  Pr55  1  0.83569588  0.18076787  0.62467314  1
  Pr3+  Pr56  1  0.82905197  0.15480638  0.37145927  1
  Pr3+  Pr57  1  0.83622127  0.84587988  0.62423271  1
  Pr3+  Pr58  1  0.17359319  0.84887371  0.12418581  1
  Pr3+  Pr59  1  0.49529830  0.48802648  0.37322501  1
  Pr3+  Pr60  1  0.50041581  0.18052998  0.62369171  1
  Pr3+  Pr61  1  0.49826591  0.50974680  0.62439347  1
  Pr3+  Pr62  1  0.49330410  0.48614259  0.87697024  1
  Pr3+  Pr63  1  0.50176045  0.51006590  0.12565162  1
  Pr3+  Pr64  1  0.16705732  0.15269654  0.87569465  1
  Pr3+  Pr65  1  0.66683840  0.32078407  0.87916458  1
  Pr3+  Pr66  1  0.83095082  0.48759016  0.87645572  1
  Pr3+  Pr67  1  0.83646302  0.51380156  0.62480766  1
  Pr3+  Pr68  1  0.83327487  0.82322077  0.87748639  1
  Pr3+  Pr69  1  0.66668881  0.98762915  0.87673545  1
  Pr3+  Pr70  1  0.49483436  0.81735950  0.37329522  1
  Pr3+  Pr71  1  1.00467654  0.32041533  0.37294802  1
  Mn3.30+  Mn72  1  0.16774258  0.00048334  -0.00013741  1
  Mn3.30+  Mn73  1  0.16905908  -0.00062223  0.49820782  1
  Mn3.30+  Mn74  1  0.16952366  0.33437539  0.00174045  1
  Mn3.30+  Mn75  1  0.16838083  0.33455437  0.49904380  1
  Mn3.30+  Mn76  1  0.16886182  0.66713629  -0.00055090  1
  Mn3.30+  Mn77  1  0.16634230  0.66471801  0.49747587  1
  Mn3.30+  Mn78  1  0.49654384  0.00008649  0.00359952  1
  Mn3.30+  Mn79  1  0.49775632  0.00130172  0.49722828  1
  Mn3.30+  Mn80  1  0.49907850  0.33126858  0.00467543  1
  Mn3.30+  Mn81  1  0.49875999  0.33241712  0.49834475  1
  Mn3.30+  Mn82  1  0.49950022  0.66568303  0.00104552  1
  Mn3.30+  Mn83  1  0.49663859  0.66516085  0.49890905  1
  Mn3.30+  Mn84  1  0.83328958  -0.00017821  0.00131943  1
  Mn3.30+  Mn85  1  0.83402753  0.00088969  0.49914967  1
  Mn3.30+  Mn86  1  0.83275004  0.33187373  0.00244838  1
  Mn3.30+  Mn87  1  0.83321867  0.33420257  0.49849736  1
  Mn3.30+  Mn88  1  0.83326601  0.66755947  0.00235516  1
  Mn3.30+  Mn89  1  0.83398813  0.66667957  0.49812758  1
  Mn3.30+  Mn90  1  -0.00042049  0.16634806  0.24759385  1
  Mn3.30+  Mn91  1  0.00039397  0.16578325  0.75151237  1
  Mn3.30+  Mn92  1  0.00135826  0.50153889  0.24906112  1
  Mn3.30+  Mn93  1  0.00204023  0.50127327  0.74965774  1
  Mn3.30+  Mn94  1  0.00119475  0.83262284  0.24982915  1
  Mn3.30+  Mn95  1  0.00183695  0.83374415  0.75056747  1
  Mn3.30+  Mn96  1  0.33749563  0.16604478  0.24828029  1
  Mn3.30+  Mn97  1  0.33316989  0.16631224  0.75204299  1
  Mn3.30+  Mn98  1  0.33236971  0.49908034  0.24841746  1
  Mn3.30+  Mn99  1  0.33183653  0.50060365  0.75019309  1
  Mn3.30+  Mn100  1  0.33399670  0.83524572  0.25056425  1
  Mn3.30+  Mn101  1  0.33376701  0.83182455  0.75164492  1
  Mn3.30+  Mn102  1  0.66277039  0.16821321  0.24740898  1
  Mn3.30+  Mn103  1  0.66580858  0.16744241  0.75156583  1
  Mn3.30+  Mn104  1  0.66576429  0.49989576  0.24800381  1
  Mn3.30+  Mn105  1  0.66572131  0.50138789  0.75132861  1
  Mn3.30+  Mn106  1  0.66520296  0.83336397  0.24904722  1
  Mn3.30+  Mn107  1  0.66525442  0.83361786  0.75089791  1
  Mn3.30+  Mn108  1  0.17027633  0.00103006  0.25005871  1
  Mn3.30+  Mn109  1  0.16681445  -0.00090067  0.75223917  1
  Mn3.30+  Mn110  1  0.16986468  0.33416541  0.24824066  1
  Mn3.30+  Mn111  1  0.16792515  0.33497405  0.75053644  1
  Mn3.30+  Mn112  1  0.16762729  0.66553418  0.25128163  1
  Mn3.30+  Mn113  1  0.16788847  0.66616436  0.75176750  1
  Mn3.30+  Mn114  1  0.49650230  0.00152927  0.24884171  1
  Mn3.30+  Mn115  1  0.49776154  -0.00047998  0.75112782  1
  Mn3.30+  Mn116  1  0.49896049  0.33058425  0.24671998  1
  Mn3.30+  Mn117  1  0.49872616  0.33316738  0.75059068  1
  Mn3.30+  Mn118  1  0.49916002  0.66523639  0.25031251  1
  Mn3.30+  Mn119  1  0.49719807  0.66562304  0.75006268  1
  Mn3.30+  Mn120  1  0.83301853  0.00036996  0.24747119  1
  Mn3.30+  Mn121  1  0.83426787  0.00016638  0.75199730  1
  Mn3.30+  Mn122  1  0.83242734  0.33245153  0.24716350  1
  Mn3.30+  Mn123  1  0.83370357  0.33346517  0.75127920  1
  Mn3.30+  Mn124  1  0.83391172  0.66676700  0.24859670  1
  Mn3.30+  Mn125  1  0.83315566  0.66756769  0.75084649  1
  Mn3.30+  Mn126  1  0.00005224  0.16591584  0.00035646  1
  Mn3.30+  Mn127  1  0.00024134  0.16632853  0.49957680  1
  Mn3.30+  Mn128  1  0.00155373  0.50061763  0.00226891  1
  Mn3.30+  Mn129  1  0.00189646  0.50226593  0.49888318  1
  Mn3.30+  Mn130  1  0.00183408  0.83451206  0.00105794  1
  Mn3.30+  Mn131  1  0.00162787  0.83189489  0.49864308  1
  Mn3.30+  Mn132  1  0.33496604  0.16581710  0.00306331  1
  Mn3.30+  Mn133  1  0.33539682  0.16616821  0.49678513  1
  Mn3.30+  Mn134  1  0.33264520  0.49974220  0.00209588  1
  Mn3.30+  Mn135  1  0.33123899  0.49979178  0.49940556  1
  Mn3.30+  Mn136  1  0.33409770  0.83442982  0.00040522  1
  Mn3.30+  Mn137  1  0.33357229  0.83239960  0.49823910  1
  Mn3.30+  Mn138  1  0.66386630  0.16798836  0.00440716  1
  Mn3.30+  Mn139  1  0.66430848  0.16753279  0.49639309  1
  Mn3.30+  Mn140  1  0.66498367  0.49956840  0.00211241  1
  Mn3.30+  Mn141  1  0.66630289  0.50143738  0.49826614  1
  Mn3.30+  Mn142  1  0.66396099  0.83344809  0.00102701  1
  Mn3.30+  Mn143  1  0.66658821  0.83369224  0.49937558  1
  O2-  O144  1  0.02845808  0.16003148  0.12501360  1
  O2-  O145  1  0.02654030  0.15944990  0.62699263  1
  O2-  O146  1  0.02913695  0.49446229  0.12498798  1
  O2-  O147  1  0.02862776  0.49630704  0.62276401  1
  O2-  O148  1  0.02835478  0.82784255  0.12682978  1
  O2-  O149  1  0.02644776  0.82569267  0.62187063  1
  O2-  O150  1  0.35774410  0.15415193  0.12554612  1
  O2-  O151  1  0.35625278  0.15984191  0.62458731  1
  O2-  O152  1  0.35639271  0.49767568  0.12511196  1
  O2-  O153  1  0.35408281  0.50329304  0.62492468  1
  O2-  O154  1  0.35232643  0.82444939  0.12593097  1
  O2-  O155  1  0.35849564  0.82252581  0.62448620  1
  O2-  O156  1  0.69469767  0.15836801  0.12527631  1
  O2-  O157  1  0.69228958  0.16229859  0.62379710  1
  O2-  O158  1  0.69147209  0.48887187  0.12407058  1
  O2-  O159  1  0.69299181  0.49491664  0.62414057  1
  O2-  O160  1  0.68089734  0.83070519  0.12425887  1
  O2-  O161  1  0.69090200  0.82829376  0.62567375  1
  O2-  O162  1  0.14033653  0.32579229  0.12490630  1
  O2-  O163  1  0.14184246  0.32677328  0.62473005  1
  O2-  O164  1  0.14528300  0.66241819  0.12614283  1
  O2-  O165  1  0.14369799  0.66008658  0.62367764  1
  O2-  O166  1  0.14033704  0.99803102  0.12562286  1
  O2-  O167  1  0.14264156  0.99556115  0.62343663  1
  O2-  O168  1  0.47223027  0.32842767  0.12570585  1
  O2-  O169  1  0.48215197  0.32902539  0.62359537  1
  O2-  O170  1  0.47346147  0.66105902  0.12627634  1
  O2-  O171  1  0.47196751  0.66025275  0.62451435  1
  O2-  O172  1  0.47372717  0.99338817  0.12598480  1
  O2-  O173  1  0.47542194  0.99556963  0.62352002  1
  O2-  O174  1  0.80678417  0.32704517  0.12507987  1
  O2-  O175  1  0.80645152  0.32856251  0.62610216  1
  O2-  O176  1  0.80514802  0.66086512  0.12433395  1
  O2-  O177  1  0.80666770  0.66207439  0.62683338  1
  O2-  O178  1  0.80551694  0.99364376  0.12584840  1
  O2-  O179  1  0.80693461  0.99453854  0.62700790  1
  O2-  O180  1  0.31024221  0.17085680  0.37377856  1
  O2-  O181  1  0.31142808  0.17095876  0.87675788  1
  O2-  O182  1  0.31107488  0.50321431  0.37310412  1
  O2-  O183  1  0.31298127  0.50444653  0.87686718  1
  O2-  O184  1  0.30806120  0.84422710  0.37489640  1
  O2-  O185  1  0.31658983  0.84185789  0.87483867  1
  O2-  O186  1  0.63675232  0.17405395  0.37271463  1
  O2-  O187  1  0.63815236  0.17280971  0.87856261  1
  O2-  O188  1  0.64135375  0.50171880  0.37446175  1
  O2-  O189  1  0.63859575  0.50841420  0.87779965  1
  O2-  O190  1  0.64161501  0.83924181  0.37632496  1
  O2-  O191  1  0.63793403  0.83882806  0.87369942  1
  O2-  O192  1  0.97339413  0.17203546  0.37211086  1
  O2-  O193  1  0.97273995  0.17585295  0.87476391  1
  O2-  O194  1  0.97350541  0.50606299  0.37414654  1
  O2-  O195  1  0.97411778  0.50687752  0.87764499  1
  O2-  O196  1  0.97464641  0.84140749  0.37495107  1
  O2-  O197  1  0.97719915  0.83668334  0.87633372  1
  O2-  O198  1  0.19369496  0.00673174  0.37545962  1
  O2-  O199  1  0.19329647  0.00521029  0.87563321  1
  O2-  O200  1  0.18648028  0.33926628  0.37285272  1
  O2-  O201  1  0.18545000  0.34068907  0.87703501  1
  O2-  O202  1  0.19522499  0.67126018  0.37429830  1
  O2-  O203  1  0.19198725  0.66874823  0.87585648  1
  O2-  O204  1  0.52436010  0.00689376  0.37562191  1
  O2-  O205  1  0.52392084  0.00535025  0.87593045  1
  O2-  O206  1  0.52294527  0.34100393  0.37392115  1
  O2-  O207  1  0.52275628  0.33746039  0.87714645  1
  O2-  O208  1  0.51906841  0.66667781  0.37630077  1
  O2-  O209  1  0.52501588  0.66887108  0.87344925  1
  O2-  O210  1  0.86042786  0.00848595  0.37211959  1
  O2-  O211  1  0.86102918  0.00579182  0.87461940  1
  O2-  O212  1  0.86066899  0.33969821  0.37221568  1
  O2-  O213  1  0.86087019  0.33973078  0.87572144  1
  O2-  O214  1  0.86008240  0.67060859  0.37294095  1
  O2-  O215  1  0.85937259  0.67232842  0.87529778  1
  O2-  O216  1  0.23502778  0.09828170  0.01611272  1
  O2-  O217  1  0.23848725  0.09449250  0.52043657  1
  O2-  O218  1  0.23498554  0.43112069  0.01827548  1
  O2-  O219  1  0.23588338  0.43144860  0.51601465  1
  O2-  O220  1  0.24013402  0.76139538  0.02122427  1
  O2-  O221  1  0.23568204  0.76067596  0.51879996  1
  O2-  O222  1  0.56881280  0.09621070  0.02247494  1
  O2-  O223  1  0.57279209  0.09437100  0.52297136  1
  O2-  O224  1  0.57026154  0.42815958  0.01771583  1
  O2-  O225  1  0.57514106  0.42821520  0.51986914  1
  O2-  O226  1  0.57153927  0.75827996  0.01198688  1
  O2-  O227  1  0.56948832  0.75835213  0.52026120  1
  O2-  O228  1  0.90287916  0.09606779  0.02179347  1
  O2-  O229  1  0.90503231  0.09485085  0.52128369  1
  O2-  O230  1  0.90541372  0.42765907  0.02220903  1
  O2-  O231  1  0.90714852  0.42949513  0.52134257  1
  O2-  O232  1  0.91033325  0.75830686  0.01852569  1
  O2-  O233  1  0.90595254  0.76180268  0.52081622  1
  O2-  O234  1  0.26416613  0.26030381  0.22672240  1
  O2-  O235  1  0.25715508  0.25748368  0.73239985  1
  O2-  O236  1  0.26166500  0.59538349  0.23178596  1
  O2-  O237  1  0.26121911  0.59537733  0.73360057  1
  O2-  O238  1  0.26095928  0.92930161  0.22620460  1
  O2-  O239  1  0.26219690  0.92456483  0.72702923  1
  O2-  O240  1  0.59936616  0.26543922  0.22968304  1
  O2-  O241  1  0.59737145  0.26211103  0.73137128  1
  O2-  O242  1  0.59449458  0.59102761  0.22560530  1
  O2-  O243  1  0.59408678  0.59573067  0.72810011  1
  O2-  O244  1  0.59536071  0.93261853  0.23617666  1
  O2-  O245  1  0.59572843  0.92948130  0.72910278  1
  O2-  O246  1  0.92926801  0.26297002  0.22992994  1
  O2-  O247  1  0.92916012  0.26125259  0.72695348  1
  O2-  O248  1  0.92736658  0.59198408  0.22488460  1
  O2-  O249  1  0.92919122  0.59389108  0.72886869  1
  O2-  O250  1  0.93189152  0.92990720  0.23253611  1
  O2-  O251  1  0.92716082  0.92524689  0.72655840  1
  O2-  O252  1  0.09612622  0.23960562  0.27006460  1
  O2-  O253  1  0.09313087  0.23782073  0.77115607  1
  O2-  O254  1  0.09481357  0.57295563  0.27009941  1
  O2-  O255  1  0.09413633  0.57428844  0.77403521  1
  O2-  O256  1  0.09702535  0.90545421  0.27130392  1
  O2-  O257  1  0.09442802  0.90589504  0.76326206  1
  O2-  O258  1  0.43310989  0.23411935  0.26729987  1
  O2-  O259  1  0.43100144  0.23398392  0.76497242  1
  O2-  O260  1  0.42905974  0.57013121  0.26626343  1
  O2-  O261  1  0.43056292  0.56945375  0.76690723  1
  O2-  O262  1  0.42951766  0.90419205  0.27201966  1
  O2-  O263  1  0.43301210  0.89991190  0.76274261  1
  O2-  O264  1  0.76000560  0.24049611  0.27306600  1
  O2-  O265  1  0.76235408  0.23876668  0.77238504  1
  O2-  O266  1  0.76428891  0.57002960  0.26611811  1
  O2-  O267  1  0.76081801  0.57282096  0.77210576  1
  O2-  O268  1  0.76118720  0.90909929  0.27390382  1
  O2-  O269  1  0.76244684  0.90648027  0.77212358  1
  O2-  O270  1  0.07123994  0.07271919  0.47914486  1
  O2-  O271  1  0.06980028  0.07227689  0.97742762  1
  O2-  O272  1  0.06931562  0.40608402  0.47862728  1
  O2-  O273  1  0.06997195  0.40628142  0.98057821  1
  O2-  O274  1  0.07087961  0.73697203  0.47726270  1
  O2-  O275  1  0.07203155  0.73729723  0.98460809  1
  O2-  O276  1  0.40120652  0.06624369  0.48270332  1
  O2-  O277  1  0.40423352  0.07014992  0.97728860  1
  O2-  O278  1  0.40975619  0.40862029  0.48376570  1
  O2-  O279  1  0.40825227  0.40771108  0.98458136  1
  O2-  O280  1  0.40192050  0.73746857  0.47690463  1
  O2-  O281  1  0.40490452  0.73630451  0.97975373  1
  O2-  O282  1  0.73558944  0.07540971  0.47778153  1
  O2-  O283  1  0.73589565  0.07331624  0.97855390  1
  O2-  O284  1  0.73875618  0.40618358  0.47838432  1
  O2-  O285  1  0.73973807  0.40878582  0.97614298  1
  O2-  O286  1  0.74225604  0.74127804  0.48191641  1
  O2-  O287  1  0.74185218  0.74298473  0.97749449  1
  O2-  O288  1  0.09286817  0.23873620  0.47944010  1
  O2-  O289  1  0.09655452  0.23857867  0.97947673  1
  O2-  O290  1  0.09426558  0.57280755  0.47612832  1
  O2-  O291  1  0.09340042  0.57466428  0.97884016  1
  O2-  O292  1  0.09642424  0.90445890  0.47837186  1
  O2-  O293  1  0.09513600  0.90699306  0.98614445  1
  O2-  O294  1  0.43221475  0.23207152  0.48418978  1
  O2-  O295  1  0.43159228  0.23468051  0.98460526  1
  O2-  O296  1  0.42806935  0.56972791  0.48288611  1
  O2-  O297  1  0.43098824  0.57035057  0.98409862  1
  O2-  O298  1  0.43279906  0.90116717  0.48395780  1
  O2-  O299  1  0.42951217  0.90391691  0.98146909  1
  O2-  O300  1  0.76026787  0.23830954  0.47753049  1
  O2-  O301  1  0.76101621  0.23991385  0.97702168  1
  O2-  O302  1  0.76269690  0.56978983  0.48254244  1
  O2-  O303  1  0.76145532  0.57248565  0.97907179  1
  O2-  O304  1  0.76484109  0.90790736  0.47907834  1
  O2-  O305  1  0.75902450  0.90792989  0.97611418  1
  O2-  O306  1  0.07294103  0.07175238  0.27132183  1
  O2-  O307  1  0.06916234  0.07177620  0.77243821  1
  O2-  O308  1  0.06956058  0.40632845  0.26985860  1
  O2-  O309  1  0.06949780  0.40587637  0.76920625  1
  O2-  O310  1  0.07315559  0.73768089  0.27190031  1
  O2-  O311  1  0.06994875  0.73552525  0.76555295  1
  O2-  O312  1  0.40318513  0.06906562  0.27135853  1
  O2-  O313  1  0.40309295  0.06750941  0.76967648  1
  O2-  O314  1  0.40881028  0.40802434  0.26588604  1
  O2-  O315  1  0.40823662  0.40904483  0.76641478  1
  O2-  O316  1  0.40307154  0.73842737  0.27105677  1
  O2-  O317  1  0.40338503  0.73504855  0.77285339  1
  O2-  O318  1  0.73657117  0.07433110  0.27220398  1
  O2-  O319  1  0.73685030  0.07375755  0.77187345  1
  O2-  O320  1  0.74121188  0.40738504  0.27219739  1
  O2-  O321  1  0.73837292  0.40650081  0.77287915  1
  O2-  O322  1  0.74535448  0.74435838  0.26721142  1
  O2-  O323  1  0.73688062  0.74016925  0.77208875  1
  O2-  O324  1  0.23590705  0.09845074  0.23424942  1
  O2-  O325  1  0.23685084  0.09399319  0.73026697  1
  O2-  O326  1  0.23541090  0.43060448  0.23063021  1
  O2-  O327  1  0.23585554  0.43268571  0.73445206  1
  O2-  O328  1  0.23686001  0.76284533  0.23248281  1
  O2-  O329  1  0.23856017  0.75920837  0.72728941  1
  O2-  O330  1  0.57114069  0.09487520  0.22599675  1
  O2-  O331  1  0.57111258  0.09502655  0.72960776  1
  O2-  O332  1  0.57115573  0.42715596  0.23178238  1
  O2-  O333  1  0.57370445  0.42882701  0.73092262  1
  O2-  O334  1  0.57177871  0.75704531  0.23943145  1
  O2-  O335  1  0.56920212  0.75963420  0.72818065  1
  O2-  O336  1  0.90336440  0.09450637  0.22571634  1
  O2-  O337  1  0.90424091  0.09565464  0.72824891  1
  O2-  O338  1  0.90537029  0.42777146  0.22744637  1
  O2-  O339  1  0.90538621  0.42855894  0.72914370  1
  O2-  O340  1  0.90992295  0.75790463  0.23050155  1
  O2-  O341  1  0.90477464  0.76157605  0.72960228  1
  O2-  O342  1  0.26338352  0.26102713  0.02368574  1
  O2-  O343  1  0.25836185  0.25663891  0.51726982  1
  O2-  O344  1  0.26194010  0.59542833  0.01830144  1
  O2-  O345  1  0.26027505  0.59487610  0.51649307  1
  O2-  O346  1  0.26065426  0.92936018  0.02246850  1
  O2-  O347  1  0.26246230  0.92406461  0.52464761  1
  O2-  O348  1  0.59911208  0.26533423  0.02004540  1
  O2-  O349  1  0.59742416  0.26234316  0.51956309  1
  O2-  O350  1  0.59654546  0.59500782  0.02358898  1
  O2-  O351  1  0.59212403  0.59209073  0.52393944  1
  O2-  O352  1  0.59504331  0.93342872  0.01528563  1
  O2-  O353  1  0.59511483  0.92994511  0.51997137  1
  O2-  O354  1  0.93242114  0.26167156  0.01917511  1
  O2-  O355  1  0.92805087  0.26090839  0.52104404  1
  O2-  O356  1  0.92875337  0.59265171  0.02291906  1
  O2-  O357  1  0.92718631  0.59320604  0.52369691  1
  O2-  O358  1  0.92878659  0.92686512  0.01870385  1
  O2-  O359  1  0.93223407  0.92668745  0.52130358  1
