# generated using pymatgen
data_Sr7Ca15Pr50Mn72O216
_symmetry_space_group_name_H-M   'P 1'
_cell_length_a   16.55794886
_cell_length_b   16.60677326
_cell_length_c   15.59446176
_cell_angle_alpha   89.99638835
_cell_angle_beta   89.99886882
_cell_angle_gamma   89.98826686
_symmetry_Int_Tables_number   1
_chemical_formula_structural   Sr7Ca15Pr50Mn72O216
_chemical_formula_sum   'Sr7 Ca15 Pr50 Mn72 O216'
_cell_volume   4288.07302380
_cell_formula_units_Z   1
loop_
 _symmetry_equiv_pos_site_id
 _symmetry_equiv_pos_as_xyz
  1  'x, y, z'
loop_
 _atom_type_symbol
 _atom_type_oxidation_number
  Sr2+  2.0
  Ca2+  2.0
  Pr3+  3.0
  Mn3.30+  3.3
  O2-  -2.0
loop_
 _atom_site_type_symbol
 _atom_site_label
 _atom_site_symmetry_multiplicity
 _atom_site_fract_x
 _atom_site_fract_y
 _atom_site_fract_z
 _atom_site_occupancy
  Sr2+  Sr0  1  0.66744536  0.65384614  0.87571639  1
  Sr2+  Sr1  1  0.83426155  0.17707254  0.12436723  1
  Sr2+  Sr2  1  0.66509051  0.67729865  0.12431690  1
  Sr2+  Sr3  1  0.17341178  0.51085045  0.62561496  1
  Sr2+  Sr4  1  0.33221366  0.34480851  0.62473602  1
  Sr2+  Sr5  1  -0.00229652  0.67641086  0.12531951  1
  Sr2+  Sr6  1  0.17156039  0.84407664  0.62544442  1
  Ca2+  Ca7  1  0.33058513  0.01226081  0.62513867  1
  Ca2+  Ca8  1  0.16950335  0.84782589  0.12486359  1
  Ca2+  Ca9  1  0.33573847  0.65335136  0.38041538  1
  Ca2+  Ca10  1  0.16557411  0.15286349  0.87246269  1
  Ca2+  Ca11  1  0.66042931  0.01264328  0.62510268  1
  Ca2+  Ca12  1  0.49841053  0.48636604  0.87230008  1
  Ca2+  Ca13  1  0.50132155  0.84969690  0.62523372  1
  Ca2+  Ca14  1  0.66865947  0.98600466  0.87218120  1
  Ca2+  Ca15  1  0.66908967  0.98520070  0.37755087  1
  Ca2+  Ca16  1  0.16542027  0.15175416  0.37677044  1
  Ca2+  Ca17  1  0.82720906  0.48643861  0.87587551  1
  Ca2+  Ca18  1  0.33218795  0.67781801  0.62444748  1
  Ca2+  Ca19  1  0.65954176  0.35120931  0.62646893  1
  Ca2+  Ca20  1  0.66516896  0.34793873  0.12334495  1
  Ca2+  Ca21  1  0.50120347  0.51319300  0.62740607  1
  Pr3+  Pr22  1  0.16835703  0.51319855  0.12386852  1
  Pr3+  Pr23  1  0.50193445  0.17915532  0.62514547  1
  Pr3+  Pr24  1  0.33444972  0.98770564  0.37837845  1
  Pr3+  Pr25  1  -0.00542267  0.34448988  0.12401440  1
  Pr3+  Pr26  1  0.66414334  0.01162313  0.12482225  1
  Pr3+  Pr27  1  0.49881402  0.15248889  0.37678257  1
  Pr3+  Pr28  1  0.33165062  0.34758274  0.12480389  1
  Pr3+  Pr29  1  0.16581752  0.81935207  0.37604979  1
  Pr3+  Pr30  1  1.00136621  0.65372596  0.87488926  1
  Pr3+  Pr31  1  0.49885124  0.15367924  0.87323854  1
  Pr3+  Pr32  1  0.16527904  0.48719056  0.87309171  1
  Pr3+  Pr33  1  0.83398767  0.51182372  0.62766550  1
  Pr3+  Pr34  1  0.33170269  0.01123911  0.12538392  1
  Pr3+  Pr35  1  0.49665436  0.48915439  0.37703642  1
  Pr3+  Pr36  1  0.82724877  0.15249392  0.87548652  1
  Pr3+  Pr37  1  -0.00020399  0.67970110  0.62542053  1
  Pr3+  Pr38  1  0.50502962  0.84517348  0.12484321  1
  Pr3+  Pr39  1  0.83248891  0.17947403  0.62521886  1
  Pr3+  Pr40  1  0.49584615  0.81910875  0.37816965  1
  Pr3+  Pr41  1  0.33592126  0.32025590  0.37759259  1
  Pr3+  Pr42  1  -0.00018626  0.34557473  0.62560797  1
  Pr3+  Pr43  1  -0.00243339  0.01157877  0.12466134  1
  Pr3+  Pr44  1  0.66724203  0.65350935  0.37517680  1
  Pr3+  Pr45  1  0.82863433  0.15080739  0.37424507  1
  Pr3+  Pr46  1  0.33547096  0.98731630  0.87173346  1
  Pr3+  Pr47  1  0.67010232  0.32164366  0.37666603  1
  Pr3+  Pr48  1  0.83381314  0.84654577  0.62592221  1
  Pr3+  Pr49  1  -0.00167514  0.01263429  0.62508069  1
  Pr3+  Pr50  1  1.00302751  0.98855948  0.87492602  1
  Pr3+  Pr51  1  0.16546673  0.82040458  0.87392717  1
  Pr3+  Pr52  1  0.83060104  0.48751157  0.37485010  1
  Pr3+  Pr53  1  0.32850077  0.68249979  0.12588154  1
  Pr3+  Pr54  1  0.33829247  0.32129411  0.87238128  1
  Pr3+  Pr55  1  0.82821783  0.82104131  0.87465244  1
  Pr3+  Pr56  1  0.49907961  0.82146486  0.87213715  1
  Pr3+  Pr57  1  0.65856548  0.68037377  0.62592353  1
  Pr3+  Pr58  1  0.66857340  0.32624326  0.87394640  1
  Pr3+  Pr59  1  0.83467581  0.84294913  0.12384604  1
  Pr3+  Pr60  1  0.17302059  0.17705726  0.62479789  1
  Pr3+  Pr61  1  1.00115410  0.31862925  0.87382932  1
  Pr3+  Pr62  1  0.50560236  0.51382213  0.12342850  1
  Pr3+  Pr63  1  1.00437773  0.98811262  0.37496165  1
  Pr3+  Pr64  1  0.82961917  0.82137264  0.37569459  1
  Pr3+  Pr65  1  1.00357945  0.65338772  0.37558919  1
  Pr3+  Pr66  1  1.00484861  0.31758203  0.37547685  1
  Pr3+  Pr67  1  0.50679546  0.18244139  0.12499307  1
  Pr3+  Pr68  1  0.16905582  0.17819828  0.12482738  1
  Pr3+  Pr69  1  0.83281804  0.51150538  0.12266557  1
  Pr3+  Pr70  1  0.16662239  0.48947887  0.37634908  1
  Pr3+  Pr71  1  0.33931108  0.65243994  0.87249924  1
  Mn3.30+  Mn72  1  0.16713744  -0.00025050  -0.00039491  1
  Mn3.30+  Mn73  1  0.16869184  -0.00040967  0.50094907  1
  Mn3.30+  Mn74  1  0.16641445  0.33172127  -0.00098453  1
  Mn3.30+  Mn75  1  0.16874326  0.33242380  0.49926685  1
  Mn3.30+  Mn76  1  0.16731638  0.66810124  0.00052343  1
  Mn3.30+  Mn77  1  0.17103759  0.66628666  0.50079398  1
  Mn3.30+  Mn78  1  0.50092534  -0.00007529  -0.00216725  1
  Mn3.30+  Mn79  1  0.50116130  -0.00110554  0.50250563  1
  Mn3.30+  Mn80  1  0.50179513  0.33498936  -0.00097577  1
  Mn3.30+  Mn81  1  0.50213272  0.33494775  0.50239367  1
  Mn3.30+  Mn82  1  0.50020069  0.66616203  -0.00190358  1
  Mn3.30+  Mn83  1  0.49643002  0.66681283  0.50333922  1
  Mn3.30+  Mn84  1  0.83181348  -0.00045888  -0.00117015  1
  Mn3.30+  Mn85  1  0.82989978  0.00006660  0.50138940  1
  Mn3.30+  Mn86  1  0.83188616  0.33349984  -0.00015035  1
  Mn3.30+  Mn87  1  0.83249302  0.33327071  0.50196295  1
  Mn3.30+  Mn88  1  0.83289155  0.66545840  -0.00062406  1
  Mn3.30+  Mn89  1  0.83170685  0.66661915  0.50125298  1
  Mn3.30+  Mn90  1  0.00088059  0.16548405  0.25069204  1
  Mn3.30+  Mn91  1  0.00069179  0.16609737  0.74994546  1
  Mn3.30+  Mn92  1  -0.00054714  0.49902040  0.25001577  1
  Mn3.30+  Mn93  1  -0.00101783  0.49989675  0.75020673  1
  Mn3.30+  Mn94  1  0.00141540  0.83286591  0.24863160  1
  Mn3.30+  Mn95  1  -0.00038352  0.83401001  0.74958309  1
  Mn3.30+  Mn96  1  0.33372704  0.16632507  0.25056620  1
  Mn3.30+  Mn97  1  0.33303832  0.16502629  0.75057628  1
  Mn3.30+  Mn98  1  0.33406580  0.50226111  0.25058982  1
  Mn3.30+  Mn99  1  0.33644281  0.49993277  0.74822915  1
  Mn3.30+  Mn100  1  0.33277210  0.83334956  0.25093984  1
  Mn3.30+  Mn101  1  0.33446182  0.83291681  0.74615798  1
  Mn3.30+  Mn102  1  0.66692053  0.16685857  0.24993545  1
  Mn3.30+  Mn103  1  0.66586745  0.16660910  0.74890539  1
  Mn3.30+  Mn104  1  0.66550237  0.49874465  0.24966702  1
  Mn3.30+  Mn105  1  0.66473362  0.50018404  0.75037406  1
  Mn3.30+  Mn106  1  0.66581549  0.83397497  0.25181031  1
  Mn3.30+  Mn107  1  0.66417464  0.83571789  0.74800846  1
  Mn3.30+  Mn108  1  0.16710225  -0.00050523  0.24973651  1
  Mn3.30+  Mn109  1  0.16846767  0.00004285  0.74938931  1
  Mn3.30+  Mn110  1  0.16670379  0.33245147  0.24979144  1
  Mn3.30+  Mn111  1  0.16875662  0.33179829  0.75102413  1
  Mn3.30+  Mn112  1  0.16804973  0.66778991  0.24953280  1
  Mn3.30+  Mn113  1  0.17017304  0.66629085  0.74905308  1
  Mn3.30+  Mn114  1  0.50094299  -0.00068709  0.25279865  1
  Mn3.30+  Mn115  1  0.50142108  -0.00056317  0.74716393  1
  Mn3.30+  Mn116  1  0.50147021  0.33425205  0.25067244  1
  Mn3.30+  Mn117  1  0.50225297  0.33641722  0.74785002  1
  Mn3.30+  Mn118  1  0.49760367  0.66693751  0.25104328  1
  Mn3.30+  Mn119  1  0.49854449  0.66574467  0.74807849  1
  Mn3.30+  Mn120  1  0.83236941  -0.00112498  0.25108714  1
  Mn3.30+  Mn121  1  0.82937552  0.00076111  0.74856811  1
  Mn3.30+  Mn122  1  0.83279806  0.33224638  0.24932019  1
  Mn3.30+  Mn123  1  0.83111192  0.33446824  0.74873140  1
  Mn3.30+  Mn124  1  0.83362015  0.66648293  0.25003539  1
  Mn3.30+  Mn125  1  0.83052159  0.66552595  0.75032652  1
  Mn3.30+  Mn126  1  0.00074555  0.16556572  -0.00173134  1
  Mn3.30+  Mn127  1  0.00122275  0.16597134  0.50039592  1
  Mn3.30+  Mn128  1  -0.00223228  0.49894684  -0.00312023  1
  Mn3.30+  Mn129  1  0.00079899  0.49980307  0.50239614  1
  Mn3.30+  Mn130  1  0.00142521  0.83259992  0.00138370  1
  Mn3.30+  Mn131  1  0.00010232  0.83391315  0.50099605  1
  Mn3.30+  Mn132  1  0.33368065  0.16652287  -0.00039945  1
  Mn3.30+  Mn133  1  0.33299639  0.16478931  0.49952432  1
  Mn3.30+  Mn134  1  0.33575313  0.50025572  -0.00065420  1
  Mn3.30+  Mn135  1  0.33461028  0.50189323  0.50179147  1
  Mn3.30+  Mn136  1  0.33281279  0.83426799  0.00012968  1
  Mn3.30+  Mn137  1  0.33404443  0.83193268  0.50313297  1
  Mn3.30+  Mn138  1  0.66644050  0.16803354  -0.00039718  1
  Mn3.30+  Mn139  1  0.66633661  0.16556468  0.50130505  1
  Mn3.30+  Mn140  1  0.66596488  0.49920706  -0.00225989  1
  Mn3.30+  Mn141  1  0.66420082  0.50005236  0.50289977  1
  Mn3.30+  Mn142  1  0.66669678  0.83392055  -0.00117036  1
  Mn3.30+  Mn143  1  0.66339305  0.83581713  0.50129161  1
  O2-  O144  1  0.02463385  0.16174147  0.12330378  1
  O2-  O145  1  0.02730123  0.16197195  0.62431945  1
  O2-  O146  1  0.02443122  0.49201648  0.12234724  1
  O2-  O147  1  0.02275297  0.49440585  0.62553156  1
  O2-  O148  1  0.02791067  0.83165290  0.12530801  1
  O2-  O149  1  0.02097124  0.82871033  0.62499145  1
  O2-  O150  1  0.36200635  0.16048485  0.12588532  1
  O2-  O151  1  0.35675668  0.15959321  0.62581543  1
  O2-  O152  1  0.36088953  0.49430394  0.12483680  1
  O2-  O153  1  0.35908431  0.49607992  0.62583765  1
  O2-  O154  1  0.36101608  0.83086382  0.12607455  1
  O2-  O155  1  0.35967401  0.82264358  0.62415598  1
  O2-  O156  1  0.68567548  0.15724099  0.12462378  1
  O2-  O157  1  0.69129303  0.15527687  0.62405924  1
  O2-  O158  1  0.68860979  0.49431801  0.12500269  1
  O2-  O159  1  0.69148323  0.49855303  0.62453902  1
  O2-  O160  1  0.68904812  0.83357987  0.12730167  1
  O2-  O161  1  0.69142352  0.82594263  0.62457649  1
  O2-  O162  1  0.13916748  0.32706860  0.12332273  1
  O2-  O163  1  0.14384912  0.32553460  0.62417083  1
  O2-  O164  1  0.14684466  0.65956860  0.12373754  1
  O2-  O165  1  0.14302987  0.66468173  0.62561564  1
  O2-  O166  1  0.14177817  0.99301947  0.12417046  1
  O2-  O167  1  0.14182227  0.99930912  0.62470261  1
  O2-  O168  1  0.47427813  0.32851966  0.12652425  1
  O2-  O169  1  0.47931418  0.32540923  0.62444561  1
  O2-  O170  1  0.47375746  0.66282450  0.12460968  1
  O2-  O171  1  0.47356712  0.65628438  0.62536434  1
  O2-  O172  1  0.47584081  0.99386708  0.12667040  1
  O2-  O173  1  0.47207900  0.99773532  0.62479894  1
  O2-  O174  1  0.80914490  0.33168816  0.12477657  1
  O2-  O175  1  0.80411376  0.32615293  0.62426200  1
  O2-  O176  1  0.81473240  0.66168044  0.12651246  1
  O2-  O177  1  0.80461096  0.66045283  0.62470708  1
  O2-  O178  1  0.80818822  0.99219306  0.12512596  1
  O2-  O179  1  0.80312117  0.99456457  0.62484348  1
  O2-  O180  1  0.30782379  0.17182571  0.37205067  1
  O2-  O181  1  0.30837186  0.17291636  0.87656629  1
  O2-  O182  1  0.30901690  0.50703134  0.37303037  1
  O2-  O183  1  0.30839064  0.50440225  0.87618678  1
  O2-  O184  1  0.30878754  0.84158886  0.37537201  1
  O2-  O185  1  0.30969647  0.83969074  0.87481885  1
  O2-  O186  1  0.64181129  0.17617138  0.37615536  1
  O2-  O187  1  0.64141754  0.17812836  0.87487959  1
  O2-  O188  1  0.64204627  0.50401182  0.37720268  1
  O2-  O189  1  0.64083899  0.49570702  0.87337258  1
  O2-  O190  1  0.64080097  0.83879584  0.37722168  1
  O2-  O191  1  0.64313195  0.84083762  0.87105144  1
  O2-  O192  1  0.97326151  0.16970994  0.37815355  1
  O2-  O193  1  0.97212794  0.16933135  0.87346624  1
  O2-  O194  1  0.97548264  0.50391641  0.37876522  1
  O2-  O195  1  0.97133998  0.50493715  0.87248143  1
  O2-  O196  1  0.97417502  0.83952467  0.37660170  1
  O2-  O197  1  0.97328601  0.84019064  0.87330552  1
  O2-  O198  1  0.19027607  0.00591517  0.37506026  1
  O2-  O199  1  0.19164154  0.00622178  0.87576188  1
  O2-  O200  1  0.19185753  0.34159972  0.37352458  1
  O2-  O201  1  0.19367272  0.33977219  0.87788325  1
  O2-  O202  1  0.19222974  0.67078378  0.37310212  1
  O2-  O203  1  0.19336414  0.67126646  0.87699466  1
  O2-  O204  1  0.52718223  0.00492516  0.37641924  1
  O2-  O205  1  0.52669541  0.00521519  0.87209085  1
  O2-  O206  1  0.52641919  0.33969752  0.37732747  1
  O2-  O207  1  0.52470708  0.33783773  0.87181035  1
  O2-  O208  1  0.52411120  0.67142937  0.37687639  1
  O2-  O209  1  0.51853052  0.67560260  0.87305898  1
  O2-  O210  1  0.86007480  0.00297780  0.37720074  1
  O2-  O211  1  0.85863658  0.00373703  0.87281309  1
  O2-  O212  1  0.86021836  0.33968130  0.37732537  1
  O2-  O213  1  0.85692894  0.33934039  0.87332714  1
  O2-  O214  1  0.85834838  0.67132599  0.37710387  1
  O2-  O215  1  0.85782748  0.67426139  0.87326323  1
  O2-  O216  1  0.23926824  0.09240145  0.02387480  1
  O2-  O217  1  0.23761895  0.09367727  0.51773832  1
  O2-  O218  1  0.23843578  0.42884142  0.02138087  1
  O2-  O219  1  0.24043090  0.42902289  0.51109811  1
  O2-  O220  1  0.23990365  0.76625002  0.02157744  1
  O2-  O221  1  0.23820471  0.76306367  0.51274524  1
  O2-  O222  1  0.56987880  0.09640275  0.01864173  1
  O2-  O223  1  0.56783514  0.09768397  0.51771371  1
  O2-  O224  1  0.57095125  0.42704506  0.01947944  1
  O2-  O225  1  0.57073943  0.43298617  0.52015276  1
  O2-  O226  1  0.57028286  0.76451595  0.01508521  1
  O2-  O227  1  0.56690586  0.76221469  0.52200248  1
  O2-  O228  1  0.90714262  0.09053231  0.01693205  1
  O2-  O229  1  0.90298784  0.09353649  0.52266908  1
  O2-  O230  1  0.90570398  0.42592223  0.02165421  1
  O2-  O231  1  0.90384992  0.42611515  0.52253827  1
  O2-  O232  1  0.90652358  0.76305064  0.01676299  1
  O2-  O233  1  0.90298527  0.75962885  0.52122219  1
  O2-  O234  1  0.26163666  0.26267072  0.22769736  1
  O2-  O235  1  0.26075117  0.25719161  0.73213914  1
  O2-  O236  1  0.26131533  0.59283357  0.22619362  1
  O2-  O237  1  0.26610829  0.59698753  0.73441636  1
  O2-  O238  1  0.26455154  0.92982328  0.23247784  1
  O2-  O239  1  0.26670947  0.92938843  0.73258661  1
  O2-  O240  1  0.59725012  0.26284088  0.22938936  1
  O2-  O241  1  0.59630715  0.26205784  0.72812168  1
  O2-  O242  1  0.59107370  0.59423473  0.23444616  1
  O2-  O243  1  0.59543024  0.59627715  0.73114018  1
  O2-  O244  1  0.59348065  0.92832254  0.22912813  1
  O2-  O245  1  0.59471754  0.93057533  0.72726285  1
  O2-  O246  1  0.93265105  0.26235800  0.23451967  1
  O2-  O247  1  0.92845202  0.26080207  0.72926252  1
  O2-  O248  1  0.92552808  0.58977283  0.23537293  1
  O2-  O249  1  0.92743870  0.59604542  0.72766941  1
  O2-  O250  1  0.92886611  0.92649592  0.22917955  1
  O2-  O251  1  0.92569014  0.92943083  0.72828162  1
  O2-  O252  1  0.09624816  0.23545488  0.27185224  1
  O2-  O253  1  0.09469451  0.23853787  0.77184283  1
  O2-  O254  1  0.09382031  0.57170653  0.26925039  1
  O2-  O255  1  0.09423879  0.57457915  0.77308993  1
  O2-  O256  1  0.09392308  0.90609218  0.27327250  1
  O2-  O257  1  0.09444485  0.90801411  0.77237539  1
  O2-  O258  1  0.43003757  0.23988460  0.27164885  1
  O2-  O259  1  0.42821612  0.23921924  0.76973030  1
  O2-  O260  1  0.42953778  0.57022623  0.26755216  1
  O2-  O261  1  0.42858879  0.57128961  0.77416937  1
  O2-  O262  1  0.42912487  0.90463368  0.27196090  1
  O2-  O263  1  0.42851660  0.90651204  0.77076440  1
  O2-  O264  1  0.76260499  0.23954478  0.27317451  1
  O2-  O265  1  0.76320036  0.23809097  0.76921245  1
  O2-  O266  1  0.75890271  0.57160675  0.27037164  1
  O2-  O267  1  0.76445691  0.56788540  0.76813031  1
  O2-  O268  1  0.76377346  0.90457622  0.26975147  1
  O2-  O269  1  0.76330340  0.90431349  0.76689697  1
  O2-  O270  1  0.06971752  0.06947149  0.48265793  1
  O2-  O271  1  0.07173952  0.06935627  0.98220879  1
  O2-  O272  1  0.07328848  0.40365727  0.48095439  1
  O2-  O273  1  0.07038468  0.40480458  0.97682239  1
  O2-  O274  1  0.07242734  0.73791443  0.47999313  1
  O2-  O275  1  0.07202340  0.74132848  0.97487384  1
  O2-  O276  1  0.40726377  0.07292763  0.47709694  1
  O2-  O277  1  0.40562343  0.07137516  0.97854660  1
  O2-  O278  1  0.40639090  0.40739612  0.47634448  1
  O2-  O279  1  0.40223683  0.40288036  0.98261892  1
  O2-  O280  1  0.40482173  0.73906448  0.47635462  1
  O2-  O281  1  0.40256525  0.73912472  0.98173771  1
  O2-  O282  1  0.73889450  0.07245867  0.47463844  1
  O2-  O283  1  0.73599465  0.07298704  0.97833192  1
  O2-  O284  1  0.74034561  0.40686663  0.47866944  1
  O2-  O285  1  0.73810956  0.40482335  0.98170937  1
  O2-  O286  1  0.73681667  0.73866207  0.47942536  1
  O2-  O287  1  0.74270501  0.74299788  0.98251157  1
  O2-  O288  1  0.09582330  0.23866914  0.47755509  1
  O2-  O289  1  0.09542179  0.23604980  0.97666470  1
  O2-  O290  1  0.09514449  0.57469396  0.47795378  1
  O2-  O291  1  0.09192595  0.56999260  0.97844057  1
  O2-  O292  1  0.09541119  0.90767336  0.47775695  1
  O2-  O293  1  0.09405766  0.90650082  0.97652988  1
  O2-  O294  1  0.42827248  0.23898071  0.47952660  1
  O2-  O295  1  0.43095823  0.23999091  0.97952563  1
  O2-  O296  1  0.42892711  0.57201481  0.47904949  1
  O2-  O297  1  0.42833387  0.56974430  0.97858595  1
  O2-  O298  1  0.42806424  0.90598715  0.47893786  1
  O2-  O299  1  0.42844711  0.90468500  0.97881085  1
  O2-  O300  1  0.76443963  0.23769156  0.47938573  1
  O2-  O301  1  0.76136385  0.24001390  0.97753780  1
  O2-  O302  1  0.76136825  0.57179590  0.47923503  1
  O2-  O303  1  0.76171233  0.56801650  0.98376400  1
  O2-  O304  1  0.76383125  0.90388636  0.48196373  1
  O2-  O305  1  0.76238800  0.90519554  0.98178339  1
  O2-  O306  1  0.07000316  0.07016503  0.26609306  1
  O2-  O307  1  0.06841405  0.07058069  0.76739258  1
  O2-  O308  1  0.07160890  0.40437302  0.27009888  1
  O2-  O309  1  0.07231595  0.40459295  0.77063139  1
  O2-  O310  1  0.07207621  0.73993097  0.27437351  1
  O2-  O311  1  0.07254535  0.73826246  0.77064957  1
  O2-  O312  1  0.40680956  0.07026596  0.27249006  1
  O2-  O313  1  0.40680867  0.07397102  0.77307858  1
  O2-  O314  1  0.40325408  0.40555204  0.27134964  1
  O2-  O315  1  0.40648774  0.40537986  0.77095239  1
  O2-  O316  1  0.40155763  0.73654936  0.27096171  1
  O2-  O317  1  0.40584024  0.74024160  0.77150452  1
  O2-  O318  1  0.73686219  0.07130528  0.27145672  1
  O2-  O319  1  0.73808880  0.07346932  0.77479933  1
  O2-  O320  1  0.74024579  0.40654133  0.27295752  1
  O2-  O321  1  0.73727298  0.40506068  0.76626818  1
  O2-  O322  1  0.73943192  0.74048109  0.27299787  1
  O2-  O323  1  0.74011796  0.74071722  0.76716648  1
  O2-  O324  1  0.23999724  0.09297172  0.22619049  1
  O2-  O325  1  0.23775494  0.09382146  0.73239805  1
  O2-  O326  1  0.23894712  0.42957249  0.22816517  1
  O2-  O327  1  0.24051823  0.42783561  0.73854389  1
  O2-  O328  1  0.23750313  0.76480049  0.22798079  1
  O2-  O329  1  0.23890095  0.76211398  0.73789148  1
  O2-  O330  1  0.56967772  0.09534686  0.23123920  1
  O2-  O331  1  0.56817745  0.09785129  0.73206950  1
  O2-  O332  1  0.56951347  0.42906600  0.23233089  1
  O2-  O333  1  0.57160120  0.42988829  0.72730205  1
  O2-  O334  1  0.56731179  0.76319532  0.23495326  1
  O2-  O335  1  0.56953655  0.76271966  0.72818574  1
  O2-  O336  1  0.90653902  0.09142019  0.23307211  1
  O2-  O337  1  0.90254131  0.09392893  0.72729662  1
  O2-  O338  1  0.90450894  0.42670947  0.22973256  1
  O2-  O339  1  0.90523656  0.42387688  0.72569045  1
  O2-  O340  1  0.90512563  0.76395048  0.23396994  1
  O2-  O341  1  0.90496459  0.75992597  0.72879236  1
  O2-  O342  1  0.26227550  0.26024379  0.02392009  1
  O2-  O343  1  0.26011476  0.25915690  0.51605880  1
  O2-  O344  1  0.26404869  0.59363561  0.02018375  1
  O2-  O345  1  0.26472141  0.59718047  0.51801884  1
  O2-  O346  1  0.26447219  0.93071256  0.01737276  1
  O2-  O347  1  0.26582034  0.93066856  0.51764303  1
  O2-  O348  1  0.59619215  0.26266381  0.02148855  1
  O2-  O349  1  0.59882249  0.26221041  0.52094201  1
  O2-  O350  1  0.59194501  0.59122203  0.01846624  1
  O2-  O351  1  0.59655821  0.59930522  0.51560238  1
  O2-  O352  1  0.59367229  0.92857333  0.02042569  1
  O2-  O353  1  0.59472695  0.93066033  0.52211685  1
  O2-  O354  1  0.93001214  0.26338265  0.01462255  1
  O2-  O355  1  0.92883600  0.26169950  0.52232160  1
  O2-  O356  1  0.92631567  0.59129607  0.01645495  1
  O2-  O357  1  0.92727549  0.59530065  0.52191621  1
  O2-  O358  1  0.92908631  0.92538197  0.02067956  1
  O2-  O359  1  0.92586241  0.92893669  0.52192460  1
