# generated using pymatgen
data_Sr7Ca15Pr50Mn72O216
_symmetry_space_group_name_H-M   'P 1'
_cell_length_a   16.55901241
_cell_length_b   16.60449407
_cell_length_c   15.59254914
_cell_angle_alpha   89.99993154
_cell_angle_beta   90.00320958
_cell_angle_gamma   90.00458685
_symmetry_Int_Tables_number   1
_chemical_formula_structural   Sr7Ca15Pr50Mn72O216
_chemical_formula_sum   'Sr7 Ca15 Pr50 Mn72 O216'
_cell_volume   4287.23409936
_cell_formula_units_Z   1
loop_
 _symmetry_equiv_pos_site_id
 _symmetry_equiv_pos_as_xyz
  1  'x, y, z'
loop_
 _atom_type_symbol
 _atom_type_oxidation_number
  Sr2+  2.0
  Ca2+  2.0
  Pr3+  3.0
  Mn3.30+  3.3
  O2-  -2.0
loop_
 _atom_site_type_symbol
 _atom_site_label
 _atom_site_symmetry_multiplicity
 _atom_site_fract_x
 _atom_site_fract_y
 _atom_site_fract_z
 _atom_site_occupancy
  Sr2+  Sr0  1  0.33367133  0.34416934  0.12587399  1
  Sr2+  Sr1  1  0.16856686  0.17641022  0.62272741  1
  Sr2+  Sr2  1  1.00440021  0.32550252  0.87522461  1
  Sr2+  Sr3  1  0.16923584  0.50756781  0.12351359  1
  Sr2+  Sr4  1  0.49654688  0.82430737  0.37515006  1
  Sr2+  Sr5  1  0.16563725  0.49129557  0.87585925  1
  Sr2+  Sr6  1  0.33586678  0.65243493  0.87368772  1
  Ca2+  Ca7  1  0.33360516  0.98571841  0.37596120  1
  Ca2+  Ca8  1  0.50615895  0.51920725  0.62766435  1
  Ca2+  Ca9  1  0.67016396  0.31928230  0.37491859  1
  Ca2+  Ca10  1  0.83094692  0.81846351  0.37535405  1
  Ca2+  Ca11  1  1.00504709  0.98292336  0.37454303  1
  Ca2+  Ca12  1  0.16262919  0.14930703  0.37437376  1
  Ca2+  Ca13  1  1.00603005  0.31657930  0.37516499  1
  Ca2+  Ca14  1  0.66304956  0.68184057  0.62579363  1
  Ca2+  Ca15  1  0.49548883  0.48710390  0.87309847  1
  Ca2+  Ca16  1  0.66863076  0.65040813  0.87177174  1
  Ca2+  Ca17  1  0.16315343  0.81837579  0.37501798  1
  Ca2+  Ca18  1  0.50212678  0.18414443  0.12710099  1
  Ca2+  Ca19  1  0.33582719  0.98673016  0.87426731  1
  Ca2+  Ca20  1  1.00594245  0.65047075  0.87409628  1
  Ca2+  Ca21  1  1.00139802  0.65583984  0.37578661  1
  Pr3+  Pr22  1  0.16910947  0.84573844  0.62313206  1
  Pr3+  Pr23  1  0.66765093  0.32320914  0.87445188  1
  Pr3+  Pr24  1  0.16271192  0.48797844  0.37474009  1
  Pr3+  Pr25  1  0.49800955  0.48980642  0.37667728  1
  Pr3+  Pr26  1  0.50219186  0.84510721  0.62420526  1
  Pr3+  Pr27  1  0.66361479  0.01222378  0.62324780  1
  Pr3+  Pr28  1  0.66047593  0.01642008  0.12693441  1
  Pr3+  Pr29  1  0.49969801  0.84525548  0.12508669  1
  Pr3+  Pr30  1  0.16419128  0.81807841  0.87443037  1
  Pr3+  Pr31  1  0.16944617  0.84237935  0.12680098  1
  Pr3+  Pr32  1  0.33357867  0.32137802  0.37242678  1
  Pr3+  Pr33  1  0.83490569  0.51499700  0.62523721  1
  Pr3+  Pr34  1  0.50111693  0.17961064  0.62291617  1
  Pr3+  Pr35  1  0.16994467  0.18012779  0.12837926  1
  Pr3+  Pr36  1  0.32945184  0.01266797  0.62324556  1
  Pr3+  Pr37  1  0.83189425  0.15451146  0.37499464  1
  Pr3+  Pr38  1  0.32833986  0.67541903  0.12354335  1
  Pr3+  Pr39  1  1.00334265  0.98968738  0.87542359  1
  Pr3+  Pr40  1  0.66930945  0.65767573  0.37763781  1
  Pr3+  Pr41  1  0.49661636  0.81972068  0.87429063  1
  Pr3+  Pr42  1  0.83769707  0.17974580  0.62353454  1
  Pr3+  Pr43  1  0.16839179  0.51155101  0.62583797  1
  Pr3+  Pr44  1  0.82934744  0.81632322  0.87544056  1
  Pr3+  Pr45  1  0.83045825  0.48664443  0.37623365  1
  Pr3+  Pr46  1  0.33569699  0.65726113  0.37556259  1
  Pr3+  Pr47  1  0.83760821  0.84542341  0.12707750  1
  Pr3+  Pr48  1  0.83240150  0.48845663  0.87417806  1
  Pr3+  Pr49  1  0.67104381  0.98351828  0.37472767  1
  Pr3+  Pr50  1  0.50027861  0.51149535  0.12312771  1
  Pr3+  Pr51  1  0.83150448  0.15565756  0.87549177  1
  Pr3+  Pr52  1  -0.00182757  0.34638331  0.62308234  1
  Pr3+  Pr53  1  0.33389953  0.32776011  0.87820418  1
  Pr3+  Pr54  1  0.66992534  0.98760271  0.87535585  1
  Pr3+  Pr55  1  0.83688050  0.51251566  0.12520748  1
  Pr3+  Pr56  1  0.83616906  0.18119521  0.12703478  1
  Pr3+  Pr57  1  0.49619551  0.15324634  0.37295543  1
  Pr3+  Pr58  1  0.33017570  0.01161636  0.12698364  1
  Pr3+  Pr59  1  0.16661622  0.15812429  0.87610354  1
  Pr3+  Pr60  1  -0.00120381  0.01287575  0.12817514  1
  Pr3+  Pr61  1  0.66145358  0.34967239  0.62219319  1
  Pr3+  Pr62  1  0.49289147  0.15509904  0.87668958  1
  Pr3+  Pr63  1  0.66435075  0.67889745  0.12363452  1
  Pr3+  Pr64  1  -0.00165808  0.34789880  0.12727115  1
  Pr3+  Pr65  1  -0.00076331  0.67638391  0.12466212  1
  Pr3+  Pr66  1  -0.00067306  0.01299575  0.62179275  1
  Pr3+  Pr67  1  0.66235546  0.34676132  0.12732682  1
  Pr3+  Pr68  1  -0.00281513  0.67998467  0.62500873  1
  Pr3+  Pr69  1  0.33239734  0.67916919  0.62621509  1
  Pr3+  Pr70  1  0.83506546  0.84501062  0.62316597  1
  Pr3+  Pr71  1  0.33059180  0.34617822  0.62385496  1
  Mn3.30+  Mn72  1  0.16835172  -0.00086653  -0.00013181  1
  Mn3.30+  Mn73  1  0.16593273  -0.00113549  0.49519235  1
  Mn3.30+  Mn74  1  0.16756161  0.33427639  0.00099329  1
  Mn3.30+  Mn75  1  0.16516152  0.33093512  0.49831807  1
  Mn3.30+  Mn76  1  0.16504201  0.66509446  -0.00115200  1
  Mn3.30+  Mn77  1  0.16503205  0.66769021  0.49907050  1
  Mn3.30+  Mn78  1  0.49858382  0.00206845  0.00040661  1
  Mn3.30+  Mn79  1  0.49775691  -0.00012318  0.49784884  1
  Mn3.30+  Mn80  1  0.50119472  0.33469236  0.00092721  1
  Mn3.30+  Mn81  1  0.50043423  0.33511282  0.49803964  1
  Mn3.30+  Mn82  1  0.50037500  0.66486057  -0.00314851  1
  Mn3.30+  Mn83  1  0.50193733  0.66758100  0.50168431  1
  Mn3.30+  Mn84  1  0.83317447  0.00004723  0.00191330  1
  Mn3.30+  Mn85  1  0.83532997  -0.00178884  0.49677487  1
  Mn3.30+  Mn86  1  0.83305879  0.33379181  -0.00013102  1
  Mn3.30+  Mn87  1  0.83307349  0.33344181  0.49797119  1
  Mn3.30+  Mn88  1  0.83266252  0.66528889  -0.00260429  1
  Mn3.30+  Mn89  1  0.83346130  0.66830285  0.50005772  1
  Mn3.30+  Mn90  1  0.00197964  0.16592334  0.25331207  1
  Mn3.30+  Mn91  1  0.00121130  0.16784164  0.74946185  1
  Mn3.30+  Mn92  1  -0.00019550  0.50136526  0.25276629  1
  Mn3.30+  Mn93  1  0.00071842  0.50092419  0.74949710  1
  Mn3.30+  Mn94  1  0.00114011  0.83165306  0.25392634  1
  Mn3.30+  Mn95  1  -0.00076208  0.83330219  0.75063467  1
  Mn3.30+  Mn96  1  0.33237561  0.16516045  0.25108198  1
  Mn3.30+  Mn97  1  0.33316009  0.16734789  0.75023584  1
  Mn3.30+  Mn98  1  0.33187388  0.50064882  0.25065971  1
  Mn3.30+  Mn99  1  0.33781046  0.49999533  0.74862004  1
  Mn3.30+  Mn100  1  0.33182332  0.83377556  0.25229513  1
  Mn3.30+  Mn101  1  0.33393106  0.83418550  0.75101198  1
  Mn3.30+  Mn102  1  0.66523373  0.16827091  0.25179636  1
  Mn3.30+  Mn103  1  0.66544189  0.16750511  0.74941059  1
  Mn3.30+  Mn104  1  0.66730014  0.50046973  0.25131560  1
  Mn3.30+  Mn105  1  0.66357494  0.50298626  0.75018906  1
  Mn3.30+  Mn106  1  0.66801837  0.83249691  0.25029249  1
  Mn3.30+  Mn107  1  0.66636999  0.83138580  0.75035502  1
  Mn3.30+  Mn108  1  0.16553007  -0.00250687  0.25357048  1
  Mn3.30+  Mn109  1  0.16870245  0.00056029  0.75116058  1
  Mn3.30+  Mn110  1  0.16602828  0.33233772  0.25235072  1
  Mn3.30+  Mn111  1  0.16661337  0.33317874  0.74850168  1
  Mn3.30+  Mn112  1  0.16461878  0.66686183  0.25223844  1
  Mn3.30+  Mn113  1  0.16512419  0.66589611  0.75004000  1
  Mn3.30+  Mn114  1  0.49730586  0.00074124  0.25022337  1
  Mn3.30+  Mn115  1  0.49897571  0.00115344  0.75074544  1
  Mn3.30+  Mn116  1  0.50193748  0.33357118  0.25202980  1
  Mn3.30+  Mn117  1  0.49995900  0.33614394  0.74868675  1
  Mn3.30+  Mn118  1  0.49974412  0.66750413  0.24980379  1
  Mn3.30+  Mn119  1  0.50290345  0.66490352  0.75065435  1
  Mn3.30+  Mn120  1  0.83487349  -0.00150372  0.25200502  1
  Mn3.30+  Mn121  1  0.83374257  -0.00034152  0.74962476  1
  Mn3.30+  Mn122  1  0.83364275  0.33356547  0.25331749  1
  Mn3.30+  Mn123  1  0.83267630  0.33399669  0.74939103  1
  Mn3.30+  Mn124  1  0.83465962  0.66741259  0.25238072  1
  Mn3.30+  Mn125  1  0.83163643  0.66630873  0.75078440  1
  Mn3.30+  Mn126  1  0.00047842  0.16777257  0.00118043  1
  Mn3.30+  Mn127  1  0.00247176  0.16615242  0.49699361  1
  Mn3.30+  Mn128  1  0.00112940  0.50117822  0.00008939  1
  Mn3.30+  Mn129  1  -0.00053727  0.50091152  0.49780907  1
  Mn3.30+  Mn130  1  -0.00000460  0.83229097  -0.00038360  1
  Mn3.30+  Mn131  1  0.00055171  0.83292882  0.49564386  1
  Mn3.30+  Mn132  1  0.33425922  0.16654476  0.00257952  1
  Mn3.30+  Mn133  1  0.33057885  0.16549417  0.49582608  1
  Mn3.30+  Mn134  1  0.33475748  0.49972042  -0.00184397  1
  Mn3.30+  Mn135  1  0.33497022  0.50110473  0.50205399  1
  Mn3.30+  Mn136  1  0.33355454  0.83347526  -0.00157412  1
  Mn3.30+  Mn137  1  0.33224341  0.83424552  0.49823267  1
  Mn3.30+  Mn138  1  0.66385566  0.16808978  0.00067544  1
  Mn3.30+  Mn139  1  0.66683094  0.16757336  0.49815769  1
  Mn3.30+  Mn140  1  0.66569054  0.50123930  -0.00281431  1
  Mn3.30+  Mn141  1  0.66479368  0.50231452  0.50122158  1
  Mn3.30+  Mn142  1  0.66650439  0.83268667  -0.00012667  1
  Mn3.30+  Mn143  1  0.66801814  0.83161563  0.49968600  1
  O2-  O144  1  0.02496920  0.16078771  0.12757836  1
  O2-  O145  1  0.01935085  0.16003631  0.62172772  1
  O2-  O146  1  0.01738600  0.49661454  0.12803444  1
  O2-  O147  1  0.02312649  0.49478825  0.62096498  1
  O2-  O148  1  0.02568889  0.82457189  0.12540718  1
  O2-  O149  1  0.02496515  0.82845811  0.62436095  1
  O2-  O150  1  0.36077737  0.15818067  0.12643686  1
  O2-  O151  1  0.35833682  0.16081955  0.62073710  1
  O2-  O152  1  0.35577910  0.50391038  0.12488935  1
  O2-  O153  1  0.36333475  0.49336717  0.62337374  1
  O2-  O154  1  0.35548290  0.82509417  0.12357105  1
  O2-  O155  1  0.35717647  0.82918109  0.62584913  1
  O2-  O156  1  0.69197392  0.16332439  0.12728996  1
  O2-  O157  1  0.69212439  0.16026819  0.62373565  1
  O2-  O158  1  0.69349838  0.49469284  0.12480794  1
  O2-  O159  1  0.69297566  0.49409402  0.62422185  1
  O2-  O160  1  0.69334930  0.82810828  0.12580681  1
  O2-  O161  1  0.69138180  0.83087600  0.62687850  1
  O2-  O162  1  0.14227685  0.32850592  0.12967499  1
  O2-  O163  1  0.14219740  0.33102381  0.62104768  1
  O2-  O164  1  0.14420691  0.66868417  0.12572708  1
  O2-  O165  1  0.14178437  0.66313011  0.62422919  1
  O2-  O166  1  0.14051337  0.99062195  0.12556364  1
  O2-  O167  1  0.14221889  0.99354769  0.62275977  1
  O2-  O168  1  0.48364502  0.33073331  0.12737347  1
  O2-  O169  1  0.47386721  0.32473150  0.62103491  1
  O2-  O170  1  0.47389922  0.66052165  0.12280986  1
  O2-  O171  1  0.47590959  0.66439804  0.62588539  1
  O2-  O172  1  0.47429543  0.99295315  0.12493829  1
  O2-  O173  1  0.47532214  0.99634682  0.62505289  1
  O2-  O174  1  0.80689551  0.33046142  0.12728823  1
  O2-  O175  1  0.80665984  0.32834571  0.62372964  1
  O2-  O176  1  0.80765203  0.66044409  0.12412111  1
  O2-  O177  1  0.80558764  0.66319757  0.62641766  1
  O2-  O178  1  0.80610305  0.99441520  0.12656898  1
  O2-  O179  1  0.80738649  0.99414718  0.62242817  1
  O2-  O180  1  0.30493325  0.17479232  0.37428079  1
  O2-  O181  1  0.31048039  0.17699259  0.87803536  1
  O2-  O182  1  0.30857768  0.50837563  0.37837059  1
  O2-  O183  1  0.31612111  0.49450154  0.87223464  1
  O2-  O184  1  0.30740432  0.83699675  0.37619546  1
  O2-  O185  1  0.30895641  0.84119448  0.87437287  1
  O2-  O186  1  0.64110721  0.17214883  0.37558246  1
  O2-  O187  1  0.63848394  0.17340805  0.87354251  1
  O2-  O188  1  0.64087868  0.51152876  0.37744322  1
  O2-  O189  1  0.63868944  0.50392120  0.87347007  1
  O2-  O190  1  0.64582579  0.83538042  0.37266430  1
  O2-  O191  1  0.64029582  0.84273595  0.87475476  1
  O2-  O192  1  0.97310392  0.17374790  0.37458440  1
  O2-  O193  1  0.97520442  0.16752095  0.87691795  1
  O2-  O194  1  0.97364652  0.51053569  0.37625118  1
  O2-  O195  1  0.97667905  0.50403010  0.87487564  1
  O2-  O196  1  0.97073124  0.84093768  0.37481868  1
  O2-  O197  1  0.97200926  0.84448662  0.87518344  1
  O2-  O198  1  0.19372674  0.00638392  0.37397446  1
  O2-  O199  1  0.19383472  0.00849931  0.87785131  1
  O2-  O200  1  0.19052456  0.34117542  0.37582957  1
  O2-  O201  1  0.18820716  0.33077872  0.87370880  1
  O2-  O202  1  0.19187482  0.67082748  0.37753464  1
  O2-  O203  1  0.18539304  0.67062944  0.87276294  1
  O2-  O204  1  0.52699938  0.00475057  0.37317486  1
  O2-  O205  1  0.52765008  0.00816357  0.87602723  1
  O2-  O206  1  0.52948482  0.34220289  0.37650033  1
  O2-  O207  1  0.52470923  0.33935055  0.87509651  1
  O2-  O208  1  0.52477920  0.66892809  0.37603761  1
  O2-  O209  1  0.52856379  0.67523782  0.87469842  1
  O2-  O210  1  0.86186613  0.00850331  0.37398860  1
  O2-  O211  1  0.85820961  0.00753004  0.87738607  1
  O2-  O212  1  0.86230416  0.33923410  0.37594782  1
  O2-  O213  1  0.85340838  0.33816754  0.87329771  1
  O2-  O214  1  0.85869479  0.67296924  0.37585227  1
  O2-  O215  1  0.86335505  0.66994731  0.87406282  1
  O2-  O216  1  0.23812676  0.09274114  0.02405523  1
  O2-  O217  1  0.24149460  0.08961759  0.51854852  1
  O2-  O218  1  0.24322801  0.42239417  0.01290446  1
  O2-  O219  1  0.23928427  0.42830969  0.51981719  1
  O2-  O220  1  0.23717095  0.75988173  0.01632165  1
  O2-  O221  1  0.24004397  0.75981082  0.52255601  1
  O2-  O222  1  0.56808195  0.09776058  0.02304711  1
  O2-  O223  1  0.57170798  0.09387080  0.51933118  1
  O2-  O224  1  0.57541271  0.42753887  0.02278237  1
  O2-  O225  1  0.56979196  0.43277705  0.52260153  1
  O2-  O226  1  0.57270255  0.76185573  0.02169083  1
  O2-  O227  1  0.57133230  0.76148855  0.52056707  1
  O2-  O228  1  0.90580609  0.09517652  0.02232087  1
  O2-  O229  1  0.90379583  0.09440162  0.51940940  1
  O2-  O230  1  0.90508031  0.42763349  0.01938930  1
  O2-  O231  1  0.90343670  0.42913623  0.52052150  1
  O2-  O232  1  0.90311437  0.76109756  0.02026416  1
  O2-  O233  1  0.90572429  0.76084602  0.52372212  1
  O2-  O234  1  0.26084854  0.25742792  0.23171751  1
  O2-  O235  1  0.26399947  0.26356043  0.73188269  1
  O2-  O236  1  0.26167618  0.59853683  0.23557421  1
  O2-  O237  1  0.26309382  0.59001067  0.72714703  1
  O2-  O238  1  0.25975997  0.92565295  0.22751621  1
  O2-  O239  1  0.25965616  0.92728175  0.72771644  1
  O2-  O240  1  0.59662316  0.26326545  0.23322492  1
  O2-  O241  1  0.59406287  0.26441103  0.72821069  1
  O2-  O242  1  0.59548238  0.59403182  0.22837791  1
  O2-  O243  1  0.59968937  0.59893029  0.72868136  1
  O2-  O244  1  0.59443744  0.92895469  0.22985195  1
  O2-  O245  1  0.59440498  0.93111448  0.72949066  1
  O2-  O246  1  0.92733166  0.26069465  0.22818728  1
  O2-  O247  1  0.92603694  0.25994264  0.72694829  1
  O2-  O248  1  0.92543066  0.59425019  0.22863193  1
  O2-  O249  1  0.92501786  0.59460543  0.72682169  1
  O2-  O250  1  0.92961771  0.92511874  0.22586967  1
  O2-  O251  1  0.92924140  0.92833216  0.72828270  1
  O2-  O252  1  0.09592375  0.23317303  0.26966528  1
  O2-  O253  1  0.09556442  0.23641219  0.76731283  1
  O2-  O254  1  0.09464675  0.57146988  0.26997164  1
  O2-  O255  1  0.09289519  0.57269153  0.76200662  1
  O2-  O256  1  0.09759576  0.89939681  0.26958478  1
  O2-  O257  1  0.09503717  0.90574002  0.77158826  1
  O2-  O258  1  0.42840577  0.24160197  0.27297347  1
  O2-  O259  1  0.42947299  0.23733400  0.76775724  1
  O2-  O260  1  0.42844152  0.57347732  0.27034140  1
  O2-  O261  1  0.43389377  0.57042720  0.76713872  1
  O2-  O262  1  0.42628872  0.90593180  0.26249722  1
  O2-  O263  1  0.43142952  0.90622724  0.76883462  1
  O2-  O264  1  0.76539186  0.23845588  0.26960468  1
  O2-  O265  1  0.75979936  0.23796250  0.77050585  1
  O2-  O266  1  0.76200787  0.57178299  0.27125928  1
  O2-  O267  1  0.76367124  0.56913993  0.76958850  1
  O2-  O268  1  0.76401480  0.90507775  0.27170376  1
  O2-  O269  1  0.76190167  0.90503199  0.77119280  1
  O2-  O270  1  0.06883325  0.06645376  0.48028827  1
  O2-  O271  1  0.07326585  0.07095396  0.98138066  1
  O2-  O272  1  0.07040309  0.40357451  0.47852653  1
  O2-  O273  1  0.07223803  0.40605394  0.99047854  1
  O2-  O274  1  0.06683914  0.73694605  0.48140577  1
  O2-  O275  1  0.06903784  0.74029594  0.97744466  1
  O2-  O276  1  0.40474744  0.07350630  0.47634825  1
  O2-  O277  1  0.40372141  0.07061756  0.97697512  1
  O2-  O278  1  0.40489624  0.40543513  0.47605028  1
  O2-  O279  1  0.40953209  0.40645975  0.98397669  1
  O2-  O280  1  0.40304948  0.73798926  0.48532810  1
  O2-  O281  1  0.40878854  0.74026913  0.98054563  1
  O2-  O282  1  0.73962164  0.06973318  0.47797413  1
  O2-  O283  1  0.73515972  0.07456152  0.98050337  1
  O2-  O284  1  0.73635104  0.40538598  0.47817256  1
  O2-  O285  1  0.73765204  0.40691934  0.97861012  1
  O2-  O286  1  0.73949190  0.73906751  0.48150930  1
  O2-  O287  1  0.73939585  0.73492193  0.97751118  1
  O2-  O288  1  0.09517621  0.23523114  0.47712713  1
  O2-  O289  1  0.09613947  0.23605172  0.98573729  1
  O2-  O290  1  0.09649383  0.56968100  0.48343286  1
  O2-  O291  1  0.08968922  0.57576201  0.98494544  1
  O2-  O292  1  0.09759214  0.90053500  0.48027280  1
  O2-  O293  1  0.09586267  0.90538972  0.97780948  1
  O2-  O294  1  0.42773816  0.23867544  0.47602964  1
  O2-  O295  1  0.42784177  0.24224967  0.98060041  1
  O2-  O296  1  0.42817960  0.57523554  0.47918286  1
  O2-  O297  1  0.43293571  0.56968495  0.98111765  1
  O2-  O298  1  0.42601896  0.90708136  0.48595225  1
  O2-  O299  1  0.43164632  0.90512904  0.98239712  1
  O2-  O300  1  0.76364414  0.23726128  0.48107851  1
  O2-  O301  1  0.76125081  0.23888061  0.98004707  1
  O2-  O302  1  0.76292867  0.57238613  0.47948079  1
  O2-  O303  1  0.76206883  0.56949094  0.97927222  1
  O2-  O304  1  0.76413878  0.90501985  0.47794944  1
  O2-  O305  1  0.76127059  0.90426869  0.97952970  1
  O2-  O306  1  0.06846188  0.06567950  0.26822918  1
  O2-  O307  1  0.07332144  0.07149153  0.76966356  1
  O2-  O308  1  0.06867465  0.40502341  0.27147014  1
  O2-  O309  1  0.07348107  0.40462303  0.75998587  1
  O2-  O310  1  0.06804964  0.73499412  0.27038094  1
  O2-  O311  1  0.06745687  0.74111635  0.77052450  1
  O2-  O312  1  0.40297153  0.07105802  0.27446250  1
  O2-  O313  1  0.40577412  0.07176587  0.77137376  1
  O2-  O314  1  0.40985394  0.40809176  0.27232715  1
  O2-  O315  1  0.40438824  0.40079004  0.76611351  1
  O2-  O316  1  0.40230674  0.73798473  0.26643878  1
  O2-  O317  1  0.40863257  0.74027750  0.76712510  1
  O2-  O318  1  0.73620522  0.07205477  0.27086296  1
  O2-  O319  1  0.73854573  0.07191169  0.77031600  1
  O2-  O320  1  0.73783653  0.40546939  0.27408344  1
  O2-  O321  1  0.73667481  0.40688627  0.76879428  1
  O2-  O322  1  0.73921834  0.73542846  0.26696692  1
  O2-  O323  1  0.74032152  0.73788349  0.77551183  1
  O2-  O324  1  0.23716685  0.08995567  0.22657416  1
  O2-  O325  1  0.24221873  0.09374404  0.73243870  1
  O2-  O326  1  0.24079380  0.42794891  0.23937480  1
  O2-  O327  1  0.24167866  0.42551778  0.72628345  1
  O2-  O328  1  0.23886556  0.76016019  0.23122951  1
  O2-  O329  1  0.23762518  0.76028610  0.73096851  1
  O2-  O330  1  0.56804300  0.09576934  0.22916369  1
  O2-  O331  1  0.57117022  0.09605995  0.72836617  1
  O2-  O332  1  0.57333605  0.43065516  0.23058466  1
  O2-  O333  1  0.57257303  0.42934463  0.72539063  1
  O2-  O334  1  0.57271216  0.75905203  0.22602950  1
  O2-  O335  1  0.57051520  0.76481954  0.73137505  1
  O2-  O336  1  0.90387883  0.09505286  0.22909477  1
  O2-  O337  1  0.90509276  0.09423112  0.73068554  1
  O2-  O338  1  0.90281471  0.42826186  0.23155819  1
  O2-  O339  1  0.90533208  0.42860135  0.72885469  1
  O2-  O340  1  0.90638391  0.75934132  0.22665899  1
  O2-  O341  1  0.90275254  0.76262213  0.72930395  1
  O2-  O342  1  0.25842298  0.25660753  0.02079975  1
  O2-  O343  1  0.26457554  0.26390190  0.51566819  1
  O2-  O344  1  0.26145736  0.59357118  0.01460315  1
  O2-  O345  1  0.26241129  0.59348181  0.52330340  1
  O2-  O346  1  0.25981034  0.92633288  0.02307494  1
  O2-  O347  1  0.25961069  0.92628893  0.52247260  1
  O2-  O348  1  0.59795253  0.26457933  0.01703969  1
  O2-  O349  1  0.59235125  0.26193675  0.52163761  1
  O2-  O350  1  0.59484011  0.59345618  0.02311932  1
  O2-  O351  1  0.59867316  0.59908635  0.52014048  1
  O2-  O352  1  0.59395119  0.93190778  0.02131784  1
  O2-  O353  1  0.59630224  0.92718876  0.51864642  1
  O2-  O354  1  0.92618194  0.26042241  0.02446954  1
  O2-  O355  1  0.92700756  0.26019285  0.52128981  1
  O2-  O356  1  0.92429585  0.59291669  0.02157826  1
  O2-  O357  1  0.92516842  0.59523155  0.52350701  1
  O2-  O358  1  0.93075030  0.92618855  0.02311180  1
  O2-  O359  1  0.92839901  0.92675081  0.52283130  1
