# generated using pymatgen
data_Sr7Ca15Pr50Mn72O216
_symmetry_space_group_name_H-M   'P 1'
_cell_length_a   16.55957040
_cell_length_b   16.60575090
_cell_length_c   15.59273821
_cell_angle_alpha   90.00400051
_cell_angle_beta   90.00549672
_cell_angle_gamma   90.00774373
_symmetry_Int_Tables_number   1
_chemical_formula_structural   Sr7Ca15Pr50Mn72O216
_chemical_formula_sum   'Sr7 Ca15 Pr50 Mn72 O216'
_cell_volume   4287.75503094
_cell_formula_units_Z   1
loop_
 _symmetry_equiv_pos_site_id
 _symmetry_equiv_pos_as_xyz
  1  'x, y, z'
loop_
 _atom_type_symbol
 _atom_type_oxidation_number
  Sr2+  2.0
  Ca2+  2.0
  Pr3+  3.0
  Mn3.30+  3.3
  O2-  -2.0
loop_
 _atom_site_type_symbol
 _atom_site_label
 _atom_site_symmetry_multiplicity
 _atom_site_fract_x
 _atom_site_fract_y
 _atom_site_fract_z
 _atom_site_occupancy
  Sr2+  Sr0  1  0.16783704  0.49112744  0.87863151  1
  Sr2+  Sr1  1  0.66680950  0.98992955  0.87713187  1
  Sr2+  Sr2  1  0.33718626  0.65317199  0.87863577  1
  Sr2+  Sr3  1  -0.00271582  0.00934382  0.12488959  1
  Sr2+  Sr4  1  0.66829044  0.00667574  0.12347252  1
  Sr2+  Sr5  1  0.16605561  0.49043991  0.37154730  1
  Sr2+  Sr6  1  0.49882680  0.15548609  0.37394165  1
  Ca2+  Ca7  1  0.33053935  0.34855835  0.62470395  1
  Ca2+  Ca8  1  0.83588105  0.84695041  0.12554109  1
  Ca2+  Ca9  1  0.32905112  0.68034223  0.12359641  1
  Ca2+  Ca10  1  0.16892252  0.18019120  0.12541035  1
  Ca2+  Ca11  1  0.66215821  0.34660154  0.12438356  1
  Ca2+  Ca12  1  0.17133391  0.84735904  0.62507895  1
  Ca2+  Ca13  1  0.66273151  0.68137507  0.12504581  1
  Ca2+  Ca14  1  0.17320609  0.51585094  0.12419991  1
  Ca2+  Ca15  1  0.49389367  0.48500649  0.87788352  1
  Ca2+  Ca16  1  0.83591461  0.17739355  0.12418749  1
  Ca2+  Ca17  1  0.16891377  0.84646010  0.12483748  1
  Ca2+  Ca18  1  0.66181653  0.34870716  0.62494366  1
  Ca2+  Ca19  1  0.82955455  0.81933694  0.36844025  1
  Ca2+  Ca20  1  0.17293192  0.18679627  0.62453564  1
  Ca2+  Ca21  1  0.50468277  0.51604878  0.12175234  1
  Pr3+  Pr22  1  1.00149399  0.65470767  0.37273352  1
  Pr3+  Pr23  1  1.00507528  0.32080462  0.87602864  1
  Pr3+  Pr24  1  0.16343861  0.15559202  0.37470295  1
  Pr3+  Pr25  1  0.49738573  0.82034560  0.87836770  1
  Pr3+  Pr26  1  0.66885268  0.32008588  0.37340045  1
  Pr3+  Pr27  1  0.50344568  0.18343680  0.62453590  1
  Pr3+  Pr28  1  0.83313955  0.51101142  0.12473737  1
  Pr3+  Pr29  1  1.00285865  0.98639793  0.87627088  1
  Pr3+  Pr30  1  0.49795407  0.82024131  0.37192132  1
  Pr3+  Pr31  1  0.32996035  0.34709305  0.12577368  1
  Pr3+  Pr32  1  0.33605307  0.98695223  0.37433355  1
  Pr3+  Pr33  1  0.66248406  0.01258250  0.62601023  1
  Pr3+  Pr34  1  0.83088266  0.48713706  0.87721229  1
  Pr3+  Pr35  1  0.83432586  0.51182477  0.62566149  1
  Pr3+  Pr36  1  0.67023789  0.98507417  0.37285652  1
  Pr3+  Pr37  1  0.66367750  0.67823904  0.62560133  1
  Pr3+  Pr38  1  0.49659743  0.15393728  0.87606387  1
  Pr3+  Pr39  1  0.33653916  0.65311624  0.37165563  1
  Pr3+  Pr40  1  0.33636909  0.32040973  0.37567604  1
  Pr3+  Pr41  1  0.49659479  0.48664531  0.37198069  1
  Pr3+  Pr42  1  0.83396391  0.18046028  0.62583766  1
  Pr3+  Pr43  1  1.00117285  0.98558324  0.37385967  1
  Pr3+  Pr44  1  0.82939713  0.48641644  0.37292262  1
  Pr3+  Pr45  1  0.83058439  0.82306774  0.87973597  1
  Pr3+  Pr46  1  0.17157405  0.51028931  0.62537841  1
  Pr3+  Pr47  1  0.50261684  0.84454694  0.62550274  1
  Pr3+  Pr48  1  0.83704293  0.84486781  0.62424209  1
  Pr3+  Pr49  1  0.50533536  0.17887570  0.12535283  1
  Pr3+  Pr50  1  0.32873490  0.67943124  0.62603890  1
  Pr3+  Pr51  1  0.33590169  0.98640620  0.87565335  1
  Pr3+  Pr52  1  0.66989963  0.65374846  0.37153092  1
  Pr3+  Pr53  1  1.00291907  0.32067372  0.37396609  1
  Pr3+  Pr54  1  0.16326042  0.82086174  0.37314565  1
  Pr3+  Pr55  1  0.82989246  0.15368560  0.37284827  1
  Pr3+  Pr56  1  0.00028638  0.67642096  0.62539407  1
  Pr3+  Pr57  1  0.50065842  0.50973315  0.62728990  1
  Pr3+  Pr58  1  0.33624517  0.32577277  0.87403193  1
  Pr3+  Pr59  1  0.66712106  0.32251431  0.87654145  1
  Pr3+  Pr60  1  0.50099148  0.84263886  0.12408172  1
  Pr3+  Pr61  1  0.16420293  0.81990465  0.87704460  1
  Pr3+  Pr62  1  1.00499575  0.65345414  0.87756593  1
  Pr3+  Pr63  1  0.00017573  0.34221254  0.12519263  1
  Pr3+  Pr64  1  0.16396777  0.15603705  0.87533145  1
  Pr3+  Pr65  1  0.66640791  0.65366183  0.87887172  1
  Pr3+  Pr66  1  0.32620076  0.01374907  0.12552497  1
  Pr3+  Pr67  1  0.83120349  0.15336845  0.87695549  1
  Pr3+  Pr68  1  0.32715547  0.01597367  0.62441428  1
  Pr3+  Pr69  1  0.00014858  0.34637526  0.62476856  1
  Pr3+  Pr70  1  -0.00048362  0.67994306  0.12481935  1
  Pr3+  Pr71  1  0.00083043  0.01305736  0.62462396  1
  Mn3.30+  Mn72  1  0.16631918  0.00086644  0.00191001  1
  Mn3.30+  Mn73  1  0.16678414  0.00088656  0.50079075  1
  Mn3.30+  Mn74  1  0.16811819  0.33404442  0.00193117  1
  Mn3.30+  Mn75  1  0.16868473  0.33408043  0.49955472  1
  Mn3.30+  Mn76  1  0.16926787  0.66619254  0.00281758  1
  Mn3.30+  Mn77  1  0.16698926  0.66728520  0.49935991  1
  Mn3.30+  Mn78  1  0.49896039  -0.00033063  0.00120012  1
  Mn3.30+  Mn79  1  0.49871232  -0.00000889  0.49938944  1
  Mn3.30+  Mn80  1  0.50098013  0.33552415  0.00160792  1
  Mn3.30+  Mn81  1  0.50010661  0.33368902  0.50087240  1
  Mn3.30+  Mn82  1  0.49922649  0.66363480  0.00319302  1
  Mn3.30+  Mn83  1  0.49984631  0.66566960  0.49945856  1
  Mn3.30+  Mn84  1  0.83378907  0.00005653  0.00208949  1
  Mn3.30+  Mn85  1  0.83298616  -0.00160145  0.49968791  1
  Mn3.30+  Mn86  1  0.83234628  0.33178877  0.00218923  1
  Mn3.30+  Mn87  1  0.83209237  0.33356760  0.50131065  1
  Mn3.30+  Mn88  1  0.83205938  0.66733964  0.00324874  1
  Mn3.30+  Mn89  1  0.83324373  0.66727501  0.49849971  1
  Mn3.30+  Mn90  1  -0.00104202  0.16562910  0.24772107  1
  Mn3.30+  Mn91  1  0.00216203  0.16695817  0.74793295  1
  Mn3.30+  Mn92  1  0.00173920  0.49986208  0.24732766  1
  Mn3.30+  Mn93  1  0.00122402  0.49940668  0.75131051  1
  Mn3.30+  Mn94  1  -0.00231949  0.83352167  0.24934340  1
  Mn3.30+  Mn95  1  0.00221710  0.83289090  0.74831091  1
  Mn3.30+  Mn96  1  0.33284018  0.16714282  0.24957712  1
  Mn3.30+  Mn97  1  0.33161003  0.16988076  0.74843651  1
  Mn3.30+  Mn98  1  0.33391554  0.50139210  0.24605725  1
  Mn3.30+  Mn99  1  0.33531673  0.49916548  0.75212753  1
  Mn3.30+  Mn100  1  0.33067500  0.83203029  0.24830682  1
  Mn3.30+  Mn101  1  0.33223886  0.83286925  0.74974081  1
  Mn3.30+  Mn102  1  0.66785090  0.16607922  0.24676457  1
  Mn3.30+  Mn103  1  0.66619219  0.16812712  0.75042224  1
  Mn3.30+  Mn104  1  0.66372066  0.49939431  0.24586325  1
  Mn3.30+  Mn105  1  0.66465334  0.49895883  0.75260493  1
  Mn3.30+  Mn106  1  0.66838971  0.83177022  0.24702997  1
  Mn3.30+  Mn107  1  0.66735768  0.83285893  0.75173421  1
  Mn3.30+  Mn108  1  0.16575621  0.00065950  0.24859328  1
  Mn3.30+  Mn109  1  0.16731189  0.00091696  0.74894388  1
  Mn3.30+  Mn110  1  0.16714155  0.33366210  0.24896263  1
  Mn3.30+  Mn111  1  0.16946156  0.33432003  0.74958882  1
  Mn3.30+  Mn112  1  0.16852887  0.66709279  0.24730363  1
  Mn3.30+  Mn113  1  0.16761746  0.66672475  0.75129362  1
  Mn3.30+  Mn114  1  0.50011403  -0.00026658  0.24925233  1
  Mn3.30+  Mn115  1  0.49777608  -0.00023743  0.74994540  1
  Mn3.30+  Mn116  1  0.50083803  0.33404536  0.24755580  1
  Mn3.30+  Mn117  1  0.50036921  0.33473156  0.74948064  1
  Mn3.30+  Mn118  1  0.50076981  0.66494550  0.24542946  1
  Mn3.30+  Mn119  1  0.49822156  0.66452970  0.75174569  1
  Mn3.30+  Mn120  1  0.83427177  -0.00119868  0.24831571  1
  Mn3.30+  Mn121  1  0.83305539  -0.00049750  0.74956500  1
  Mn3.30+  Mn122  1  0.83186780  0.33158457  0.24616728  1
  Mn3.30+  Mn123  1  0.83245335  0.33386322  0.75014304  1
  Mn3.30+  Mn124  1  0.83196131  0.66819108  0.24663313  1
  Mn3.30+  Mn125  1  0.83350776  0.66661561  0.75227247  1
  Mn3.30+  Mn126  1  0.00002473  0.16584989  0.00271787  1
  Mn3.30+  Mn127  1  0.00111214  0.16695775  0.50167931  1
  Mn3.30+  Mn128  1  0.00242560  0.49927656  0.00312389  1
  Mn3.30+  Mn129  1  0.00059212  0.49987371  0.49858262  1
  Mn3.30+  Mn130  1  -0.00060385  0.83387828  0.00247869  1
  Mn3.30+  Mn131  1  0.00067556  0.83228832  0.50010090  1
  Mn3.30+  Mn132  1  0.33195605  0.16826702  0.00074188  1
  Mn3.30+  Mn133  1  0.33251683  0.16869077  0.50124974  1
  Mn3.30+  Mn134  1  0.33620803  0.50115835  0.00303777  1
  Mn3.30+  Mn135  1  0.33362319  0.49897657  0.49911252  1
  Mn3.30+  Mn136  1  0.33096369  0.83146183  0.00199112  1
  Mn3.30+  Mn137  1  0.33216113  0.83316640  0.50014155  1
  Mn3.30+  Mn138  1  0.66816504  0.16692796  0.00265775  1
  Mn3.30+  Mn139  1  0.66592204  0.16706717  0.49937604  1
  Mn3.30+  Mn140  1  0.66262779  0.49947012  0.00122658  1
  Mn3.30+  Mn141  1  0.66570658  0.49889882  0.50030006  1
  Mn3.30+  Mn142  1  0.66692456  0.83262602  0.00230253  1
  Mn3.30+  Mn143  1  0.66872794  0.83211140  0.49863679  1
  O2-  O144  1  0.02688884  0.16605487  0.12580745  1
  O2-  O145  1  0.02994968  0.16058937  0.62527780  1
  O2-  O146  1  0.02812523  0.49200056  0.12540158  1
  O2-  O147  1  0.02514565  0.49592753  0.62500098  1
  O2-  O148  1  0.02697935  0.82825596  0.12559176  1
  O2-  O149  1  0.03016865  0.82491260  0.62445088  1
  O2-  O150  1  0.36001668  0.16122888  0.12508492  1
  O2-  O151  1  0.36074816  0.16068565  0.62534786  1
  O2-  O152  1  0.36425509  0.49208170  0.12559878  1
  O2-  O153  1  0.35663325  0.49709222  0.62501421  1
  O2-  O154  1  0.35634225  0.83084054  0.12611205  1
  O2-  O155  1  0.35897245  0.82783785  0.62384297  1
  O2-  O156  1  0.69341416  0.16142627  0.12461812  1
  O2-  O157  1  0.69061841  0.15941497  0.62494251  1
  O2-  O158  1  0.69204686  0.48995788  0.12384773  1
  O2-  O159  1  0.69166725  0.49572513  0.62808075  1
  O2-  O160  1  0.69270699  0.82674285  0.12525112  1
  O2-  O161  1  0.69274244  0.82630734  0.62561636  1
  O2-  O162  1  0.14337338  0.32337787  0.12531732  1
  O2-  O163  1  0.14298751  0.33194063  0.62301720  1
  O2-  O164  1  0.14284465  0.66101648  0.12564645  1
  O2-  O165  1  0.14429038  0.65818797  0.62532841  1
  O2-  O166  1  0.14746460  0.99106167  0.12561996  1
  O2-  O167  1  0.14290096  0.99000893  0.62474628  1
  O2-  O168  1  0.47394520  0.32377436  0.12514673  1
  O2-  O169  1  0.47380753  0.33045744  0.62584515  1
  O2-  O170  1  0.47163852  0.66256744  0.12536622  1
  O2-  O171  1  0.47372832  0.65958262  0.62643970  1
  O2-  O172  1  0.47190558  0.99373010  0.12448969  1
  O2-  O173  1  0.47287274  0.99180619  0.62506371  1
  O2-  O174  1  0.80514876  0.32533865  0.12326513  1
  O2-  O175  1  0.80479251  0.32886208  0.62658244  1
  O2-  O176  1  0.80300839  0.65640057  0.12467565  1
  O2-  O177  1  0.80711497  0.65975189  0.62798993  1
  O2-  O178  1  0.81678210  0.99143943  0.12568472  1
  O2-  O179  1  0.80628897  0.99207524  0.62369262  1
  O2-  O180  1  0.30786869  0.17201719  0.37570002  1
  O2-  O181  1  0.30791836  0.17496630  0.87393808  1
  O2-  O182  1  0.31514418  0.50550482  0.37185978  1
  O2-  O183  1  0.31603947  0.49534218  0.87751689  1
  O2-  O184  1  0.30776282  0.83745854  0.37504873  1
  O2-  O185  1  0.30838833  0.83798049  0.87558532  1
  O2-  O186  1  0.64802619  0.17238575  0.37377249  1
  O2-  O187  1  0.64089426  0.17381976  0.87547179  1
  O2-  O188  1  0.64116470  0.50577708  0.37125564  1
  O2-  O189  1  0.63658685  0.50641937  0.87684888  1
  O2-  O190  1  0.64150980  0.83604169  0.37344588  1
  O2-  O191  1  0.64210042  0.83342106  0.87566873  1
  O2-  O192  1  0.97409519  0.17242608  0.37672339  1
  O2-  O193  1  0.97601311  0.17234633  0.87245851  1
  O2-  O194  1  0.97371243  0.50462678  0.37177622  1
  O2-  O195  1  0.97554673  0.50388910  0.87817516  1
  O2-  O196  1  0.97217212  0.83583724  0.37646791  1
  O2-  O197  1  0.97521071  0.83640446  0.87368570  1
  O2-  O198  1  0.19226256  0.00797679  0.37557041  1
  O2-  O199  1  0.19235223  0.00863165  0.87433116  1
  O2-  O200  1  0.19168316  0.33514678  0.37463587  1
  O2-  O201  1  0.19117672  0.33458102  0.87716273  1
  O2-  O202  1  0.19205828  0.67367667  0.37259103  1
  O2-  O203  1  0.18627369  0.67266051  0.87708084  1
  O2-  O204  1  0.52447859  -0.00040450  0.37502353  1
  O2-  O205  1  0.51616739  0.00522083  0.87509658  1
  O2-  O206  1  0.52519943  0.33890989  0.37284546  1
  O2-  O207  1  0.52354431  0.33817451  0.87560833  1
  O2-  O208  1  0.52567384  0.67172243  0.37217502  1
  O2-  O209  1  0.52360008  0.67448397  0.87616241  1
  O2-  O210  1  0.85788983  0.00775171  0.37691626  1
  O2-  O211  1  0.85858988  0.00436197  0.87341665  1
  O2-  O212  1  0.85843144  0.33875961  0.37446195  1
  O2-  O213  1  0.86104969  0.33933911  0.87549131  1
  O2-  O214  1  0.85781668  0.67134046  0.37102978  1
  O2-  O215  1  0.86105327  0.67311759  0.87682040  1
  O2-  O216  1  0.23656428  0.09677856  0.02099544  1
  O2-  O217  1  0.23700211  0.09944247  0.52254590  1
  O2-  O218  1  0.24031018  0.42781416  0.02470931  1
  O2-  O219  1  0.23811028  0.42901908  0.51834975  1
  O2-  O220  1  0.23577354  0.76524124  0.01890872  1
  O2-  O221  1  0.23814444  0.76280017  0.52125731  1
  O2-  O222  1  0.56913109  0.09603161  0.01583794  1
  O2-  O223  1  0.57105097  0.09262717  0.52306692  1
  O2-  O224  1  0.57025130  0.42848237  0.02131250  1
  O2-  O225  1  0.57098539  0.43016608  0.51792501  1
  O2-  O226  1  0.57096500  0.75981262  0.01916379  1
  O2-  O227  1  0.57144153  0.76032029  0.52034689  1
  O2-  O228  1  0.90418209  0.09760417  0.01568353  1
  O2-  O229  1  0.90433554  0.09352959  0.52335790  1
  O2-  O230  1  0.90452744  0.42618990  0.02230153  1
  O2-  O231  1  0.90406098  0.42757783  0.52104083  1
  O2-  O232  1  0.90386773  0.76045128  0.02333737  1
  O2-  O233  1  0.90915503  0.75832028  0.52486110  1
  O2-  O234  1  0.26289062  0.26236468  0.23336925  1
  O2-  O235  1  0.26564614  0.26538819  0.72954850  1
  O2-  O236  1  0.26626060  0.59839579  0.23102043  1
  O2-  O237  1  0.26160709  0.59319556  0.73055951  1
  O2-  O238  1  0.26296152  0.93124388  0.23563616  1
  O2-  O239  1  0.26350106  0.93193541  0.73343938  1
  O2-  O240  1  0.59575305  0.26244371  0.22886893  1
  O2-  O241  1  0.59494210  0.26280907  0.72888253  1
  O2-  O242  1  0.59845587  0.59737709  0.22914234  1
  O2-  O243  1  0.59510952  0.59453147  0.72953537  1
  O2-  O244  1  0.59167446  0.92276924  0.23154280  1
  O2-  O245  1  0.59366538  0.92519947  0.72794860  1
  O2-  O246  1  0.92869846  0.26216245  0.23199747  1
  O2-  O247  1  0.92949345  0.25921224  0.72694395  1
  O2-  O248  1  0.92599834  0.59353416  0.22681385  1
  O2-  O249  1  0.92658491  0.59323405  0.73060094  1
  O2-  O250  1  0.92882504  0.92745936  0.23759137  1
  O2-  O251  1  0.93063696  0.92674224  0.72723126  1
  O2-  O252  1  0.09143455  0.23899419  0.27261574  1
  O2-  O253  1  0.09538285  0.24029670  0.77008495  1
  O2-  O254  1  0.09110577  0.57840737  0.26822463  1
  O2-  O255  1  0.09098752  0.57408756  0.76794532  1
  O2-  O256  1  0.09335753  0.90743977  0.27396832  1
  O2-  O257  1  0.09339494  0.90560443  0.77364545  1
  O2-  O258  1  0.42583212  0.24066781  0.26777886  1
  O2-  O259  1  0.43011215  0.23833506  0.77024391  1
  O2-  O260  1  0.42965926  0.57350536  0.27134263  1
  O2-  O261  1  0.43200993  0.56782463  0.76764908  1
  O2-  O262  1  0.42556245  0.90392485  0.27014761  1
  O2-  O263  1  0.42769084  0.90398570  0.77046900  1
  O2-  O264  1  0.76122908  0.23993410  0.27208462  1
  O2-  O265  1  0.76333894  0.24043911  0.77186908  1
  O2-  O266  1  0.76155448  0.57066344  0.26987224  1
  O2-  O267  1  0.75928054  0.57139468  0.77381224  1
  O2-  O268  1  0.75960707  0.90664488  0.27192124  1
  O2-  O269  1  0.76550585  0.90248774  0.76753773  1
  O2-  O270  1  0.07057805  0.07125383  0.47948995  1
  O2-  O271  1  0.07253284  0.07317338  0.97708157  1
  O2-  O272  1  0.06911855  0.40334953  0.48284812  1
  O2-  O273  1  0.07098041  0.40141798  0.98375762  1
  O2-  O274  1  0.07138449  0.73874728  0.47745213  1
  O2-  O275  1  0.06934283  0.74025673  0.98163212  1
  O2-  O276  1  0.40033368  0.07004963  0.48328395  1
  O2-  O277  1  0.40160157  0.07410284  0.98033959  1
  O2-  O278  1  0.40723280  0.40671276  0.47811750  1
  O2-  O279  1  0.40363533  0.40093262  0.98476448  1
  O2-  O280  1  0.40565205  0.73707025  0.47952002  1
  O2-  O281  1  0.40895604  0.74209201  0.98381403  1
  O2-  O282  1  0.73673244  0.07055236  0.48062212  1
  O2-  O283  1  0.74296007  0.07582712  0.97990360  1
  O2-  O284  1  0.73836005  0.40647453  0.47712995  1
  O2-  O285  1  0.73918887  0.40838495  0.97661812  1
  O2-  O286  1  0.73716372  0.73565879  0.48210411  1
  O2-  O287  1  0.74057048  0.73930669  0.97698473  1
  O2-  O288  1  0.09492841  0.24115794  0.47894329  1
  O2-  O289  1  0.09329758  0.23912923  0.97859378  1
  O2-  O290  1  0.09115941  0.57514715  0.48139019  1
  O2-  O291  1  0.09077842  0.57680059  0.98382863  1
  O2-  O292  1  0.09206726  0.90578819  0.47595051  1
  O2-  O293  1  0.09467629  0.90761804  0.97658185  1
  O2-  O294  1  0.42710181  0.23948320  0.48248365  1
  O2-  O295  1  0.42910702  0.23876082  0.97945935  1
  O2-  O296  1  0.42927072  0.57206765  0.47968116  1
  O2-  O297  1  0.43399807  0.56853844  0.98192726  1
  O2-  O298  1  0.42870943  0.90320781  0.47930118  1
  O2-  O299  1  0.42430420  0.90513962  0.98005723  1
  O2-  O300  1  0.76389472  0.23860261  0.48089192  1
  O2-  O301  1  0.76065794  0.24205036  0.97424551  1
  O2-  O302  1  0.76056183  0.57048276  0.47971271  1
  O2-  O303  1  0.76127177  0.57169479  0.97804827  1
  O2-  O304  1  0.76385651  0.90282875  0.47723216  1
  O2-  O305  1  0.76104873  0.90604162  0.98261221  1
  O2-  O306  1  0.07191366  0.07293165  0.27370652  1
  O2-  O307  1  0.07099314  0.07152077  0.77020761  1
  O2-  O308  1  0.06937414  0.40241484  0.26724141  1
  O2-  O309  1  0.06968360  0.40325080  0.76598044  1
  O2-  O310  1  0.06949024  0.74033451  0.27032756  1
  O2-  O311  1  0.07130226  0.73847514  0.77096037  1
  O2-  O312  1  0.40170335  0.07040474  0.26707962  1
  O2-  O313  1  0.40121818  0.07370056  0.76922126  1
  O2-  O314  1  0.40492520  0.40456419  0.27018089  1
  O2-  O315  1  0.40675729  0.40446419  0.76713137  1
  O2-  O316  1  0.40575835  0.74027940  0.27108986  1
  O2-  O317  1  0.40773247  0.73918311  0.76683902  1
  O2-  O318  1  0.74021081  0.07133872  0.27182997  1
  O2-  O319  1  0.74022735  0.07537817  0.76682265  1
  O2-  O320  1  0.73867593  0.40612222  0.27114038  1
  O2-  O321  1  0.73840665  0.40903347  0.77581326  1
  O2-  O322  1  0.73795353  0.73791752  0.27020114  1
  O2-  O323  1  0.73971223  0.73789719  0.77219388  1
  O2-  O324  1  0.23680938  0.09696541  0.22939816  1
  O2-  O325  1  0.23701639  0.09959282  0.72721184  1
  O2-  O326  1  0.24079900  0.42990438  0.22625742  1
  O2-  O327  1  0.23931596  0.42926854  0.73141402  1
  O2-  O328  1  0.23478104  0.76629789  0.23144702  1
  O2-  O329  1  0.23857753  0.76310157  0.72895535  1
  O2-  O330  1  0.57272033  0.09479595  0.23016689  1
  O2-  O331  1  0.56939569  0.09426610  0.72999949  1
  O2-  O332  1  0.56808081  0.43180510  0.23039169  1
  O2-  O333  1  0.57297542  0.42712752  0.72904935  1
  O2-  O334  1  0.56912920  0.76085541  0.23036307  1
  O2-  O335  1  0.57236108  0.75861701  0.72899863  1
  O2-  O336  1  0.90254326  0.09810072  0.23384330  1
  O2-  O337  1  0.90661338  0.09382863  0.72716602  1
  O2-  O338  1  0.90297852  0.42563386  0.22762600  1
  O2-  O339  1  0.90478481  0.42743206  0.72913645  1
  O2-  O340  1  0.90477576  0.75911196  0.22429099  1
  O2-  O341  1  0.90843095  0.76100326  0.72744391  1
  O2-  O342  1  0.26397738  0.26254195  0.01883662  1
  O2-  O343  1  0.26463065  0.26534575  0.51844008  1
  O2-  O344  1  0.26538753  0.59386911  0.02140287  1
  O2-  O345  1  0.26214082  0.59521270  0.51828121  1
  O2-  O346  1  0.26285583  0.93153491  0.01477403  1
  O2-  O347  1  0.26299025  0.93164035  0.51664925  1
  O2-  O348  1  0.59491842  0.26271632  0.02081141  1
  O2-  O349  1  0.59539294  0.26271112  0.52053386  1
  O2-  O350  1  0.59950968  0.59806442  0.02060909  1
  O2-  O351  1  0.59472221  0.59451288  0.52047565  1
  O2-  O352  1  0.58824399  0.92150705  0.01845514  1
  O2-  O353  1  0.59650853  0.92632039  0.52038258  1
  O2-  O354  1  0.92959864  0.26142210  0.01764665  1
  O2-  O355  1  0.92801499  0.26049824  0.52321764  1
  O2-  O356  1  0.92581607  0.59413986  0.02256612  1
  O2-  O357  1  0.92628218  0.59358516  0.52001288  1
  O2-  O358  1  0.92857135  0.92659063  0.01137881  1
  O2-  O359  1  0.93031823  0.92649746  0.52332956  1
