# generated using pymatgen
data_Sr7Ca15Pr50Mn72O216
_symmetry_space_group_name_H-M   'P 1'
_cell_length_a   16.55467470
_cell_length_b   16.59958242
_cell_length_c   15.58828585
_cell_angle_alpha   90.00713075
_cell_angle_beta   89.99903493
_cell_angle_gamma   89.99484549
_symmetry_Int_Tables_number   1
_chemical_formula_structural   Sr7Ca15Pr50Mn72O216
_chemical_formula_sum   'Sr7 Ca15 Pr50 Mn72 O216'
_cell_volume   4283.67161054
_cell_formula_units_Z   1
loop_
 _symmetry_equiv_pos_site_id
 _symmetry_equiv_pos_as_xyz
  1  'x, y, z'
loop_
 _atom_type_symbol
 _atom_type_oxidation_number
  Sr2+  2.0
  Ca2+  2.0
  Pr3+  3.0
  Mn3.30+  3.3
  O2-  -2.0
loop_
 _atom_site_type_symbol
 _atom_site_label
 _atom_site_symmetry_multiplicity
 _atom_site_fract_x
 _atom_site_fract_y
 _atom_site_fract_z
 _atom_site_occupancy
  Sr2+  Sr0  1  1.00223456  0.32432203  0.87403726  1
  Sr2+  Sr1  1  0.50073606  0.17890434  0.12716945  1
  Sr2+  Sr2  1  1.00029573  0.99047267  0.37554589  1
  Sr2+  Sr3  1  0.16939966  0.17655321  0.62222874  1
  Sr2+  Sr4  1  0.17169597  0.17847433  0.12771233  1
  Sr2+  Sr5  1  1.00195661  0.65685925  0.87553202  1
  Sr2+  Sr6  1  0.66445822  0.34583636  0.62217635  1
  Ca2+  Ca7  1  0.50466182  0.84935312  0.12671651  1
  Ca2+  Ca8  1  0.16723976  0.84614472  0.62510227  1
  Ca2+  Ca9  1  0.83062910  0.82104529  0.37745664  1
  Ca2+  Ca10  1  0.66789692  0.31717271  0.37548448  1
  Ca2+  Ca11  1  0.50243137  0.51314101  0.62365427  1
  Ca2+  Ca12  1  0.83674202  0.18143420  0.12778453  1
  Ca2+  Ca13  1  0.83719336  0.84769621  0.62268332  1
  Ca2+  Ca14  1  0.83748519  0.51457900  0.62334268  1
  Ca2+  Ca15  1  0.50049509  0.15434857  0.37405361  1
  Ca2+  Ca16  1  0.99959121  0.65459852  0.37612257  1
  Ca2+  Ca17  1  0.33930253  0.31572462  0.37572926  1
  Ca2+  Ca18  1  0.33092467  0.34641826  0.62154308  1
  Ca2+  Ca19  1  0.67299303  0.98411215  0.37391381  1
  Ca2+  Ca20  1  0.16059290  0.81786194  0.87283501  1
  Ca2+  Ca21  1  0.33124298  0.34492878  0.12864671  1
  Pr3+  Pr22  1  0.16547354  0.15304753  0.37487031  1
  Pr3+  Pr23  1  -0.00227568  0.67856788  0.12640017  1
  Pr3+  Pr24  1  0.49639886  0.48481171  0.37832094  1
  Pr3+  Pr25  1  0.66927639  0.65606970  0.37583998  1
  Pr3+  Pr26  1  0.66717783  0.67668482  0.62334292  1
  Pr3+  Pr27  1  -0.00493803  0.34850919  0.62420189  1
  Pr3+  Pr28  1  0.83599012  0.51141271  0.12650203  1
  Pr3+  Pr29  1  0.50230158  0.84579867  0.62412182  1
  Pr3+  Pr30  1  0.16713459  0.84547015  0.12364142  1
  Pr3+  Pr31  1  0.66123810  0.68156886  0.12612480  1
  Pr3+  Pr32  1  0.83636945  0.84589366  0.12614510  1
  Pr3+  Pr33  1  0.66976506  0.32104996  0.87373633  1
  Pr3+  Pr34  1  0.83248634  0.15521147  0.87575810  1
  Pr3+  Pr35  1  0.33365790  0.98910713  0.87565344  1
  Pr3+  Pr36  1  0.67004050  0.65175463  0.87384280  1
  Pr3+  Pr37  1  0.33010941  0.67923082  0.12614707  1
  Pr3+  Pr38  1  0.83141349  0.81875743  0.87273672  1
  Pr3+  Pr39  1  0.49999756  0.50751479  0.12604957  1
  Pr3+  Pr40  1  0.49848730  0.82291485  0.37370923  1
  Pr3+  Pr41  1  0.49811318  0.15519026  0.87536861  1
  Pr3+  Pr42  1  0.16762727  0.51082016  0.62540158  1
  Pr3+  Pr43  1  0.66268159  0.01455330  0.12701007  1
  Pr3+  Pr44  1  0.50252206  0.18008809  0.62265998  1
  Pr3+  Pr45  1  0.82800493  0.15149733  0.37412438  1
  Pr3+  Pr46  1  0.33507324  0.32154515  0.87400624  1
  Pr3+  Pr47  1  0.67009668  0.98728586  0.87531961  1
  Pr3+  Pr48  1  0.15985482  0.82077196  0.37668129  1
  Pr3+  Pr49  1  0.33320214  0.65381365  0.87371836  1
  Pr3+  Pr50  1  1.00570013  0.98617482  0.87515103  1
  Pr3+  Pr51  1  0.49622049  0.82027215  0.87586428  1
  Pr3+  Pr52  1  -0.00122834  0.34385499  0.12555900  1
  Pr3+  Pr53  1  0.32940870  0.01252876  0.62342512  1
  Pr3+  Pr54  1  1.00328582  0.32019153  0.37582850  1
  Pr3+  Pr55  1  0.16952227  0.50871009  0.12479202  1
  Pr3+  Pr56  1  0.49773015  0.48715679  0.87191376  1
  Pr3+  Pr57  1  0.66327960  0.34313706  0.12805023  1
  Pr3+  Pr58  1  0.82838884  0.48628903  0.37756510  1
  Pr3+  Pr59  1  0.16244942  0.15695881  0.87549057  1
  Pr3+  Pr60  1  0.33562837  0.99189135  0.37396387  1
  Pr3+  Pr61  1  0.66583797  0.01167238  0.62242944  1
  Pr3+  Pr62  1  0.83713417  0.17818034  0.62281817  1
  Pr3+  Pr63  1  0.83196349  0.48727776  0.87258284  1
  Pr3+  Pr64  1  0.33415117  0.01380636  0.12644431  1
  Pr3+  Pr65  1  0.16244996  0.48580302  0.87341709  1
  Pr3+  Pr66  1  0.33633352  0.65378390  0.37606135  1
  Pr3+  Pr67  1  -0.00123448  0.01012590  0.62346444  1
  Pr3+  Pr68  1  -0.00609618  0.68162264  0.62432849  1
  Pr3+  Pr69  1  0.32820281  0.68106450  0.62380941  1
  Pr3+  Pr70  1  0.16518639  0.48681214  0.37646148  1
  Pr3+  Pr71  1  -0.00462511  0.01694213  0.12707759  1
  Mn3.30+  Mn72  1  0.16697862  -0.00000159  0.00054653  1
  Mn3.30+  Mn73  1  0.16663022  -0.00204993  0.50024926  1
  Mn3.30+  Mn74  1  0.16835067  0.33276202  0.00178862  1
  Mn3.30+  Mn75  1  0.17063617  0.33233346  0.49967581  1
  Mn3.30+  Mn76  1  0.16605806  0.66700045  -0.00053168  1
  Mn3.30+  Mn77  1  0.16353517  0.66725257  0.50016417  1
  Mn3.30+  Mn78  1  0.50096422  -0.00026526  0.00090449  1
  Mn3.30+  Mn79  1  0.50225246  0.00112445  0.49670000  1
  Mn3.30+  Mn80  1  0.49915979  0.33329867  0.00154352  1
  Mn3.30+  Mn81  1  0.49928697  0.33261606  0.49931535  1
  Mn3.30+  Mn82  1  0.49921194  0.66678265  0.00062509  1
  Mn3.30+  Mn83  1  0.50004259  0.66612683  0.50132302  1
  Mn3.30+  Mn84  1  0.83410288  0.00100483  0.00098183  1
  Mn3.30+  Mn85  1  0.83174809  -0.00341147  0.49849112  1
  Mn3.30+  Mn86  1  0.83337746  0.33216455  0.00083114  1
  Mn3.30+  Mn87  1  0.83096703  0.33387729  0.49962168  1
  Mn3.30+  Mn88  1  0.83251895  0.66582703  0.00068122  1
  Mn3.30+  Mn89  1  0.83434802  0.66795778  0.49874569  1
  Mn3.30+  Mn90  1  -0.00113938  0.16765994  0.24981039  1
  Mn3.30+  Mn91  1  0.00084599  0.16747397  0.74946225  1
  Mn3.30+  Mn92  1  -0.00030761  0.50066210  0.25264192  1
  Mn3.30+  Mn93  1  -0.00069310  0.50162756  0.74900321  1
  Mn3.30+  Mn94  1  -0.00197287  0.83303568  0.25331353  1
  Mn3.30+  Mn95  1  0.00116484  0.83343793  0.74802120  1
  Mn3.30+  Mn96  1  0.33602720  0.16939254  0.25129098  1
  Mn3.30+  Mn97  1  0.33239455  0.16832367  0.74875932  1
  Mn3.30+  Mn98  1  0.33382010  0.49671137  0.25211885  1
  Mn3.30+  Mn99  1  0.33394716  0.49902331  0.74619783  1
  Mn3.30+  Mn100  1  0.33369898  0.83416363  0.24869787  1
  Mn3.30+  Mn101  1  0.32956555  0.83379999  0.75117255  1
  Mn3.30+  Mn102  1  0.66607048  0.16662913  0.25192288  1
  Mn3.30+  Mn103  1  0.66691937  0.16687756  0.74873505  1
  Mn3.30+  Mn104  1  0.66616518  0.49858471  0.25225252  1
  Mn3.30+  Mn105  1  0.66620227  0.49927175  0.74505123  1
  Mn3.30+  Mn106  1  0.66729841  0.83445407  0.25102239  1
  Mn3.30+  Mn107  1  0.66784263  0.83278101  0.74784441  1
  Mn3.30+  Mn108  1  0.16619189  -0.00042988  0.24944635  1
  Mn3.30+  Mn109  1  0.16716704  -0.00191135  0.75024352  1
  Mn3.30+  Mn110  1  0.17091204  0.33280745  0.25250943  1
  Mn3.30+  Mn111  1  0.16784586  0.33229681  0.74614892  1
  Mn3.30+  Mn112  1  0.16497438  0.66575218  0.25174230  1
  Mn3.30+  Mn113  1  0.16451447  0.66912663  0.74838885  1
  Mn3.30+  Mn114  1  0.50358830  0.00122456  0.25258701  1
  Mn3.30+  Mn115  1  0.49971348  0.00001437  0.74956859  1
  Mn3.30+  Mn116  1  0.49867855  0.33120019  0.25330423  1
  Mn3.30+  Mn117  1  0.49960556  0.33482845  0.74605610  1
  Mn3.30+  Mn118  1  0.49958854  0.66702303  0.24955379  1
  Mn3.30+  Mn119  1  0.49950342  0.66581926  0.74831471  1
  Mn3.30+  Mn120  1  0.83103592  -0.00145695  0.25130637  1
  Mn3.30+  Mn121  1  0.83477160  -0.00118271  0.74957311  1
  Mn3.30+  Mn122  1  0.83138389  0.33175107  0.25150757  1
  Mn3.30+  Mn123  1  0.83310558  0.33445246  0.74778626  1
  Mn3.30+  Mn124  1  0.83322415  0.66779189  0.25248554  1
  Mn3.30+  Mn125  1  0.83360588  0.66577591  0.74814463  1
  Mn3.30+  Mn126  1  -0.00098574  0.16871921  0.00159258  1
  Mn3.30+  Mn127  1  0.00088716  0.16627425  0.49985256  1
  Mn3.30+  Mn128  1  0.00088702  0.49977071  0.00028189  1
  Mn3.30+  Mn129  1  -0.00173397  0.50235893  0.49837825  1
  Mn3.30+  Mn130  1  0.00141886  0.83307294  -0.00001426  1
  Mn3.30+  Mn131  1  -0.00259735  0.83321321  0.49906833  1
  Mn3.30+  Mn132  1  0.33264510  0.16910970  0.00169929  1
  Mn3.30+  Mn133  1  0.33620784  0.16881997  0.49838006  1
  Mn3.30+  Mn134  1  0.33338616  0.49857105  -0.00023782  1
  Mn3.30+  Mn135  1  0.33445746  0.49713649  0.50194413  1
  Mn3.30+  Mn136  1  0.33277435  0.83329160  0.00022343  1
  Mn3.30+  Mn137  1  0.33096057  0.83430349  0.49944099  1
  Mn3.30+  Mn138  1  0.66772328  0.16741443  0.00232765  1
  Mn3.30+  Mn139  1  0.66547288  0.16651543  0.49721716  1
  Mn3.30+  Mn140  1  0.66673982  0.49886196  0.00058798  1
  Mn3.30+  Mn141  1  0.66534751  0.49876553  0.50151638  1
  Mn3.30+  Mn142  1  0.66543744  0.83349102  0.00025754  1
  Mn3.30+  Mn143  1  0.66949526  0.83398516  0.49995080  1
  O2-  O144  1  0.02078498  0.16541093  0.12694194  1
  O2-  O145  1  0.01838260  0.15952730  0.62469485  1
  O2-  O146  1  0.02417136  0.49370625  0.12799432  1
  O2-  O147  1  0.02303351  0.49674385  0.62176473  1
  O2-  O148  1  0.02326987  0.82693601  0.12695091  1
  O2-  O149  1  0.02559348  0.82935114  0.62412862  1
  O2-  O150  1  0.35305828  0.16058042  0.12597556  1
  O2-  O151  1  0.35945886  0.15777989  0.62347005  1
  O2-  O152  1  0.35651140  0.49264901  0.12739614  1
  O2-  O153  1  0.36041029  0.49325433  0.62456161  1
  O2-  O154  1  0.36255867  0.82633271  0.12409420  1
  O2-  O155  1  0.35887111  0.82973347  0.62498553  1
  O2-  O156  1  0.69442395  0.16273488  0.12517913  1
  O2-  O157  1  0.69279058  0.15926550  0.62384251  1
  O2-  O158  1  0.69213400  0.49177376  0.12849614  1
  O2-  O159  1  0.69473327  0.50130628  0.62333650  1
  O2-  O160  1  0.69265914  0.82856698  0.12536782  1
  O2-  O161  1  0.69420843  0.82647122  0.62523257  1
  O2-  O162  1  0.14327562  0.33649896  0.12902048  1
  O2-  O163  1  0.14007479  0.33246066  0.62227429  1
  O2-  O164  1  0.14179578  0.65824319  0.12823650  1
  O2-  O165  1  0.13837911  0.65800609  0.62368028  1
  O2-  O166  1  0.14061311  0.99359680  0.12537300  1
  O2-  O167  1  0.14381176  0.99313758  0.62707092  1
  O2-  O168  1  0.47479515  0.33596990  0.12791377  1
  O2-  O169  1  0.47172179  0.32492781  0.62366618  1
  O2-  O170  1  0.47351288  0.65616568  0.12472084  1
  O2-  O171  1  0.47299015  0.66312592  0.62491085  1
  O2-  O172  1  0.47812402  0.99345747  0.12501897  1
  O2-  O173  1  0.47357393  0.99381953  0.62459608  1
  O2-  O174  1  0.80739114  0.32905509  0.12803155  1
  O2-  O175  1  0.81365132  0.32496721  0.62369035  1
  O2-  O176  1  0.80586291  0.66029324  0.12616164  1
  O2-  O177  1  0.80980570  0.65844755  0.62411247  1
  O2-  O178  1  0.80598699  0.99108860  0.12466927  1
  O2-  O179  1  0.80888458  0.99437397  0.62318235  1
  O2-  O180  1  0.30884917  0.16868092  0.37495689  1
  O2-  O181  1  0.30720100  0.17329503  0.87568397  1
  O2-  O182  1  0.30826131  0.50881324  0.37708857  1
  O2-  O183  1  0.30702144  0.50606137  0.87110230  1
  O2-  O184  1  0.30524572  0.84116088  0.37363213  1
  O2-  O185  1  0.30329724  0.84000935  0.87652665  1
  O2-  O186  1  0.64191246  0.17363975  0.37587998  1
  O2-  O187  1  0.64268720  0.17188831  0.87478680  1
  O2-  O188  1  0.64023869  0.50989415  0.37559125  1
  O2-  O189  1  0.64219960  0.50376635  0.87243321  1
  O2-  O190  1  0.64129734  0.83509931  0.37529492  1
  O2-  O191  1  0.64099312  0.83807585  0.87333505  1
  O2-  O192  1  0.97472958  0.17107758  0.37412042  1
  O2-  O193  1  0.97658501  0.16789961  0.87540247  1
  O2-  O194  1  0.97289844  0.50605001  0.37500519  1
  O2-  O195  1  0.97645033  0.50114994  0.87509074  1
  O2-  O196  1  0.97229242  0.83812955  0.37460847  1
  O2-  O197  1  0.97449023  0.83841413  0.87459756  1
  O2-  O198  1  0.18961329  0.00104723  0.37260834  1
  O2-  O199  1  0.19005974  0.00909253  0.87534946  1
  O2-  O200  1  0.19572672  0.34046777  0.37664736  1
  O2-  O201  1  0.18997129  0.33721247  0.87254523  1
  O2-  O202  1  0.19326293  0.67342071  0.37540125  1
  O2-  O203  1  0.19053367  0.67298357  0.87249567  1
  O2-  O204  1  0.53049369  0.00515061  0.37588216  1
  O2-  O205  1  0.52593097  0.00565807  0.87430211  1
  O2-  O206  1  0.52833651  0.34108185  0.37676273  1
  O2-  O207  1  0.52579001  0.33912364  0.87250185  1
  O2-  O208  1  0.52380792  0.67370601  0.37530140  1
  O2-  O209  1  0.52548745  0.67241734  0.87481900  1
  O2-  O210  1  0.85278792  0.00602802  0.37471488  1
  O2-  O211  1  0.86093296  0.00728861  0.87751373  1
  O2-  O212  1  0.85883518  0.33808100  0.37548030  1
  O2-  O213  1  0.85204284  0.33904296  0.87255341  1
  O2-  O214  1  0.85775176  0.67514619  0.37410710  1
  O2-  O215  1  0.85140990  0.67050419  0.87476880  1
  O2-  O216  1  0.24180190  0.09186803  0.01717687  1
  O2-  O217  1  0.24437065  0.09144136  0.51413107  1
  O2-  O218  1  0.23739368  0.42973163  0.01475688  1
  O2-  O219  1  0.23657548  0.43029184  0.51954652  1
  O2-  O220  1  0.24113166  0.75925096  0.02460766  1
  O2-  O221  1  0.23427007  0.76013732  0.52158532  1
  O2-  O222  1  0.57696741  0.09482402  0.01778084  1
  O2-  O223  1  0.57383505  0.09208224  0.52453801  1
  O2-  O224  1  0.57224636  0.42804937  0.01973212  1
  O2-  O225  1  0.56600663  0.43176953  0.51878096  1
  O2-  O226  1  0.56806135  0.76167836  0.02196585  1
  O2-  O227  1  0.57265246  0.76203085  0.52048975  1
  O2-  O228  1  0.90254369  0.09511791  0.02339319  1
  O2-  O229  1  0.90349191  0.09155012  0.51784437  1
  O2-  O230  1  0.90530878  0.42688564  0.02101954  1
  O2-  O231  1  0.90413908  0.42955649  0.51886893  1
  O2-  O232  1  0.90408044  0.76091176  0.01897107  1
  O2-  O233  1  0.90427956  0.76166023  0.52460016  1
  O2-  O234  1  0.26516345  0.26399900  0.23324495  1
  O2-  O235  1  0.26602440  0.26514422  0.73117105  1
  O2-  O236  1  0.26217932  0.59462611  0.23094516  1
  O2-  O237  1  0.26139958  0.59526501  0.72751420  1
  O2-  O238  1  0.26206985  0.92650639  0.22609153  1
  O2-  O239  1  0.26481333  0.93054103  0.73298900  1
  O2-  O240  1  0.59657844  0.26304256  0.23192867  1
  O2-  O241  1  0.59159482  0.26028133  0.73155799  1
  O2-  O242  1  0.59517955  0.59324172  0.22878000  1
  O2-  O243  1  0.59747312  0.59574938  0.73157767  1
  O2-  O244  1  0.59715859  0.92765567  0.23115348  1
  O2-  O245  1  0.59567519  0.92678512  0.72828720  1
  O2-  O246  1  0.92899501  0.26458290  0.23336595  1
  O2-  O247  1  0.92674946  0.26097420  0.72883741  1
  O2-  O248  1  0.92524384  0.59347595  0.22818015  1
  O2-  O249  1  0.92714303  0.59609879  0.73040152  1
  O2-  O250  1  0.92705331  0.92779148  0.22638659  1
  O2-  O251  1  0.93212590  0.93007223  0.73284872  1
  O2-  O252  1  0.09693269  0.24244646  0.27392120  1
  O2-  O253  1  0.09696468  0.23794868  0.76669697  1
  O2-  O254  1  0.09717638  0.57118130  0.27043380  1
  O2-  O255  1  0.09768420  0.57141949  0.76674686  1
  O2-  O256  1  0.09595800  0.90093574  0.26592159  1
  O2-  O257  1  0.09546491  0.90573967  0.77357738  1
  O2-  O258  1  0.43136473  0.23759342  0.27378286  1
  O2-  O259  1  0.42823376  0.23814386  0.77105056  1
  O2-  O260  1  0.42658471  0.57060117  0.27093817  1
  O2-  O261  1  0.42611302  0.57448176  0.77184902  1
  O2-  O262  1  0.42827597  0.90942547  0.27336425  1
  O2-  O263  1  0.42806456  0.90575307  0.77162853  1
  O2-  O264  1  0.76199225  0.23676738  0.27063763  1
  O2-  O265  1  0.76158224  0.23819781  0.76909137  1
  O2-  O266  1  0.76163910  0.57154294  0.27140573  1
  O2-  O267  1  0.75965604  0.57201622  0.77149924  1
  O2-  O268  1  0.76482608  0.89992032  0.26853436  1
  O2-  O269  1  0.76215959  0.90731097  0.77350235  1
  O2-  O270  1  0.07680917  0.07486897  0.48336844  1
  O2-  O271  1  0.07031031  0.07279204  0.98258383  1
  O2-  O272  1  0.07112915  0.40684195  0.47931146  1
  O2-  O273  1  0.07526235  0.40666707  0.98431246  1
  O2-  O274  1  0.06782893  0.73778850  0.47773013  1
  O2-  O275  1  0.07336728  0.73881034  0.98805800  1
  O2-  O276  1  0.40735585  0.07084653  0.47962272  1
  O2-  O277  1  0.40626419  0.07471409  0.97997499  1
  O2-  O278  1  0.40438437  0.40353367  0.47598105  1
  O2-  O279  1  0.40720475  0.40861797  0.97614223  1
  O2-  O280  1  0.40365344  0.74145141  0.47959138  1
  O2-  O281  1  0.40248433  0.73905282  0.97649111  1
  O2-  O282  1  0.73690593  0.06961334  0.47991068  1
  O2-  O283  1  0.73947362  0.07183713  0.97808200  1
  O2-  O284  1  0.73602311  0.40629392  0.47580763  1
  O2-  O285  1  0.73863382  0.40550745  0.98061079  1
  O2-  O286  1  0.73628232  0.73605341  0.48248074  1
  O2-  O287  1  0.73540015  0.73857694  0.98084185  1
  O2-  O288  1  0.09669888  0.24207719  0.47617735  1
  O2-  O289  1  0.09802005  0.23918376  0.98416707  1
  O2-  O290  1  0.09645515  0.57107287  0.48010812  1
  O2-  O291  1  0.09742100  0.56995981  0.98331381  1
  O2-  O292  1  0.09376393  0.90308293  0.48256848  1
  O2-  O293  1  0.09677866  0.90458360  0.97925178  1
  O2-  O294  1  0.43272172  0.23436307  0.47966473  1
  O2-  O295  1  0.42807905  0.24084487  0.97679863  1
  O2-  O296  1  0.42584593  0.57336413  0.47913260  1
  O2-  O297  1  0.42790895  0.57209484  0.97868475  1
  O2-  O298  1  0.43054099  0.90814342  0.47751192  1
  O2-  O299  1  0.42447551  0.90620919  0.97581544  1
  O2-  O300  1  0.76315793  0.23478916  0.48241194  1
  O2-  O301  1  0.76021292  0.23918138  0.97786432  1
  O2-  O302  1  0.76093300  0.57483931  0.47670363  1
  O2-  O303  1  0.76111092  0.57000551  0.98055376  1
  O2-  O304  1  0.76166346  0.90303657  0.47928219  1
  O2-  O305  1  0.76410338  0.90533783  0.97746644  1
  O2-  O306  1  0.07533872  0.07447230  0.26616717  1
  O2-  O307  1  0.07344689  0.07119290  0.76973400  1
  O2-  O308  1  0.07260342  0.40564053  0.27333497  1
  O2-  O309  1  0.07493522  0.40755928  0.76338194  1
  O2-  O310  1  0.06974545  0.73673013  0.27136695  1
  O2-  O311  1  0.06999397  0.73923689  0.76431484  1
  O2-  O312  1  0.40738806  0.07157671  0.26730007  1
  O2-  O313  1  0.40517102  0.07402133  0.77217541  1
  O2-  O314  1  0.40657033  0.40521906  0.27576556  1
  O2-  O315  1  0.40679243  0.40680673  0.77290294  1
  O2-  O316  1  0.40289922  0.73997953  0.27149587  1
  O2-  O317  1  0.40249141  0.74099182  0.77128620  1
  O2-  O318  1  0.73642017  0.06952249  0.27047265  1
  O2-  O319  1  0.74009137  0.07148207  0.77042180  1
  O2-  O320  1  0.73723708  0.40427046  0.27359680  1
  O2-  O321  1  0.73835207  0.40652413  0.77004495  1
  O2-  O322  1  0.73487703  0.73588112  0.26613596  1
  O2-  O323  1  0.73765356  0.73726387  0.76988213  1
  O2-  O324  1  0.24421748  0.09123058  0.23600286  1
  O2-  O325  1  0.24178680  0.09303459  0.73253959  1
  O2-  O326  1  0.23672442  0.43118702  0.23430366  1
  O2-  O327  1  0.23800735  0.42910328  0.73126878  1
  O2-  O328  1  0.23640561  0.75996600  0.22829059  1
  O2-  O329  1  0.23743466  0.76021842  0.72492635  1
  O2-  O330  1  0.57607203  0.09271000  0.22895377  1
  O2-  O331  1  0.57248810  0.09353123  0.72931510  1
  O2-  O332  1  0.57079436  0.42812781  0.23119380  1
  O2-  O333  1  0.56874937  0.43221070  0.72976922  1
  O2-  O334  1  0.57169963  0.76333930  0.22861351  1
  O2-  O335  1  0.57017750  0.76057257  0.72857704  1
  O2-  O336  1  0.90177766  0.09327422  0.22987851  1
  O2-  O337  1  0.90475233  0.09355508  0.73027828  1
  O2-  O338  1  0.90360799  0.42678737  0.23109548  1
  O2-  O339  1  0.90420270  0.42897112  0.72862138  1
  O2-  O340  1  0.90576775  0.75927626  0.22547935  1
  O2-  O341  1  0.90281384  0.76343135  0.72990316  1
  O2-  O342  1  0.26579039  0.26647120  0.01764928  1
  O2-  O343  1  0.26590321  0.26209484  0.51840936  1
  O2-  O344  1  0.26275645  0.59439860  0.01947690  1
  O2-  O345  1  0.26119060  0.59450523  0.52132214  1
  O2-  O346  1  0.26343734  0.92708252  0.02343351  1
  O2-  O347  1  0.26303552  0.92811529  0.51821046  1
  O2-  O348  1  0.59734221  0.26406025  0.01688554  1
  O2-  O349  1  0.59162227  0.25849668  0.52065865  1
  O2-  O350  1  0.59597994  0.59338948  0.02025746  1
  O2-  O351  1  0.59620482  0.59585379  0.51859000  1
  O2-  O352  1  0.59868389  0.92860837  0.01695612  1
  O2-  O353  1  0.59381028  0.92542134  0.52325499  1
  O2-  O354  1  0.92736578  0.26215969  0.01987536  1
  O2-  O355  1  0.92970959  0.26142818  0.51789610  1
  O2-  O356  1  0.92644162  0.59246463  0.02351107  1
  O2-  O357  1  0.92837875  0.59694945  0.51710677  1
  O2-  O358  1  0.92969026  0.92942026  0.02109698  1
  O2-  O359  1  0.92820518  0.92768316  0.52146022  1
