# generated using pymatgen
data_Sr7Ca15Pr50Mn72O216
_symmetry_space_group_name_H-M   'P 1'
_cell_length_a   16.55764876
_cell_length_b   16.60670199
_cell_length_c   15.59315689
_cell_angle_alpha   89.99934046
_cell_angle_beta   89.99646475
_cell_angle_gamma   90.01022295
_symmetry_Int_Tables_number   1
_chemical_formula_structural   Sr7Ca15Pr50Mn72O216
_chemical_formula_sum   'Sr7 Ca15 Pr50 Mn72 O216'
_cell_volume   4287.61813000
_cell_formula_units_Z   1
loop_
 _symmetry_equiv_pos_site_id
 _symmetry_equiv_pos_as_xyz
  1  'x, y, z'
loop_
 _atom_type_symbol
 _atom_type_oxidation_number
  Sr2+  2.0
  Ca2+  2.0
  Pr3+  3.0
  Mn3.30+  3.3
  O2-  -2.0
loop_
 _atom_site_type_symbol
 _atom_site_label
 _atom_site_symmetry_multiplicity
 _atom_site_fract_x
 _atom_site_fract_y
 _atom_site_fract_z
 _atom_site_occupancy
  Sr2+  Sr0  1  0.33592611  0.99213319  0.37093612  1
  Sr2+  Sr1  1  0.66850399  0.99072789  0.87722583  1
  Sr2+  Sr2  1  0.16429621  0.82384217  0.87408936  1
  Sr2+  Sr3  1  0.83068497  0.48960776  0.87507734  1
  Sr2+  Sr4  1  0.83095835  0.82637908  0.87574815  1
  Sr2+  Sr5  1  0.49972686  0.17331050  0.12711493  1
  Sr2+  Sr6  1  0.33474474  0.67438587  0.12504799  1
  Ca2+  Ca7  1  0.50206035  0.51312722  0.62469687  1
  Ca2+  Ca8  1  0.17157923  0.17991477  0.12470332  1
  Ca2+  Ca9  1  0.50056357  0.84838302  0.12534787  1
  Ca2+  Ca10  1  0.16275048  0.48591788  0.87713089  1
  Ca2+  Ca11  1  0.49972115  0.50874674  0.12506893  1
  Ca2+  Ca12  1  0.83797275  0.18170421  0.12391121  1
  Ca2+  Ca13  1  0.17249312  0.18168220  0.62521896  1
  Ca2+  Ca14  1  -0.00121272  0.34480896  0.12416643  1
  Ca2+  Ca15  1  -0.00344719  0.01815291  0.12347526  1
  Ca2+  Ca16  1  0.33325011  0.31875436  0.87642243  1
  Ca2+  Ca17  1  0.33060927  0.01641494  0.12493014  1
  Ca2+  Ca18  1  0.49374200  0.48472885  0.37308789  1
  Ca2+  Ca19  1  0.83681676  0.17985609  0.62605844  1
  Ca2+  Ca20  1  0.49402557  0.15091909  0.37112875  1
  Ca2+  Ca21  1  0.17145275  0.84885268  0.62644329  1
  Pr3+  Pr22  1  0.16476021  0.15545370  0.87654777  1
  Pr3+  Pr23  1  0.66294939  0.34644025  0.62540344  1
  Pr3+  Pr24  1  0.83333403  0.15529408  0.37375846  1
  Pr3+  Pr25  1  0.16975470  0.51127078  0.12373727  1
  Pr3+  Pr26  1  0.66447625  0.99064150  0.37246618  1
  Pr3+  Pr27  1  0.17169670  0.84812618  0.12301381  1
  Pr3+  Pr28  1  1.00258029  0.32283480  0.87732156  1
  Pr3+  Pr29  1  0.66544462  0.01307739  0.62628879  1
  Pr3+  Pr30  1  -0.00035186  0.34343785  0.62509114  1
  Pr3+  Pr31  1  1.00363467  0.31880132  0.37312177  1
  Pr3+  Pr32  1  0.16832951  0.82238559  0.37492540  1
  Pr3+  Pr33  1  -0.00114089  0.68091073  0.62520581  1
  Pr3+  Pr34  1  0.82865855  0.48426079  0.37489329  1
  Pr3+  Pr35  1  0.83573924  0.84779373  0.62567399  1
  Pr3+  Pr36  1  0.49526103  0.48463331  0.87557582  1
  Pr3+  Pr37  1  0.49799245  0.15436632  0.87762240  1
  Pr3+  Pr38  1  1.00344165  0.98739584  0.87718244  1
  Pr3+  Pr39  1  0.32734119  0.01441307  0.62484193  1
  Pr3+  Pr40  1  0.65956081  0.67973835  0.12374827  1
  Pr3+  Pr41  1  1.00472725  0.65189393  0.87555077  1
  Pr3+  Pr42  1  0.33150594  0.34093594  0.12268665  1
  Pr3+  Pr43  1  0.83152835  0.15590688  0.87633727  1
  Pr3+  Pr44  1  0.50174276  0.84695620  0.62533569  1
  Pr3+  Pr45  1  0.16649546  0.48642912  0.37340902  1
  Pr3+  Pr46  1  0.33578166  0.98707686  0.87879418  1
  Pr3+  Pr47  1  0.66115798  0.34605083  0.12486973  1
  Pr3+  Pr48  1  0.66320765  0.67886158  0.62633662  1
  Pr3+  Pr49  1  0.33899532  0.65067151  0.37323357  1
  Pr3+  Pr50  1  0.67039256  0.65428615  0.87485767  1
  Pr3+  Pr51  1  0.17033161  0.51178872  0.62625978  1
  Pr3+  Pr52  1  0.50218734  0.17704261  0.62325020  1
  Pr3+  Pr53  1  -0.00227189  0.67874889  0.12452720  1
  Pr3+  Pr54  1  0.33839210  0.31789334  0.37411660  1
  Pr3+  Pr55  1  0.67172762  0.32180265  0.87610243  1
  Pr3+  Pr56  1  1.00333080  0.65322021  0.37426890  1
  Pr3+  Pr57  1  0.49683488  0.81944253  0.87781100  1
  Pr3+  Pr58  1  0.82995235  0.82179949  0.37420193  1
  Pr3+  Pr59  1  0.32947258  0.68095334  0.62498766  1
  Pr3+  Pr60  1  0.16513156  0.15280992  0.37380960  1
  Pr3+  Pr61  1  0.33077461  0.34474295  0.62678846  1
  Pr3+  Pr62  1  0.00007916  0.01475463  0.62675427  1
  Pr3+  Pr63  1  0.33307940  0.65380041  0.87717445  1
  Pr3+  Pr64  1  0.83471348  0.51149744  0.12453969  1
  Pr3+  Pr65  1  0.49283333  0.82130158  0.37266379  1
  Pr3+  Pr66  1  0.83597689  0.51260855  0.62568177  1
  Pr3+  Pr67  1  0.66546460  0.65183605  0.37552159  1
  Pr3+  Pr68  1  0.83787936  0.84966087  0.12391046  1
  Pr3+  Pr69  1  1.00654547  0.98839077  0.37285592  1
  Pr3+  Pr70  1  0.66454462  0.01238098  0.12335826  1
  Pr3+  Pr71  1  0.66495749  0.31930013  0.37426331  1
  Mn3.30+  Mn72  1  0.16627301  0.00257100  0.00334459  1
  Mn3.30+  Mn73  1  0.16772694  0.00001651  0.50050457  1
  Mn3.30+  Mn74  1  0.16594920  0.33295419  0.00010806  1
  Mn3.30+  Mn75  1  0.16822312  0.33177786  0.50029614  1
  Mn3.30+  Mn76  1  0.16695942  0.66617965  -0.00014575  1
  Mn3.30+  Mn77  1  0.16799352  0.66757435  0.50000684  1
  Mn3.30+  Mn78  1  0.49940339  -0.00132677  0.00251074  1
  Mn3.30+  Mn79  1  0.49821142  0.00090501  0.49934309  1
  Mn3.30+  Mn80  1  0.49834332  0.33211425  -0.00025018  1
  Mn3.30+  Mn81  1  0.49933034  0.33374135  0.49976288  1
  Mn3.30+  Mn82  1  0.49996396  0.66440150  0.00147072  1
  Mn3.30+  Mn83  1  0.49865652  0.66401126  0.50076849  1
  Mn3.30+  Mn84  1  0.83487248  0.00310562  0.00202620  1
  Mn3.30+  Mn85  1  0.83501041  0.00226958  0.49903707  1
  Mn3.30+  Mn86  1  0.83537176  0.33334803  0.00262491  1
  Mn3.30+  Mn87  1  0.83263348  0.33084012  0.50039092  1
  Mn3.30+  Mn88  1  0.83215807  0.66791828  0.00006541  1
  Mn3.30+  Mn89  1  0.83292761  0.66675253  0.49915627  1
  Mn3.30+  Mn90  1  0.00083682  0.16743150  0.24507894  1
  Mn3.30+  Mn91  1  0.00102146  0.16823942  0.74936257  1
  Mn3.30+  Mn92  1  -0.00063789  0.49820562  0.24908047  1
  Mn3.30+  Mn93  1  0.00175115  0.49898772  0.75078461  1
  Mn3.30+  Mn94  1  0.00072093  0.83515526  0.24930739  1
  Mn3.30+  Mn95  1  0.00200016  0.83412988  0.74917291  1
  Mn3.30+  Mn96  1  0.33338084  0.16576040  0.24746757  1
  Mn3.30+  Mn97  1  0.33250895  0.16759919  0.75158005  1
  Mn3.30+  Mn98  1  0.33563443  0.49799553  0.24769806  1
  Mn3.30+  Mn99  1  0.33285922  0.49826893  0.75210393  1
  Mn3.30+  Mn100  1  0.33425925  0.83446671  0.24585823  1
  Mn3.30+  Mn101  1  0.33168898  0.83290026  0.75157119  1
  Mn3.30+  Mn102  1  0.66655598  0.16625121  0.25009547  1
  Mn3.30+  Mn103  1  0.66882537  0.16758974  0.74845377  1
  Mn3.30+  Mn104  1  0.66252940  0.49868618  0.25172864  1
  Mn3.30+  Mn105  1  0.66451165  0.49980154  0.74839697  1
  Mn3.30+  Mn106  1  0.66436261  0.83323017  0.24942049  1
  Mn3.30+  Mn107  1  0.66684547  0.83478826  0.75105465  1
  Mn3.30+  Mn108  1  0.16751237  0.00193204  0.24591570  1
  Mn3.30+  Mn109  1  0.16694956  0.00084506  0.74982749  1
  Mn3.30+  Mn110  1  0.16625465  0.33146666  0.24709078  1
  Mn3.30+  Mn111  1  0.16800562  0.33339135  0.75264862  1
  Mn3.30+  Mn112  1  0.16826682  0.66695492  0.24978151  1
  Mn3.30+  Mn113  1  0.16685243  0.66659522  0.75069861  1
  Mn3.30+  Mn114  1  0.49834954  -0.00039645  0.24694563  1
  Mn3.30+  Mn115  1  0.49902904  -0.00034039  0.75169009  1
  Mn3.30+  Mn116  1  0.49936120  0.33322758  0.24959488  1
  Mn3.30+  Mn117  1  0.49821119  0.33261945  0.75071520  1
  Mn3.30+  Mn118  1  0.49992864  0.66448453  0.24795256  1
  Mn3.30+  Mn119  1  0.49870494  0.66444010  0.74994713  1
  Mn3.30+  Mn120  1  0.83620401  0.00262677  0.24943316  1
  Mn3.30+  Mn121  1  0.83358622  0.00258386  0.74923875  1
  Mn3.30+  Mn122  1  0.83397749  0.33129453  0.24813908  1
  Mn3.30+  Mn123  1  0.83377813  0.33309842  0.74888894  1
  Mn3.30+  Mn124  1  0.83140273  0.66667699  0.25046313  1
  Mn3.30+  Mn125  1  0.83370761  0.66800487  0.75054852  1
  Mn3.30+  Mn126  1  0.00023615  0.16825022  0.00386197  1
  Mn3.30+  Mn127  1  0.00160445  0.16698910  0.50227274  1
  Mn3.30+  Mn128  1  0.00048679  0.49804826  0.00073358  1
  Mn3.30+  Mn129  1  0.00039098  0.49913357  0.49951386  1
  Mn3.30+  Mn130  1  0.00114848  0.83424671  0.00022505  1
  Mn3.30+  Mn131  1  0.00203565  0.83485707  0.50101157  1
  Mn3.30+  Mn132  1  0.33149796  0.16711334  0.00096627  1
  Mn3.30+  Mn133  1  0.33451794  0.16633413  0.49974686  1
  Mn3.30+  Mn134  1  0.33187160  0.49718859  -0.00187897  1
  Mn3.30+  Mn135  1  0.33669252  0.49866799  0.50154926  1
  Mn3.30+  Mn136  1  0.33380782  0.83264210  0.00294278  1
  Mn3.30+  Mn137  1  0.33232405  0.83443029  0.50016839  1
  Mn3.30+  Mn138  1  0.66831221  0.16765936  0.00272267  1
  Mn3.30+  Mn139  1  0.66674907  0.16628092  0.49867355  1
  Mn3.30+  Mn140  1  0.66500788  0.49983857  0.00052367  1
  Mn3.30+  Mn141  1  0.66223263  0.49866098  0.49930239  1
  Mn3.30+  Mn142  1  0.66586844  0.83450300  0.00131711  1
  Mn3.30+  Mn143  1  0.66527840  0.83399600  0.49859726  1
  O2-  O144  1  0.03047272  0.15991825  0.12451855  1
  O2-  O145  1  0.03104102  0.16234986  0.62567687  1
  O2-  O146  1  0.02510153  0.49497148  0.12706665  1
  O2-  O147  1  0.02617523  0.49362400  0.62397707  1
  O2-  O148  1  0.02660204  0.82469751  0.12629320  1
  O2-  O149  1  0.02896196  0.82814596  0.62362886  1
  O2-  O150  1  0.35121327  0.16954565  0.12392724  1
  O2-  O151  1  0.35797275  0.16356033  0.62757750  1
  O2-  O152  1  0.35826379  0.49030624  0.12277258  1
  O2-  O153  1  0.36049524  0.49261673  0.62697696  1
  O2-  O154  1  0.35898588  0.82713809  0.12421118  1
  O2-  O155  1  0.35862790  0.82836044  0.62749992  1
  O2-  O156  1  0.69413745  0.16160208  0.12724977  1
  O2-  O157  1  0.69417890  0.16086860  0.62252121  1
  O2-  O158  1  0.69077175  0.49507931  0.12817627  1
  O2-  O159  1  0.69230248  0.49521873  0.62332066  1
  O2-  O160  1  0.69400359  0.82658351  0.12751663  1
  O2-  O161  1  0.69127850  0.82775508  0.62204645  1
  O2-  O162  1  0.14074757  0.32588148  0.12529648  1
  O2-  O163  1  0.14389477  0.32787802  0.62556639  1
  O2-  O164  1  0.14159026  0.65979768  0.12530584  1
  O2-  O165  1  0.14213096  0.65758872  0.62309301  1
  O2-  O166  1  0.13698979  0.99309575  0.12500992  1
  O2-  O167  1  0.14352200  0.99264853  0.62368251  1
  O2-  O168  1  0.47575465  0.32844763  0.12230399  1
  O2-  O169  1  0.47386408  0.32248980  0.62499222  1
  O2-  O170  1  0.48293968  0.65272229  0.12460281  1
  O2-  O171  1  0.47297820  0.65925911  0.62625950  1
  O2-  O172  1  0.47484419  0.99435978  0.12399553  1
  O2-  O173  1  0.47350413  0.99631229  0.62757964  1
  O2-  O174  1  0.80602646  0.32853781  0.12661768  1
  O2-  O175  1  0.80751825  0.32609931  0.62116477  1
  O2-  O176  1  0.80596661  0.66055190  0.12842421  1
  O2-  O177  1  0.80874158  0.66180124  0.62279799  1
  O2-  O178  1  0.80858058  0.99563977  0.12874963  1
  O2-  O179  1  0.80862656  0.99481554  0.62152112  1
  O2-  O180  1  0.30902805  0.16955144  0.37299248  1
  O2-  O181  1  0.30910716  0.16832796  0.87497477  1
  O2-  O182  1  0.30945038  0.50216982  0.37565304  1
  O2-  O183  1  0.30376012  0.50715079  0.87459535  1
  O2-  O184  1  0.31205856  0.83574736  0.37199045  1
  O2-  O185  1  0.31357750  0.83762250  0.87686043  1
  O2-  O186  1  0.63714909  0.17012265  0.37540220  1
  O2-  O187  1  0.64343435  0.17407932  0.87481946  1
  O2-  O188  1  0.63540018  0.50396960  0.37633695  1
  O2-  O189  1  0.64102641  0.50448492  0.87229785  1
  O2-  O190  1  0.63792497  0.84100258  0.37454338  1
  O2-  O191  1  0.64134172  0.83458311  0.87628316  1
  O2-  O192  1  0.97703966  0.17093046  0.37430582  1
  O2-  O193  1  0.97433962  0.17424833  0.87591304  1
  O2-  O194  1  0.97339000  0.50479474  0.37426220  1
  O2-  O195  1  0.97923513  0.50342527  0.87515965  1
  O2-  O196  1  0.97348739  0.84130569  0.37447156  1
  O2-  O197  1  0.98085133  0.83869351  0.87470773  1
  O2-  O198  1  0.18577002  0.00459029  0.37386854  1
  O2-  O199  1  0.19117838  0.00710629  0.87734293  1
  O2-  O200  1  0.19272852  0.33899710  0.37414474  1
  O2-  O201  1  0.19136561  0.34086761  0.87488118  1
  O2-  O202  1  0.19364617  0.67309613  0.37661286  1
  O2-  O203  1  0.18950916  0.67079728  0.87515980  1
  O2-  O204  1  0.52036796  0.00296493  0.37342752  1
  O2-  O205  1  0.51848667  0.00532238  0.87564106  1
  O2-  O206  1  0.52301595  0.34352145  0.37754925  1
  O2-  O207  1  0.52786110  0.33747572  0.87481568  1
  O2-  O208  1  0.52299709  0.67565722  0.37418605  1
  O2-  O209  1  0.52615032  0.67178465  0.87472343  1
  O2-  O210  1  0.86325840  0.00665879  0.37470042  1
  O2-  O211  1  0.85903094  0.00751152  0.87457916  1
  O2-  O212  1  0.85866400  0.33688704  0.37521297  1
  O2-  O213  1  0.85712451  0.33514911  0.87754196  1
  O2-  O214  1  0.85898069  0.67234974  0.37501462  1
  O2-  O215  1  0.85882050  0.67003360  0.87338112  1
  O2-  O216  1  0.23507723  0.09734182  0.01901681  1
  O2-  O217  1  0.23743354  0.09558402  0.52046653  1
  O2-  O218  1  0.23810695  0.42452346  0.02420296  1
  O2-  O219  1  0.23913283  0.42925588  0.52031293  1
  O2-  O220  1  0.23805133  0.76102858  0.01897882  1
  O2-  O221  1  0.23766776  0.76370388  0.52133030  1
  O2-  O222  1  0.57635305  0.09140055  0.01686570  1
  O2-  O223  1  0.57613519  0.09212287  0.52269803  1
  O2-  O224  1  0.56912564  0.42932736  0.01916835  1
  O2-  O225  1  0.57120704  0.42639979  0.52679555  1
  O2-  O226  1  0.57097129  0.76188126  0.02176689  1
  O2-  O227  1  0.57017988  0.75984773  0.52166405  1
  O2-  O228  1  0.90565303  0.09996692  0.01959093  1
  O2-  O229  1  0.90665012  0.09713642  0.52251259  1
  O2-  O230  1  0.90386359  0.42742680  0.02207043  1
  O2-  O231  1  0.90481407  0.42764143  0.52027951  1
  O2-  O232  1  0.90598504  0.76076514  0.02304074  1
  O2-  O233  1  0.90788385  0.76422536  0.51990620  1
  O2-  O234  1  0.26274972  0.26350792  0.23370015  1
  O2-  O235  1  0.26221176  0.26152198  0.73275280  1
  O2-  O236  1  0.26067649  0.58865679  0.23387332  1
  O2-  O237  1  0.26209220  0.59482834  0.72813265  1
  O2-  O238  1  0.26020694  0.92926173  0.22480183  1
  O2-  O239  1  0.26441585  0.92934846  0.73438166  1
  O2-  O240  1  0.59668014  0.26436971  0.23416901  1
  O2-  O241  1  0.59681903  0.25977319  0.72867639  1
  O2-  O242  1  0.59917851  0.59797625  0.23580051  1
  O2-  O243  1  0.59508733  0.59473194  0.73025985  1
  O2-  O244  1  0.59841644  0.92812682  0.23101469  1
  O2-  O245  1  0.59261446  0.92634957  0.72718786  1
  O2-  O246  1  0.93379707  0.26369070  0.23124903  1
  O2-  O247  1  0.93172191  0.26125187  0.73004347  1
  O2-  O248  1  0.92797676  0.59347381  0.22964803  1
  O2-  O249  1  0.92877827  0.59366386  0.72829369  1
  O2-  O250  1  0.93035021  0.93118897  0.22768711  1
  O2-  O251  1  0.92654577  0.92962830  0.72865397  1
  O2-  O252  1  0.09495594  0.23932703  0.27361764  1
  O2-  O253  1  0.09452919  0.24144199  0.77390245  1
  O2-  O254  1  0.09347283  0.57271910  0.27199514  1
  O2-  O255  1  0.09739350  0.57062671  0.76993859  1
  O2-  O256  1  0.09611211  0.90396955  0.27050403  1
  O2-  O257  1  0.09136126  0.91122799  0.76771945  1
  O2-  O258  1  0.42813995  0.24034477  0.27248217  1
  O2-  O259  1  0.43123486  0.23500072  0.76913646  1
  O2-  O260  1  0.42813491  0.57106645  0.27177182  1
  O2-  O261  1  0.42507543  0.57121649  0.77493300  1
  O2-  O262  1  0.43007575  0.90278414  0.26594128  1
  O2-  O263  1  0.42786513  0.90238315  0.77022733  1
  O2-  O264  1  0.76026928  0.23928309  0.27353034  1
  O2-  O265  1  0.76149608  0.24095283  0.77087935  1
  O2-  O266  1  0.75790242  0.56858584  0.27380986  1
  O2-  O267  1  0.75799977  0.57447001  0.76486655  1
  O2-  O268  1  0.76246613  0.90598653  0.27105411  1
  O2-  O269  1  0.76080147  0.90782527  0.76129601  1
  O2-  O270  1  0.07104762  0.07169606  0.48086307  1
  O2-  O271  1  0.07165452  0.07471893  0.97667764  1
  O2-  O272  1  0.07257934  0.40546515  0.47883965  1
  O2-  O273  1  0.07264814  0.40488670  0.98235544  1
  O2-  O274  1  0.07017413  0.73960586  0.47744987  1
  O2-  O275  1  0.06956890  0.73414151  0.98424687  1
  O2-  O276  1  0.40571828  0.07220635  0.48753826  1
  O2-  O277  1  0.40580803  0.07396117  0.98188282  1
  O2-  O278  1  0.40160929  0.40124167  0.48390432  1
  O2-  O279  1  0.40317391  0.40345691  0.97517348  1
  O2-  O280  1  0.40298327  0.73616899  0.48193549  1
  O2-  O281  1  0.40856344  0.73612923  0.97837143  1
  O2-  O282  1  0.73870280  0.07315549  0.47568579  1
  O2-  O283  1  0.74297051  0.07642002  0.98233043  1
  O2-  O284  1  0.73477590  0.40652106  0.47824754  1
  O2-  O285  1  0.73492469  0.40497310  0.98522779  1
  O2-  O286  1  0.73752357  0.74053619  0.47750157  1
  O2-  O287  1  0.73577477  0.73788134  0.98338292  1
  O2-  O288  1  0.09516423  0.23904222  0.47751441  1
  O2-  O289  1  0.09386789  0.24111864  0.97576116  1
  O2-  O290  1  0.09543222  0.57206153  0.47755586  1
  O2-  O291  1  0.09420150  0.57153927  0.98143764  1
  O2-  O292  1  0.09392233  0.90630391  0.47667134  1
  O2-  O293  1  0.09384442  0.90817998  0.98317930  1
  O2-  O294  1  0.43136557  0.23685726  0.47799775  1
  O2-  O295  1  0.42812078  0.23877635  0.97853953  1
  O2-  O296  1  0.42827343  0.56984864  0.47668122  1
  O2-  O297  1  0.42517338  0.57086298  0.97638369  1
  O2-  O298  1  0.43021609  0.90078501  0.48565956  1
  O2-  O299  1  0.42717054  0.90537470  0.97899829  1
  O2-  O300  1  0.75802152  0.23887250  0.47455196  1
  O2-  O301  1  0.76235574  0.24155154  0.97990408  1
  O2-  O302  1  0.75828172  0.56951282  0.47848119  1
  O2-  O303  1  0.75846584  0.57406085  0.98340263  1
  O2-  O304  1  0.76167380  0.90713703  0.47717007  1
  O2-  O305  1  0.76064782  0.90722087  0.98966405  1
  O2-  O306  1  0.07179656  0.07359128  0.27071840  1
  O2-  O307  1  0.07037943  0.07441418  0.77195606  1
  O2-  O308  1  0.07360726  0.40659382  0.27230401  1
  O2-  O309  1  0.07102376  0.40332968  0.76653750  1
  O2-  O310  1  0.07007574  0.73955860  0.27197446  1
  O2-  O311  1  0.06940556  0.73280091  0.76556632  1
  O2-  O312  1  0.40790239  0.07555449  0.26158536  1
  O2-  O313  1  0.40361280  0.07166061  0.77058660  1
  O2-  O314  1  0.40267441  0.40265575  0.26730238  1
  O2-  O315  1  0.40203247  0.40334341  0.77383133  1
  O2-  O316  1  0.40617811  0.73676856  0.26993943  1
  O2-  O317  1  0.40367638  0.73716066  0.77048189  1
  O2-  O318  1  0.74170079  0.07212373  0.27428294  1
  O2-  O319  1  0.74117968  0.07623770  0.76769736  1
  O2-  O320  1  0.73522037  0.40546881  0.27218099  1
  O2-  O321  1  0.73412585  0.40496786  0.76458365  1
  O2-  O322  1  0.73546972  0.74049811  0.27384919  1
  O2-  O323  1  0.73657868  0.73863776  0.76552335  1
  O2-  O324  1  0.23540020  0.09697773  0.23134838  1
  O2-  O325  1  0.23772763  0.09569323  0.72867138  1
  O2-  O326  1  0.23717677  0.42614344  0.22899197  1
  O2-  O327  1  0.23931914  0.42698075  0.72651257  1
  O2-  O328  1  0.23647833  0.76479659  0.23308551  1
  O2-  O329  1  0.23893623  0.76073761  0.72730402  1
  O2-  O330  1  0.57926622  0.08830528  0.23075234  1
  O2-  O331  1  0.57418447  0.09496804  0.73018978  1
  O2-  O332  1  0.57091197  0.42790675  0.22664460  1
  O2-  O333  1  0.56869692  0.42846527  0.72822759  1
  O2-  O334  1  0.57032007  0.76159105  0.22781609  1
  O2-  O335  1  0.57112311  0.76052825  0.72909094  1
  O2-  O336  1  0.90390407  0.10093321  0.23049608  1
  O2-  O337  1  0.90676587  0.09630925  0.72781311  1
  O2-  O338  1  0.90110701  0.42994002  0.23289913  1
  O2-  O339  1  0.90524776  0.42540845  0.72637753  1
  O2-  O340  1  0.90625645  0.76454622  0.23051556  1
  O2-  O341  1  0.90740029  0.76152597  0.72514549  1
  O2-  O342  1  0.25972919  0.26205177  0.01564145  1
  O2-  O343  1  0.26528716  0.26264034  0.51673202  1
  O2-  O344  1  0.25837508  0.59108108  0.01873741  1
  O2-  O345  1  0.26462272  0.59320576  0.52016631  1
  O2-  O346  1  0.26095157  0.93149492  0.02117120  1
  O2-  O347  1  0.26173795  0.92895157  0.51901405  1
  O2-  O348  1  0.59792737  0.26262014  0.01703810  1
  O2-  O349  1  0.59528224  0.26090555  0.52111768  1
  O2-  O350  1  0.59700469  0.59621434  0.01417920  1
  O2-  O351  1  0.59698155  0.59643547  0.51872542  1
  O2-  O352  1  0.59419013  0.92612672  0.02183757  1
  O2-  O353  1  0.59478403  0.92859309  0.52076288  1
  O2-  O354  1  0.93185265  0.26376929  0.02108528  1
  O2-  O355  1  0.93284009  0.26073511  0.51787302  1
  O2-  O356  1  0.92686177  0.59400146  0.02097222  1
  O2-  O357  1  0.92880352  0.59358886  0.52034747  1
  O2-  O358  1  0.92781324  0.93091099  0.02069991  1
  O2-  O359  1  0.93047157  0.92842928  0.52235985  1
