# generated using pymatgen
data_Sr7Ca15Pr50Mn72O216
_symmetry_space_group_name_H-M   'P 1'
_cell_length_a   16.55946025
_cell_length_b   16.60570249
_cell_length_c   15.59250415
_cell_angle_alpha   89.99371273
_cell_angle_beta   90.00611789
_cell_angle_gamma   89.99061791
_symmetry_Int_Tables_number   1
_chemical_formula_structural   Sr7Ca15Pr50Mn72O216
_chemical_formula_sum   'Sr7 Ca15 Pr50 Mn72 O216'
_cell_volume   4287.64960656
_cell_formula_units_Z   1
loop_
 _symmetry_equiv_pos_site_id
 _symmetry_equiv_pos_as_xyz
  1  'x, y, z'
loop_
 _atom_type_symbol
 _atom_type_oxidation_number
  Sr2+  2.0
  Ca2+  2.0
  Pr3+  3.0
  Mn3.30+  3.3
  O2-  -2.0
loop_
 _atom_site_type_symbol
 _atom_site_label
 _atom_site_symmetry_multiplicity
 _atom_site_fract_x
 _atom_site_fract_y
 _atom_site_fract_z
 _atom_site_occupancy
  Sr2+  Sr0  1  0.66704760  0.65789309  0.87330405  1
  Sr2+  Sr1  1  0.16463919  0.15820817  0.37409744  1
  Sr2+  Sr2  1  1.00110021  0.98947706  0.87313805  1
  Sr2+  Sr3  1  0.50305257  0.82470857  0.87276480  1
  Sr2+  Sr4  1  -0.00098904  0.34191845  0.12319627  1
  Sr2+  Sr5  1  0.66384338  0.00928271  0.62820707  1
  Sr2+  Sr6  1  0.16637756  0.82282080  0.37586965  1
  Ca2+  Ca7  1  0.16534650  0.48690846  0.37721527  1
  Ca2+  Ca8  1  1.00212873  0.31910773  0.87675387  1
  Ca2+  Ca9  1  0.33486583  0.65030780  0.37642950  1
  Ca2+  Ca10  1  0.32663962  0.34947320  0.62465587  1
  Ca2+  Ca11  1  0.50268402  0.51375103  0.12451164  1
  Ca2+  Ca12  1  0.83160941  0.15335188  0.37376153  1
  Ca2+  Ca13  1  -0.00452496  0.01431930  0.62383723  1
  Ca2+  Ca14  1  0.83659803  0.84736529  0.12356071  1
  Ca2+  Ca15  1  0.17247250  0.51317037  0.62156129  1
  Ca2+  Ca16  1  0.83838561  0.18302493  0.12455091  1
  Ca2+  Ca17  1  0.50627549  0.84713248  0.62734545  1
  Ca2+  Ca18  1  0.66387424  0.35028362  0.12400625  1
  Ca2+  Ca19  1  0.67187238  0.98461790  0.87327235  1
  Ca2+  Ca20  1  0.33888444  0.31876437  0.87426080  1
  Ca2+  Ca21  1  0.65959106  0.68450698  0.62611871  1
  Pr3+  Pr22  1  0.16792540  0.84805184  0.62374100  1
  Pr3+  Pr23  1  1.00580764  0.65179528  0.37614196  1
  Pr3+  Pr24  1  0.16241473  0.82022149  0.87383243  1
  Pr3+  Pr25  1  0.33249805  0.67706483  0.12648956  1
  Pr3+  Pr26  1  0.67124008  0.31809553  0.37375541  1
  Pr3+  Pr27  1  0.16381350  0.48477362  0.87237847  1
  Pr3+  Pr28  1  1.00070440  0.65603462  0.87392719  1
  Pr3+  Pr29  1  0.82692447  0.82298490  0.87502861  1
  Pr3+  Pr30  1  0.83083986  0.48551598  0.37510484  1
  Pr3+  Pr31  1  0.49754142  0.15355524  0.37465773  1
  Pr3+  Pr32  1  0.66437854  0.67798774  0.12516193  1
  Pr3+  Pr33  1  0.83616180  0.17512640  0.62534617  1
  Pr3+  Pr34  1  0.32946922  0.34707360  0.12475773  1
  Pr3+  Pr35  1  0.50446309  0.17911511  0.62592143  1
  Pr3+  Pr36  1  0.16830740  0.84567894  0.12590858  1
  Pr3+  Pr37  1  0.83424507  0.84884910  0.62457363  1
  Pr3+  Pr38  1  0.66843417  0.65237166  0.37720381  1
  Pr3+  Pr39  1  0.50117371  0.51359231  0.62518550  1
  Pr3+  Pr40  1  0.16404960  0.15618275  0.87536723  1
  Pr3+  Pr41  1  0.33850958  0.65458394  0.87394162  1
  Pr3+  Pr42  1  0.33482620  0.98886007  0.37547206  1
  Pr3+  Pr43  1  0.33053412  0.67983972  0.62377373  1
  Pr3+  Pr44  1  0.33327857  0.32054970  0.37643516  1
  Pr3+  Pr45  1  1.00304432  0.32017103  0.37358154  1
  Pr3+  Pr46  1  0.49489286  0.48761119  0.37375193  1
  Pr3+  Pr47  1  0.49577031  0.48822793  0.87600301  1
  Pr3+  Pr48  1  0.49868665  0.15373143  0.87555283  1
  Pr3+  Pr49  1  -0.00492702  0.68012897  0.12604643  1
  Pr3+  Pr50  1  0.49364783  0.81848389  0.37666966  1
  Pr3+  Pr51  1  0.33605464  0.98699962  0.87497770  1
  Pr3+  Pr52  1  0.82971877  0.48745841  0.87541392  1
  Pr3+  Pr53  1  0.16713899  0.18038685  0.12478467  1
  Pr3+  Pr54  1  0.33032421  0.01255811  0.12400002  1
  Pr3+  Pr55  1  0.00032964  0.67796718  0.62410861  1
  Pr3+  Pr56  1  0.83555344  0.50930141  0.12468064  1
  Pr3+  Pr57  1  0.66885106  0.32297183  0.87634197  1
  Pr3+  Pr58  1  0.83002128  0.82112312  0.37472638  1
  Pr3+  Pr59  1  0.50588844  0.18341885  0.12450454  1
  Pr3+  Pr60  1  1.00293547  0.98852547  0.37597025  1
  Pr3+  Pr61  1  0.33497481  0.00969758  0.62630992  1
  Pr3+  Pr62  1  0.16943509  0.17883152  0.62472404  1
  Pr3+  Pr63  1  0.83432809  0.51360204  0.62520160  1
  Pr3+  Pr64  1  0.83197139  0.15172642  0.87749391  1
  Pr3+  Pr65  1  0.66831710  0.01307859  0.12239310  1
  Pr3+  Pr66  1  0.66386052  0.34367783  0.62617958  1
  Pr3+  Pr67  1  0.67049964  0.98896750  0.37604386  1
  Pr3+  Pr68  1  0.50312299  0.84484788  0.12380424  1
  Pr3+  Pr69  1  -0.00656011  0.01387649  0.12472937  1
  Pr3+  Pr70  1  0.16740976  0.51119551  0.12674553  1
  Pr3+  Pr71  1  -0.00073443  0.34538612  0.62608410  1
  Mn3.30+  Mn72  1  0.16477522  -0.00002372  -0.00024148  1
  Mn3.30+  Mn73  1  0.16535333  0.00169318  0.50077409  1
  Mn3.30+  Mn74  1  0.16752800  0.33353871  -0.00289293  1
  Mn3.30+  Mn75  1  0.16700071  0.33569732  0.50133988  1
  Mn3.30+  Mn76  1  0.16653175  0.66561523  0.00040087  1
  Mn3.30+  Mn77  1  0.16878686  0.66443526  0.49808690  1
  Mn3.30+  Mn78  1  0.50178666  -0.00002361  -0.00072842  1
  Mn3.30+  Mn79  1  0.50211583  -0.00145690  0.50081060  1
  Mn3.30+  Mn80  1  0.50030769  0.33584014  0.00090569  1
  Mn3.30+  Mn81  1  0.49830007  0.33367293  0.50092671  1
  Mn3.30+  Mn82  1  0.50059047  0.66568630  -0.00021062  1
  Mn3.30+  Mn83  1  0.49925905  0.66718210  0.50112256  1
  Mn3.30+  Mn84  1  0.83231866  -0.00113672  0.00046110  1
  Mn3.30+  Mn85  1  0.83451029  0.00241811  0.49990494  1
  Mn3.30+  Mn86  1  0.83364668  0.33223049  0.00073277  1
  Mn3.30+  Mn87  1  0.83361168  0.33104736  0.50043789  1
  Mn3.30+  Mn88  1  0.83246187  0.66709757  0.00031184  1
  Mn3.30+  Mn89  1  0.83170402  0.66727187  0.50143334  1
  Mn3.30+  Mn90  1  -0.00387744  0.16718662  0.25016330  1
  Mn3.30+  Mn91  1  0.00141051  0.16677393  0.75023708  1
  Mn3.30+  Mn92  1  0.00071892  0.49867369  0.25086210  1
  Mn3.30+  Mn93  1  0.00144860  0.49872820  0.74932815  1
  Mn3.30+  Mn94  1  -0.00122724  0.83328729  0.25020710  1
  Mn3.30+  Mn95  1  -0.00119307  0.83454399  0.74881387  1
  Mn3.30+  Mn96  1  0.33443589  0.16667210  0.24967675  1
  Mn3.30+  Mn97  1  0.33410193  0.16940582  0.74969163  1
  Mn3.30+  Mn98  1  0.33300444  0.50057499  0.25130919  1
  Mn3.30+  Mn99  1  0.33120043  0.49761180  0.74856406  1
  Mn3.30+  Mn100  1  0.33334971  0.83151608  0.25143320  1
  Mn3.30+  Mn101  1  0.33499488  0.83310967  0.74844626  1
  Mn3.30+  Mn102  1  0.67048299  0.16835975  0.24713127  1
  Mn3.30+  Mn103  1  0.66733184  0.16560247  0.75213209  1
  Mn3.30+  Mn104  1  0.66455220  0.49846856  0.24903706  1
  Mn3.30+  Mn105  1  0.66540577  0.50173405  0.74971888  1
  Mn3.30+  Mn106  1  0.66730709  0.83375462  0.24947712  1
  Mn3.30+  Mn107  1  0.66563039  0.83314607  0.74929457  1
  Mn3.30+  Mn108  1  0.16479814  0.00063213  0.25041297  1
  Mn3.30+  Mn109  1  0.16509030  0.00113816  0.74856337  1
  Mn3.30+  Mn110  1  0.16577635  0.33496105  0.25025150  1
  Mn3.30+  Mn111  1  0.16865963  0.33360227  0.75068578  1
  Mn3.30+  Mn112  1  0.16707345  0.66536233  0.25291510  1
  Mn3.30+  Mn113  1  0.16790813  0.66466214  0.74831574  1
  Mn3.30+  Mn114  1  0.50159547  0.00037263  0.24788171  1
  Mn3.30+  Mn115  1  0.50217157  -0.00146725  0.75193795  1
  Mn3.30+  Mn116  1  0.50207603  0.33561392  0.24864218  1
  Mn3.30+  Mn117  1  0.49612446  0.33419025  0.74977134  1
  Mn3.30+  Mn118  1  0.49890667  0.66510075  0.25063700  1
  Mn3.30+  Mn119  1  0.50113489  0.66771266  0.74936752  1
  Mn3.30+  Mn120  1  0.83338866  0.00149634  0.24985084  1
  Mn3.30+  Mn121  1  0.83368678  0.00044421  0.74993165  1
  Mn3.30+  Mn122  1  0.83255599  0.33094818  0.24789491  1
  Mn3.30+  Mn123  1  0.83479201  0.33227154  0.75136248  1
  Mn3.30+  Mn124  1  0.83312229  0.66641152  0.25146994  1
  Mn3.30+  Mn125  1  0.83121209  0.66776821  0.74689194  1
  Mn3.30+  Mn126  1  -0.00151361  0.16808978  -0.00088409  1
  Mn3.30+  Mn127  1  -0.00011653  0.16603837  0.49989857  1
  Mn3.30+  Mn128  1  -0.00004789  0.49845317  -0.00158798  1
  Mn3.30+  Mn129  1  0.00302549  0.49919947  0.50190203  1
  Mn3.30+  Mn130  1  -0.00229267  0.83376607  -0.00039829  1
  Mn3.30+  Mn131  1  -0.00004775  0.83397996  0.50055973  1
  Mn3.30+  Mn132  1  0.33442735  0.16849892  -0.00071996  1
  Mn3.30+  Mn133  1  0.33421393  0.16709953  0.50150546  1
  Mn3.30+  Mn134  1  0.33371669  0.49889521  0.00040282  1
  Mn3.30+  Mn135  1  0.33092016  0.49948154  0.49922399  1
  Mn3.30+  Mn136  1  0.33362901  0.83223827  -0.00027219  1
  Mn3.30+  Mn137  1  0.33456763  0.83242308  0.50068370  1
  Mn3.30+  Mn138  1  0.66896088  0.16834869  0.00168687  1
  Mn3.30+  Mn139  1  0.66837904  0.16543190  0.49965441  1
  Mn3.30+  Mn140  1  0.66476874  0.50030169  0.00059599  1
  Mn3.30+  Mn141  1  0.66532611  0.49977642  0.50110375  1
  Mn3.30+  Mn142  1  0.66888738  0.83364385  0.00107646  1
  Mn3.30+  Mn143  1  0.66317931  0.83328253  0.50018397  1
  O2-  O144  1  0.02329858  0.16172307  0.12376058  1
  O2-  O145  1  0.02428388  0.16132430  0.62626368  1
  O2-  O146  1  0.02339508  0.49892610  0.12281571  1
  O2-  O147  1  0.02951112  0.49343992  0.62623152  1
  O2-  O148  1  0.02503992  0.82774315  0.12618691  1
  O2-  O149  1  0.02552322  0.82524723  0.62476997  1
  O2-  O150  1  0.36067455  0.16102464  0.12554248  1
  O2-  O151  1  0.36193444  0.15749542  0.62586057  1
  O2-  O152  1  0.35971375  0.49368860  0.12568853  1
  O2-  O153  1  0.35798813  0.49295034  0.62460671  1
  O2-  O154  1  0.35862127  0.82672100  0.12722080  1
  O2-  O155  1  0.36200090  0.82982640  0.62466134  1
  O2-  O156  1  0.69713889  0.15937831  0.12413829  1
  O2-  O157  1  0.69078185  0.16705025  0.62786358  1
  O2-  O158  1  0.69184568  0.49596536  0.12475808  1
  O2-  O159  1  0.69100513  0.48987998  0.62381151  1
  O2-  O160  1  0.69422212  0.82600952  0.12866683  1
  O2-  O161  1  0.68956491  0.82936679  0.62273167  1
  O2-  O162  1  0.14953553  0.33037227  0.12323047  1
  O2-  O163  1  0.14165311  0.32607463  0.62645427  1
  O2-  O164  1  0.13926082  0.65972650  0.12719036  1
  O2-  O165  1  0.14340938  0.65893437  0.62443307  1
  O2-  O166  1  0.13987791  0.99399917  0.12440255  1
  O2-  O167  1  0.13949801  0.99683334  0.62543678  1
  O2-  O168  1  0.47246205  0.32832784  0.12570816  1
  O2-  O169  1  0.47118820  0.32636431  0.62712419  1
  O2-  O170  1  0.47663023  0.66282300  0.12637459  1
  O2-  O171  1  0.47312605  0.66011741  0.62375788  1
  O2-  O172  1  0.47436691  0.99502270  0.12384819  1
  O2-  O173  1  0.47876872  0.99625948  0.62668614  1
  O2-  O174  1  0.80640966  0.32955184  0.12441956  1
  O2-  O175  1  0.80738914  0.32458077  0.62591904  1
  O2-  O176  1  0.80829606  0.65630976  0.12852502  1
  O2-  O177  1  0.80383005  0.66066812  0.62279265  1
  O2-  O178  1  0.81013696  0.99052503  0.12610887  1
  O2-  O179  1  0.81284764  1.00002448  0.62447664  1
  O2-  O180  1  0.31579151  0.17022734  0.37518394  1
  O2-  O181  1  0.30841249  0.17270452  0.87377529  1
  O2-  O182  1  0.30738757  0.50527675  0.37499021  1
  O2-  O183  1  0.30751818  0.50926819  0.87450500  1
  O2-  O184  1  0.31472281  0.84282624  0.37514683  1
  O2-  O185  1  0.30606492  0.83735846  0.87299918  1
  O2-  O186  1  0.64043388  0.17143964  0.37137586  1
  O2-  O187  1  0.64089298  0.17681337  0.87727743  1
  O2-  O188  1  0.63996307  0.50368535  0.37748192  1
  O2-  O189  1  0.64130153  0.50065321  0.87468943  1
  O2-  O190  1  0.63870871  0.84076165  0.37277874  1
  O2-  O191  1  0.65315932  0.83813083  0.87599612  1
  O2-  O192  1  0.97401319  0.17323270  0.37503503  1
  O2-  O193  1  0.97734757  0.17316217  0.87423776  1
  O2-  O194  1  0.97369186  0.50444696  0.37803443  1
  O2-  O195  1  0.97304023  0.50897456  0.87332578  1
  O2-  O196  1  0.97431659  0.83842348  0.37637654  1
  O2-  O197  1  0.97355110  0.83071263  0.87186217  1
  O2-  O198  1  0.19073281  0.00322592  0.37546842  1
  O2-  O199  1  0.19204359  0.00506593  0.87426393  1
  O2-  O200  1  0.18929102  0.33839759  0.37605170  1
  O2-  O201  1  0.19751919  0.33698955  0.87346885  1
  O2-  O202  1  0.19365501  0.67140548  0.37492260  1
  O2-  O203  1  0.19367770  0.67362081  0.87298339  1
  O2-  O204  1  0.52590742  0.00599745  0.37143956  1
  O2-  O205  1  0.52715926  0.00609224  0.87821661  1
  O2-  O206  1  0.52696901  0.33933989  0.37279979  1
  O2-  O207  1  0.52529388  0.34007387  0.87517270  1
  O2-  O208  1  0.52540074  0.67080025  0.37653289  1
  O2-  O209  1  0.51675188  0.66479258  0.87394579  1
  O2-  O210  1  0.85895652  0.00706429  0.37485494  1
  O2-  O211  1  0.85300070  0.00135331  0.87493089  1
  O2-  O212  1  0.85889044  0.34017697  0.37688915  1
  O2-  O213  1  0.85951400  0.34079979  0.87292831  1
  O2-  O214  1  0.85988746  0.67199903  0.37670122  1
  O2-  O215  1  0.85720954  0.67385837  0.87175255  1
  O2-  O216  1  0.23916330  0.09354121  0.02105629  1
  O2-  O217  1  0.24313614  0.09303116  0.52314859  1
  O2-  O218  1  0.23831628  0.42978051  0.01958687  1
  O2-  O219  1  0.23643273  0.42906774  0.51929177  1
  O2-  O220  1  0.23755447  0.76039974  0.02119606  1
  O2-  O221  1  0.23924049  0.76039737  0.52386848  1
  O2-  O222  1  0.57362536  0.09744121  0.02255490  1
  O2-  O223  1  0.57026367  0.09734100  0.51561515  1
  O2-  O224  1  0.56730028  0.43141952  0.01848840  1
  O2-  O225  1  0.56975896  0.42658639  0.52170618  1
  O2-  O226  1  0.57590271  0.76034972  0.02156758  1
  O2-  O227  1  0.56607240  0.76479414  0.51759203  1
  O2-  O228  1  0.90197136  0.09296852  0.01869705  1
  O2-  O229  1  0.90571352  0.09583061  0.51950477  1
  O2-  O230  1  0.90191420  0.42967454  0.01659989  1
  O2-  O231  1  0.90454097  0.42671213  0.52291068  1
  O2-  O232  1  0.90519958  0.76123851  0.02192116  1
  O2-  O233  1  0.90527946  0.76245608  0.52112245  1
  O2-  O234  1  0.26219205  0.26022357  0.23206896  1
  O2-  O235  1  0.26222155  0.26097286  0.72448676  1
  O2-  O236  1  0.25946457  0.59228838  0.22559615  1
  O2-  O237  1  0.26427364  0.59645379  0.73126797  1
  O2-  O238  1  0.26185177  0.92616851  0.22900336  1
  O2-  O239  1  0.25934806  0.92818040  0.72820999  1
  O2-  O240  1  0.59824926  0.26409413  0.22691131  1
  O2-  O241  1  0.59392992  0.26239104  0.73092206  1
  O2-  O242  1  0.59730865  0.59698627  0.23428168  1
  O2-  O243  1  0.59268869  0.59401096  0.72571022  1
  O2-  O244  1  0.59501298  0.92897044  0.22573550  1
  O2-  O245  1  0.59198207  0.92491187  0.73646081  1
  O2-  O246  1  0.92641499  0.26201443  0.23368660  1
  O2-  O247  1  0.92741043  0.25916352  0.72744115  1
  O2-  O248  1  0.92901256  0.59383958  0.23201990  1
  O2-  O249  1  0.92644428  0.59559570  0.72724173  1
  O2-  O250  1  0.92829076  0.93106576  0.23404610  1
  O2-  O251  1  0.92779966  0.92701707  0.72615779  1
  O2-  O252  1  0.09119375  0.24083078  0.26437158  1
  O2-  O253  1  0.09894119  0.23789786  0.76748155  1
  O2-  O254  1  0.09629024  0.57100086  0.27255629  1
  O2-  O255  1  0.09280074  0.57349777  0.77373096  1
  O2-  O256  1  0.09210402  0.90669376  0.26775862  1
  O2-  O257  1  0.09588643  0.90112151  0.76709190  1
  O2-  O258  1  0.43147462  0.24004403  0.26937883  1
  O2-  O259  1  0.43068828  0.23671575  0.77070698  1
  O2-  O260  1  0.42618930  0.57095401  0.27038040  1
  O2-  O261  1  0.42761298  0.56999847  0.76671947  1
  O2-  O262  1  0.42843208  0.90432949  0.26817393  1
  O2-  O263  1  0.42118980  0.90988754  0.77069605  1
  O2-  O264  1  0.76183522  0.23828761  0.27486658  1
  O2-  O265  1  0.76174354  0.23869424  0.77292030  1
  O2-  O266  1  0.76101825  0.57085321  0.27278946  1
  O2-  O267  1  0.76433451  0.56984497  0.76651362  1
  O2-  O268  1  0.76042114  0.90734779  0.27459712  1
  O2-  O269  1  0.76361913  0.90479196  0.76294281  1
  O2-  O270  1  0.07051451  0.07370967  0.48070524  1
  O2-  O271  1  0.07440718  0.07448682  0.98239298  1
  O2-  O272  1  0.06819053  0.40298558  0.48250668  1
  O2-  O273  1  0.07413639  0.40603863  0.97453378  1
  O2-  O274  1  0.07038529  0.73517236  0.48404980  1
  O2-  O275  1  0.07138659  0.73776037  0.98032636  1
  O2-  O276  1  0.40841438  0.06988151  0.48033483  1
  O2-  O277  1  0.40445805  0.07363441  0.97896336  1
  O2-  O278  1  0.40386524  0.40687694  0.47635190  1
  O2-  O279  1  0.40202898  0.40366780  0.97834968  1
  O2-  O280  1  0.40322092  0.73580196  0.47789328  1
  O2-  O281  1  0.40310247  0.73684438  0.98472708  1
  O2-  O282  1  0.73847888  0.07287287  0.47961682  1
  O2-  O283  1  0.73645952  0.06996238  0.97926798  1
  O2-  O284  1  0.73942391  0.40247688  0.48026647  1
  O2-  O285  1  0.73864812  0.40681429  0.97910464  1
  O2-  O286  1  0.73567640  0.74314036  0.47588209  1
  O2-  O287  1  0.74135445  0.73920088  0.98419200  1
  O2-  O288  1  0.09208190  0.24130185  0.48381776  1
  O2-  O289  1  0.09872169  0.23877927  0.98291404  1
  O2-  O290  1  0.09564022  0.57194866  0.47698164  1
  O2-  O291  1  0.09546176  0.57228751  0.97810120  1
  O2-  O292  1  0.09135706  0.90597096  0.48298718  1
  O2-  O293  1  0.09625460  0.90156864  0.98190312  1
  O2-  O294  1  0.42972721  0.23919930  0.47917469  1
  O2-  O295  1  0.43340362  0.23858712  0.98255211  1
  O2-  O296  1  0.43073430  0.56934815  0.48335404  1
  O2-  O297  1  0.42459080  0.57085082  0.98042625  1
  O2-  O298  1  0.42756135  0.90792915  0.47870446  1
  O2-  O299  1  0.42385549  0.90702683  0.98226225  1
  O2-  O300  1  0.76235488  0.23704757  0.47838489  1
  O2-  O301  1  0.76117788  0.24035888  0.97523076  1
  O2-  O302  1  0.76120858  0.57038680  0.47873961  1
  O2-  O303  1  0.76302220  0.56988546  0.98264476  1
  O2-  O304  1  0.76220615  0.90660039  0.47984321  1
  O2-  O305  1  0.76267917  0.90472608  0.98427224  1
  O2-  O306  1  0.06669128  0.07194102  0.26637514  1
  O2-  O307  1  0.07727546  0.07692228  0.77050097  1
  O2-  O308  1  0.07088156  0.40720781  0.26963555  1
  O2-  O309  1  0.07133291  0.40137972  0.77380186  1
  O2-  O310  1  0.06928252  0.73467121  0.26762917  1
  O2-  O311  1  0.07289754  0.73736091  0.76828156  1
  O2-  O312  1  0.40619217  0.07128853  0.26915151  1
  O2-  O313  1  0.40621642  0.07261408  0.77208316  1
  O2-  O314  1  0.40299060  0.40459663  0.27268261  1
  O2-  O315  1  0.40395570  0.40619837  0.77425359  1
  O2-  O316  1  0.40412911  0.73705536  0.27183318  1
  O2-  O317  1  0.40266694  0.73585253  0.76608047  1
  O2-  O318  1  0.73623073  0.06918888  0.26706095  1
  O2-  O319  1  0.73929294  0.07403363  0.77390687  1
  O2-  O320  1  0.73822710  0.40494266  0.27158874  1
  O2-  O321  1  0.73895668  0.40448816  0.76901255  1
  O2-  O322  1  0.73780239  0.73750703  0.27374569  1
  O2-  O323  1  0.74282959  0.74273861  0.76644867  1
  O2-  O324  1  0.23946250  0.09209716  0.22630487  1
  O2-  O325  1  0.24261720  0.09533477  0.72913165  1
  O2-  O326  1  0.24113124  0.42756617  0.22906533  1
  O2-  O327  1  0.23347504  0.43215573  0.73074061  1
  O2-  O328  1  0.23911292  0.75894204  0.22652099  1
  O2-  O329  1  0.23898915  0.76254341  0.72688653  1
  O2-  O330  1  0.57421949  0.09753328  0.22727399  1
  O2-  O331  1  0.57042107  0.09881877  0.73483104  1
  O2-  O332  1  0.56728120  0.43196133  0.23032379  1
  O2-  O333  1  0.56982868  0.42660825  0.72929549  1
  O2-  O334  1  0.57149291  0.76223431  0.23034584  1
  O2-  O335  1  0.57183065  0.76055762  0.73029891  1
  O2-  O336  1  0.90344565  0.09505832  0.22563946  1
  O2-  O337  1  0.90439602  0.09579220  0.73538698  1
  O2-  O338  1  0.90126946  0.42910122  0.23437417  1
  O2-  O339  1  0.90514844  0.42776962  0.72662244  1
  O2-  O340  1  0.90335901  0.76259153  0.22953907  1
  O2-  O341  1  0.90621466  0.76051233  0.72484660  1
  O2-  O342  1  0.26275389  0.25914734  0.02203372  1
  O2-  O343  1  0.26100548  0.26277194  0.51977728  1
  O2-  O344  1  0.26095196  0.59387444  0.02204587  1
  O2-  O345  1  0.26423840  0.59469916  0.52008989  1
  O2-  O346  1  0.26001165  0.92731712  0.02057586  1
  O2-  O347  1  0.26141268  0.92712405  0.52148074  1
  O2-  O348  1  0.59723487  0.26468847  0.02280190  1
  O2-  O349  1  0.59559999  0.26090976  0.51939612  1
  O2-  O350  1  0.59539548  0.59422008  0.02097958  1
  O2-  O351  1  0.59470221  0.59807392  0.52150298  1
  O2-  O352  1  0.59452635  0.92475787  0.02376748  1
  O2-  O353  1  0.59495771  0.92914575  0.51434575  1
  O2-  O354  1  0.92496364  0.25965075  0.01526744  1
  O2-  O355  1  0.92816067  0.26103420  0.52221111  1
  O2-  O356  1  0.92721088  0.59628741  0.01847092  1
  O2-  O357  1  0.93088305  0.59157283  0.52273788  1
  O2-  O358  1  0.92897357  0.92759461  0.01903724  1
  O2-  O359  1  0.92722164  0.92888022  0.52015742  1
