# generated using pymatgen
data_Sr7Ca15Pr50Mn72O216
_symmetry_space_group_name_H-M   'P 1'
_cell_length_a   16.55932339
_cell_length_b   16.60498052
_cell_length_c   15.59207200
_cell_angle_alpha   90.00545163
_cell_angle_beta   89.99910426
_cell_angle_gamma   89.98991533
_symmetry_Int_Tables_number   1
_chemical_formula_structural   Sr7Ca15Pr50Mn72O216
_chemical_formula_sum   'Sr7 Ca15 Pr50 Mn72 O216'
_cell_volume   4287.30895244
_cell_formula_units_Z   1
loop_
 _symmetry_equiv_pos_site_id
 _symmetry_equiv_pos_as_xyz
  1  'x, y, z'
loop_
 _atom_type_symbol
 _atom_type_oxidation_number
  Sr2+  2.0
  Ca2+  2.0
  Pr3+  3.0
  Mn3.30+  3.3
  O2-  -2.0
loop_
 _atom_site_type_symbol
 _atom_site_label
 _atom_site_symmetry_multiplicity
 _atom_site_fract_x
 _atom_site_fract_y
 _atom_site_fract_z
 _atom_site_occupancy
  Sr2+  Sr0  1  0.33278823  0.34192088  0.62553086  1
  Sr2+  Sr1  1  0.66582013  0.00925675  0.12576117  1
  Sr2+  Sr2  1  0.83596695  0.50853411  0.12541568  1
  Sr2+  Sr3  1  0.83210514  0.15630766  0.87642721  1
  Sr2+  Sr4  1  0.33178610  0.00843115  0.62377513  1
  Sr2+  Sr5  1  0.33390372  0.32210046  0.87501664  1
  Sr2+  Sr6  1  0.66891258  0.67655612  0.12430639  1
  Ca2+  Ca7  1  0.83717022  0.85150897  0.12441653  1
  Ca2+  Ca8  1  -0.00231453  0.01386983  0.62529963  1
  Ca2+  Ca9  1  0.67109407  0.98563899  0.37131256  1
  Ca2+  Ca10  1  0.32974877  0.01295589  0.12552430  1
  Ca2+  Ca11  1  -0.00431397  0.01208230  0.12449875  1
  Ca2+  Ca12  1  0.16100646  0.81768240  0.87608246  1
  Ca2+  Ca13  1  0.33300578  0.98688714  0.87762766  1
  Ca2+  Ca14  1  0.33495235  0.98501918  0.37236552  1
  Ca2+  Ca15  1  0.82750616  0.14624951  0.37296701  1
  Ca2+  Ca16  1  0.50196497  0.17729551  0.12436715  1
  Ca2+  Ca17  1  -0.00534589  0.34854791  0.12393742  1
  Ca2+  Ca18  1  0.17179400  0.85225424  0.12254301  1
  Ca2+  Ca19  1  -0.00321494  0.68263429  0.62875506  1
  Ca2+  Ca20  1  1.00415805  0.65295363  0.87500683  1
  Ca2+  Ca21  1  0.50187984  0.51418400  0.62667697  1
  Pr3+  Pr22  1  0.33322240  0.34314046  0.12474020  1
  Pr3+  Pr23  1  0.83376300  0.82230824  0.87856277  1
  Pr3+  Pr24  1  0.33726193  0.31891847  0.37487760  1
  Pr3+  Pr25  1  1.00143392  0.31938686  0.37278088  1
  Pr3+  Pr26  1  0.16355944  0.48616670  0.87480159  1
  Pr3+  Pr27  1  0.83900755  0.51728063  0.62498516  1
  Pr3+  Pr28  1  0.16526554  0.82389619  0.37431723  1
  Pr3+  Pr29  1  0.83016552  0.48779076  0.37372290  1
  Pr3+  Pr30  1  0.66949944  0.31910991  0.87618506  1
  Pr3+  Pr31  1  0.67058001  0.98909117  0.87768185  1
  Pr3+  Pr32  1  0.50065515  0.17805334  0.62439612  1
  Pr3+  Pr33  1  0.16919063  0.17596885  0.62438824  1
  Pr3+  Pr34  1  0.16719957  0.84602264  0.62673841  1
  Pr3+  Pr35  1  0.16574181  0.15340667  0.87528957  1
  Pr3+  Pr36  1  0.49299226  0.15304715  0.87756135  1
  Pr3+  Pr37  1  0.83962693  0.84959462  0.62548613  1
  Pr3+  Pr38  1  0.16568976  0.17547073  0.12598979  1
  Pr3+  Pr39  1  0.33085312  0.67896619  0.62636858  1
  Pr3+  Pr40  1  1.00413141  0.31916366  0.87727055  1
  Pr3+  Pr41  1  0.67354742  0.31583788  0.37403545  1
  Pr3+  Pr42  1  0.83840080  0.17793831  0.12601641  1
  Pr3+  Pr43  1  0.83022397  0.82453014  0.37099759  1
  Pr3+  Pr44  1  1.00065577  0.98750520  0.37355821  1
  Pr3+  Pr45  1  0.33601084  0.65629972  0.37479215  1
  Pr3+  Pr46  1  0.49661963  0.14916438  0.37239808  1
  Pr3+  Pr47  1  0.50525358  0.51211414  0.12350983  1
  Pr3+  Pr48  1  0.83570368  0.17685619  0.62382231  1
  Pr3+  Pr49  1  0.49605457  0.48601029  0.87451803  1
  Pr3+  Pr50  1  0.16706613  0.51210517  0.12434609  1
  Pr3+  Pr51  1  0.50113079  0.84806324  0.62583413  1
  Pr3+  Pr52  1  0.49691658  0.82419885  0.87642462  1
  Pr3+  Pr53  1  0.66586258  0.34105950  0.12434353  1
  Pr3+  Pr54  1  0.50193197  0.84653805  0.12377490  1
  Pr3+  Pr55  1  0.83371781  0.48847405  0.87672788  1
  Pr3+  Pr56  1  0.66973115  0.65456372  0.87681617  1
  Pr3+  Pr57  1  0.33327040  0.65592049  0.87529518  1
  Pr3+  Pr58  1  0.66317849  0.68062074  0.62577964  1
  Pr3+  Pr59  1  0.66243055  0.01284652  0.62411522  1
  Pr3+  Pr60  1  0.16620241  0.15093037  0.37494917  1
  Pr3+  Pr61  1  1.00195956  0.65629583  0.37554762  1
  Pr3+  Pr62  1  1.00548945  0.98629410  0.87598804  1
  Pr3+  Pr63  1  0.49977159  0.82515362  0.37291454  1
  Pr3+  Pr64  1  0.66998309  0.65584479  0.37308504  1
  Pr3+  Pr65  1  0.49835106  0.48786091  0.37543035  1
  Pr3+  Pr66  1  0.17058486  0.51292002  0.62575633  1
  Pr3+  Pr67  1  0.16485296  0.48669429  0.37541284  1
  Pr3+  Pr68  1  -0.00591563  0.68249323  0.12244133  1
  Pr3+  Pr69  1  0.66090569  0.34809722  0.62535891  1
  Pr3+  Pr70  1  0.32668761  0.68276452  0.12382393  1
  Pr3+  Pr71  1  -0.00171039  0.34521676  0.62555720  1
  Mn3.30+  Mn72  1  0.16797452  -0.00199384  0.00154671  1
  Mn3.30+  Mn73  1  0.16579573  -0.00119829  0.49969206  1
  Mn3.30+  Mn74  1  0.16533361  0.33178623  0.00322400  1
  Mn3.30+  Mn75  1  0.16713261  0.33174504  0.49886970  1
  Mn3.30+  Mn76  1  0.16314787  0.66947884  -0.00066531  1
  Mn3.30+  Mn77  1  0.16504922  0.66765946  0.50152855  1
  Mn3.30+  Mn78  1  0.49690722  0.00122641  0.00222505  1
  Mn3.30+  Mn79  1  0.49995581  -0.00057782  0.49706437  1
  Mn3.30+  Mn80  1  0.49949312  0.33039205  0.00102811  1
  Mn3.30+  Mn81  1  0.50188140  0.33375305  0.49966446  1
  Mn3.30+  Mn82  1  0.49922071  0.66770708  -0.00022113  1
  Mn3.30+  Mn83  1  0.50034516  0.66722587  0.50079417  1
  Mn3.30+  Mn84  1  0.83632242  0.00054924  0.00145896  1
  Mn3.30+  Mn85  1  0.83265788  0.00045817  0.49908671  1
  Mn3.30+  Mn86  1  0.83558272  0.33277019  0.00040284  1
  Mn3.30+  Mn87  1  0.83283827  0.33184812  0.50015085  1
  Mn3.30+  Mn88  1  0.83645993  0.66782805  0.00023244  1
  Mn3.30+  Mn89  1  0.83465363  0.66936258  0.50079300  1
  Mn3.30+  Mn90  1  -0.00194746  0.16514924  0.25129976  1
  Mn3.30+  Mn91  1  -0.00013420  0.16412735  0.74917637  1
  Mn3.30+  Mn92  1  -0.00033857  0.49995994  0.25008205  1
  Mn3.30+  Mn93  1  0.00052013  0.50227734  0.74948152  1
  Mn3.30+  Mn94  1  0.00065800  0.83630137  0.24552633  1
  Mn3.30+  Mn95  1  0.00155225  0.83239271  0.75126679  1
  Mn3.30+  Mn96  1  0.33478753  0.16265946  0.24764936  1
  Mn3.30+  Mn97  1  0.33243583  0.16428306  0.75085570  1
  Mn3.30+  Mn98  1  0.33383802  0.50039475  0.24968805  1
  Mn3.30+  Mn99  1  0.33425083  0.49945827  0.74852179  1
  Mn3.30+  Mn100  1  0.33130428  0.83667890  0.24790942  1
  Mn3.30+  Mn101  1  0.33005018  0.83517731  0.75342187  1
  Mn3.30+  Mn102  1  0.66669719  0.16287655  0.24946479  1
  Mn3.30+  Mn103  1  0.66625286  0.16615376  0.75083229  1
  Mn3.30+  Mn104  1  0.66663038  0.49914529  0.24937347  1
  Mn3.30+  Mn105  1  0.66665489  0.50097074  0.74976052  1
  Mn3.30+  Mn106  1  0.66729731  0.83473924  0.24653237  1
  Mn3.30+  Mn107  1  0.66813864  0.83419391  0.75136080  1
  Mn3.30+  Mn108  1  0.16685871  -0.00140546  0.24744537  1
  Mn3.30+  Mn109  1  0.16742685  -0.00200722  0.75121575  1
  Mn3.30+  Mn110  1  0.16562967  0.33224548  0.24841165  1
  Mn3.30+  Mn111  1  0.16714118  0.33142312  0.75020179  1
  Mn3.30+  Mn112  1  0.16524778  0.66935511  0.24881777  1
  Mn3.30+  Mn113  1  0.16272204  0.66784654  0.75064255  1
  Mn3.30+  Mn114  1  0.49869664  0.00005661  0.24841372  1
  Mn3.30+  Mn115  1  0.49782714  0.00091760  0.75144267  1
  Mn3.30+  Mn116  1  0.50206506  0.33069336  0.25072549  1
  Mn3.30+  Mn117  1  0.49931350  0.33340811  0.74877150  1
  Mn3.30+  Mn118  1  0.49973261  0.66775271  0.24864575  1
  Mn3.30+  Mn119  1  0.49960342  0.66708888  0.75043441  1
  Mn3.30+  Mn120  1  0.83327609  0.00029442  0.24809111  1
  Mn3.30+  Mn121  1  0.83539541  0.00100319  0.75095837  1
  Mn3.30+  Mn122  1  0.83581021  0.33110083  0.25075718  1
  Mn3.30+  Mn123  1  0.83260885  0.33327052  0.74904079  1
  Mn3.30+  Mn124  1  0.83493552  0.66857120  0.24704477  1
  Mn3.30+  Mn125  1  0.83608905  0.66860818  0.75215989  1
  Mn3.30+  Mn126  1  0.00012594  0.16443248  0.00145320  1
  Mn3.30+  Mn127  1  -0.00236562  0.16476014  0.49801981  1
  Mn3.30+  Mn128  1  0.00016410  0.50057130  -0.00006628  1
  Mn3.30+  Mn129  1  0.00019875  0.50174912  0.50080253  1
  Mn3.30+  Mn130  1  0.00322888  0.83515157  0.00180457  1
  Mn3.30+  Mn131  1  -0.00087391  0.83421320  0.50103871  1
  Mn3.30+  Mn132  1  0.33315985  0.16388234  0.00258987  1
  Mn3.30+  Mn133  1  0.33359780  0.16344280  0.49861041  1
  Mn3.30+  Mn134  1  0.33338852  0.50016123  0.00065903  1
  Mn3.30+  Mn135  1  0.33471158  0.49984166  0.50174625  1
  Mn3.30+  Mn136  1  0.32868611  0.83703524  -0.00108108  1
  Mn3.30+  Mn137  1  0.33268577  0.83440012  0.49971530  1
  Mn3.30+  Mn138  1  0.66499430  0.16494949  0.00210679  1
  Mn3.30+  Mn139  1  0.66846744  0.16348504  0.49705123  1
  Mn3.30+  Mn140  1  0.66714441  0.49942963  -0.00019584  1
  Mn3.30+  Mn141  1  0.66606754  0.50106183  0.50123735  1
  Mn3.30+  Mn142  1  0.66776738  0.83380703  0.00240404  1
  Mn3.30+  Mn143  1  0.66787661  0.83486493  0.49917499  1
  O2-  O144  1  0.02255366  0.15648136  0.12712796  1
  O2-  O145  1  0.02445280  0.16075292  0.62276975  1
  O2-  O146  1  0.02394299  0.49397429  0.12687175  1
  O2-  O147  1  0.02674384  0.49204608  0.62387613  1
  O2-  O148  1  0.03190493  0.82616643  0.12384568  1
  O2-  O149  1  0.02400120  0.82531175  0.62739446  1
  O2-  O150  1  0.36036599  0.15786840  0.12682175  1
  O2-  O151  1  0.35706192  0.16160270  0.62142291  1
  O2-  O152  1  0.36014066  0.49505545  0.12571159  1
  O2-  O153  1  0.35902349  0.50011655  0.62394065  1
  O2-  O154  1  0.35877527  0.82627718  0.12371882  1
  O2-  O155  1  0.35752119  0.82664807  0.62708057  1
  O2-  O156  1  0.69259325  0.16846518  0.12672923  1
  O2-  O157  1  0.69091991  0.15994119  0.62198349  1
  O2-  O158  1  0.68582822  0.49114895  0.12446397  1
  O2-  O159  1  0.69535442  0.49612291  0.62667983  1
  O2-  O160  1  0.69239615  0.83075988  0.12326986  1
  O2-  O161  1  0.69392395  0.82822035  0.62770686  1
  O2-  O162  1  0.13711653  0.32678027  0.12746619  1
  O2-  O163  1  0.14159491  0.32624488  0.62343746  1
  O2-  O164  1  0.13858115  0.65809917  0.12539680  1
  O2-  O165  1  0.13842179  0.65962218  0.62508834  1
  O2-  O166  1  0.13774549  0.99675846  0.12573791  1
  O2-  O167  1  0.13961446  0.99405581  0.62399755  1
  O2-  O168  1  0.47709014  0.32634446  0.12748224  1
  O2-  O169  1  0.48208933  0.32484640  0.62263206  1
  O2-  O170  1  0.47176913  0.66031471  0.12468022  1
  O2-  O171  1  0.47527616  0.66171693  0.62717353  1
  O2-  O172  1  0.47088333  0.99172889  0.12467272  1
  O2-  O173  1  0.48223195  0.99675910  0.62494420  1
  O2-  O174  1  0.81031310  0.32790056  0.12657966  1
  O2-  O175  1  0.80570432  0.32623113  0.62342746  1
  O2-  O176  1  0.81743420  0.66134788  0.12414681  1
  O2-  O177  1  0.80658102  0.66429037  0.62788010  1
  O2-  O178  1  0.81535946  0.99835635  0.12462998  1
  O2-  O179  1  0.80666659  0.99678359  0.62525200  1
  O2-  O180  1  0.30989074  0.17302905  0.37308818  1
  O2-  O181  1  0.30916221  0.17068259  0.87852586  1
  O2-  O182  1  0.30875508  0.50628450  0.37478505  1
  O2-  O183  1  0.30830063  0.50538154  0.87570501  1
  O2-  O184  1  0.30929436  0.83634432  0.37252327  1
  O2-  O185  1  0.30397411  0.83972744  0.87638753  1
  O2-  O186  1  0.64025262  0.17140613  0.37403580  1
  O2-  O187  1  0.63930779  0.17129252  0.87713320  1
  O2-  O188  1  0.64241533  0.50643395  0.37518206  1
  O2-  O189  1  0.64025946  0.50500838  0.87358192  1
  O2-  O190  1  0.64480764  0.83764260  0.37264604  1
  O2-  O191  1  0.64246505  0.83948874  0.87599762  1
  O2-  O192  1  0.96958070  0.17350331  0.37513306  1
  O2-  O193  1  0.98153841  0.17193248  0.87526401  1
  O2-  O194  1  0.97420712  0.50823225  0.37777154  1
  O2-  O195  1  0.97725848  0.50561925  0.87237086  1
  O2-  O196  1  0.97458046  0.83864980  0.37332011  1
  O2-  O197  1  0.97581665  0.84151635  0.87537076  1
  O2-  O198  1  0.19171601  0.00218866  0.37408769  1
  O2-  O199  1  0.19251881  0.00812325  0.87660266  1
  O2-  O200  1  0.19316093  0.33808628  0.37257180  1
  O2-  O201  1  0.18364765  0.33638435  0.87736195  1
  O2-  O202  1  0.19240218  0.67410687  0.37436813  1
  O2-  O203  1  0.19070133  0.67065953  0.87505400  1
  O2-  O204  1  0.52829257  0.00076154  0.37388750  1
  O2-  O205  1  0.52643852  0.00488857  0.87575860  1
  O2-  O206  1  0.52932329  0.34081888  0.37626739  1
  O2-  O207  1  0.52502696  0.33717324  0.87382132  1
  O2-  O208  1  0.52502149  0.67501733  0.37382121  1
  O2-  O209  1  0.52510652  0.67484266  0.87405183  1
  O2-  O210  1  0.85696153  -0.00097990  0.37422965  1
  O2-  O211  1  0.85957494  0.00139018  0.87563273  1
  O2-  O212  1  0.85805218  0.34105977  0.37707538  1
  O2-  O213  1  0.85936051  0.33875936  0.87315943  1
  O2-  O214  1  0.85798392  0.67463504  0.37271505  1
  O2-  O215  1  0.86182581  0.67328573  0.87534783  1
  O2-  O216  1  0.23530345  0.09557701  0.02064765  1
  O2-  O217  1  0.23361991  0.09377017  0.51588285  1
  O2-  O218  1  0.23923807  0.42559288  0.02268558  1
  O2-  O219  1  0.23778278  0.43015303  0.51661731  1
  O2-  O220  1  0.23670587  0.76175041  0.02243022  1
  O2-  O221  1  0.23758178  0.75866755  0.52199621  1
  O2-  O222  1  0.56656770  0.09688841  0.01869150  1
  O2-  O223  1  0.57052528  0.09559826  0.51844789  1
  O2-  O224  1  0.57255944  0.42506930  0.01846253  1
  O2-  O225  1  0.57148897  0.43132299  0.52276705  1
  O2-  O226  1  0.56938456  0.76095891  0.01710714  1
  O2-  O227  1  0.57214903  0.76201847  0.52134559  1
  O2-  O228  1  0.90558525  0.09615030  0.01863537  1
  O2-  O229  1  0.90169164  0.09559203  0.51763545  1
  O2-  O230  1  0.90689560  0.42827729  0.01316745  1
  O2-  O231  1  0.90564514  0.43020675  0.52117916  1
  O2-  O232  1  0.90676735  0.76808493  0.02109098  1
  O2-  O233  1  0.90358270  0.76526930  0.51774870  1
  O2-  O234  1  0.26270695  0.25927621  0.22828030  1
  O2-  O235  1  0.25675294  0.25599352  0.73130254  1
  O2-  O236  1  0.25873296  0.59759686  0.22942721  1
  O2-  O237  1  0.26035067  0.59510412  0.72995898  1
  O2-  O238  1  0.26235401  0.92950514  0.22857704  1
  O2-  O239  1  0.25738152  0.92440106  0.72874982  1
  O2-  O240  1  0.59953963  0.26353666  0.23456659  1
  O2-  O241  1  0.59504306  0.26140239  0.73026252  1
  O2-  O242  1  0.58945364  0.59285689  0.23179011  1
  O2-  O243  1  0.59877837  0.59592166  0.73214918  1
  O2-  O244  1  0.58914223  0.92396921  0.22953060  1
  O2-  O245  1  0.59517666  0.92826601  0.73155295  1
  O2-  O246  1  0.93093539  0.26285735  0.22811666  1
  O2-  O247  1  0.92680382  0.26134901  0.72853750  1
  O2-  O248  1  0.93303087  0.59786786  0.23539310  1
  O2-  O249  1  0.92743581  0.59595594  0.72626719  1
  O2-  O250  1  0.93272816  0.93156486  0.23134183  1
  O2-  O251  1  0.93117442  0.92864576  0.72862504  1
  O2-  O252  1  0.09354729  0.23731387  0.27295289  1
  O2-  O253  1  0.09290948  0.23809295  0.76782286  1
  O2-  O254  1  0.09574079  0.57212762  0.27192843  1
  O2-  O255  1  0.09884788  0.56860973  0.76805467  1
  O2-  O256  1  0.09450735  0.90626607  0.27279544  1
  O2-  O257  1  0.09651915  0.90229901  0.77157870  1
  O2-  O258  1  0.42940457  0.24038197  0.27293562  1
  O2-  O259  1  0.42820960  0.23472613  0.76482025  1
  O2-  O260  1  0.42745335  0.57324852  0.27173799  1
  O2-  O261  1  0.42665969  0.57528879  0.77355329  1
  O2-  O262  1  0.42865288  0.90303662  0.26848710  1
  O2-  O263  1  0.43045680  0.90500925  0.76727674  1
  O2-  O264  1  0.76414160  0.23623262  0.27156156  1
  O2-  O265  1  0.75736234  0.24091684  0.76807736  1
  O2-  O266  1  0.75883258  0.57334025  0.27145441  1
  O2-  O267  1  0.76338298  0.57318060  0.77231839  1
  O2-  O268  1  0.76296851  0.90655386  0.26551981  1
  O2-  O269  1  0.76369934  0.90613733  0.77140633  1
  O2-  O270  1  0.07067336  0.07339583  0.47582386  1
  O2-  O271  1  0.07457534  0.07193344  0.97895302  1
  O2-  O272  1  0.07211051  0.40431576  0.47833000  1
  O2-  O273  1  0.07181215  0.40756334  0.97960236  1
  O2-  O274  1  0.07432267  0.74085142  0.47755919  1
  O2-  O275  1  0.06741167  0.73418264  0.98014585  1
  O2-  O276  1  0.40636089  0.07065407  0.47470926  1
  O2-  O277  1  0.40375670  0.07135751  0.97621833  1
  O2-  O278  1  0.40846901  0.40535445  0.47564051  1
  O2-  O279  1  0.41023961  0.40618763  0.98408906  1
  O2-  O280  1  0.40515508  0.73969091  0.48028043  1
  O2-  O281  1  0.40186434  0.74080731  0.97887377  1
  O2-  O282  1  0.73422336  0.06558370  0.48070604  1
  O2-  O283  1  0.73597386  0.07358835  0.98228951  1
  O2-  O284  1  0.73764042  0.40494263  0.47988496  1
  O2-  O285  1  0.73916041  0.40704346  0.97846868  1
  O2-  O286  1  0.73761883  0.73846289  0.47977139  1
  O2-  O287  1  0.74102927  0.74056444  0.97704151  1
  O2-  O288  1  0.09186861  0.23750952  0.47717980  1
  O2-  O289  1  0.09439078  0.23667924  0.98260012  1
  O2-  O290  1  0.09629793  0.57239862  0.47803999  1
  O2-  O291  1  0.09827145  0.56850882  0.98292460  1
  O2-  O292  1  0.09301297  0.90551925  0.47927403  1
  O2-  O293  1  0.09781181  0.90420552  0.97588815  1
  O2-  O294  1  0.43011375  0.23872557  0.47839244  1
  O2-  O295  1  0.42792610  0.23767652  0.98423176  1
  O2-  O296  1  0.42743315  0.57453300  0.47703970  1
  O2-  O297  1  0.42756003  0.57418749  0.97805439  1
  O2-  O298  1  0.43140885  0.90435885  0.48335547  1
  O2-  O299  1  0.42758256  0.90411045  0.97994276  1
  O2-  O300  1  0.76189414  0.23326711  0.47716383  1
  O2-  O301  1  0.75787809  0.24259373  0.98321964  1
  O2-  O302  1  0.76334213  0.57290348  0.48056705  1
  O2-  O303  1  0.75865422  0.57337598  0.97664742  1
  O2-  O304  1  0.76558426  0.90250727  0.48368513  1
  O2-  O305  1  0.76142009  0.90868159  0.97975882  1
  O2-  O306  1  0.07202924  0.07371497  0.27446845  1
  O2-  O307  1  0.07499432  0.07048882  0.77047852  1
  O2-  O308  1  0.07337361  0.40888089  0.27466269  1
  O2-  O309  1  0.07098015  0.40329077  0.76862738  1
  O2-  O310  1  0.07126478  0.73895040  0.27154628  1
  O2-  O311  1  0.06899372  0.73562702  0.77095428  1
  O2-  O312  1  0.40463107  0.06968238  0.27478481  1
  O2-  O313  1  0.40499567  0.07136938  0.77345482  1
  O2-  O314  1  0.40858206  0.40331382  0.27081276  1
  O2-  O315  1  0.40979759  0.40840535  0.76926954  1
  O2-  O316  1  0.40385174  0.73876215  0.26882810  1
  O2-  O317  1  0.40269743  0.74177158  0.77230128  1
  O2-  O318  1  0.73566304  0.07048033  0.26989624  1
  O2-  O319  1  0.73480921  0.07052426  0.76718825  1
  O2-  O320  1  0.74080245  0.40321633  0.27039940  1
  O2-  O321  1  0.73853947  0.40689183  0.77148503  1
  O2-  O322  1  0.74002900  0.74079121  0.27056711  1
  O2-  O323  1  0.73884941  0.73834520  0.77312739  1
  O2-  O324  1  0.23376130  0.09496550  0.23229621  1
  O2-  O325  1  0.23594836  0.09504876  0.73199733  1
  O2-  O326  1  0.24029705  0.42713942  0.22821141  1
  O2-  O327  1  0.23649880  0.42854359  0.73324033  1
  O2-  O328  1  0.23678984  0.76373662  0.22767689  1
  O2-  O329  1  0.23711300  0.75753490  0.72756187  1
  O2-  O330  1  0.56563404  0.09794612  0.23157169  1
  O2-  O331  1  0.57048831  0.09557264  0.73066234  1
  O2-  O332  1  0.57131699  0.42614385  0.23017512  1
  O2-  O333  1  0.57385560  0.43026308  0.72865057  1
  O2-  O334  1  0.56933308  0.76161971  0.23160946  1
  O2-  O335  1  0.57186054  0.76180380  0.72921192  1
  O2-  O336  1  0.90218539  0.09633272  0.23465116  1
  O2-  O337  1  0.90489545  0.09471472  0.72925711  1
  O2-  O338  1  0.90722292  0.42843681  0.23862682  1
  O2-  O339  1  0.90486317  0.42896515  0.72817565  1
  O2-  O340  1  0.90751457  0.76674506  0.22709654  1
  O2-  O341  1  0.90207660  0.76560136  0.73341179  1
  O2-  O342  1  0.26031229  0.25748008  0.02649952  1
  O2-  O343  1  0.25865850  0.25746052  0.51544359  1
  O2-  O344  1  0.25921064  0.59646431  0.02041174  1
  O2-  O345  1  0.25997617  0.59632885  0.52043848  1
  O2-  O346  1  0.26287370  0.93109249  0.02396342  1
  O2-  O347  1  0.25665034  0.92143240  0.51811199  1
  O2-  O348  1  0.59584707  0.26258111  0.01763981  1
  O2-  O349  1  0.59795321  0.26217941  0.51825083  1
  O2-  O350  1  0.59238027  0.58994431  0.01699402  1
  O2-  O351  1  0.59715596  0.59795239  0.51785519  1
  O2-  O352  1  0.59015147  0.92589371  0.01688868  1
  O2-  O353  1  0.59489860  0.92569548  0.52145221  1
  O2-  O354  1  0.92973111  0.26055370  0.02059107  1
  O2-  O355  1  0.92893394  0.26174433  0.52214218  1
  O2-  O356  1  0.93197551  0.59523058  0.01585065  1
  O2-  O357  1  0.92910694  0.59907968  0.52235558  1
  O2-  O358  1  0.93552848  0.93024778  0.01757528  1
  O2-  O359  1  0.92853035  0.93121045  0.52182104  1
