# generated using pymatgen
data_Sr7Ca15Pr50Mn72O216
_symmetry_space_group_name_H-M   'P 1'
_cell_length_a   16.55703652
_cell_length_b   16.60584601
_cell_length_c   15.59302219
_cell_angle_alpha   90.00517010
_cell_angle_beta   90.00180623
_cell_angle_gamma   89.99240955
_symmetry_Int_Tables_number   1
_chemical_formula_structural   Sr7Ca15Pr50Mn72O216
_chemical_formula_sum   'Sr7 Ca15 Pr50 Mn72 O216'
_cell_volume   4287.20158061
_cell_formula_units_Z   1
loop_
 _symmetry_equiv_pos_site_id
 _symmetry_equiv_pos_as_xyz
  1  'x, y, z'
loop_
 _atom_type_symbol
 _atom_type_oxidation_number
  Sr2+  2.0
  Ca2+  2.0
  Pr3+  3.0
  Mn3.30+  3.3
  O2-  -2.0
loop_
 _atom_site_type_symbol
 _atom_site_label
 _atom_site_symmetry_multiplicity
 _atom_site_fract_x
 _atom_site_fract_y
 _atom_site_fract_z
 _atom_site_occupancy
  Sr2+  Sr0  1  0.83567791  0.84542409  0.12367573  1
  Sr2+  Sr1  1  0.16955567  0.84128401  0.62425740  1
  Sr2+  Sr2  1  0.50006807  0.17457467  0.62581664  1
  Sr2+  Sr3  1  0.83777174  0.84327407  0.62638383  1
  Sr2+  Sr4  1  0.16860251  0.17564439  0.62520312  1
  Sr2+  Sr5  1  0.16657006  0.49013320  0.37859702  1
  Sr2+  Sr6  1  0.33367588  0.65525998  0.37875023  1
  Ca2+  Ca7  1  -0.00692122  0.01816003  0.12296489  1
  Ca2+  Ca8  1  -0.00090380  0.34954215  0.62460504  1
  Ca2+  Ca9  1  0.66310673  0.34562209  0.12467142  1
  Ca2+  Ca10  1  0.33288909  0.32104013  0.37604212  1
  Ca2+  Ca11  1  0.32894541  0.34705974  0.12548004  1
  Ca2+  Ca12  1  0.17084657  0.51523841  0.62454398  1
  Ca2+  Ca13  1  0.49939366  0.51480709  0.62433724  1
  Ca2+  Ca14  1  0.32959828  0.01706885  0.12441812  1
  Ca2+  Ca15  1  0.33511695  0.31842858  0.87467241  1
  Ca2+  Ca16  1  1.00412122  0.98584492  0.87730153  1
  Ca2+  Ca17  1  0.66578367  0.01602478  0.12464684  1
  Ca2+  Ca18  1  0.32904219  0.67931726  0.62492861  1
  Ca2+  Ca19  1  0.83700806  0.51364951  0.62567398  1
  Ca2+  Ca20  1  0.33667671  0.65160093  0.87026395  1
  Ca2+  Ca21  1  0.83499439  0.17970736  0.12518117  1
  Pr3+  Pr22  1  0.49266650  0.48470094  0.87191259  1
  Pr3+  Pr23  1  -0.00253444  0.67848081  0.12463387  1
  Pr3+  Pr24  1  0.67009951  0.98847878  0.37286280  1
  Pr3+  Pr25  1  0.32826621  0.01287382  0.62547575  1
  Pr3+  Pr26  1  0.83964781  0.18009727  0.62519782  1
  Pr3+  Pr27  1  0.83062196  0.48671579  0.37781209  1
  Pr3+  Pr28  1  0.83287215  0.50932689  0.12467775  1
  Pr3+  Pr29  1  0.49727670  0.15469307  0.87520539  1
  Pr3+  Pr30  1  0.66805820  0.31996519  0.37408837  1
  Pr3+  Pr31  1  -0.00238732  0.34403893  0.12451086  1
  Pr3+  Pr32  1  0.16557312  0.81911138  0.37551747  1
  Pr3+  Pr33  1  0.49969814  0.50902921  0.12504491  1
  Pr3+  Pr34  1  0.17029703  0.50977020  0.12539453  1
  Pr3+  Pr35  1  0.66487224  0.67847813  0.62561422  1
  Pr3+  Pr36  1  0.65956126  0.34748711  0.62484451  1
  Pr3+  Pr37  1  0.83121215  0.15359496  0.37226922  1
  Pr3+  Pr38  1  0.32984492  0.67738993  0.12505828  1
  Pr3+  Pr39  1  0.66972414  0.98858971  0.87734641  1
  Pr3+  Pr40  1  0.83238046  0.15315824  0.87790819  1
  Pr3+  Pr41  1  0.16678056  0.15815923  0.37488304  1
  Pr3+  Pr42  1  0.83154434  0.81974220  0.37420798  1
  Pr3+  Pr43  1  0.50233088  0.18217218  0.12395013  1
  Pr3+  Pr44  1  0.83347731  0.82118042  0.87567462  1
  Pr3+  Pr45  1  0.16540506  0.82026280  0.87440527  1
  Pr3+  Pr46  1  0.17038662  0.85038844  0.12534524  1
  Pr3+  Pr47  1  0.66865989  0.65244066  0.87455088  1
  Pr3+  Pr48  1  1.00440905  0.32192383  0.37616424  1
  Pr3+  Pr49  1  0.66808470  0.65270036  0.37579339  1
  Pr3+  Pr50  1  0.49666069  0.15588154  0.37454194  1
  Pr3+  Pr51  1  0.32804768  0.34537566  0.62555790  1
  Pr3+  Pr52  1  1.00232380  0.32073109  0.87365185  1
  Pr3+  Pr53  1  0.82931710  0.48661644  0.87254559  1
  Pr3+  Pr54  1  0.16712181  0.48716130  0.87166022  1
  Pr3+  Pr55  1  0.33576948  0.98923853  0.37392193  1
  Pr3+  Pr56  1  0.17072528  0.18191266  0.12470215  1
  Pr3+  Pr57  1  0.50523606  0.84891139  0.12520846  1
  Pr3+  Pr58  1  0.16363829  0.15262851  0.87524674  1
  Pr3+  Pr59  1  1.00556255  0.65329228  0.37760199  1
  Pr3+  Pr60  1  0.49108624  0.48387380  0.37769824  1
  Pr3+  Pr61  1  -0.00043477  0.67888907  0.62537918  1
  Pr3+  Pr62  1  0.49678487  0.81864394  0.37415090  1
  Pr3+  Pr63  1  1.00350381  0.98816946  0.37217681  1
  Pr3+  Pr64  1  0.66253214  0.67836286  0.12468526  1
  Pr3+  Pr65  1  1.00303113  0.65518185  0.87298707  1
  Pr3+  Pr66  1  0.49478329  0.81666021  0.87568744  1
  Pr3+  Pr67  1  0.33561767  0.98859301  0.87598389  1
  Pr3+  Pr68  1  0.50089030  0.84200064  0.62446021  1
  Pr3+  Pr69  1  -0.00067969  0.01005274  0.62730597  1
  Pr3+  Pr70  1  0.66613765  0.01199833  0.62574250  1
  Pr3+  Pr71  1  0.66860189  0.31982289  0.87570760  1
  Mn3.30+  Mn72  1  0.16493932  0.00131211  0.00268038  1
  Mn3.30+  Mn73  1  0.16743309  0.00002911  0.49872109  1
  Mn3.30+  Mn74  1  0.16924775  0.33348327  -0.00207817  1
  Mn3.30+  Mn75  1  0.16594893  0.33473025  0.50263622  1
  Mn3.30+  Mn76  1  0.16854497  0.66592223  -0.00177005  1
  Mn3.30+  Mn77  1  0.16913483  0.66438970  0.50244573  1
  Mn3.30+  Mn78  1  0.50032769  0.00102715  0.00252328  1
  Mn3.30+  Mn79  1  0.50085570  -0.00022883  0.49962276  1
  Mn3.30+  Mn80  1  0.49777189  0.33374456  0.00022311  1
  Mn3.30+  Mn81  1  0.49718937  0.33239122  0.50173468  1
  Mn3.30+  Mn82  1  0.49680418  0.66449783  -0.00113054  1
  Mn3.30+  Mn83  1  0.49840695  0.66457322  0.50251626  1
  Mn3.30+  Mn84  1  0.83608594  0.00069575  0.00209534  1
  Mn3.30+  Mn85  1  0.83475187  -0.00012024  0.49969459  1
  Mn3.30+  Mn86  1  0.83181518  0.33188173  0.00170210  1
  Mn3.30+  Mn87  1  0.83439671  0.33453207  0.50224962  1
  Mn3.30+  Mn88  1  0.83321001  0.66580350  -0.00008638  1
  Mn3.30+  Mn89  1  0.83440200  0.66490178  0.50084666  1
  Mn3.30+  Mn90  1  -0.00111310  0.16677215  0.24799028  1
  Mn3.30+  Mn91  1  0.00093515  0.16684577  0.75022460  1
  Mn3.30+  Mn92  1  -0.00009957  0.49902214  0.25027013  1
  Mn3.30+  Mn93  1  0.00033534  0.49907305  0.74703766  1
  Mn3.30+  Mn94  1  -0.00008511  0.83521389  0.24766644  1
  Mn3.30+  Mn95  1  0.00153733  0.83482104  0.75138271  1
  Mn3.30+  Mn96  1  0.33386753  0.16890402  0.24806961  1
  Mn3.30+  Mn97  1  0.33234945  0.16834511  0.75134381  1
  Mn3.30+  Mn98  1  0.33282689  0.49680726  0.25213332  1
  Mn3.30+  Mn99  1  0.33249627  0.50082449  0.74729713  1
  Mn3.30+  Mn100  1  0.33447345  0.83464044  0.24772772  1
  Mn3.30+  Mn101  1  0.33307224  0.83089217  0.75049394  1
  Mn3.30+  Mn102  1  0.66692574  0.16719473  0.24618032  1
  Mn3.30+  Mn103  1  0.66776531  0.16703891  0.75022627  1
  Mn3.30+  Mn104  1  0.66441082  0.49766056  0.25075652  1
  Mn3.30+  Mn105  1  0.66427020  0.49952323  0.74729630  1
  Mn3.30+  Mn106  1  0.66721884  0.83486993  0.24830523  1
  Mn3.30+  Mn107  1  0.66677656  0.83331920  0.75090008  1
  Mn3.30+  Mn108  1  0.16671013  0.00263318  0.24691974  1
  Mn3.30+  Mn109  1  0.16634946  -0.00151384  0.75165682  1
  Mn3.30+  Mn110  1  0.16892144  0.33460777  0.25167670  1
  Mn3.30+  Mn111  1  0.16630543  0.33374952  0.74769058  1
  Mn3.30+  Mn112  1  0.16609021  0.66543467  0.24982820  1
  Mn3.30+  Mn113  1  0.17152839  0.66515487  0.75005648  1
  Mn3.30+  Mn114  1  0.50058518  0.00207085  0.24709045  1
  Mn3.30+  Mn115  1  0.50054473  -0.00135127  0.75052417  1
  Mn3.30+  Mn116  1  0.49776706  0.33337333  0.24854375  1
  Mn3.30+  Mn117  1  0.49697769  0.33275410  0.74901738  1
  Mn3.30+  Mn118  1  0.49826412  0.66483517  0.25028837  1
  Mn3.30+  Mn119  1  0.49704102  0.66446958  0.74806284  1
  Mn3.30+  Mn120  1  0.83446214  0.00094855  0.24496236  1
  Mn3.30+  Mn121  1  0.83595852  -0.00011930  0.75292993  1
  Mn3.30+  Mn122  1  0.83219904  0.33220963  0.24845951  1
  Mn3.30+  Mn123  1  0.83424781  0.33464165  0.74748409  1
  Mn3.30+  Mn124  1  0.83365433  0.66557413  0.25005389  1
  Mn3.30+  Mn125  1  0.83412793  0.66500347  0.74931386  1
  Mn3.30+  Mn126  1  -0.00101447  0.16502400  0.00088057  1
  Mn3.30+  Mn127  1  0.00060697  0.16817129  0.50110179  1
  Mn3.30+  Mn128  1  0.00007727  0.49924529  -0.00175780  1
  Mn3.30+  Mn129  1  0.00014002  0.49872607  0.50446631  1
  Mn3.30+  Mn130  1  0.00103537  0.83629642  0.00090376  1
  Mn3.30+  Mn131  1  0.00018438  0.83432280  0.50003127  1
  Mn3.30+  Mn132  1  0.33312901  0.16817517  0.00095078  1
  Mn3.30+  Mn133  1  0.33300921  0.16901997  0.49951365  1
  Mn3.30+  Mn134  1  0.33308148  0.49802538  -0.00191011  1
  Mn3.30+  Mn135  1  0.33235603  0.49934160  0.50280502  1
  Mn3.30+  Mn136  1  0.33358040  0.83362237  0.00139593  1
  Mn3.30+  Mn137  1  0.33377682  0.83208631  0.50027595  1
  Mn3.30+  Mn138  1  0.66761933  0.16701794  0.00345612  1
  Mn3.30+  Mn139  1  0.66717867  0.16690024  0.49994793  1
  Mn3.30+  Mn140  1  0.66411643  0.49756218  -0.00023502  1
  Mn3.30+  Mn141  1  0.66441248  0.49962227  0.50212296  1
  Mn3.30+  Mn142  1  0.66659430  0.83485106  0.00097832  1
  Mn3.30+  Mn143  1  0.66776688  0.83338202  0.50032446  1
  O2-  O144  1  0.02653288  0.16467964  0.12310626  1
  O2-  O145  1  0.01932018  0.15597314  0.62592147  1
  O2-  O146  1  0.02505463  0.49326799  0.12171958  1
  O2-  O147  1  0.02778802  0.49449347  0.62649041  1
  O2-  O148  1  0.02720548  0.82344933  0.12453929  1
  O2-  O149  1  0.01908249  0.83008372  0.62683953  1
  O2-  O150  1  0.35818017  0.15943429  0.12440822  1
  O2-  O151  1  0.35058139  0.16035074  0.62574477  1
  O2-  O152  1  0.35614565  0.49196292  0.12426267  1
  O2-  O153  1  0.36080353  0.48896901  0.62560932  1
  O2-  O154  1  0.36077988  0.82418844  0.12420771  1
  O2-  O155  1  0.35737118  0.82870057  0.62653705  1
  O2-  O156  1  0.69366409  0.15950924  0.12446803  1
  O2-  O157  1  0.69445892  0.16007853  0.62688324  1
  O2-  O158  1  0.68919912  0.49350095  0.12676036  1
  O2-  O159  1  0.69412687  0.49400432  0.62513743  1
  O2-  O160  1  0.68615999  0.82366273  0.12418364  1
  O2-  O161  1  0.68820837  0.82697764  0.62561769  1
  O2-  O162  1  0.14136688  0.33136382  0.12335921  1
  O2-  O163  1  0.13990253  0.32676390  0.62653143  1
  O2-  O164  1  0.14119388  0.65869962  0.12268810  1
  O2-  O165  1  0.14280269  0.66429603  0.62625704  1
  O2-  O166  1  0.13593581  0.99747452  0.12532019  1
  O2-  O167  1  0.14442707  0.99768236  0.62525123  1
  O2-  O168  1  0.47104468  0.33093345  0.12371594  1
  O2-  O169  1  0.47327955  0.32618987  0.62611474  1
  O2-  O170  1  0.47407140  0.65836703  0.12287164  1
  O2-  O171  1  0.47335369  0.66574696  0.62548451  1
  O2-  O172  1  0.47088390  0.99511280  0.12481590  1
  O2-  O173  1  0.47344716  0.99149552  0.62574914  1
  O2-  O174  1  0.80605899  0.32907843  0.12363571  1
  O2-  O175  1  0.80323760  0.32475746  0.62470743  1
  O2-  O176  1  0.80687863  0.65869417  0.12466063  1
  O2-  O177  1  0.80893742  0.66173946  0.62582354  1
  O2-  O178  1  0.80604639  0.99550917  0.12440181  1
  O2-  O179  1  0.81033148  0.99922903  0.62735335  1
  O2-  O180  1  0.31129659  0.17249567  0.37205010  1
  O2-  O181  1  0.30920668  0.17090655  0.87760353  1
  O2-  O182  1  0.31530480  0.50319490  0.37816540  1
  O2-  O183  1  0.30947684  0.50964119  0.87228177  1
  O2-  O184  1  0.31008616  0.84139001  0.37059339  1
  O2-  O185  1  0.30897156  0.84251856  0.87875531  1
  O2-  O186  1  0.64166330  0.17155798  0.37141637  1
  O2-  O187  1  0.64190543  0.17161874  0.87693049  1
  O2-  O188  1  0.63760225  0.50493697  0.37625856  1
  O2-  O189  1  0.63846741  0.50420755  0.87178676  1
  O2-  O190  1  0.64107732  0.83958225  0.37347459  1
  O2-  O191  1  0.63961867  0.83972669  0.87708729  1
  O2-  O192  1  0.97452424  0.17403813  0.37528642  1
  O2-  O193  1  0.97503212  0.17486014  0.87545815  1
  O2-  O194  1  0.97430562  0.50478114  0.37778418  1
  O2-  O195  1  0.97342668  0.50584972  0.87398013  1
  O2-  O196  1  0.97532814  0.83957206  0.37204111  1
  O2-  O197  1  0.97764474  0.83801562  0.87687609  1
  O2-  O198  1  0.19166477  0.00644614  0.37094861  1
  O2-  O199  1  0.19202891  0.00343409  0.87883214  1
  O2-  O200  1  0.18929249  0.33304863  0.37566944  1
  O2-  O201  1  0.19242482  0.33933264  0.87405292  1
  O2-  O202  1  0.18335118  0.67029167  0.37558674  1
  O2-  O203  1  0.19568396  0.67236443  0.87608022  1
  O2-  O204  1  0.52606914  0.00633667  0.37197840  1
  O2-  O205  1  0.52524246  0.00486222  0.87709686  1
  O2-  O206  1  0.52478194  0.33613961  0.37519734  1
  O2-  O207  1  0.52524210  0.33744715  0.87440597  1
  O2-  O208  1  0.52460005  0.66980927  0.37702654  1
  O2-  O209  1  0.52551882  0.66892014  0.87474642  1
  O2-  O210  1  0.85903220  0.00587085  0.37113771  1
  O2-  O211  1  0.86234553  0.00723128  0.87728878  1
  O2-  O212  1  0.85977771  0.33953713  0.37690458  1
  O2-  O213  1  0.85770915  0.33960523  0.87431901  1
  O2-  O214  1  0.85980562  0.66950071  0.37450417  1
  O2-  O215  1  0.85700397  0.66832331  0.87526766  1
  O2-  O216  1  0.23436692  0.09699612  0.01830660  1
  O2-  O217  1  0.24205684  0.09280065  0.51282870  1
  O2-  O218  1  0.23490847  0.43147007  0.01503339  1
  O2-  O219  1  0.23735887  0.42714132  0.52514761  1
  O2-  O220  1  0.23773235  0.76146263  0.02330029  1
  O2-  O221  1  0.24138682  0.75989960  0.51127992  1
  O2-  O222  1  0.57056516  0.09697776  0.01870427  1
  O2-  O223  1  0.57571928  0.08976644  0.51813736  1
  O2-  O224  1  0.56853013  0.42825596  0.01742210  1
  O2-  O225  1  0.56818895  0.42797404  0.52210551  1
  O2-  O226  1  0.56743098  0.75881534  0.01928187  1
  O2-  O227  1  0.57373593  0.75975130  0.51944506  1
  O2-  O228  1  0.90132182  0.09923155  0.02063723  1
  O2-  O229  1  0.90574366  0.09599965  0.51724563  1
  O2-  O230  1  0.90292990  0.42611744  0.02013083  1
  O2-  O231  1  0.90032290  0.43110033  0.52068056  1
  O2-  O232  1  0.91014653  0.75961625  0.01612092  1
  O2-  O233  1  0.90827776  0.75870854  0.51526359  1
  O2-  O234  1  0.26125718  0.26137695  0.22690071  1
  O2-  O235  1  0.26054454  0.26405580  0.73346751  1
  O2-  O236  1  0.26031765  0.59139323  0.22840134  1
  O2-  O237  1  0.26425878  0.59596128  0.72747867  1
  O2-  O238  1  0.26187325  0.93151761  0.22606965  1
  O2-  O239  1  0.26521005  0.92976203  0.73472328  1
  O2-  O240  1  0.59513361  0.26310983  0.22695317  1
  O2-  O241  1  0.59798215  0.26325782  0.73410567  1
  O2-  O242  1  0.59434688  0.59524421  0.22979614  1
  O2-  O243  1  0.59631585  0.59673146  0.73003193  1
  O2-  O244  1  0.59495554  0.93132207  0.22742426  1
  O2-  O245  1  0.59455683  0.92640886  0.72922775  1
  O2-  O246  1  0.92900760  0.26267683  0.23062938  1
  O2-  O247  1  0.92831947  0.26449512  0.72824716  1
  O2-  O248  1  0.92595972  0.59219236  0.22762018  1
  O2-  O249  1  0.93147999  0.59458454  0.73056595  1
  O2-  O250  1  0.93368608  0.93261824  0.23055525  1
  O2-  O251  1  0.92916017  0.93087708  0.73393200  1
  O2-  O252  1  0.09572571  0.24054595  0.26816705  1
  O2-  O253  1  0.09273851  0.23871652  0.77374913  1
  O2-  O254  1  0.08944987  0.57346672  0.26662215  1
  O2-  O255  1  0.09526757  0.57498114  0.77274600  1
  O2-  O256  1  0.09728970  0.90438109  0.26978230  1
  O2-  O257  1  0.09640094  0.90509676  0.77088922  1
  O2-  O258  1  0.43263885  0.23597099  0.26544021  1
  O2-  O259  1  0.42866240  0.23836976  0.77128946  1
  O2-  O260  1  0.42942773  0.56640553  0.26489109  1
  O2-  O261  1  0.43006899  0.57009613  0.76728182  1
  O2-  O262  1  0.43089571  0.90589138  0.26963802  1
  O2-  O263  1  0.42813112  0.90281484  0.77130818  1
  O2-  O264  1  0.76027693  0.24032150  0.27289158  1
  O2-  O265  1  0.76336701  0.23832085  0.77165649  1
  O2-  O266  1  0.75952740  0.57114128  0.27147934  1
  O2-  O267  1  0.75789431  0.57207177  0.77181126  1
  O2-  O268  1  0.76226869  0.90632921  0.27191972  1
  O2-  O269  1  0.76224784  0.90857490  0.77478274  1
  O2-  O270  1  0.07258387  0.07362814  0.47849812  1
  O2-  O271  1  0.07123196  0.07281942  0.97628498  1
  O2-  O272  1  0.06840022  0.40413208  0.48257962  1
  O2-  O273  1  0.07153842  0.40506547  0.97786463  1
  O2-  O274  1  0.07315772  0.74087908  0.48180723  1
  O2-  O275  1  0.07409209  0.73816857  0.97837785  1
  O2-  O276  1  0.40711049  0.07264480  0.47989481  1
  O2-  O277  1  0.40706607  0.07257055  0.97804630  1
  O2-  O278  1  0.40313300  0.40173368  0.47961064  1
  O2-  O279  1  0.40291986  0.40512926  0.97474556  1
  O2-  O280  1  0.41175549  0.74336141  0.48072813  1
  O2-  O281  1  0.40411201  0.73369596  0.97765286  1
  O2-  O282  1  0.74072245  0.07142877  0.47890788  1
  O2-  O283  1  0.73944910  0.07309150  0.97736532  1
  O2-  O284  1  0.73569147  0.40471644  0.47866212  1
  O2-  O285  1  0.73902736  0.40658944  0.97741247  1
  O2-  O286  1  0.73940014  0.73940408  0.47813911  1
  O2-  O287  1  0.73971101  0.73827331  0.97898195  1
  O2-  O288  1  0.09286465  0.23950918  0.47798042  1
  O2-  O289  1  0.09555379  0.23941713  0.97983293  1
  O2-  O290  1  0.08991513  0.57577170  0.48419799  1
  O2-  O291  1  0.09554315  0.57356171  0.97625557  1
  O2-  O292  1  0.09441492  0.90713619  0.47586286  1
  O2-  O293  1  0.09953747  0.90230796  0.98369533  1
  O2-  O294  1  0.42867967  0.23762170  0.48057332  1
  O2-  O295  1  0.43271632  0.23709030  0.98226833  1
  O2-  O296  1  0.43134507  0.56953959  0.48525077  1
  O2-  O297  1  0.43049526  0.56706707  0.98285954  1
  O2-  O298  1  0.42954359  0.90632421  0.47831376  1
  O2-  O299  1  0.43062125  0.90418710  0.98048420  1
  O2-  O300  1  0.76375058  0.23911944  0.47873392  1
  O2-  O301  1  0.76059670  0.24018652  0.97682800  1
  O2-  O302  1  0.75940405  0.57341368  0.47750029  1
  O2-  O303  1  0.75824334  0.57009892  0.97962888  1
  O2-  O304  1  0.76109183  0.90665384  0.47725322  1
  O2-  O305  1  0.76461107  0.90860554  0.97588938  1
  O2-  O306  1  0.07321961  0.07585326  0.27263624  1
  O2-  O307  1  0.07252917  0.07037447  0.77185896  1
  O2-  O308  1  0.06879570  0.40345583  0.26625797  1
  O2-  O309  1  0.07193933  0.40636656  0.77297315  1
  O2-  O310  1  0.07166324  0.73994036  0.26980645  1
  O2-  O311  1  0.07568400  0.73839831  0.77085225  1
  O2-  O312  1  0.40672751  0.07354104  0.27192536  1
  O2-  O313  1  0.40778176  0.07151870  0.77011617  1
  O2-  O314  1  0.40381473  0.40287896  0.27331098  1
  O2-  O315  1  0.40134799  0.40415489  0.77214572  1
  O2-  O316  1  0.40863973  0.73815828  0.26803628  1
  O2-  O317  1  0.40659855  0.73887421  0.77395909  1
  O2-  O318  1  0.73895788  0.07298868  0.27169751  1
  O2-  O319  1  0.74139254  0.07161417  0.77287308  1
  O2-  O320  1  0.73963468  0.40680912  0.27351893  1
  O2-  O321  1  0.73562112  0.40430400  0.77054163  1
  O2-  O322  1  0.73986172  0.73787536  0.27141766  1
  O2-  O323  1  0.73885230  0.74021802  0.77214519  1
  O2-  O324  1  0.23727135  0.09815478  0.23093851  1
  O2-  O325  1  0.24034245  0.09108425  0.73740027  1
  O2-  O326  1  0.23733810  0.42811559  0.23071373  1
  O2-  O327  1  0.23579828  0.43140529  0.72904099  1
  O2-  O328  1  0.23868375  0.76118153  0.22929004  1
  O2-  O329  1  0.24014442  0.76210053  0.73619459  1
  O2-  O330  1  0.57020286  0.09717308  0.22902231  1
  O2-  O331  1  0.57799889  0.09078688  0.73283651  1
  O2-  O332  1  0.56765658  0.42753041  0.23262536  1
  O2-  O333  1  0.56877208  0.42882859  0.72725862  1
  O2-  O334  1  0.57203968  0.76121598  0.23099574  1
  O2-  O335  1  0.56964061  0.75909391  0.73139919  1
  O2-  O336  1  0.90194764  0.09767505  0.23013220  1
  O2-  O337  1  0.90526603  0.09655088  0.73201447  1
  O2-  O338  1  0.90419395  0.42778153  0.22920479  1
  O2-  O339  1  0.89963243  0.43031486  0.73116663  1
  O2-  O340  1  0.90837465  0.75969839  0.23170612  1
  O2-  O341  1  0.91040476  0.75866522  0.73667377  1
  O2-  O342  1  0.26071394  0.26278123  0.02308280  1
  O2-  O343  1  0.26125112  0.26290411  0.51685524  1
  O2-  O344  1  0.26121163  0.59236472  0.02276013  1
  O2-  O345  1  0.26237184  0.59329337  0.52271191  1
  O2-  O346  1  0.26121715  0.93186808  0.02417946  1
  O2-  O347  1  0.26489792  0.92963523  0.51507464  1
  O2-  O348  1  0.59596717  0.26258896  0.02170059  1
  O2-  O349  1  0.59658496  0.26361357  0.51631343  1
  O2-  O350  1  0.59447926  0.59478265  0.02006671  1
  O2-  O351  1  0.59704068  0.59712114  0.52038286  1
  O2-  O352  1  0.59462158  0.93112510  0.02304809  1
  O2-  O353  1  0.59541037  0.92644173  0.52073331  1
  O2-  O354  1  0.92945004  0.26296482  0.01707285  1
  O2-  O355  1  0.92915174  0.26280602  0.52307380  1
  O2-  O356  1  0.92692497  0.59265710  0.02075243  1
  O2-  O357  1  0.92994524  0.59430255  0.52062474  1
  O2-  O358  1  0.93200808  0.93143319  0.01989329  1
  O2-  O359  1  0.93088624  0.93185205  0.51531169  1
