# generated using pymatgen
data_Sr7Ca15Pr50Mn72O216
_symmetry_space_group_name_H-M   'P 1'
_cell_length_a   16.55870395
_cell_length_b   16.60570698
_cell_length_c   15.59375930
_cell_angle_alpha   89.99750841
_cell_angle_beta   90.00493688
_cell_angle_gamma   90.00492771
_symmetry_Int_Tables_number   1
_chemical_formula_structural   Sr7Ca15Pr50Mn72O216
_chemical_formula_sum   'Sr7 Ca15 Pr50 Mn72 O216'
_cell_volume   4287.80014121
_cell_formula_units_Z   1
loop_
 _symmetry_equiv_pos_site_id
 _symmetry_equiv_pos_as_xyz
  1  'x, y, z'
loop_
 _atom_type_symbol
 _atom_type_oxidation_number
  Sr2+  2.0
  Ca2+  2.0
  Pr3+  3.0
  Mn3.30+  3.3
  O2-  -2.0
loop_
 _atom_site_type_symbol
 _atom_site_label
 _atom_site_symmetry_multiplicity
 _atom_site_fract_x
 _atom_site_fract_y
 _atom_site_fract_z
 _atom_site_occupancy
  Sr2+  Sr0  1  0.49867505  0.82293250  0.87382377  1
  Sr2+  Sr1  1  0.32910437  0.67665826  0.62514999  1
  Sr2+  Sr2  1  0.16612041  0.17207445  0.62343915  1
  Sr2+  Sr3  1  0.16552434  0.84292828  0.12626812  1
  Sr2+  Sr4  1  0.83487998  0.17661700  0.12811859  1
  Sr2+  Sr5  1  0.66897634  0.99190531  0.37490936  1
  Sr2+  Sr6  1  0.83220599  0.49278037  0.37527992  1
  Ca2+  Ca7  1  0.49793517  0.48717738  0.37523508  1
  Ca2+  Ca8  1  0.67169697  0.31820111  0.87522639  1
  Ca2+  Ca9  1  0.83215530  0.15169061  0.37444523  1
  Ca2+  Ca10  1  -0.00042819  0.01447253  0.62124082  1
  Ca2+  Ca11  1  0.17189011  0.85161540  0.62359553  1
  Ca2+  Ca12  1  1.00515573  0.98611676  0.87266309  1
  Ca2+  Ca13  1  0.17055665  0.51444478  0.62484118  1
  Ca2+  Ca14  1  -0.00363362  0.68275756  0.12691220  1
  Ca2+  Ca15  1  0.16106546  0.14877237  0.37623545  1
  Ca2+  Ca16  1  0.82740867  0.48196655  0.87527032  1
  Ca2+  Ca17  1  0.66851417  0.65330027  0.37580021  1
  Ca2+  Ca18  1  1.00325873  0.98857520  0.37641903  1
  Ca2+  Ca19  1  0.32709066  0.01257031  0.62379411  1
  Ca2+  Ca20  1  0.49799193  0.81977662  0.37747662  1
  Ca2+  Ca21  1  0.16804558  0.17884710  0.12647453  1
  Pr3+  Pr22  1  0.83310551  0.82245082  0.87405961  1
  Pr3+  Pr23  1  0.16203696  0.48813852  0.37728892  1
  Pr3+  Pr24  1  0.32684484  0.34776936  0.62425133  1
  Pr3+  Pr25  1  0.16332849  0.82327853  0.87337890  1
  Pr3+  Pr26  1  0.66426189  0.34540405  0.62487636  1
  Pr3+  Pr27  1  0.67105695  0.32084340  0.37511035  1
  Pr3+  Pr28  1  0.16141409  0.15032913  0.87459581  1
  Pr3+  Pr29  1  0.83935808  0.17840272  0.62226386  1
  Pr3+  Pr30  1  0.49759108  0.48776033  0.87446504  1
  Pr3+  Pr31  1  0.83518178  0.51282277  0.62517659  1
  Pr3+  Pr32  1  0.32579483  0.01350760  0.12532673  1
  Pr3+  Pr33  1  -0.00345161  0.34280706  0.12473731  1
  Pr3+  Pr34  1  0.33444696  0.31987845  0.37544082  1
  Pr3+  Pr35  1  0.49787736  0.15395432  0.87478210  1
  Pr3+  Pr36  1  0.66542779  0.34520952  0.12489281  1
  Pr3+  Pr37  1  0.33455130  0.98717571  0.87114964  1
  Pr3+  Pr38  1  0.83780910  0.51460336  0.12535620  1
  Pr3+  Pr39  1  0.66577714  0.67874346  0.12759646  1
  Pr3+  Pr40  1  0.50189948  0.51368410  0.62237839  1
  Pr3+  Pr41  1  0.33711286  0.65427067  0.37481319  1
  Pr3+  Pr42  1  0.33583513  0.98637154  0.37889283  1
  Pr3+  Pr43  1  0.50336843  0.84590762  0.12628000  1
  Pr3+  Pr44  1  1.00269662  0.31836601  0.37507817  1
  Pr3+  Pr45  1  0.33555449  0.65698923  0.87503770  1
  Pr3+  Pr46  1  0.50382666  0.17858770  0.12656651  1
  Pr3+  Pr47  1  0.49688107  0.15378463  0.37523201  1
  Pr3+  Pr48  1  0.16415934  0.48846476  0.87280060  1
  Pr3+  Pr49  1  1.00236338  0.65500627  0.87632882  1
  Pr3+  Pr50  1  0.32920141  0.34471424  0.12553730  1
  Pr3+  Pr51  1  0.16708573  0.51368742  0.12552785  1
  Pr3+  Pr52  1  1.00054135  0.32061421  0.87513934  1
  Pr3+  Pr53  1  0.16313676  0.82282502  0.37630628  1
  Pr3+  Pr54  1  0.33494895  0.31926279  0.87405750  1
  Pr3+  Pr55  1  0.83216671  0.15291881  0.87581296  1
  Pr3+  Pr56  1  0.66247131  0.67879868  0.62208624  1
  Pr3+  Pr57  1  0.83926870  0.84448631  0.12641376  1
  Pr3+  Pr58  1  0.67172717  0.65196203  0.87441416  1
  Pr3+  Pr59  1  0.66963398  0.98630728  0.87461092  1
  Pr3+  Pr60  1  0.49998470  0.17741137  0.62368160  1
  Pr3+  Pr61  1  0.50012892  0.84526047  0.62397035  1
  Pr3+  Pr62  1  0.83033053  0.82156792  0.37590709  1
  Pr3+  Pr63  1  0.00081306  0.68046132  0.62346421  1
  Pr3+  Pr64  1  0.83831536  0.84936808  0.62346770  1
  Pr3+  Pr65  1  0.66627483  0.01286800  0.12616787  1
  Pr3+  Pr66  1  0.66591725  0.01283972  0.62378683  1
  Pr3+  Pr67  1  -0.00115624  0.34489618  0.62577084  1
  Pr3+  Pr68  1  1.00294646  0.65447040  0.37391855  1
  Pr3+  Pr69  1  0.33165473  0.68202041  0.12542867  1
  Pr3+  Pr70  1  -0.00088413  0.01333955  0.12681999  1
  Pr3+  Pr71  1  0.50404922  0.51358490  0.12715454  1
  Mn3.30+  Mn72  1  0.16472403  -0.00018049  0.00082393  1
  Mn3.30+  Mn73  1  0.16614849  0.00034495  0.50037747  1
  Mn3.30+  Mn74  1  0.16575569  0.33197273  0.00046217  1
  Mn3.30+  Mn75  1  0.16618065  0.33155647  0.50061471  1
  Mn3.30+  Mn76  1  0.16543970  0.66829635  0.00137079  1
  Mn3.30+  Mn77  1  0.16810448  0.66758397  0.50111341  1
  Mn3.30+  Mn78  1  0.49842132  -0.00042696  0.00042570  1
  Mn3.30+  Mn79  1  0.49865876  -0.00147727  0.50051052  1
  Mn3.30+  Mn80  1  0.50105614  0.33334497  -0.00127779  1
  Mn3.30+  Mn81  1  0.49884299  0.33415443  0.49922185  1
  Mn3.30+  Mn82  1  0.50147810  0.66707114  -0.00033330  1
  Mn3.30+  Mn83  1  0.49976374  0.66708041  0.49684270  1
  Mn3.30+  Mn84  1  0.83654973  -0.00060496  -0.00056776  1
  Mn3.30+  Mn85  1  0.83603572  0.00167829  0.49797408  1
  Mn3.30+  Mn86  1  0.83167949  0.33316381  -0.00038266  1
  Mn3.30+  Mn87  1  0.83395065  0.33366878  0.49839172  1
  Mn3.30+  Mn88  1  0.83565656  0.66588471  -0.00106178  1
  Mn3.30+  Mn89  1  0.83178981  0.66731311  0.50021305  1
  Mn3.30+  Mn90  1  0.00182626  0.16521829  0.25230105  1
  Mn3.30+  Mn91  1  0.00006497  0.16438317  0.74908120  1
  Mn3.30+  Mn92  1  -0.00038684  0.49998198  0.24961452  1
  Mn3.30+  Mn93  1  -0.00118706  0.50072928  0.75062543  1
  Mn3.30+  Mn94  1  0.00001518  0.83466832  0.25162728  1
  Mn3.30+  Mn95  1  0.00219940  0.83702270  0.74682283  1
  Mn3.30+  Mn96  1  0.32945206  0.16572921  0.25126919  1
  Mn3.30+  Mn97  1  0.33145432  0.16537064  0.74832392  1
  Mn3.30+  Mn98  1  0.33420158  0.49957450  0.25054728  1
  Mn3.30+  Mn99  1  0.33157309  0.50114750  0.74941575  1
  Mn3.30+  Mn100  1  0.33459769  0.83427238  0.25182990  1
  Mn3.30+  Mn101  1  0.33095379  0.83371324  0.74690137  1
  Mn3.30+  Mn102  1  0.66915130  0.16659945  0.25102757  1
  Mn3.30+  Mn103  1  0.66771977  0.16709848  0.75022010  1
  Mn3.30+  Mn104  1  0.66689680  0.50064797  0.25216191  1
  Mn3.30+  Mn105  1  0.66777807  0.49782460  0.75092388  1
  Mn3.30+  Mn106  1  0.66666739  0.83315848  0.25336075  1
  Mn3.30+  Mn107  1  0.66764806  0.83254342  0.74876707  1
  Mn3.30+  Mn108  1  0.16528809  0.00131909  0.25187024  1
  Mn3.30+  Mn109  1  0.16561279  -0.00094076  0.74655594  1
  Mn3.30+  Mn110  1  0.16567903  0.33049664  0.25032713  1
  Mn3.30+  Mn111  1  0.16619838  0.33268084  0.74878116  1
  Mn3.30+  Mn112  1  0.16662576  0.66799231  0.24879710  1
  Mn3.30+  Mn113  1  0.16670932  0.66809382  0.74882649  1
  Mn3.30+  Mn114  1  0.49869140  -0.00181503  0.25208917  1
  Mn3.30+  Mn115  1  0.49855933  -0.00040864  0.74760010  1
  Mn3.30+  Mn116  1  0.49935793  0.33432716  0.25105150  1
  Mn3.30+  Mn117  1  0.50071006  0.33325052  0.75040499  1
  Mn3.30+  Mn118  1  0.50188567  0.66713740  0.25380880  1
  Mn3.30+  Mn119  1  0.49946288  0.66736938  0.74925694  1
  Mn3.30+  Mn120  1  0.83521720  0.00089205  0.25235906  1
  Mn3.30+  Mn121  1  0.83786689  0.00024390  0.74967970  1
  Mn3.30+  Mn122  1  0.83390430  0.33319821  0.25137401  1
  Mn3.30+  Mn123  1  0.83145927  0.33358969  0.75094634  1
  Mn3.30+  Mn124  1  0.83256126  0.66698294  0.25114947  1
  Mn3.30+  Mn125  1  0.83432447  0.66630787  0.74928853  1
  Mn3.30+  Mn126  1  0.00052567  0.16554508  0.00128683  1
  Mn3.30+  Mn127  1  0.00116074  0.16404153  0.49756791  1
  Mn3.30+  Mn128  1  -0.00240644  0.50059294  -0.00158873  1
  Mn3.30+  Mn129  1  0.00129527  0.50008041  0.50235061  1
  Mn3.30+  Mn130  1  0.00034885  0.83461216  -0.00002739  1
  Mn3.30+  Mn131  1  0.00194653  0.83730184  0.50124993  1
  Mn3.30+  Mn132  1  0.33146117  0.16656305  0.00064699  1
  Mn3.30+  Mn133  1  0.32967589  0.16489056  0.49957341  1
  Mn3.30+  Mn134  1  0.33343219  0.49986956  0.00093958  1
  Mn3.30+  Mn135  1  0.33229071  0.50058217  0.49861387  1
  Mn3.30+  Mn136  1  0.33323649  0.83491533  -0.00006343  1
  Mn3.30+  Mn137  1  0.33217581  0.83272223  0.50134254  1
  Mn3.30+  Mn138  1  0.66710626  0.16760714  -0.00097713  1
  Mn3.30+  Mn139  1  0.66923700  0.16652658  0.49962510  1
  Mn3.30+  Mn140  1  0.66889016  0.49789958  -0.00099704  1
  Mn3.30+  Mn141  1  0.66600081  0.50067497  0.49732023  1
  Mn3.30+  Mn142  1  0.66820193  0.83225226  0.00034250  1
  Mn3.30+  Mn143  1  0.66576055  0.83376086  0.49733212  1
  O2-  O144  1  0.02720438  0.16178919  0.12730526  1
  O2-  O145  1  0.01700790  0.16271819  0.62433000  1
  O2-  O146  1  0.02457657  0.49067521  0.12318337  1
  O2-  O147  1  0.02785340  0.49380087  0.62750494  1
  O2-  O148  1  0.01643279  0.82608167  0.12620602  1
  O2-  O149  1  0.02972927  0.82522706  0.62370359  1
  O2-  O150  1  0.35974508  0.16184126  0.12571336  1
  O2-  O151  1  0.35658853  0.16146437  0.62548847  1
  O2-  O152  1  0.35982334  0.49307913  0.12410715  1
  O2-  O153  1  0.35824512  0.49596899  0.62276573  1
  O2-  O154  1  0.35905243  0.83097069  0.12766761  1
  O2-  O155  1  0.35808859  0.82803972  0.62398058  1
  O2-  O156  1  0.68392593  0.16241652  0.12370702  1
  O2-  O157  1  0.69385694  0.16273421  0.62510344  1
  O2-  O158  1  0.69284674  0.49360473  0.12402865  1
  O2-  O159  1  0.69093496  0.49352307  0.62633190  1
  O2-  O160  1  0.69454830  0.82663863  0.12585895  1
  O2-  O161  1  0.69331890  0.82681685  0.62371827  1
  O2-  O162  1  0.14087481  0.32536179  0.12431130  1
  O2-  O163  1  0.14246299  0.32678130  0.62434394  1
  O2-  O164  1  0.13969533  0.66167661  0.12480096  1
  O2-  O165  1  0.14283856  0.65701586  0.62608826  1
  O2-  O166  1  0.14289495  0.99600599  0.12641722  1
  O2-  O167  1  0.14093869  0.99618997  0.62376455  1
  O2-  O168  1  0.47355111  0.32664796  0.12475867  1
  O2-  O169  1  0.47238558  0.32699874  0.62477178  1
  O2-  O170  1  0.47571496  0.66064084  0.12618395  1
  O2-  O171  1  0.47957331  0.66028155  0.62299386  1
  O2-  O172  1  0.47195178  0.99483285  0.12778546  1
  O2-  O173  1  0.47203092  0.99549607  0.62354820  1
  O2-  O174  1  0.80923311  0.33095218  0.12391162  1
  O2-  O175  1  0.80821887  0.32621214  0.62296368  1
  O2-  O176  1  0.80986955  0.66505837  0.12309032  1
  O2-  O177  1  0.80759064  0.66249947  0.62522901  1
  O2-  O178  1  0.80954888  0.99254555  0.12570211  1
  O2-  O179  1  0.80907533  0.99789686  0.62521487  1
  O2-  O180  1  0.30518976  0.17257625  0.37439697  1
  O2-  O181  1  0.30728469  0.17197457  0.87492264  1
  O2-  O182  1  0.30573894  0.50451184  0.37384599  1
  O2-  O183  1  0.30912062  0.50563452  0.87862420  1
  O2-  O184  1  0.30757096  0.83753015  0.37620402  1
  O2-  O185  1  0.30838333  0.83864191  0.87219356  1
  O2-  O186  1  0.64103116  0.17197003  0.37645194  1
  O2-  O187  1  0.64141435  0.17005551  0.87433619  1
  O2-  O188  1  0.64023515  0.50565190  0.37429845  1
  O2-  O189  1  0.64029293  0.50650896  0.87458479  1
  O2-  O190  1  0.63981822  0.84072213  0.37590439  1
  O2-  O191  1  0.64867068  0.83867881  0.87425258  1
  O2-  O192  1  0.97231629  0.17375307  0.37481955  1
  O2-  O193  1  0.97508438  0.17339734  0.87444437  1
  O2-  O194  1  0.98245159  0.50570868  0.37523621  1
  O2-  O195  1  0.96910386  0.50787534  0.87480112  1
  O2-  O196  1  0.97486576  0.84020640  0.37745326  1
  O2-  O197  1  0.97604539  0.84101706  0.87234453  1
  O2-  O198  1  0.19251910  0.00323303  0.37528320  1
  O2-  O199  1  0.19064051  0.00214426  0.87479750  1
  O2-  O200  1  0.19167262  0.34316514  0.37618334  1
  O2-  O201  1  0.19132224  0.34059415  0.87530982  1
  O2-  O202  1  0.19095249  0.67206992  0.37343211  1
  O2-  O203  1  0.19085125  0.67369678  0.87616712  1
  O2-  O204  1  0.51941454  0.00760457  0.37675171  1
  O2-  O205  1  0.52560265  0.00586335  0.87288694  1
  O2-  O206  1  0.52504000  0.33820170  0.37551457  1
  O2-  O207  1  0.52846485  0.34014994  0.87462394  1
  O2-  O208  1  0.52797746  0.67641780  0.37457878  1
  O2-  O209  1  0.52674180  0.66726707  0.87549764  1
  O2-  O210  1  0.85899245  0.00346225  0.37563248  1
  O2-  O211  1  0.86128596  0.00331967  0.87338189  1
  O2-  O212  1  0.85892276  0.34117786  0.37704368  1
  O2-  O213  1  0.85750931  0.33854699  0.87647596  1
  O2-  O214  1  0.85915644  0.67131017  0.37811423  1
  O2-  O215  1  0.85904519  0.67503549  0.87314743  1
  O2-  O216  1  0.23497303  0.09577266  0.01999795  1
  O2-  O217  1  0.24041515  0.09155753  0.51603448  1
  O2-  O218  1  0.23705741  0.42707614  0.02164111  1
  O2-  O219  1  0.23673420  0.42937079  0.52153644  1
  O2-  O220  1  0.24309619  0.76054642  0.01813948  1
  O2-  O221  1  0.23393485  0.76537268  0.51711817  1
  O2-  O222  1  0.57003636  0.09292764  0.01943447  1
  O2-  O223  1  0.57352480  0.09420838  0.52166191  1
  O2-  O224  1  0.56907392  0.42809945  0.02211386  1
  O2-  O225  1  0.57216647  0.42661027  0.52214732  1
  O2-  O226  1  0.57462434  0.75909771  0.02332953  1
  O2-  O227  1  0.57233419  0.76019473  0.52265932  1
  O2-  O228  1  0.90768508  0.09316248  0.01922060  1
  O2-  O229  1  0.90482596  0.09581281  0.51755545  1
  O2-  O230  1  0.90460803  0.42768062  0.02103526  1
  O2-  O231  1  0.90656078  0.42632226  0.52480258  1
  O2-  O232  1  0.90339100  0.76338670  0.01331689  1
  O2-  O233  1  0.90673033  0.76259906  0.52089575  1
  O2-  O234  1  0.26403107  0.26425070  0.23211282  1
  O2-  O235  1  0.26636597  0.26251468  0.73417539  1
  O2-  O236  1  0.26318543  0.59295735  0.22794829  1
  O2-  O237  1  0.25855295  0.59524206  0.73949324  1
  O2-  O238  1  0.26459085  0.93145229  0.23559880  1
  O2-  O239  1  0.26321692  0.93125009  0.73050029  1
  O2-  O240  1  0.59360427  0.26062252  0.23122440  1
  O2-  O241  1  0.59111459  0.26022841  0.72615561  1
  O2-  O242  1  0.59429209  0.59325029  0.22706916  1
  O2-  O243  1  0.59683166  0.59294089  0.72982869  1
  O2-  O244  1  0.59524323  0.92574538  0.22479755  1
  O2-  O245  1  0.59555116  0.92685173  0.72880770  1
  O2-  O246  1  0.93309784  0.26289142  0.23354242  1
  O2-  O247  1  0.92751625  0.26263198  0.73121885  1
  O2-  O248  1  0.92880414  0.59597476  0.22967606  1
  O2-  O249  1  0.92908770  0.59527225  0.72627813  1
  O2-  O250  1  0.92750744  0.92628154  0.22869917  1
  O2-  O251  1  0.93046847  0.92991333  0.72364377  1
  O2-  O252  1  0.09615429  0.23792531  0.27484667  1
  O2-  O253  1  0.09163971  0.23935531  0.77204762  1
  O2-  O254  1  0.09610260  0.57121745  0.26792252  1
  O2-  O255  1  0.09083225  0.57431150  0.77510066  1
  O2-  O256  1  0.09481503  0.90623901  0.26976131  1
  O2-  O257  1  0.09652801  0.90479692  0.76892259  1
  O2-  O258  1  0.42678845  0.23714243  0.27095191  1
  O2-  O259  1  0.42954285  0.23951954  0.77160756  1
  O2-  O260  1  0.43093391  0.57253675  0.27219355  1
  O2-  O261  1  0.42782959  0.57230181  0.76985813  1
  O2-  O262  1  0.43039368  0.90341077  0.27325287  1
  O2-  O263  1  0.42535309  0.90711557  0.76683834  1
  O2-  O264  1  0.76160483  0.24136819  0.27349506  1
  O2-  O265  1  0.76297696  0.23583610  0.76960963  1
  O2-  O266  1  0.76121877  0.57281898  0.26225936  1
  O2-  O267  1  0.76102964  0.56691555  0.77089780  1
  O2-  O268  1  0.76329828  0.90264577  0.26780638  1
  O2-  O269  1  0.76483247  0.90638584  0.76736648  1
  O2-  O270  1  0.07082540  0.07107383  0.47928172  1
  O2-  O271  1  0.07143470  0.07029505  0.97802928  1
  O2-  O272  1  0.07213225  0.40397842  0.48072450  1
  O2-  O273  1  0.07033787  0.40721998  0.97756206  1
  O2-  O274  1  0.07070971  0.73819489  0.47890114  1
  O2-  O275  1  0.07221571  0.74192401  0.97750495  1
  O2-  O276  1  0.40650821  0.07543172  0.47909727  1
  O2-  O277  1  0.40329335  0.07354534  0.97875681  1
  O2-  O278  1  0.40136959  0.40493295  0.48134790  1
  O2-  O279  1  0.40642195  0.40436021  0.97791645  1
  O2-  O280  1  0.40422172  0.73796190  0.47904160  1
  O2-  O281  1  0.40489959  0.73740520  0.98451573  1
  O2-  O282  1  0.73954680  0.07332358  0.48600964  1
  O2-  O283  1  0.73927356  0.07058764  0.97951190  1
  O2-  O284  1  0.73478754  0.40342996  0.48390181  1
  O2-  O285  1  0.73430585  0.40158126  0.98060458  1
  O2-  O286  1  0.73736606  0.73969984  0.47790325  1
  O2-  O287  1  0.74018592  0.73614742  0.97930682  1
  O2-  O288  1  0.09346799  0.23788214  0.47653178  1
  O2-  O289  1  0.09412159  0.23962129  0.97751017  1
  O2-  O290  1  0.09384701  0.57546424  0.47950271  1
  O2-  O291  1  0.09377412  0.57108366  0.97797128  1
  O2-  O292  1  0.09688996  0.90552366  0.47948327  1
  O2-  O293  1  0.09425003  0.90562660  0.98120539  1
  O2-  O294  1  0.42724937  0.23784544  0.47968017  1
  O2-  O295  1  0.42989812  0.23947990  0.97800205  1
  O2-  O296  1  0.42919861  0.57154456  0.47578494  1
  O2-  O297  1  0.42938858  0.57268881  0.98040902  1
  O2-  O298  1  0.42805184  0.90242763  0.47997980  1
  O2-  O299  1  0.42651092  0.90810837  0.98146055  1
  O2-  O300  1  0.76252335  0.23876357  0.47752449  1
  O2-  O301  1  0.76184779  0.23852979  0.97916731  1
  O2-  O302  1  0.75849455  0.57175938  0.48721413  1
  O2-  O303  1  0.76561100  0.57067802  0.97868196  1
  O2-  O304  1  0.76461102  0.90494651  0.48463938  1
  O2-  O305  1  0.76273606  0.90530192  0.97975964  1
  O2-  O306  1  0.07004285  0.06937952  0.27130539  1
  O2-  O307  1  0.07230723  0.07219022  0.77163762  1
  O2-  O308  1  0.07241842  0.40388254  0.26908939  1
  O2-  O309  1  0.06915228  0.40799060  0.77283447  1
  O2-  O310  1  0.07183388  0.74175768  0.27283260  1
  O2-  O311  1  0.07031459  0.73824764  0.77054494  1
  O2-  O312  1  0.40194889  0.07256665  0.27122865  1
  O2-  O313  1  0.40723881  0.07637624  0.77239473  1
  O2-  O314  1  0.40277006  0.40425326  0.26853494  1
  O2-  O315  1  0.40627689  0.40501626  0.77067755  1
  O2-  O316  1  0.40547195  0.73658366  0.26710918  1
  O2-  O317  1  0.40270892  0.73872463  0.76896342  1
  O2-  O318  1  0.74037503  0.07332794  0.26299720  1
  O2-  O319  1  0.73930714  0.06961770  0.77156854  1
  O2-  O320  1  0.73469269  0.40447377  0.26710897  1
  O2-  O321  1  0.73339333  0.40014551  0.76733395  1
  O2-  O322  1  0.73669997  0.73773218  0.27287128  1
  O2-  O323  1  0.73914924  0.73781910  0.76950323  1
  O2-  O324  1  0.23782401  0.09552948  0.22650438  1
  O2-  O325  1  0.23747195  0.09326082  0.73748787  1
  O2-  O326  1  0.23575247  0.42661998  0.22781152  1
  O2-  O327  1  0.23835488  0.42935281  0.72971137  1
  O2-  O328  1  0.24314024  0.75937509  0.23208972  1
  O2-  O329  1  0.23331256  0.76635319  0.73261134  1
  O2-  O330  1  0.56993236  0.09234953  0.23184443  1
  O2-  O331  1  0.57336881  0.09403003  0.72743072  1
  O2-  O332  1  0.57346354  0.42715255  0.22728461  1
  O2-  O333  1  0.56948043  0.42883163  0.72788188  1
  O2-  O334  1  0.57381556  0.75997845  0.22623936  1
  O2-  O335  1  0.57269304  0.75884408  0.72717617  1
  O2-  O336  1  0.91064099  0.09119409  0.23036290  1
  O2-  O337  1  0.90145803  0.09855758  0.73381063  1
  O2-  O338  1  0.90606862  0.42732693  0.22804647  1
  O2-  O339  1  0.90522642  0.42747581  0.72800787  1
  O2-  O340  1  0.90218260  0.76248811  0.23718640  1
  O2-  O341  1  0.90860249  0.76532106  0.72829373  1
  O2-  O342  1  0.26536149  0.26276203  0.01713896  1
  O2-  O343  1  0.26426942  0.26460232  0.51667662  1
  O2-  O344  1  0.26033811  0.59459289  0.02236761  1
  O2-  O345  1  0.26144562  0.59460527  0.51205064  1
  O2-  O346  1  0.26248610  0.93197766  0.01560305  1
  O2-  O347  1  0.26460175  0.93000533  0.51773345  1
  O2-  O348  1  0.59170788  0.26076833  0.02163285  1
  O2-  O349  1  0.59490009  0.25922484  0.52049781  1
  O2-  O350  1  0.59746773  0.59366889  0.02092130  1
  O2-  O351  1  0.59311155  0.59277110  0.52092621  1
  O2-  O352  1  0.59497176  0.92734016  0.02097938  1
  O2-  O353  1  0.59344456  0.92614655  0.52544471  1
  O2-  O354  1  0.92969936  0.26331784  0.01628530  1
  O2-  O355  1  0.92974343  0.26227992  0.51971848  1
  O2-  O356  1  0.93049261  0.59741794  0.02348274  1
  O2-  O357  1  0.92776607  0.59412814  0.52173356  1
  O2-  O358  1  0.92843723  0.92602781  0.02276664  1
  O2-  O359  1  0.92871747  0.92817481  0.52416238  1
