# generated using pymatgen
data_Sr7Ca15Pr50Mn72O216
_symmetry_space_group_name_H-M   'P 1'
_cell_length_a   16.55895760
_cell_length_b   16.60514638
_cell_length_c   15.59402374
_cell_angle_alpha   89.99930693
_cell_angle_beta   89.99223119
_cell_angle_gamma   90.01752946
_symmetry_Int_Tables_number   1
_chemical_formula_structural   Sr7Ca15Pr50Mn72O216
_chemical_formula_sum   'Sr7 Ca15 Pr50 Mn72 O216'
_cell_volume   4287.79357355
_cell_formula_units_Z   1
loop_
 _symmetry_equiv_pos_site_id
 _symmetry_equiv_pos_as_xyz
  1  'x, y, z'
loop_
 _atom_type_symbol
 _atom_type_oxidation_number
  Sr2+  2.0
  Ca2+  2.0
  Pr3+  3.0
  Mn3.30+  3.3
  O2-  -2.0
loop_
 _atom_site_type_symbol
 _atom_site_label
 _atom_site_symmetry_multiplicity
 _atom_site_fract_x
 _atom_site_fract_y
 _atom_site_fract_z
 _atom_site_occupancy
  Sr2+  Sr0  1  0.83248006  0.17666334  0.12621298  1
  Sr2+  Sr1  1  0.66748365  0.32291120  0.37326363  1
  Sr2+  Sr2  1  -0.00498161  0.34218044  0.12826437  1
  Sr2+  Sr3  1  -0.00600299  0.67631988  0.12586047  1
  Sr2+  Sr4  1  0.49988711  0.48994258  0.87360577  1
  Sr2+  Sr5  1  0.83487450  0.17763812  0.62367927  1
  Sr2+  Sr6  1  0.33271241  0.01104358  0.12590406  1
  Ca2+  Ca7  1  0.49786522  0.15269422  0.37340633  1
  Ca2+  Ca8  1  0.83445715  0.51248885  0.62424003  1
  Ca2+  Ca9  1  0.82868828  0.48699038  0.87917543  1
  Ca2+  Ca10  1  0.50307929  0.51518072  0.62449752  1
  Ca2+  Ca11  1  0.49787093  0.81957197  0.37338610  1
  Ca2+  Ca12  1  0.33900721  0.31379634  0.37496747  1
  Ca2+  Ca13  1  1.00198932  0.31704512  0.37286437  1
  Ca2+  Ca14  1  0.83322729  0.84595166  0.12455611  1
  Ca2+  Ca15  1  0.83218258  0.50862243  0.12546542  1
  Ca2+  Ca16  1  0.16556156  0.15364545  0.37260179  1
  Ca2+  Ca17  1  0.66537794  0.67955168  0.12447428  1
  Ca2+  Ca18  1  0.49848861  0.81698860  0.87686209  1
  Ca2+  Ca19  1  0.66412901  0.01488658  0.12601312  1
  Ca2+  Ca20  1  0.66625984  0.34689725  0.12673694  1
  Ca2+  Ca21  1  0.33476782  0.67796521  0.62602193  1
  Pr3+  Pr22  1  0.33839309  0.32175226  0.87456104  1
  Pr3+  Pr23  1  0.50450181  0.17951284  0.62179886  1
  Pr3+  Pr24  1  0.16959457  0.18077614  0.62191345  1
  Pr3+  Pr25  1  0.82891741  0.81826570  0.87768027  1
  Pr3+  Pr26  1  0.83042954  0.15603105  0.87688269  1
  Pr3+  Pr27  1  0.33020675  0.34474499  0.12788743  1
  Pr3+  Pr28  1  0.50686976  0.51345923  0.12527399  1
  Pr3+  Pr29  1  0.49613609  0.48491943  0.37626738  1
  Pr3+  Pr30  1  1.00138515  0.65332879  0.37293367  1
  Pr3+  Pr31  1  0.17053189  0.51572142  0.62442887  1
  Pr3+  Pr32  1  1.00256626  0.99250465  0.37361706  1
  Pr3+  Pr33  1  0.83458321  0.84593445  0.62540226  1
  Pr3+  Pr34  1  0.66994911  0.32548168  0.87643825  1
  Pr3+  Pr35  1  0.16975651  0.84664599  0.12507706  1
  Pr3+  Pr36  1  0.66684547  0.65564021  0.37305456  1
  Pr3+  Pr37  1  -0.00646414  0.34725896  0.62172643  1
  Pr3+  Pr38  1  0.16375553  0.81904025  0.87724061  1
  Pr3+  Pr39  1  0.99773880  0.32360834  0.87658137  1
  Pr3+  Pr40  1  0.99890452  0.65066746  0.87702822  1
  Pr3+  Pr41  1  0.17143576  0.84430674  0.62509575  1
  Pr3+  Pr42  1  0.82913044  0.82189618  0.37251025  1
  Pr3+  Pr43  1  0.33791942  0.65558377  0.37611354  1
  Pr3+  Pr44  1  0.50617372  0.18034856  0.12756919  1
  Pr3+  Pr45  1  0.17063112  0.17943241  0.12806145  1
  Pr3+  Pr46  1  0.33849874  0.65276473  0.87403356  1
  Pr3+  Pr47  1  -0.00281271  0.01460325  0.62493558  1
  Pr3+  Pr48  1  0.16661153  0.51079006  0.12549772  1
  Pr3+  Pr49  1  0.33907982  0.98640664  0.37398702  1
  Pr3+  Pr50  1  0.66942034  0.64971026  0.87712457  1
  Pr3+  Pr51  1  0.34056326  0.98379907  0.87658379  1
  Pr3+  Pr52  1  0.33143293  0.67788903  0.12420755  1
  Pr3+  Pr53  1  0.83192193  0.15791671  0.37287197  1
  Pr3+  Pr54  1  -0.00289397  0.01202659  0.12537512  1
  Pr3+  Pr55  1  0.66353741  0.67679467  0.62486282  1
  Pr3+  Pr56  1  0.16376958  0.48746015  0.87494989  1
  Pr3+  Pr57  1  0.16411814  0.82210380  0.37321661  1
  Pr3+  Pr58  1  1.00088314  0.98853878  0.87674338  1
  Pr3+  Pr59  1  0.16512659  0.15497013  0.87587858  1
  Pr3+  Pr60  1  0.33177552  0.34699381  0.62209010  1
  Pr3+  Pr61  1  0.66707155  0.99238346  0.37196729  1
  Pr3+  Pr62  1  0.83067315  0.48709187  0.37323149  1
  Pr3+  Pr63  1  0.16244949  0.48469664  0.37445388  1
  Pr3+  Pr64  1  0.33152869  0.01276680  0.62431648  1
  Pr3+  Pr65  1  0.66431622  0.01372569  0.62488303  1
  Pr3+  Pr66  1  0.66471791  0.34988526  0.62164701  1
  Pr3+  Pr67  1  -0.00550957  0.67840834  0.62459247  1
  Pr3+  Pr68  1  0.50166691  0.84342546  0.62471910  1
  Pr3+  Pr69  1  0.49885060  0.15568563  0.87502304  1
  Pr3+  Pr70  1  0.66986002  0.98623197  0.87797222  1
  Pr3+  Pr71  1  0.50626654  0.84817191  0.12565221  1
  Mn3.30+  Mn72  1  0.16859651  0.00031149  -0.00031500  1
  Mn3.30+  Mn73  1  0.16799385  0.00098351  0.49905393  1
  Mn3.30+  Mn74  1  0.16644716  0.33361671  0.00101428  1
  Mn3.30+  Mn75  1  0.16612477  0.33186943  0.49626754  1
  Mn3.30+  Mn76  1  0.16549396  0.66557147  0.00103653  1
  Mn3.30+  Mn77  1  0.16796115  0.66727201  0.50005640  1
  Mn3.30+  Mn78  1  0.50285090  0.00022597  0.00111166  1
  Mn3.30+  Mn79  1  0.49984545  -0.00118930  0.49839679  1
  Mn3.30+  Mn80  1  0.50183876  0.33487909  0.00136200  1
  Mn3.30+  Mn81  1  0.49800872  0.33252018  0.49793478  1
  Mn3.30+  Mn82  1  0.50183330  0.66754252  0.00019493  1
  Mn3.30+  Mn83  1  0.49913197  0.66660156  0.50090620  1
  Mn3.30+  Mn84  1  0.83200807  -0.00111191  0.00310882  1
  Mn3.30+  Mn85  1  0.83388888  0.00097084  0.49880124  1
  Mn3.30+  Mn86  1  0.83215995  0.33562056  0.00325445  1
  Mn3.30+  Mn87  1  0.83352679  0.33400436  0.49841090  1
  Mn3.30+  Mn88  1  0.83136615  0.66437124  0.00372938  1
  Mn3.30+  Mn89  1  0.83242541  0.66599474  0.49932400  1
  Mn3.30+  Mn90  1  0.00102714  0.16794786  0.25091428  1
  Mn3.30+  Mn91  1  0.00015260  0.16858213  0.75006403  1
  Mn3.30+  Mn92  1  -0.00302871  0.49784140  0.24916244  1
  Mn3.30+  Mn93  1  -0.00306632  0.49942663  0.74963107  1
  Mn3.30+  Mn94  1  -0.00303859  0.83327788  0.24838017  1
  Mn3.30+  Mn95  1  -0.00004994  0.83255487  0.75099156  1
  Mn3.30+  Mn96  1  0.33532570  0.16600891  0.25264019  1
  Mn3.30+  Mn97  1  0.33382846  0.16689306  0.74881944  1
  Mn3.30+  Mn98  1  0.33394422  0.49826354  0.25169355  1
  Mn3.30+  Mn99  1  0.33521159  0.50099006  0.74711130  1
  Mn3.30+  Mn100  1  0.33565493  0.83283565  0.24991156  1
  Mn3.30+  Mn101  1  0.33537239  0.83102773  0.75088724  1
  Mn3.30+  Mn102  1  0.66577548  0.16825102  0.24989638  1
  Mn3.30+  Mn103  1  0.66694840  0.16899688  0.74938858  1
  Mn3.30+  Mn104  1  0.66713996  0.50003793  0.24862565  1
  Mn3.30+  Mn105  1  0.66785008  0.49997085  0.74877461  1
  Mn3.30+  Mn106  1  0.66633860  0.83431100  0.24809262  1
  Mn3.30+  Mn107  1  0.66500297  0.83186450  0.75208087  1
  Mn3.30+  Mn108  1  0.16857973  0.00146291  0.25065912  1
  Mn3.30+  Mn109  1  0.16809168  -0.00047401  0.75094773  1
  Mn3.30+  Mn110  1  0.16634772  0.33158139  0.25355134  1
  Mn3.30+  Mn111  1  0.16589559  0.33418479  0.74845365  1
  Mn3.30+  Mn112  1  0.16643868  0.66612356  0.24897999  1
  Mn3.30+  Mn113  1  0.16703068  0.66683953  0.74969312  1
  Mn3.30+  Mn114  1  0.50160671  0.00091421  0.24978951  1
  Mn3.30+  Mn115  1  0.50062063  -0.00187367  0.75121814  1
  Mn3.30+  Mn116  1  0.49923679  0.33205787  0.25204720  1
  Mn3.30+  Mn117  1  0.50105567  0.33580182  0.74794045  1
  Mn3.30+  Mn118  1  0.50163591  0.66801856  0.24979749  1
  Mn3.30+  Mn119  1  0.49974820  0.66590580  0.74939872  1
  Mn3.30+  Mn120  1  0.83254786  -0.00037917  0.24731852  1
  Mn3.30+  Mn121  1  0.83347282  0.00032444  0.75116333  1
  Mn3.30+  Mn122  1  0.83268101  0.33369207  0.24951744  1
  Mn3.30+  Mn123  1  0.83292956  0.33650392  0.74843678  1
  Mn3.30+  Mn124  1  0.83164400  0.66645508  0.24698435  1
  Mn3.30+  Mn125  1  0.83177057  0.66325328  0.75017015  1
  Mn3.30+  Mn126  1  -0.00107091  0.16804558  0.00103498  1
  Mn3.30+  Mn127  1  0.00247384  0.16818339  0.49782760  1
  Mn3.30+  Mn128  1  -0.00488472  0.49858640  0.00141157  1
  Mn3.30+  Mn129  1  -0.00084999  0.49879663  0.49926369  1
  Mn3.30+  Mn130  1  -0.00303254  0.83210902  0.00195943  1
  Mn3.30+  Mn131  1  0.00009026  0.83384841  0.49928844  1
  Mn3.30+  Mn132  1  0.33479307  0.16637235  0.00144421  1
  Mn3.30+  Mn133  1  0.33431364  0.16648597  0.49676758  1
  Mn3.30+  Mn134  1  0.33526056  0.49898468  0.00052937  1
  Mn3.30+  Mn135  1  0.33352038  0.50032633  0.50060786  1
  Mn3.30+  Mn136  1  0.33568976  0.83246601  -0.00026786  1
  Mn3.30+  Mn137  1  0.33504235  0.83149911  0.50032530  1
  Mn3.30+  Mn138  1  0.66638967  0.16857470  0.00228301  1
  Mn3.30+  Mn139  1  0.66632418  0.16824450  0.49731408  1
  Mn3.30+  Mn140  1  0.66873691  0.49909875  0.00255139  1
  Mn3.30+  Mn141  1  0.66576322  0.50127316  0.49998585  1
  Mn3.30+  Mn142  1  0.66646801  0.83214078  0.00275333  1
  Mn3.30+  Mn143  1  0.66480324  0.83410287  0.49772064  1
  O2-  O144  1  0.02576082  0.16204569  0.12501895  1
  O2-  O145  1  0.02530835  0.16303728  0.62508160  1
  O2-  O146  1  0.02395203  0.49722054  0.12553413  1
  O2-  O147  1  0.02710988  0.49545280  0.62337812  1
  O2-  O148  1  0.02661215  0.83233930  0.12539686  1
  O2-  O149  1  0.02700202  0.82627559  0.62681071  1
  O2-  O150  1  0.36021878  0.16644080  0.12674461  1
  O2-  O151  1  0.35964239  0.16071363  0.62397371  1
  O2-  O152  1  0.36101366  0.49242112  0.12719272  1
  O2-  O153  1  0.36029103  0.49240882  0.62302109  1
  O2-  O154  1  0.36000022  0.82690974  0.12434046  1
  O2-  O155  1  0.35741032  0.82824728  0.62626036  1
  O2-  O156  1  0.68413368  0.15925173  0.12451405  1
  O2-  O157  1  0.68547293  0.16105551  0.62372351  1
  O2-  O158  1  0.68950536  0.49216322  0.12663327  1
  O2-  O159  1  0.69293061  0.49931774  0.62389570  1
  O2-  O160  1  0.69269240  0.82338238  0.12521197  1
  O2-  O161  1  0.69164959  0.82678425  0.62451146  1
  O2-  O162  1  0.14683997  0.32745416  0.12671496  1
  O2-  O163  1  0.13830041  0.32773364  0.62179598  1
  O2-  O164  1  0.14477384  0.65930527  0.12448358  1
  O2-  O165  1  0.13820790  0.66410793  0.62452338  1
  O2-  O166  1  0.14270396  0.99480877  0.12568460  1
  O2-  O167  1  0.14116442  0.99144910  0.62770385  1
  O2-  O168  1  0.47308498  0.32841765  0.12900565  1
  O2-  O169  1  0.47419758  0.32494923  0.62200192  1
  O2-  O170  1  0.47488964  0.66105549  0.12554822  1
  O2-  O171  1  0.47679023  0.66166904  0.62493866  1
  O2-  O172  1  0.48012607  0.99565231  0.12563130  1
  O2-  O173  1  0.47469085  0.99120488  0.62698598  1
  O2-  O174  1  0.80854139  0.32887221  0.12687706  1
  O2-  O175  1  0.80981110  0.32882468  0.62301921  1
  O2-  O176  1  0.80616065  0.65444693  0.12609974  1
  O2-  O177  1  0.80817291  0.65991599  0.62405975  1
  O2-  O178  1  0.80683256  0.99293376  0.12423294  1
  O2-  O179  1  0.80930543  0.99414058  0.62516165  1
  O2-  O180  1  0.30656841  0.16886448  0.37640727  1
  O2-  O181  1  0.30899335  0.17435167  0.87346474  1
  O2-  O182  1  0.30648121  0.51046308  0.37710951  1
  O2-  O183  1  0.30836583  0.50391453  0.87266508  1
  O2-  O184  1  0.30883945  0.83605039  0.37466427  1
  O2-  O185  1  0.30792511  0.83656714  0.87521863  1
  O2-  O186  1  0.64095286  0.16458887  0.37533502  1
  O2-  O187  1  0.64187405  0.17559653  0.87508361  1
  O2-  O188  1  0.63975935  0.50770092  0.37453880  1
  O2-  O189  1  0.64764522  0.49987409  0.87492628  1
  O2-  O190  1  0.63911928  0.84253390  0.37491913  1
  O2-  O191  1  0.64031607  0.83901875  0.87657927  1
  O2-  O192  1  0.97747502  0.16302781  0.37497914  1
  O2-  O193  1  0.97664705  0.17221667  0.87498532  1
  O2-  O194  1  0.97591304  0.50697450  0.37556005  1
  O2-  O195  1  0.97367186  0.50196870  0.87490443  1
  O2-  O196  1  0.97325210  0.84226586  0.37299553  1
  O2-  O197  1  0.97326374  0.83989167  0.87501482  1
  O2-  O198  1  0.19385626  0.00492544  0.37400446  1
  O2-  O199  1  0.19628539  0.00730415  0.87322725  1
  O2-  O200  1  0.19744296  0.34110699  0.37600416  1
  O2-  O201  1  0.19426758  0.33981508  0.87503619  1
  O2-  O202  1  0.19240893  0.67283350  0.37397725  1
  O2-  O203  1  0.19322690  0.66998863  0.87660432  1
  O2-  O204  1  0.52370156  0.00631451  0.37362832  1
  O2-  O205  1  0.52679458  0.00831875  0.87465173  1
  O2-  O206  1  0.52009143  0.33994648  0.37570085  1
  O2-  O207  1  0.52423460  0.33420225  0.87238676  1
  O2-  O208  1  0.52245129  0.67267059  0.37479051  1
  O2-  O209  1  0.52450224  0.67168941  0.87507743  1
  O2-  O210  1  0.85794598  0.00528291  0.37369880  1
  O2-  O211  1  0.85648998  0.00473490  0.87683009  1
  O2-  O212  1  0.85838819  0.34008505  0.37578102  1
  O2-  O213  1  0.85477591  0.34295989  0.87370804  1
  O2-  O214  1  0.85800493  0.67543863  0.37518449  1
  O2-  O215  1  0.85650085  0.67360549  0.87505736  1
  O2-  O216  1  0.23733567  0.09786958  0.01717320  1
  O2-  O217  1  0.24025121  0.09278103  0.52412016  1
  O2-  O218  1  0.23808213  0.42758030  0.02087600  1
  O2-  O219  1  0.23591888  0.42918226  0.52164126  1
  O2-  O220  1  0.23766672  0.76015214  0.02079083  1
  O2-  O221  1  0.23569040  0.76352287  0.51717416  1
  O2-  O222  1  0.56971075  0.09895360  0.01482175  1
  O2-  O223  1  0.57247901  0.09075416  0.52130349  1
  O2-  O224  1  0.57082648  0.42883077  0.01988393  1
  O2-  O225  1  0.56995055  0.43025210  0.52000994  1
  O2-  O226  1  0.57085192  0.76345268  0.02055356  1
  O2-  O227  1  0.57237928  0.76027488  0.52141330  1
  O2-  O228  1  0.90864947  0.09059357  0.01724006  1
  O2-  O229  1  0.91014593  0.09186271  0.51725246  1
  O2-  O230  1  0.90247426  0.42971737  0.02000844  1
  O2-  O231  1  0.90472330  0.43092173  0.52118390  1
  O2-  O232  1  0.89826046  0.76296321  0.01823535  1
  O2-  O233  1  0.90318785  0.76103065  0.52130212  1
  O2-  O234  1  0.26260937  0.25971706  0.23051891  1
  O2-  O235  1  0.25923510  0.26332166  0.72722503  1
  O2-  O236  1  0.26356628  0.59173151  0.22887571  1
  O2-  O237  1  0.26059366  0.59596724  0.72753350  1
  O2-  O238  1  0.25848839  0.92417421  0.23271018  1
  O2-  O239  1  0.26283399  0.92807588  0.73037507  1
  O2-  O240  1  0.59353857  0.26260644  0.22770305  1
  O2-  O241  1  0.59436772  0.26301739  0.72718888  1
  O2-  O242  1  0.59518041  0.59712463  0.22881152  1
  O2-  O243  1  0.59766555  0.59578371  0.73406881  1
  O2-  O244  1  0.59796803  0.92938734  0.22779153  1
  O2-  O245  1  0.59541962  0.92912150  0.72913869  1
  O2-  O246  1  0.92714612  0.25842188  0.24024427  1
  O2-  O247  1  0.92972456  0.26781590  0.73495413  1
  O2-  O248  1  0.92607696  0.59580192  0.23905457  1
  O2-  O249  1  0.93083362  0.59768683  0.73246555  1
  O2-  O250  1  0.92890509  0.92861540  0.23009757  1
  O2-  O251  1  0.92937112  0.92653980  0.72935897  1
  O2-  O252  1  0.09869445  0.23621529  0.26969923  1
  O2-  O253  1  0.09656078  0.23967773  0.77080732  1
  O2-  O254  1  0.09414683  0.57157574  0.27000171  1
  O2-  O255  1  0.09501667  0.57153713  0.77034078  1
  O2-  O256  1  0.09398681  0.90784892  0.27049450  1
  O2-  O257  1  0.09690404  0.90625252  0.77397920  1
  O2-  O258  1  0.43043629  0.23477747  0.27068410  1
  O2-  O259  1  0.42887698  0.23865995  0.76821294  1
  O2-  O260  1  0.42889692  0.57062705  0.27060027  1
  O2-  O261  1  0.42581592  0.57567660  0.76882428  1
  O2-  O262  1  0.43003162  0.90482626  0.27040435  1
  O2-  O263  1  0.43130529  0.90359135  0.77330511  1
  O2-  O264  1  0.76060451  0.23853604  0.27011402  1
  O2-  O265  1  0.76263441  0.24166344  0.77230178  1
  O2-  O266  1  0.75866594  0.57555370  0.27514009  1
  O2-  O267  1  0.76256272  0.57136730  0.77290343  1
  O2-  O268  1  0.75907823  0.90771831  0.27321176  1
  O2-  O269  1  0.76066789  0.90402208  0.77033285  1
  O2-  O270  1  0.07199773  0.06963871  0.48474254  1
  O2-  O271  1  0.07428038  0.07232366  0.97869036  1
  O2-  O272  1  0.07030053  0.40332297  0.47660386  1
  O2-  O273  1  0.07355655  0.40767420  0.97781116  1
  O2-  O274  1  0.07009594  0.74060437  0.47749397  1
  O2-  O275  1  0.07100997  0.74072932  0.97703549  1
  O2-  O276  1  0.40198999  0.06778284  0.48362580  1
  O2-  O277  1  0.40580077  0.07351888  0.97732751  1
  O2-  O278  1  0.40103133  0.40237368  0.47875286  1
  O2-  O279  1  0.40270194  0.40247395  0.98310263  1
  O2-  O280  1  0.40481501  0.73684092  0.48295845  1
  O2-  O281  1  0.40244435  0.73666593  0.98178978  1
  O2-  O282  1  0.73933566  0.07333026  0.47988416  1
  O2-  O283  1  0.74001183  0.07473598  0.97774803  1
  O2-  O284  1  0.73795281  0.40978267  0.48233460  1
  O2-  O285  1  0.73681860  0.40435989  0.98320544  1
  O2-  O286  1  0.73631711  0.74173435  0.47858649  1
  O2-  O287  1  0.73683638  0.73757045  0.97791558  1
  O2-  O288  1  0.10002912  0.23412659  0.47895250  1
  O2-  O289  1  0.09607284  0.24056773  0.97923013  1
  O2-  O290  1  0.09637086  0.57146650  0.47968596  1
  O2-  O291  1  0.09316497  0.57121022  0.97894774  1
  O2-  O292  1  0.09627860  0.90641047  0.47857104  1
  O2-  O293  1  0.09466352  0.90699469  0.97907934  1
  O2-  O294  1  0.42993490  0.23247560  0.48067631  1
  O2-  O295  1  0.42906297  0.23925599  0.97994786  1
  O2-  O296  1  0.42802145  0.57228221  0.47765069  1
  O2-  O297  1  0.42558116  0.57353292  0.98321339  1
  O2-  O298  1  0.42998610  0.90316973  0.47895062  1
  O2-  O299  1  0.43100404  0.90492629  0.97891417  1
  O2-  O300  1  0.76265134  0.23863154  0.47981683  1
  O2-  O301  1  0.75993736  0.24091465  0.97755183  1
  O2-  O302  1  0.76026099  0.57604147  0.47545112  1
  O2-  O303  1  0.76067857  0.57161932  0.97778769  1
  O2-  O304  1  0.76061635  0.90655323  0.48020989  1
  O2-  O305  1  0.76008690  0.90466509  0.97769159  1
  O2-  O306  1  0.07301006  0.07071779  0.26680897  1
  O2-  O307  1  0.07526433  0.07095493  0.77138464  1
  O2-  O308  1  0.07332478  0.40462329  0.27350509  1
  O2-  O309  1  0.07188870  0.40516373  0.77034389  1
  O2-  O310  1  0.07091158  0.74283798  0.27275011  1
  O2-  O311  1  0.07081632  0.73819481  0.77333786  1
  O2-  O312  1  0.40460674  0.07120610  0.27067272  1
  O2-  O313  1  0.40652294  0.06857686  0.77018143  1
  O2-  O314  1  0.40146054  0.40311901  0.27306765  1
  O2-  O315  1  0.40308700  0.40149806  0.76544871  1
  O2-  O316  1  0.40345184  0.73503942  0.26641197  1
  O2-  O317  1  0.40481431  0.73756507  0.76956461  1
  O2-  O318  1  0.74179682  0.07505888  0.27064334  1
  O2-  O319  1  0.73778263  0.07362673  0.77117483  1
  O2-  O320  1  0.74097865  0.41055690  0.27064671  1
  O2-  O321  1  0.73441764  0.40237598  0.76307678  1
  O2-  O322  1  0.73742725  0.74157786  0.27362548  1
  O2-  O323  1  0.73758764  0.73646907  0.77049598  1
  O2-  O324  1  0.23913283  0.09560962  0.23061423  1
  O2-  O325  1  0.23821380  0.09439088  0.72763231  1
  O2-  O326  1  0.23692716  0.42848011  0.22991372  1
  O2-  O327  1  0.23654275  0.42849798  0.72785160  1
  O2-  O328  1  0.23849306  0.76005079  0.22827484  1
  O2-  O329  1  0.23456426  0.76295580  0.73367021  1
  O2-  O330  1  0.57244697  0.09507936  0.23241139  1
  O2-  O331  1  0.57013247  0.09411243  0.73024169  1
  O2-  O332  1  0.56797942  0.43078251  0.23483623  1
  O2-  O333  1  0.57231086  0.42836604  0.72416412  1
  O2-  O334  1  0.57070444  0.76402882  0.23191802  1
  O2-  O335  1  0.57210110  0.75956639  0.72753571  1
  O2-  O336  1  0.90956129  0.09021752  0.23099665  1
  O2-  O337  1  0.90965781  0.09239535  0.73394522  1
  O2-  O338  1  0.90199557  0.43158543  0.23326116  1
  O2-  O339  1  0.90456909  0.42884900  0.72408916  1
  O2-  O340  1  0.89930338  0.76434358  0.23139474  1
  O2-  O341  1  0.90219661  0.75980131  0.72899881  1
  O2-  O342  1  0.26255005  0.26096161  0.01975824  1
  O2-  O343  1  0.26178210  0.25997827  0.52298797  1
  O2-  O344  1  0.26166303  0.59103750  0.02034996  1
  O2-  O345  1  0.26299407  0.59590367  0.52357109  1
  O2-  O346  1  0.26018629  0.92471397  0.01654826  1
  O2-  O347  1  0.26241460  0.92759238  0.51992505  1
  O2-  O348  1  0.59473738  0.26396032  0.02182303  1
  O2-  O349  1  0.59352980  0.26123116  0.52096881  1
  O2-  O350  1  0.59718667  0.59432913  0.01965235  1
  O2-  O351  1  0.59567362  0.59736229  0.51741740  1
  O2-  O352  1  0.59953160  0.92973143  0.02161043  1
  O2-  O353  1  0.59595995  0.92734138  0.52235635  1
  O2-  O354  1  0.92618259  0.26281548  0.01094716  1
  O2-  O355  1  0.93315298  0.26180824  0.51427357  1
  O2-  O356  1  0.92788895  0.59645171  0.01253800  1
  O2-  O357  1  0.93190644  0.59656956  0.51605469  1
  O2-  O358  1  0.92982202  0.92852477  0.01794606  1
  O2-  O359  1  0.92915282  0.92612499  0.52197292  1
