# generated using pymatgen
data_Sr7Ca15Pr50Mn72O216
_symmetry_space_group_name_H-M   'P 1'
_cell_length_a   16.56073760
_cell_length_b   16.60322086
_cell_length_c   15.59358071
_cell_angle_alpha   89.99843945
_cell_angle_beta   90.00380756
_cell_angle_gamma   89.99981786
_symmetry_Int_Tables_number   1
_chemical_formula_structural   Sr7Ca15Pr50Mn72O216
_chemical_formula_sum   'Sr7 Ca15 Pr50 Mn72 O216'
_cell_volume   4287.63564081
_cell_formula_units_Z   1
loop_
 _symmetry_equiv_pos_site_id
 _symmetry_equiv_pos_as_xyz
  1  'x, y, z'
loop_
 _atom_type_symbol
 _atom_type_oxidation_number
  Sr2+  2.0
  Ca2+  2.0
  Pr3+  3.0
  Mn3.30+  3.3
  O2-  -2.0
loop_
 _atom_site_type_symbol
 _atom_site_label
 _atom_site_symmetry_multiplicity
 _atom_site_fract_x
 _atom_site_fract_y
 _atom_site_fract_z
 _atom_site_occupancy
  Sr2+  Sr0  1  0.49900399  0.51009432  0.62438347  1
  Sr2+  Sr1  1  0.49512671  0.49033286  0.87570288  1
  Sr2+  Sr2  1  1.00248251  0.65390936  0.37432978  1
  Sr2+  Sr3  1  0.33510211  0.65847629  0.87348788  1
  Sr2+  Sr4  1  0.49872320  0.49302304  0.37407447  1
  Sr2+  Sr5  1  0.83472327  0.51019925  0.12704445  1
  Sr2+  Sr6  1  0.16735016  0.15872925  0.87532340  1
  Ca2+  Ca7  1  0.83702974  0.51381900  0.62201069  1
  Ca2+  Ca8  1  0.82791827  0.48698474  0.37406757  1
  Ca2+  Ca9  1  0.50395056  0.18351160  0.62292452  1
  Ca2+  Ca10  1  0.50528303  0.51724999  0.12501533  1
  Ca2+  Ca11  1  0.33725526  0.65195215  0.37662758  1
  Ca2+  Ca12  1  0.83587252  0.18195458  0.12766807  1
  Ca2+  Ca13  1  0.33785214  0.32182744  0.87302228  1
  Ca2+  Ca14  1  0.16480901  0.81756556  0.87436847  1
  Ca2+  Ca15  1  0.16556117  0.48825286  0.37493166  1
  Ca2+  Ca16  1  0.66864524  0.98561999  0.87475439  1
  Ca2+  Ca17  1  0.49684869  0.15418424  0.37629045  1
  Ca2+  Ca18  1  0.82812489  0.15350512  0.37421100  1
  Ca2+  Ca19  1  0.33057712  0.67811302  0.62347717  1
  Ca2+  Ca20  1  0.16391272  0.81638056  0.37563638  1
  Ca2+  Ca21  1  0.66386926  0.67801271  0.12559607  1
  Pr3+  Pr22  1  0.50458169  0.84187934  0.12385043  1
  Pr3+  Pr23  1  0.66186912  0.34750502  0.62474648  1
  Pr3+  Pr24  1  0.83719711  0.84558016  0.62364109  1
  Pr3+  Pr25  1  0.16847931  0.51203247  0.12837509  1
  Pr3+  Pr26  1  0.82968846  0.48702177  0.87498014  1
  Pr3+  Pr27  1  0.33645681  0.98675750  0.37447132  1
  Pr3+  Pr28  1  0.83092747  0.81929259  0.37506263  1
  Pr3+  Pr29  1  1.00283847  0.32023171  0.87587491  1
  Pr3+  Pr30  1  0.33587911  0.67396939  0.12551106  1
  Pr3+  Pr31  1  0.83031163  0.82000588  0.87446824  1
  Pr3+  Pr32  1  -0.00430852  0.34539837  0.12505283  1
  Pr3+  Pr33  1  0.16813022  0.48830417  0.87529703  1
  Pr3+  Pr34  1  -0.00279892  0.67877623  0.12747631  1
  Pr3+  Pr35  1  0.67003034  0.32128987  0.37558208  1
  Pr3+  Pr36  1  0.33406102  0.98732060  0.87568482  1
  Pr3+  Pr37  1  0.49578542  0.81821392  0.37543553  1
  Pr3+  Pr38  1  0.66058972  0.01490547  0.62555891  1
  Pr3+  Pr39  1  1.00246800  0.98603858  0.37514968  1
  Pr3+  Pr40  1  -0.00088164  0.67806172  0.62286324  1
  Pr3+  Pr41  1  1.00636482  0.98536268  0.87465514  1
  Pr3+  Pr42  1  0.66485922  0.01423499  0.12391541  1
  Pr3+  Pr43  1  0.50254319  0.18140978  0.12766052  1
  Pr3+  Pr44  1  0.66792167  0.65315275  0.87594818  1
  Pr3+  Pr45  1  0.33150487  0.01218226  0.12513221  1
  Pr3+  Pr46  1  0.67195700  0.65025013  0.37430772  1
  Pr3+  Pr47  1  -0.00228403  0.01278202  0.62424586  1
  Pr3+  Pr48  1  0.17021704  0.84283329  0.12570022  1
  Pr3+  Pr49  1  0.33784822  0.32173991  0.37577600  1
  Pr3+  Pr50  1  -0.00632463  0.01501110  0.12546328  1
  Pr3+  Pr51  1  0.17336695  0.51511741  0.62208118  1
  Pr3+  Pr52  1  0.66431098  0.67682512  0.62436337  1
  Pr3+  Pr53  1  0.82685314  0.15146614  0.87558315  1
  Pr3+  Pr54  1  1.00587951  0.65408848  0.87570638  1
  Pr3+  Pr55  1  0.99748073  0.32694911  0.37397260  1
  Pr3+  Pr56  1  -0.00295421  0.34910616  0.62482925  1
  Pr3+  Pr57  1  0.33170671  0.01322555  0.62474345  1
  Pr3+  Pr58  1  0.33159204  0.34780571  0.12500159  1
  Pr3+  Pr59  1  0.49492478  0.15812672  0.87421883  1
  Pr3+  Pr60  1  0.17215303  0.84311621  0.62457741  1
  Pr3+  Pr61  1  0.83430073  0.84195523  0.12615397  1
  Pr3+  Pr62  1  0.66325851  0.34854869  0.12483542  1
  Pr3+  Pr63  1  0.49931100  0.82100014  0.87443844  1
  Pr3+  Pr64  1  0.83428527  0.18002952  0.62248066  1
  Pr3+  Pr65  1  0.33358891  0.34627506  0.62518625  1
  Pr3+  Pr66  1  0.16304787  0.15669819  0.37498506  1
  Pr3+  Pr67  1  0.66750621  0.98957836  0.37468955  1
  Pr3+  Pr68  1  0.16866178  0.17997362  0.12500907  1
  Pr3+  Pr69  1  0.66526397  0.32338376  0.87418508  1
  Pr3+  Pr70  1  0.16948114  0.18071336  0.62557943  1
  Pr3+  Pr71  1  0.49834595  0.84076877  0.62606683  1
  Mn3.30+  Mn72  1  0.16542498  -0.00107838  0.00016289  1
  Mn3.30+  Mn73  1  0.16729324  -0.00083057  0.49866131  1
  Mn3.30+  Mn74  1  0.16746735  0.33356507  -0.00070228  1
  Mn3.30+  Mn75  1  0.16629124  0.33538012  0.49868753  1
  Mn3.30+  Mn76  1  0.16760883  0.66625638  0.00071809  1
  Mn3.30+  Mn77  1  0.16909689  0.66577042  0.49619981  1
  Mn3.30+  Mn78  1  0.50187042  0.00058108  -0.00160982  1
  Mn3.30+  Mn79  1  0.49935517  0.00147659  0.50046777  1
  Mn3.30+  Mn80  1  0.49769599  0.33601533  0.00090428  1
  Mn3.30+  Mn81  1  0.50096612  0.33355435  0.49828400  1
  Mn3.30+  Mn82  1  0.50185930  0.66626142  0.00051102  1
  Mn3.30+  Mn83  1  0.49781570  0.66545358  0.50042320  1
  Mn3.30+  Mn84  1  0.83199952  -0.00012328  0.00006460  1
  Mn3.30+  Mn85  1  0.83207014  0.00113580  0.49881606  1
  Mn3.30+  Mn86  1  0.83249582  0.33180724  0.00053680  1
  Mn3.30+  Mn87  1  0.83247110  0.33576591  0.50025501  1
  Mn3.30+  Mn88  1  0.83335663  0.66588575  0.00143391  1
  Mn3.30+  Mn89  1  0.83418859  0.66329436  0.49945404  1
  Mn3.30+  Mn90  1  -0.00415930  0.16750080  0.25208023  1
  Mn3.30+  Mn91  1  -0.00089837  0.16667583  0.74976053  1
  Mn3.30+  Mn92  1  -0.00044157  0.50000020  0.25336455  1
  Mn3.30+  Mn93  1  -0.00058919  0.50105653  0.74867260  1
  Mn3.30+  Mn94  1  0.00264500  0.83277174  0.25148104  1
  Mn3.30+  Mn95  1  0.00221633  0.83248914  0.74959199  1
  Mn3.30+  Mn96  1  0.33428366  0.16677008  0.25135168  1
  Mn3.30+  Mn97  1  0.33472846  0.16820535  0.74915892  1
  Mn3.30+  Mn98  1  0.33486693  0.50122776  0.25130686  1
  Mn3.30+  Mn99  1  0.33442343  0.50168569  0.74984824  1
  Mn3.30+  Mn100  1  0.33333020  0.83032757  0.25119857  1
  Mn3.30+  Mn101  1  0.33243599  0.83224962  0.75090866  1
  Mn3.30+  Mn102  1  0.66794505  0.16762636  0.25061070  1
  Mn3.30+  Mn103  1  0.66390417  0.16610828  0.75038093  1
  Mn3.30+  Mn104  1  0.66600696  0.50075354  0.24866680  1
  Mn3.30+  Mn105  1  0.66679970  0.50040287  0.74911292  1
  Mn3.30+  Mn106  1  0.66622305  0.83235484  0.25031870  1
  Mn3.30+  Mn107  1  0.66777291  0.83431908  0.74953790  1
  Mn3.30+  Mn108  1  0.16599575  -0.00137043  0.25030634  1
  Mn3.30+  Mn109  1  0.16662389  -0.00065536  0.75069212  1
  Mn3.30+  Mn110  1  0.16625009  0.33476902  0.25163414  1
  Mn3.30+  Mn111  1  0.16739262  0.33421158  0.75093079  1
  Mn3.30+  Mn112  1  0.16830438  0.66541225  0.25333823  1
  Mn3.30+  Mn113  1  0.16855217  0.66692205  0.75021100  1
  Mn3.30+  Mn114  1  0.50033293  0.00064962  0.25015168  1
  Mn3.30+  Mn115  1  0.50054107  0.00157420  0.75046195  1
  Mn3.30+  Mn116  1  0.50039663  0.33590040  0.25151348  1
  Mn3.30+  Mn117  1  0.49859621  0.33373971  0.74959392  1
  Mn3.30+  Mn118  1  0.50117447  0.66556014  0.25074305  1
  Mn3.30+  Mn119  1  0.49819117  0.66583383  0.74781654  1
  Mn3.30+  Mn120  1  0.83262078  0.00178458  0.25072176  1
  Mn3.30+  Mn121  1  0.83172106  -0.00012667  0.75013219  1
  Mn3.30+  Mn122  1  0.83194852  0.33283375  0.25049485  1
  Mn3.30+  Mn123  1  0.83293260  0.33383332  0.74913351  1
  Mn3.30+  Mn124  1  0.83260096  0.66429876  0.24983429  1
  Mn3.30+  Mn125  1  0.83473387  0.66498876  0.74913553  1
  Mn3.30+  Mn126  1  -0.00283454  0.16628887  0.00077013  1
  Mn3.30+  Mn127  1  -0.00213221  0.16815698  0.49804237  1
  Mn3.30+  Mn128  1  -0.00066390  0.50002513  0.00044195  1
  Mn3.30+  Mn129  1  -0.00028356  0.50071074  0.49797048  1
  Mn3.30+  Mn130  1  0.00146592  0.83309128  -0.00010022  1
  Mn3.30+  Mn131  1  0.00338482  0.83158402  0.49867280  1
  Mn3.30+  Mn132  1  0.33348137  0.16811092  -0.00057811  1
  Mn3.30+  Mn133  1  0.33592198  0.16704739  0.50054471  1
  Mn3.30+  Mn134  1  0.33604228  0.50013613  0.00096572  1
  Mn3.30+  Mn135  1  0.33321047  0.50246117  0.49769792  1
  Mn3.30+  Mn136  1  0.33400707  0.83188527  -0.00025603  1
  Mn3.30+  Mn137  1  0.33155619  0.83034691  0.49767363  1
  Mn3.30+  Mn138  1  0.66664825  0.16688335  0.00067747  1
  Mn3.30+  Mn139  1  0.66470768  0.16687067  0.49805158  1
  Mn3.30+  Mn140  1  0.66479830  0.50170662  0.00129747  1
  Mn3.30+  Mn141  1  0.66855305  0.49963627  0.50055315  1
  Mn3.30+  Mn142  1  0.66804655  0.83329243  -0.00075499  1
  Mn3.30+  Mn143  1  0.66614248  0.83340037  0.50022317  1
  O2-  O144  1  0.02471209  0.16270031  0.12734496  1
  O2-  O145  1  0.02436587  0.16153870  0.62310322  1
  O2-  O146  1  0.02430842  0.49377031  0.12698616  1
  O2-  O147  1  0.02840343  0.49693637  0.62473179  1
  O2-  O148  1  0.02485150  0.82922388  0.12755154  1
  O2-  O149  1  0.02693381  0.82806601  0.62451719  1
  O2-  O150  1  0.35811405  0.16104726  0.12641235  1
  O2-  O151  1  0.36136919  0.16063514  0.62370567  1
  O2-  O152  1  0.35988976  0.49392542  0.12565943  1
  O2-  O153  1  0.34976403  0.49220415  0.62403135  1
  O2-  O154  1  0.36137066  0.82528231  0.12577980  1
  O2-  O155  1  0.35479237  0.82928594  0.62508416  1
  O2-  O156  1  0.69432170  0.16159593  0.12499981  1
  O2-  O157  1  0.69202439  0.16155380  0.62523045  1
  O2-  O158  1  0.68699709  0.49539533  0.12419544  1
  O2-  O159  1  0.69442066  0.49614667  0.62597886  1
  O2-  O160  1  0.69035564  0.82603892  0.12666302  1
  O2-  O161  1  0.69326557  0.82657670  0.62552937  1
  O2-  O162  1  0.14062922  0.32890060  0.12554419  1
  O2-  O163  1  0.14210588  0.32891263  0.62327692  1
  O2-  O164  1  0.14020301  0.65971998  0.12599983  1
  O2-  O165  1  0.14233720  0.66234417  0.62392343  1
  O2-  O166  1  0.13865548  0.99166827  0.12399217  1
  O2-  O167  1  0.14129728  0.99246025  0.62223524  1
  O2-  O168  1  0.47470829  0.32636032  0.12773808  1
  O2-  O169  1  0.47803567  0.32812897  0.62297473  1
  O2-  O170  1  0.48098380  0.67242999  0.12613782  1
  O2-  O171  1  0.47568988  0.67124456  0.62377020  1
  O2-  O172  1  0.47534671  0.99239514  0.12444924  1
  O2-  O173  1  0.47367311  0.98954861  0.62633657  1
  O2-  O174  1  0.80817113  0.32543635  0.12446532  1
  O2-  O175  1  0.80582540  0.32523617  0.62527271  1
  O2-  O176  1  0.80833656  0.66922002  0.12510568  1
  O2-  O177  1  0.80858290  0.66113196  0.62552206  1
  O2-  O178  1  0.80765432  0.98952740  0.12462143  1
  O2-  O179  1  0.80666882  0.99362288  0.62245719  1
  O2-  O180  1  0.30646500  0.17200449  0.37556807  1
  O2-  O181  1  0.31642635  0.17352782  0.87566241  1
  O2-  O182  1  0.30779657  0.50610613  0.37419333  1
  O2-  O183  1  0.31082596  0.50499717  0.87607772  1
  O2-  O184  1  0.30480942  0.84281895  0.37337028  1
  O2-  O185  1  0.30696544  0.83984306  0.87537882  1
  O2-  O186  1  0.63804142  0.17168495  0.37431816  1
  O2-  O187  1  0.63862636  0.17506688  0.87541182  1
  O2-  O188  1  0.64814333  0.50256150  0.37372896  1
  O2-  O189  1  0.64679769  0.50416949  0.87588882  1
  O2-  O190  1  0.64061660  0.84146277  0.37534751  1
  O2-  O191  1  0.64372925  0.84013562  0.87190104  1
  O2-  O192  1  0.97034862  0.17569559  0.37554866  1
  O2-  O193  1  0.97221476  0.17142611  0.87420683  1
  O2-  O194  1  0.97181253  0.49645889  0.37607122  1
  O2-  O195  1  0.97393089  0.50637056  0.87324357  1
  O2-  O196  1  0.97498893  0.83829938  0.37418681  1
  O2-  O197  1  0.97390276  0.83719228  0.87321428  1
  O2-  O198  1  0.19332730  0.01093496  0.37623910  1
  O2-  O199  1  0.19017845  0.00530420  0.87779280  1
  O2-  O200  1  0.19265323  0.33630077  0.37603742  1
  O2-  O201  1  0.19376087  0.34021612  0.87625951  1
  O2-  O202  1  0.19621754  0.67473103  0.37407774  1
  O2-  O203  1  0.18430581  0.67026064  0.87628738  1
  O2-  O204  1  0.52382090  0.00594991  0.37433977  1
  O2-  O205  1  0.52802157  0.00984442  0.87440223  1
  O2-  O206  1  0.52554687  0.33928816  0.37333515  1
  O2-  O207  1  0.52127662  0.33161008  0.87597853  1
  O2-  O208  1  0.52674043  0.67095933  0.37594743  1
  O2-  O209  1  0.52370891  0.67183251  0.87368588  1
  O2-  O210  1  0.85793162  0.00621230  0.37628424  1
  O2-  O211  1  0.86160883  0.00464583  0.87668753  1
  O2-  O212  1  0.85450597  0.34270628  0.37669029  1
  O2-  O213  1  0.85900965  0.33853759  0.87343055  1
  O2-  O214  1  0.85239403  0.67372531  0.37539617  1
  O2-  O215  1  0.86205764  0.67275888  0.87368861  1
  O2-  O216  1  0.23976922  0.09244702  0.02346383  1
  O2-  O217  1  0.23790805  0.09517994  0.52234227  1
  O2-  O218  1  0.23718659  0.42821267  0.02204107  1
  O2-  O219  1  0.23840438  0.42618836  0.51887023  1
  O2-  O220  1  0.23982878  0.75621801  0.02326493  1
  O2-  O221  1  0.23826752  0.76141492  0.52004348  1
  O2-  O222  1  0.57124596  0.09565960  0.02346435  1
  O2-  O223  1  0.57073970  0.09465882  0.52346581  1
  O2-  O224  1  0.56924915  0.42719410  0.02112318  1
  O2-  O225  1  0.57785161  0.42626744  0.51951926  1
  O2-  O226  1  0.57314260  0.76478495  0.01341339  1
  O2-  O227  1  0.57155169  0.76227872  0.51945038  1
  O2-  O228  1  0.89970107  0.09510786  0.02308983  1
  O2-  O229  1  0.90588773  0.09302587  0.52239553  1
  O2-  O230  1  0.90798909  0.42488183  0.01648370  1
  O2-  O231  1  0.90627461  0.42733678  0.52576960  1
  O2-  O232  1  0.90578898  0.76196056  0.02046163  1
  O2-  O233  1  0.90503509  0.75954571  0.51986600  1
  O2-  O234  1  0.26027563  0.25958431  0.22994713  1
  O2-  O235  1  0.26097205  0.25854197  0.72667416  1
  O2-  O236  1  0.26073088  0.59240677  0.22575735  1
  O2-  O237  1  0.25950659  0.59449167  0.72820791  1
  O2-  O238  1  0.26406381  0.92447460  0.22617278  1
  O2-  O239  1  0.26221977  0.92820023  0.72980189  1
  O2-  O240  1  0.59643275  0.26221758  0.22857090  1
  O2-  O241  1  0.59666177  0.26228206  0.73234303  1
  O2-  O242  1  0.59815079  0.59930197  0.23314042  1
  O2-  O243  1  0.59709594  0.59719761  0.73277859  1
  O2-  O244  1  0.59661861  0.92805975  0.22892601  1
  O2-  O245  1  0.59175018  0.92750880  0.72745414  1
  O2-  O246  1  0.92901283  0.26250703  0.23143837  1
  O2-  O247  1  0.92609605  0.26239531  0.72845527  1
  O2-  O248  1  0.93070931  0.59403511  0.23130679  1
  O2-  O249  1  0.93111841  0.59728174  0.73090995  1
  O2-  O250  1  0.92739502  0.92834057  0.23190294  1
  O2-  O251  1  0.93153185  0.92653933  0.72805715  1
  O2-  O252  1  0.09224357  0.23881000  0.27086323  1
  O2-  O253  1  0.09264671  0.24277843  0.76750354  1
  O2-  O254  1  0.09916211  0.56906987  0.26944801  1
  O2-  O255  1  0.09547605  0.57112773  0.76997755  1
  O2-  O256  1  0.09658888  0.90644779  0.27348493  1
  O2-  O257  1  0.09556071  0.90229419  0.77129440  1
  O2-  O258  1  0.42994894  0.23850925  0.27141724  1
  O2-  O259  1  0.42872374  0.23856210  0.76590803  1
  O2-  O260  1  0.42719026  0.57536917  0.26186065  1
  O2-  O261  1  0.42658910  0.57402219  0.76391533  1
  O2-  O262  1  0.42752101  0.90381258  0.27053662  1
  O2-  O263  1  0.42757729  0.90847559  0.77260239  1
  O2-  O264  1  0.76042608  0.23854967  0.27494357  1
  O2-  O265  1  0.75978561  0.23652773  0.77071663  1
  O2-  O266  1  0.76156960  0.57163712  0.27088350  1
  O2-  O267  1  0.76284624  0.57436221  0.77282699  1
  O2-  O268  1  0.76107785  0.90499482  0.27125554  1
  O2-  O269  1  0.76532427  0.90398707  0.76726650  1
  O2-  O270  1  0.07206398  0.07209670  0.47853281  1
  O2-  O271  1  0.06553084  0.07029606  0.98452799  1
  O2-  O272  1  0.06833099  0.40388816  0.48260424  1
  O2-  O273  1  0.07333196  0.40601545  0.97850511  1
  O2-  O274  1  0.07416406  0.73759461  0.48409794  1
  O2-  O275  1  0.07051764  0.73675809  0.98516254  1
  O2-  O276  1  0.40101711  0.06939195  0.48158110  1
  O2-  O277  1  0.40628206  0.07073590  0.98064797  1
  O2-  O278  1  0.40215141  0.40434934  0.48359159  1
  O2-  O279  1  0.39979656  0.39997223  0.98308236  1
  O2-  O280  1  0.40499982  0.74161060  0.47556499  1
  O2-  O281  1  0.41005295  0.74294765  0.98136321  1
  O2-  O282  1  0.73336683  0.07155482  0.48164019  1
  O2-  O283  1  0.73705242  0.06816890  0.97726472  1
  O2-  O284  1  0.73731809  0.40232608  0.48338125  1
  O2-  O285  1  0.73920084  0.40505792  0.98071068  1
  O2-  O286  1  0.73802674  0.73891117  0.48095154  1
  O2-  O287  1  0.74187599  0.73947551  0.97602692  1
  O2-  O288  1  0.09429063  0.24012687  0.47949427  1
  O2-  O289  1  0.09197240  0.24189392  0.98268148  1
  O2-  O290  1  0.09999997  0.56910394  0.48086621  1
  O2-  O291  1  0.09526740  0.57112805  0.98067274  1
  O2-  O292  1  0.09699850  0.90620518  0.47661398  1
  O2-  O293  1  0.09539874  0.90237645  0.97763776  1
  O2-  O294  1  0.42661284  0.23852626  0.47605760  1
  O2-  O295  1  0.43112929  0.23657822  0.98704848  1
  O2-  O296  1  0.42591608  0.57426342  0.48307535  1
  O2-  O297  1  0.42809878  0.57503086  0.99103879  1
  O2-  O298  1  0.42688212  0.90470834  0.47971407  1
  O2-  O299  1  0.43011668  0.90841958  0.97721452  1
  O2-  O300  1  0.76178403  0.23602672  0.47927640  1
  O2-  O301  1  0.75839031  0.23969675  0.97516536  1
  O2-  O302  1  0.76261920  0.57109710  0.47880411  1
  O2-  O303  1  0.76377780  0.57433404  0.97747218  1
  O2-  O304  1  0.76149497  0.90504535  0.47857803  1
  O2-  O305  1  0.76457084  0.90228080  0.98284815  1
  O2-  O306  1  0.06702193  0.07463216  0.27211727  1
  O2-  O307  1  0.06894796  0.06887157  0.76493795  1
  O2-  O308  1  0.07168202  0.40503323  0.26929432  1
  O2-  O309  1  0.06996289  0.40692387  0.77133263  1
  O2-  O310  1  0.07632308  0.73847553  0.26527373  1
  O2-  O311  1  0.06953757  0.73643426  0.76622573  1
  O2-  O312  1  0.40246505  0.07047224  0.26733919  1
  O2-  O313  1  0.40420949  0.07154772  0.77122282  1
  O2-  O314  1  0.40097241  0.40312273  0.26833274  1
  O2-  O315  1  0.40205243  0.40240001  0.76433682  1
  O2-  O316  1  0.40504546  0.73823932  0.27351426  1
  O2-  O317  1  0.41102299  0.74620907  0.76888809  1
  O2-  O318  1  0.73554451  0.06998752  0.26882693  1
  O2-  O319  1  0.73328623  0.07143932  0.77182344  1
  O2-  O320  1  0.73587478  0.40278603  0.26424068  1
  O2-  O321  1  0.74042871  0.40451973  0.77135238  1
  O2-  O322  1  0.73846088  0.74179569  0.27310110  1
  O2-  O323  1  0.74166964  0.73759238  0.77108087  1
  O2-  O324  1  0.23604357  0.09303114  0.22874685  1
  O2-  O325  1  0.24088883  0.09416968  0.72765365  1
  O2-  O326  1  0.24066020  0.42650547  0.22854009  1
  O2-  O327  1  0.23635477  0.42878247  0.73159186  1
  O2-  O328  1  0.24216060  0.75746300  0.22426852  1
  O2-  O329  1  0.23764234  0.76078493  0.73189245  1
  O2-  O330  1  0.57455231  0.09460314  0.22707696  1
  O2-  O331  1  0.56879244  0.09669888  0.72571416  1
  O2-  O332  1  0.57161170  0.42924849  0.22656303  1
  O2-  O333  1  0.57530631  0.42314090  0.73262850  1
  O2-  O334  1  0.56949225  0.76539489  0.23572086  1
  O2-  O335  1  0.57439999  0.76064496  0.72999273  1
  O2-  O336  1  0.90413224  0.09524350  0.22695161  1
  O2-  O337  1  0.90130240  0.09404273  0.72865492  1
  O2-  O338  1  0.90843731  0.42181225  0.23070332  1
  O2-  O339  1  0.90611392  0.43080631  0.72755996  1
  O2-  O340  1  0.90596065  0.76018531  0.23163661  1
  O2-  O341  1  0.90543356  0.76165059  0.72741412  1
  O2-  O342  1  0.25775005  0.25996451  0.02406980  1
  O2-  O343  1  0.26166064  0.25938649  0.52142759  1
  O2-  O344  1  0.25933854  0.59121050  0.02365583  1
  O2-  O345  1  0.26146237  0.59546837  0.52225336  1
  O2-  O346  1  0.26283723  0.92545838  0.02284379  1
  O2-  O347  1  0.26210258  0.92837956  0.52070261  1
  O2-  O348  1  0.59323505  0.26327152  0.02146585  1
  O2-  O349  1  0.59827326  0.26198537  0.51781219  1
  O2-  O350  1  0.59804337  0.59991807  0.01733645  1
  O2-  O351  1  0.59923693  0.59640272  0.51634159  1
  O2-  O352  1  0.59459486  0.92832068  0.02070720  1
  O2-  O353  1  0.59437659  0.92791226  0.52092518  1
  O2-  O354  1  0.92813686  0.26158983  0.01764504  1
  O2-  O355  1  0.92646209  0.26419512  0.52157745  1
  O2-  O356  1  0.93032185  0.59773997  0.01781885  1
  O2-  O357  1  0.93067541  0.59392290  0.52041112  1
  O2-  O358  1  0.92878830  0.92862980  0.02046086  1
  O2-  O359  1  0.92933391  0.92615828  0.51933392  1
