# generated using pymatgen
data_Sr7Ca15Pr50Mn72O216
_symmetry_space_group_name_H-M   'P 1'
_cell_length_a   16.55563994
_cell_length_b   16.60058531
_cell_length_c   15.59073102
_cell_angle_alpha   89.99894684
_cell_angle_beta   89.99939036
_cell_angle_gamma   90.00127095
_symmetry_Int_Tables_number   1
_chemical_formula_structural   Sr7Ca15Pr50Mn72O216
_chemical_formula_sum   'Sr7 Ca15 Pr50 Mn72 O216'
_cell_volume   4284.85225970
_cell_formula_units_Z   1
loop_
 _symmetry_equiv_pos_site_id
 _symmetry_equiv_pos_as_xyz
  1  'x, y, z'
loop_
 _atom_type_symbol
 _atom_type_oxidation_number
  Sr2+  2.0
  Ca2+  2.0
  Pr3+  3.0
  Mn3.30+  3.3
  O2-  -2.0
loop_
 _atom_site_type_symbol
 _atom_site_label
 _atom_site_symmetry_multiplicity
 _atom_site_fract_x
 _atom_site_fract_y
 _atom_site_fract_z
 _atom_site_occupancy
  Sr2+  Sr0  1  0.33236334  0.98974696  0.37454484  1
  Sr2+  Sr1  1  0.16540833  0.15805880  0.87469536  1
  Sr2+  Sr2  1  0.49668669  0.82567715  0.87495937  1
  Sr2+  Sr3  1  0.33383065  0.32301161  0.87368828  1
  Sr2+  Sr4  1  0.49946120  0.50939716  0.12428458  1
  Sr2+  Sr5  1  0.66821217  0.32356118  0.37398750  1
  Sr2+  Sr6  1  0.32944694  0.67896279  0.62519987  1
  Ca2+  Ca7  1  -0.00219111  0.68067561  0.62368839  1
  Ca2+  Ca8  1  0.83860809  0.18508029  0.62797339  1
  Ca2+  Ca9  1  0.33278448  0.98718985  0.87390684  1
  Ca2+  Ca10  1  0.16719010  0.17915094  0.12175066  1
  Ca2+  Ca11  1  1.00591198  0.64957157  0.37602791  1
  Ca2+  Ca12  1  1.00662699  0.31565021  0.87187949  1
  Ca2+  Ca13  1  0.16849091  0.18139772  0.62788740  1
  Ca2+  Ca14  1  -0.00150127  0.01670370  0.12225697  1
  Ca2+  Ca15  1  0.17458808  0.51757134  0.12371635  1
  Ca2+  Ca16  1  0.32973938  0.68039060  0.12353041  1
  Ca2+  Ca17  1  0.67146284  0.31562181  0.87480561  1
  Ca2+  Ca18  1  0.50231748  0.18135327  0.62680162  1
  Ca2+  Ca19  1  0.16967306  0.84658818  0.62547852  1
  Ca2+  Ca20  1  0.83279129  0.15475975  0.87286286  1
  Ca2+  Ca21  1  -0.00232207  0.34392259  0.62891581  1
  Pr3+  Pr22  1  0.16947002  0.84585761  0.12489451  1
  Pr3+  Pr23  1  0.49651170  0.15466134  0.37724628  1
  Pr3+  Pr24  1  1.00461648  0.65483985  0.87412419  1
  Pr3+  Pr25  1  0.00252600  0.34324986  0.12085264  1
  Pr3+  Pr26  1  0.66159514  0.01802099  0.62681385  1
  Pr3+  Pr27  1  1.00340848  0.32013591  0.37661874  1
  Pr3+  Pr28  1  0.83762280  0.84603577  0.62533859  1
  Pr3+  Pr29  1  0.83074047  0.15659190  0.37758965  1
  Pr3+  Pr30  1  0.16337553  0.48491788  0.87590641  1
  Pr3+  Pr31  1  0.66286610  0.01324710  0.12365590  1
  Pr3+  Pr32  1  0.66242350  0.67815599  0.12523859  1
  Pr3+  Pr33  1  0.66945269  0.65211745  0.37490979  1
  Pr3+  Pr34  1  0.66948865  0.98896180  0.37560565  1
  Pr3+  Pr35  1  0.33055743  0.34321366  0.62795667  1
  Pr3+  Pr36  1  0.66679922  0.34258573  0.62632389  1
  Pr3+  Pr37  1  0.83612344  0.51012055  0.12530608  1
  Pr3+  Pr38  1  0.66357874  0.34527539  0.12358186  1
  Pr3+  Pr39  1  0.49277027  0.15341491  0.87247303  1
  Pr3+  Pr40  1  0.49971793  0.84642136  0.62552633  1
  Pr3+  Pr41  1  0.32785018  0.01462425  0.12292401  1
  Pr3+  Pr42  1  0.50192430  0.51097717  0.62637700  1
  Pr3+  Pr43  1  1.00427004  0.98767013  0.37521509  1
  Pr3+  Pr44  1  0.16190477  0.81711014  0.37683980  1
  Pr3+  Pr45  1  0.16394282  0.15347095  0.37631797  1
  Pr3+  Pr46  1  0.33629709  0.32067754  0.37597490  1
  Pr3+  Pr47  1  0.32672818  0.34694303  0.12232325  1
  Pr3+  Pr48  1  0.16362886  0.48837382  0.37465649  1
  Pr3+  Pr49  1  0.66897984  0.65383404  0.87484892  1
  Pr3+  Pr50  1  0.16566390  0.51023368  0.62699329  1
  Pr3+  Pr51  1  0.49678903  0.48572813  0.37514502  1
  Pr3+  Pr52  1  0.66909939  0.98826589  0.87447611  1
  Pr3+  Pr53  1  0.32751737  0.01183617  0.62674747  1
  Pr3+  Pr54  1  0.33433781  0.65467386  0.37519403  1
  Pr3+  Pr55  1  0.49475694  0.82138579  0.37540120  1
  Pr3+  Pr56  1  0.50131872  0.17859686  0.12422837  1
  Pr3+  Pr57  1  0.83409876  0.48551992  0.37360823  1
  Pr3+  Pr58  1  0.66408219  0.67845536  0.62454470  1
  Pr3+  Pr59  1  -0.00064275  0.01509599  0.62591979  1
  Pr3+  Pr60  1  0.84120022  0.51103741  0.62481485  1
  Pr3+  Pr61  1  0.00018703  0.67841744  0.12642343  1
  Pr3+  Pr62  1  0.49752014  0.48614932  0.87541321  1
  Pr3+  Pr63  1  1.00216586  0.99079698  0.87480311  1
  Pr3+  Pr64  1  0.16696926  0.82480936  0.87238939  1
  Pr3+  Pr65  1  0.49760334  0.84413864  0.12439019  1
  Pr3+  Pr66  1  0.33677202  0.65675862  0.87511656  1
  Pr3+  Pr67  1  0.83659499  0.17751111  0.12234628  1
  Pr3+  Pr68  1  0.83017183  0.82068028  0.87423602  1
  Pr3+  Pr69  1  0.83958128  0.85072030  0.12444973  1
  Pr3+  Pr70  1  0.83257430  0.81937639  0.37562827  1
  Pr3+  Pr71  1  0.83136799  0.48248117  0.87543559  1
  Mn3.30+  Mn72  1  0.16535752  0.00253515  -0.00002185  1
  Mn3.30+  Mn73  1  0.16605533  -0.00071733  0.50177210  1
  Mn3.30+  Mn74  1  0.16500110  0.33168483  -0.00121951  1
  Mn3.30+  Mn75  1  0.16562637  0.33228020  0.50311930  1
  Mn3.30+  Mn76  1  0.16882865  0.66712257  -0.00032449  1
  Mn3.30+  Mn77  1  0.16357381  0.66669485  0.50286270  1
  Mn3.30+  Mn78  1  0.49673694  -0.00012344  -0.00091863  1
  Mn3.30+  Mn79  1  0.49861369  0.00174826  0.50111372  1
  Mn3.30+  Mn80  1  0.50053906  0.33245778  -0.00199639  1
  Mn3.30+  Mn81  1  0.50039850  0.33159350  0.50203689  1
  Mn3.30+  Mn82  1  0.49874040  0.66705934  0.00101158  1
  Mn3.30+  Mn83  1  0.49979652  0.66657351  0.50039151  1
  Mn3.30+  Mn84  1  0.83467603  0.00242027  -0.00122747  1
  Mn3.30+  Mn85  1  0.83395271  0.00232518  0.50226223  1
  Mn3.30+  Mn86  1  0.83404266  0.32993840  -0.00355969  1
  Mn3.30+  Mn87  1  0.83536265  0.33246847  0.50230118  1
  Mn3.30+  Mn88  1  0.83433007  0.66588580  0.00104297  1
  Mn3.30+  Mn89  1  0.83759827  0.66535010  0.49863346  1
  Mn3.30+  Mn90  1  0.00116462  0.16600357  0.24790676  1
  Mn3.30+  Mn91  1  -0.00118168  0.16894710  0.74947012  1
  Mn3.30+  Mn92  1  0.00392017  0.49970489  0.24689623  1
  Mn3.30+  Mn93  1  -0.00055755  0.49829825  0.75113327  1
  Mn3.30+  Mn94  1  0.00055952  0.83297835  0.25066246  1
  Mn3.30+  Mn95  1  0.00106159  0.83342564  0.74776964  1
  Mn3.30+  Mn96  1  0.33121508  0.16718909  0.24908626  1
  Mn3.30+  Mn97  1  0.33204060  0.16592064  0.74935206  1
  Mn3.30+  Mn98  1  0.33106169  0.50207494  0.24798370  1
  Mn3.30+  Mn99  1  0.33287813  0.50025014  0.75056563  1
  Mn3.30+  Mn100  1  0.33111585  0.83279750  0.25068413  1
  Mn3.30+  Mn101  1  0.33214063  0.83476455  0.74885301  1
  Mn3.30+  Mn102  1  0.66707420  0.16683766  0.25042083  1
  Mn3.30+  Mn103  1  0.66752424  0.16855338  0.75085257  1
  Mn3.30+  Mn104  1  0.66669078  0.49915128  0.24954261  1
  Mn3.30+  Mn105  1  0.66920103  0.49727723  0.75076293  1
  Mn3.30+  Mn106  1  0.66679519  0.83352019  0.25008828  1
  Mn3.30+  Mn107  1  0.66701033  0.83372187  0.74948113  1
  Mn3.30+  Mn108  1  0.16444090  0.00101858  0.24817101  1
  Mn3.30+  Mn109  1  0.16657245  0.00133915  0.75045726  1
  Mn3.30+  Mn110  1  0.16755923  0.33331181  0.24915329  1
  Mn3.30+  Mn111  1  0.16303526  0.33087893  0.74928594  1
  Mn3.30+  Mn112  1  0.16682876  0.66542117  0.24948729  1
  Mn3.30+  Mn113  1  0.16612875  0.66836819  0.74805841  1
  Mn3.30+  Mn114  1  0.49871339  0.00002069  0.25016615  1
  Mn3.30+  Mn115  1  0.49701767  0.00140220  0.74926375  1
  Mn3.30+  Mn116  1  0.49900662  0.33281355  0.24964800  1
  Mn3.30+  Mn117  1  0.50189438  0.33119540  0.75098559  1
  Mn3.30+  Mn118  1  0.49809521  0.66580450  0.24839989  1
  Mn3.30+  Mn119  1  0.50016330  0.66822421  0.75035654  1
  Mn3.30+  Mn120  1  0.83566158  0.00155018  0.25024380  1
  Mn3.30+  Mn121  1  0.83337762  0.00383533  0.74858876  1
  Mn3.30+  Mn122  1  0.83482696  0.33179624  0.24795558  1
  Mn3.30+  Mn123  1  0.83510755  0.32965514  0.75317557  1
  Mn3.30+  Mn124  1  0.83569701  0.66631615  0.25079656  1
  Mn3.30+  Mn125  1  0.83615873  0.66537063  0.74890992  1
  Mn3.30+  Mn126  1  0.00038103  0.16657168  -0.00174345  1
  Mn3.30+  Mn127  1  -0.00053988  0.16896656  0.50427555  1
  Mn3.30+  Mn128  1  0.00220616  0.49882728  0.00065351  1
  Mn3.30+  Mn129  1  0.00062047  0.49981026  0.50041204  1
  Mn3.30+  Mn130  1  0.00063020  0.83501132  -0.00016808  1
  Mn3.30+  Mn131  1  0.00145064  0.83110824  0.50212662  1
  Mn3.30+  Mn132  1  0.33123870  0.16696992  -0.00240499  1
  Mn3.30+  Mn133  1  0.33231751  0.16601760  0.50367831  1
  Mn3.30+  Mn134  1  0.33215843  0.50183511  0.00067476  1
  Mn3.30+  Mn135  1  0.33164969  0.50019254  0.50124963  1
  Mn3.30+  Mn136  1  0.33264672  0.83398236  -0.00006624  1
  Mn3.30+  Mn137  1  0.33019952  0.83395421  0.50032621  1
  Mn3.30+  Mn138  1  0.66746434  0.16711477  -0.00338381  1
  Mn3.30+  Mn139  1  0.66682956  0.16874775  0.50265020  1
  Mn3.30+  Mn140  1  0.66648980  0.49809499  -0.00128514  1
  Mn3.30+  Mn141  1  0.66947666  0.49793745  0.50063029  1
  Mn3.30+  Mn142  1  0.66679349  0.83325167  0.00046482  1
  Mn3.30+  Mn143  1  0.66706004  0.83391818  0.49976698  1
  O2-  O144  1  0.02450106  0.16138427  0.12573233  1
  O2-  O145  1  0.02793685  0.16054127  0.62516791  1
  O2-  O146  1  0.03142251  0.49177643  0.12368592  1
  O2-  O147  1  0.02222258  0.48893237  0.62790591  1
  O2-  O148  1  0.02566040  0.82476975  0.12666429  1
  O2-  O149  1  0.02671707  0.82573188  0.62448428  1
  O2-  O150  1  0.35766503  0.16283780  0.12261850  1
  O2-  O151  1  0.36051746  0.15997199  0.62530431  1
  O2-  O152  1  0.35190759  0.49374738  0.12459481  1
  O2-  O153  1  0.35754666  0.49362170  0.62542866  1
  O2-  O154  1  0.35358290  0.82702030  0.12707555  1
  O2-  O155  1  0.35611320  0.83366016  0.62346971  1
  O2-  O156  1  0.69170209  0.16027285  0.12210552  1
  O2-  O157  1  0.69505016  0.16423749  0.62642303  1
  O2-  O158  1  0.69135769  0.49509532  0.12294308  1
  O2-  O159  1  0.69574786  0.49280540  0.62627147  1
  O2-  O160  1  0.69471971  0.82744570  0.12597824  1
  O2-  O161  1  0.69336899  0.82707181  0.62362454  1
  O2-  O162  1  0.14559450  0.32478723  0.12443386  1
  O2-  O163  1  0.13977919  0.32966668  0.62437161  1
  O2-  O164  1  0.14276297  0.66388471  0.12434130  1
  O2-  O165  1  0.13778123  0.65720448  0.62593229  1
  O2-  O166  1  0.13847847  0.99175460  0.12500427  1
  O2-  O167  1  0.14158759  0.99010945  0.62487496  1
  O2-  O168  1  0.47328997  0.32653074  0.12467141  1
  O2-  O169  1  0.47546440  0.32945253  0.62533500  1
  O2-  O170  1  0.47271403  0.66500292  0.12683953  1
  O2-  O171  1  0.48108265  0.65924732  0.62499716  1
  O2-  O172  1  0.47438622  0.99570303  0.12422753  1
  O2-  O173  1  0.47328785  0.99370511  0.62395942  1
  O2-  O174  1  0.80721039  0.32618428  0.12220333  1
  O2-  O175  1  0.81003578  0.33191714  0.62967757  1
  O2-  O176  1  0.80720169  0.65964487  0.12522431  1
  O2-  O177  1  0.80742399  0.65993570  0.62215099  1
  O2-  O178  1  0.80678644  0.99763730  0.12565484  1
  O2-  O179  1  0.80542586  0.99191229  0.62474393  1
  O2-  O180  1  0.30820854  0.17248298  0.37763181  1
  O2-  O181  1  0.31464811  0.17012043  0.87396651  1
  O2-  O182  1  0.30824746  0.50465048  0.37464200  1
  O2-  O183  1  0.30903818  0.50698891  0.87570615  1
  O2-  O184  1  0.30718824  0.83393206  0.37503909  1
  O2-  O185  1  0.31105011  0.83800894  0.87435015  1
  O2-  O186  1  0.64146180  0.16752302  0.37751131  1
  O2-  O187  1  0.63738565  0.16997164  0.87498732  1
  O2-  O188  1  0.64219413  0.50390311  0.37562583  1
  O2-  O189  1  0.64155441  0.50773238  0.87476233  1
  O2-  O190  1  0.63961710  0.84049246  0.37512017  1
  O2-  O191  1  0.64836165  0.83820348  0.87509248  1
  O2-  O192  1  0.97446082  0.17224342  0.37677933  1
  O2-  O193  1  0.97403312  0.16966822  0.87288115  1
  O2-  O194  1  0.97726901  0.50489458  0.37080798  1
  O2-  O195  1  0.97392661  0.50985814  0.87640217  1
  O2-  O196  1  0.97433154  0.84181728  0.37559752  1
  O2-  O197  1  0.97296506  0.84041147  0.87331740  1
  O2-  O198  1  0.18341068  0.00629619  0.37493099  1
  O2-  O199  1  0.19023386  0.00121990  0.87581037  1
  O2-  O200  1  0.19256280  0.33971679  0.37722219  1
  O2-  O201  1  0.18533163  0.33748798  0.87453833  1
  O2-  O202  1  0.19044858  0.66816375  0.37585282  1
  O2-  O203  1  0.19188415  0.67447100  0.87381320  1
  O2-  O204  1  0.52554152  0.00632196  0.37632757  1
  O2-  O205  1  0.52469037  0.00508041  0.87532384  1
  O2-  O206  1  0.51783774  0.33738995  0.37688845  1
  O2-  O207  1  0.52807280  0.33850784  0.87402935  1
  O2-  O208  1  0.52553525  0.67233627  0.37525870  1
  O2-  O209  1  0.52571473  0.67092029  0.87351704  1
  O2-  O210  1  0.85974151  0.00819381  0.37776506  1
  O2-  O211  1  0.85751550  0.00626559  0.87139367  1
  O2-  O212  1  0.85910302  0.33596631  0.37225181  1
  O2-  O213  1  0.86525791  0.33841460  0.87623270  1
  O2-  O214  1  0.86369356  0.67232419  0.37477978  1
  O2-  O215  1  0.86012520  0.67224900  0.87699128  1
  O2-  O216  1  0.23714192  0.09321099  0.02453682  1
  O2-  O217  1  0.23676534  0.09538086  0.52159923  1
  O2-  O218  1  0.23631941  0.42916856  0.01775345  1
  O2-  O219  1  0.23782933  0.42594693  0.52283023  1
  O2-  O220  1  0.23548593  0.76509520  0.01544333  1
  O2-  O221  1  0.23122765  0.76242069  0.51735486  1
  O2-  O222  1  0.57012785  0.09353057  0.02010011  1
  O2-  O223  1  0.57198681  0.09659982  0.52314029  1
  O2-  O224  1  0.57499440  0.42481152  0.01863756  1
  O2-  O225  1  0.57161582  0.42632592  0.52144691  1
  O2-  O226  1  0.57242938  0.75879879  0.02399208  1
  O2-  O227  1  0.57317269  0.76114093  0.51994812  1
  O2-  O228  1  0.90404487  0.09434068  0.01822897  1
  O2-  O229  1  0.90476790  0.09872851  0.52352769  1
  O2-  O230  1  0.90399349  0.42682187  0.02211398  1
  O2-  O231  1  0.90419094  0.43087238  0.51336876  1
  O2-  O232  1  0.90599162  0.76221658  0.02107121  1
  O2-  O233  1  0.90250264  0.76396142  0.51862306  1
  O2-  O234  1  0.26471159  0.26627769  0.23478899  1
  O2-  O235  1  0.26088610  0.25902566  0.72862846  1
  O2-  O236  1  0.26563072  0.60011480  0.23244280  1
  O2-  O237  1  0.25621658  0.59289789  0.73229538  1
  O2-  O238  1  0.25856339  0.92906422  0.22793174  1
  O2-  O239  1  0.26037609  0.92861189  0.73316970  1
  O2-  O240  1  0.59398144  0.25778069  0.22733562  1
  O2-  O241  1  0.59782706  0.26189860  0.73036357  1
  O2-  O242  1  0.59553198  0.59736571  0.23347794  1
  O2-  O243  1  0.59689050  0.59355193  0.73003157  1
  O2-  O244  1  0.59532699  0.92702429  0.22884738  1
  O2-  O245  1  0.59265532  0.93001549  0.72914014  1
  O2-  O246  1  0.93018692  0.26119465  0.22781171  1
  O2-  O247  1  0.92947356  0.26251631  0.72782196  1
  O2-  O248  1  0.92983881  0.59009052  0.22460044  1
  O2-  O249  1  0.92970973  0.59626161  0.72822034  1
  O2-  O250  1  0.92829797  0.93095813  0.22846105  1
  O2-  O251  1  0.92838358  0.92733150  0.72709193  1
  O2-  O252  1  0.09336638  0.23881134  0.27297076  1
  O2-  O253  1  0.09194288  0.23941447  0.76684280  1
  O2-  O254  1  0.09810218  0.57007770  0.26722537  1
  O2-  O255  1  0.09378484  0.57179263  0.77201328  1
  O2-  O256  1  0.09355265  0.90274232  0.27132419  1
  O2-  O257  1  0.09135589  0.90795131  0.77202334  1
  O2-  O258  1  0.42727814  0.23799354  0.27038604  1
  O2-  O259  1  0.43042522  0.23818404  0.76575642  1
  O2-  O260  1  0.42758682  0.57238168  0.27452265  1
  O2-  O261  1  0.43021099  0.57430440  0.77012164  1
  O2-  O262  1  0.43011986  0.90332474  0.26636731  1
  O2-  O263  1  0.42728727  0.90567812  0.76227025  1
  O2-  O264  1  0.76362976  0.23562225  0.26633479  1
  O2-  O265  1  0.76414761  0.23707758  0.77292021  1
  O2-  O266  1  0.76265971  0.57342505  0.27127806  1
  O2-  O267  1  0.76291563  0.56952957  0.77101949  1
  O2-  O268  1  0.76393012  0.90730176  0.27153100  1
  O2-  O269  1  0.76213279  0.90641084  0.76971698  1
  O2-  O270  1  0.06965890  0.07148000  0.48222653  1
  O2-  O271  1  0.06854295  0.07109991  0.98122470  1
  O2-  O272  1  0.07380063  0.40699236  0.47704371  1
  O2-  O273  1  0.06929217  0.40435226  0.97791353  1
  O2-  O274  1  0.06975566  0.73641866  0.47552701  1
  O2-  O275  1  0.07177848  0.73923424  0.97982490  1
  O2-  O276  1  0.40720157  0.07436403  0.48038543  1
  O2-  O277  1  0.40307543  0.07038689  0.97981749  1
  O2-  O278  1  0.40544317  0.40645162  0.48149155  1
  O2-  O279  1  0.40972120  0.40750568  0.98223883  1
  O2-  O280  1  0.40484168  0.74091160  0.47936601  1
  O2-  O281  1  0.40416913  0.73814463  0.98275638  1
  O2-  O282  1  0.73714113  0.07235199  0.48038186  1
  O2-  O283  1  0.73383944  0.06990269  0.98131948  1
  O2-  O284  1  0.74229199  0.40685570  0.48160421  1
  O2-  O285  1  0.74057252  0.40114231  0.97780093  1
  O2-  O286  1  0.74056740  0.73700053  0.47756656  1
  O2-  O287  1  0.73979228  0.73774819  0.97994712  1
  O2-  O288  1  0.09475611  0.23921116  0.47706796  1
  O2-  O289  1  0.09014795  0.23984247  0.98484404  1
  O2-  O290  1  0.09608902  0.56870443  0.48328217  1
  O2-  O291  1  0.09634424  0.57501376  0.97731727  1
  O2-  O292  1  0.09215423  0.90514288  0.47832892  1
  O2-  O293  1  0.09418273  0.90555880  0.97866597  1
  O2-  O294  1  0.42664708  0.24038205  0.48000690  1
  O2-  O295  1  0.43257356  0.23623302  0.98328327  1
  O2-  O296  1  0.42853932  0.57228804  0.47983036  1
  O2-  O297  1  0.42851604  0.57423991  0.97657298  1
  O2-  O298  1  0.43086090  0.90396645  0.48252937  1
  O2-  O299  1  0.42638061  0.90537404  0.98829319  1
  O2-  O300  1  0.76365500  0.23891063  0.48373008  1
  O2-  O301  1  0.76416037  0.23441609  0.97871804  1
  O2-  O302  1  0.76532963  0.57289397  0.47629646  1
  O2-  O303  1  0.76196394  0.57041615  0.97925642  1
  O2-  O304  1  0.76086576  0.90513779  0.47756800  1
  O2-  O305  1  0.76447647  0.90706842  0.98104033  1
  O2-  O306  1  0.07065480  0.07347980  0.27187442  1
  O2-  O307  1  0.06720343  0.07054897  0.76605727  1
  O2-  O308  1  0.07247032  0.40360867  0.27049953  1
  O2-  O309  1  0.07138736  0.40809054  0.77328331  1
  O2-  O310  1  0.07029292  0.73450504  0.27120923  1
  O2-  O311  1  0.07261677  0.74077395  0.77371677  1
  O2-  O312  1  0.40708938  0.07550037  0.26641226  1
  O2-  O313  1  0.40270761  0.06998943  0.77110136  1
  O2-  O314  1  0.40349327  0.40732537  0.26928813  1
  O2-  O315  1  0.41151427  0.40817854  0.76749477  1
  O2-  O316  1  0.40706377  0.73911721  0.27339116  1
  O2-  O317  1  0.40429346  0.73943561  0.76625024  1
  O2-  O318  1  0.73870223  0.07149016  0.27075618  1
  O2-  O319  1  0.73217012  0.07087074  0.76787181  1
  O2-  O320  1  0.74590983  0.40745835  0.26473808  1
  O2-  O321  1  0.73953297  0.40118537  0.77460500  1
  O2-  O322  1  0.73736027  0.74023912  0.27272221  1
  O2-  O323  1  0.74155357  0.73601474  0.76894166  1
  O2-  O324  1  0.23798631  0.09804858  0.22895706  1
  O2-  O325  1  0.23744765  0.09295796  0.72528573  1
  O2-  O326  1  0.23721316  0.43163445  0.22956525  1
  O2-  O327  1  0.23753756  0.42420330  0.73118202  1
  O2-  O328  1  0.23311220  0.76293547  0.23477381  1
  O2-  O329  1  0.23492860  0.76504261  0.73221380  1
  O2-  O330  1  0.57333158  0.09301771  0.22939614  1
  O2-  O331  1  0.56926118  0.09657682  0.72861981  1
  O2-  O332  1  0.57438313  0.42328573  0.23347582  1
  O2-  O333  1  0.57439373  0.42798785  0.72806254  1
  O2-  O334  1  0.57059108  0.76008213  0.22911849  1
  O2-  O335  1  0.57466571  0.75959352  0.72663614  1
  O2-  O336  1  0.90320853  0.09784888  0.23293619  1
  O2-  O337  1  0.90487508  0.09518000  0.72537429  1
  O2-  O338  1  0.90969512  0.42661713  0.22695633  1
  O2-  O339  1  0.90132592  0.43133649  0.73550287  1
  O2-  O340  1  0.90435051  0.76285858  0.22852470  1
  O2-  O341  1  0.90467707  0.76359380  0.73190086  1
  O2-  O342  1  0.26159194  0.26147649  0.01770118  1
  O2-  O343  1  0.26308263  0.26290837  0.51976992  1
  O2-  O344  1  0.26307351  0.60070687  0.01736912  1
  O2-  O345  1  0.25718698  0.59238077  0.51795270  1
  O2-  O346  1  0.25844613  0.92758036  0.02147306  1
  O2-  O347  1  0.26043111  0.92945362  0.51832084  1
  O2-  O348  1  0.59514599  0.25918293  0.02254689  1
  O2-  O349  1  0.59548791  0.26131106  0.52128739  1
  O2-  O350  1  0.59574074  0.59769537  0.01696777  1
  O2-  O351  1  0.59835932  0.59187999  0.51967574  1
  O2-  O352  1  0.59342995  0.92736343  0.02062405  1
  O2-  O353  1  0.59382539  0.93026088  0.52161082  1
  O2-  O354  1  0.92660680  0.25856899  0.02409965  1
  O2-  O355  1  0.93248829  0.26623722  0.51921068  1
  O2-  O356  1  0.92936153  0.59335461  0.02331633  1
  O2-  O357  1  0.92918659  0.59442944  0.52320941  1
  O2-  O358  1  0.92933097  0.92856086  0.02144216  1
  O2-  O359  1  0.92813165  0.92851699  0.52184882  1
