# generated using pymatgen
data_Sr7Ca15Pr50Mn72O216
_symmetry_space_group_name_H-M   'P 1'
_cell_length_a   16.56067990
_cell_length_b   16.60399070
_cell_length_c   15.59322896
_cell_angle_alpha   89.99878941
_cell_angle_beta   89.99506741
_cell_angle_gamma   89.99414940
_symmetry_Int_Tables_number   1
_chemical_formula_structural   Sr7Ca15Pr50Mn72O216
_chemical_formula_sum   'Sr7 Ca15 Pr50 Mn72 O216'
_cell_volume   4287.72275720
_cell_formula_units_Z   1
loop_
 _symmetry_equiv_pos_site_id
 _symmetry_equiv_pos_as_xyz
  1  'x, y, z'
loop_
 _atom_type_symbol
 _atom_type_oxidation_number
  Sr2+  2.0
  Ca2+  2.0
  Pr3+  3.0
  Mn3.30+  3.3
  O2-  -2.0
loop_
 _atom_site_type_symbol
 _atom_site_label
 _atom_site_symmetry_multiplicity
 _atom_site_fract_x
 _atom_site_fract_y
 _atom_site_fract_z
 _atom_site_occupancy
  Sr2+  Sr0  1  0.66541061  0.67704588  0.12742177  1
  Sr2+  Sr1  1  0.82973219  0.82623848  0.37300462  1
  Sr2+  Sr2  1  0.83348742  0.51285241  0.62299908  1
  Sr2+  Sr3  1  0.33152590  0.67652646  0.12795925  1
  Sr2+  Sr4  1  0.82829604  0.49038054  0.37515646  1
  Sr2+  Sr5  1  0.16531109  0.82291046  0.87529287  1
  Sr2+  Sr6  1  1.00267650  0.99101529  0.37336010  1
  Ca2+  Ca7  1  -0.00191564  0.01273152  0.12711631  1
  Ca2+  Ca8  1  0.16465440  0.48810385  0.87547055  1
  Ca2+  Ca9  1  0.33694459  0.65457896  0.37287194  1
  Ca2+  Ca10  1  0.82998281  0.81918271  0.87725957  1
  Ca2+  Ca11  1  0.66474664  0.68129843  0.62144751  1
  Ca2+  Ca12  1  0.49587689  0.81796148  0.87646502  1
  Ca2+  Ca13  1  0.16881773  0.17684635  0.13043914  1
  Ca2+  Ca14  1  0.67343313  0.98479230  0.37435969  1
  Ca2+  Ca15  1  0.16395982  0.15069634  0.37263866  1
  Ca2+  Ca16  1  0.33116934  0.01327805  0.62378849  1
  Ca2+  Ca17  1  0.67371513  0.65386334  0.37627687  1
  Ca2+  Ca18  1  0.33654378  0.31669939  0.37362609  1
  Ca2+  Ca19  1  0.32794495  0.01544767  0.12575919  1
  Ca2+  Ca20  1  0.67179747  0.32048878  0.37507456  1
  Ca2+  Ca21  1  0.83807565  0.84938122  0.12617799  1
  Pr3+  Pr22  1  0.83164282  0.15277682  0.87589907  1
  Pr3+  Pr23  1  0.49798329  0.48804881  0.37360374  1
  Pr3+  Pr24  1  -0.00194387  0.01085352  0.62482288  1
  Pr3+  Pr25  1  0.50131483  0.17842449  0.62303367  1
  Pr3+  Pr26  1  0.16971816  0.51381636  0.12456984  1
  Pr3+  Pr27  1  0.82941426  0.15163740  0.37460781  1
  Pr3+  Pr28  1  0.83122265  0.84132593  0.62519759  1
  Pr3+  Pr29  1  -0.00460467  0.67914482  0.62480446  1
  Pr3+  Pr30  1  0.17104628  0.17676100  0.62124427  1
  Pr3+  Pr31  1  -0.00044835  0.34490511  0.12674692  1
  Pr3+  Pr32  1  0.50127037  0.81988786  0.37341095  1
  Pr3+  Pr33  1  0.33123971  0.68061503  0.62236005  1
  Pr3+  Pr34  1  0.50048872  0.15448432  0.37347454  1
  Pr3+  Pr35  1  0.16576066  0.48973639  0.37419876  1
  Pr3+  Pr36  1  0.33415878  0.32071165  0.87534198  1
  Pr3+  Pr37  1  0.99722268  0.65760782  0.37513238  1
  Pr3+  Pr38  1  0.16874465  0.51380362  0.62500215  1
  Pr3+  Pr39  1  0.66944240  0.32016549  0.87544471  1
  Pr3+  Pr40  1  0.16517681  0.15386244  0.87665196  1
  Pr3+  Pr41  1  1.00479214  0.32382187  0.87470605  1
  Pr3+  Pr42  1  0.66380129  0.34561089  0.12804730  1
  Pr3+  Pr43  1  0.66373561  0.34715279  0.62215973  1
  Pr3+  Pr44  1  0.17110124  0.84943997  0.62561854  1
  Pr3+  Pr45  1  0.33132842  0.34669276  0.62157324  1
  Pr3+  Pr46  1  -0.00281058  0.34751373  0.62317954  1
  Pr3+  Pr47  1  0.16145000  0.82247802  0.37410976  1
  Pr3+  Pr48  1  0.33335592  0.99069201  0.37291996  1
  Pr3+  Pr49  1  0.66783528  0.00614072  0.12812102  1
  Pr3+  Pr50  1  0.83908736  0.17492531  0.12637760  1
  Pr3+  Pr51  1  0.33823059  0.98314716  0.87684135  1
  Pr3+  Pr52  1  0.49654221  0.48930375  0.87634698  1
  Pr3+  Pr53  1  1.00295643  0.31931134  0.37593835  1
  Pr3+  Pr54  1  0.50607463  0.51686624  0.62422834  1
  Pr3+  Pr55  1  1.00376772  0.65286011  0.87500181  1
  Pr3+  Pr56  1  0.83509891  0.51473645  0.12709347  1
  Pr3+  Pr57  1  0.66796286  0.65711146  0.87498803  1
  Pr3+  Pr58  1  0.32844316  0.34460689  0.12754164  1
  Pr3+  Pr59  1  0.83034657  0.48909354  0.87525181  1
  Pr3+  Pr60  1  1.00352088  0.98486295  0.87715489  1
  Pr3+  Pr61  1  -0.00570939  0.68202971  0.12587278  1
  Pr3+  Pr62  1  0.66356618  0.01072693  0.62282687  1
  Pr3+  Pr63  1  0.33478764  0.65660949  0.87626531  1
  Pr3+  Pr64  1  0.50149786  0.84317937  0.12402764  1
  Pr3+  Pr65  1  0.17098874  0.84804567  0.12440576  1
  Pr3+  Pr66  1  0.66822151  0.98294744  0.87618324  1
  Pr3+  Pr67  1  0.50123924  0.51441526  0.12596690  1
  Pr3+  Pr68  1  0.50426098  0.84573080  0.62549191  1
  Pr3+  Pr69  1  0.50097068  0.17661584  0.12622210  1
  Pr3+  Pr70  1  0.83639987  0.17884896  0.62371573  1
  Pr3+  Pr71  1  0.49497248  0.15244495  0.87569824  1
  Mn3.30+  Mn72  1  0.16700590  0.00124367  0.00260778  1
  Mn3.30+  Mn73  1  0.16809213  0.00125961  0.49929215  1
  Mn3.30+  Mn74  1  0.16676686  0.33291892  0.00104191  1
  Mn3.30+  Mn75  1  0.16890929  0.33223500  0.49667277  1
  Mn3.30+  Mn76  1  0.16596358  0.66738145  -0.00028528  1
  Mn3.30+  Mn77  1  0.16756790  0.66756866  0.49862335  1
  Mn3.30+  Mn78  1  0.49847237  -0.00199549  0.00260037  1
  Mn3.30+  Mn79  1  0.50025887  -0.00066186  0.49730588  1
  Mn3.30+  Mn80  1  0.49908026  0.33251642  0.00130733  1
  Mn3.30+  Mn81  1  0.49981813  0.33343502  0.49630856  1
  Mn3.30+  Mn82  1  0.50010030  0.66872498  0.00090131  1
  Mn3.30+  Mn83  1  0.50148950  0.66711117  0.49706578  1
  Mn3.30+  Mn84  1  0.83565383  -0.00249623  0.00007485  1
  Mn3.30+  Mn85  1  0.83161545  -0.00180070  0.50007040  1
  Mn3.30+  Mn86  1  0.83420365  0.33305858  0.00099059  1
  Mn3.30+  Mn87  1  0.83180036  0.33382490  0.49795163  1
  Mn3.30+  Mn88  1  0.83345564  0.67055388  0.00003278  1
  Mn3.30+  Mn89  1  0.82904181  0.66815985  0.50037216  1
  Mn3.30+  Mn90  1  0.00360550  0.16484300  0.24971442  1
  Mn3.30+  Mn91  1  0.00094096  0.16715338  0.75029649  1
  Mn3.30+  Mn92  1  -0.00039541  0.50032295  0.25182974  1
  Mn3.30+  Mn93  1  0.00032702  0.50027291  0.74986571  1
  Mn3.30+  Mn94  1  -0.00129278  0.83596674  0.24909798  1
  Mn3.30+  Mn95  1  -0.00086872  0.83269752  0.75155142  1
  Mn3.30+  Mn96  1  0.33126956  0.16613276  0.25129237  1
  Mn3.30+  Mn97  1  0.33311011  0.16503517  0.74848560  1
  Mn3.30+  Mn98  1  0.33267465  0.49990944  0.25245635  1
  Mn3.30+  Mn99  1  0.33286954  0.50080648  0.74954776  1
  Mn3.30+  Mn100  1  0.33299333  0.83367794  0.25036680  1
  Mn3.30+  Mn101  1  0.33547214  0.83360693  0.74958052  1
  Mn3.30+  Mn102  1  0.66800016  0.16549237  0.24988275  1
  Mn3.30+  Mn103  1  0.66606258  0.16550566  0.75044144  1
  Mn3.30+  Mn104  1  0.66635497  0.50062676  0.25217205  1
  Mn3.30+  Mn105  1  0.66615729  0.50227361  0.74917517  1
  Mn3.30+  Mn106  1  0.66870286  0.83292753  0.24861198  1
  Mn3.30+  Mn107  1  0.66575517  0.83098003  0.75286979  1
  Mn3.30+  Mn108  1  0.16647513  0.00213293  0.24743078  1
  Mn3.30+  Mn109  1  0.16874705  0.00041732  0.75095241  1
  Mn3.30+  Mn110  1  0.16794052  0.33030168  0.25290187  1
  Mn3.30+  Mn111  1  0.16737130  0.33437271  0.74857494  1
  Mn3.30+  Mn112  1  0.16704089  0.66758556  0.25125935  1
  Mn3.30+  Mn113  1  0.16636348  0.66701091  0.75035644  1
  Mn3.30+  Mn114  1  0.50008337  -0.00116189  0.24996446  1
  Mn3.30+  Mn115  1  0.49850494  -0.00170069  0.74937261  1
  Mn3.30+  Mn116  1  0.49932896  0.33244493  0.25212322  1
  Mn3.30+  Mn117  1  0.49958063  0.33364225  0.74957114  1
  Mn3.30+  Mn118  1  0.50094461  0.66682371  0.25197930  1
  Mn3.30+  Mn119  1  0.50086776  0.66900413  0.74976083  1
  Mn3.30+  Mn120  1  0.83461600  -0.00161736  0.24947134  1
  Mn3.30+  Mn121  1  0.83263901  -0.00255744  0.75126540  1
  Mn3.30+  Mn122  1  0.83218992  0.33275267  0.25109384  1
  Mn3.30+  Mn123  1  0.83403259  0.33383340  0.74996567  1
  Mn3.30+  Mn124  1  0.83007916  0.67025568  0.25011990  1
  Mn3.30+  Mn125  1  0.83228742  0.66806295  0.75037127  1
  Mn3.30+  Mn126  1  0.00232790  0.16634447  0.00169030  1
  Mn3.30+  Mn127  1  0.00240677  0.16544309  0.49892386  1
  Mn3.30+  Mn128  1  0.00121502  0.50019890  0.00056371  1
  Mn3.30+  Mn129  1  -0.00125822  0.50088338  0.49820727  1
  Mn3.30+  Mn130  1  -0.00157990  0.83433745  0.00071248  1
  Mn3.30+  Mn131  1  -0.00048481  0.83421349  0.49973760  1
  Mn3.30+  Mn132  1  0.33053689  0.16546846  0.00283502  1
  Mn3.30+  Mn133  1  0.33371981  0.16577974  0.49666492  1
  Mn3.30+  Mn134  1  0.33060195  0.50030487  -0.00088729  1
  Mn3.30+  Mn135  1  0.33481136  0.50076237  0.49814505  1
  Mn3.30+  Mn136  1  0.33426359  0.83262890  0.00143880  1
  Mn3.30+  Mn137  1  0.33409419  0.83430317  0.49772278  1
  Mn3.30+  Mn138  1  0.66677998  0.16417968  0.00109795  1
  Mn3.30+  Mn139  1  0.66697213  0.16672285  0.49859079  1
  Mn3.30+  Mn140  1  0.66570797  0.50055416  0.00017918  1
  Mn3.30+  Mn141  1  0.66665247  0.50256014  0.49919253  1
  Mn3.30+  Mn142  1  0.66824738  0.83194760  0.00081308  1
  Mn3.30+  Mn143  1  0.66645808  0.83232892  0.49865054  1
  O2-  O144  1  0.02580514  0.16152752  0.12453043  1
  O2-  O145  1  0.02624727  0.16037766  0.62664536  1
  O2-  O146  1  0.02532170  0.49522945  0.12745959  1
  O2-  O147  1  0.02441359  0.49687203  0.62241599  1
  O2-  O148  1  0.02720656  0.82656611  0.12465155  1
  O2-  O149  1  0.02608715  0.82740598  0.62616762  1
  O2-  O150  1  0.35809901  0.16359857  0.12653488  1
  O2-  O151  1  0.35834052  0.16029949  0.62116328  1
  O2-  O152  1  0.35694553  0.49242717  0.12708701  1
  O2-  O153  1  0.36126573  0.49446319  0.62314682  1
  O2-  O154  1  0.35807471  0.82833993  0.12654105  1
  O2-  O155  1  0.36086518  0.82686832  0.62181560  1
  O2-  O156  1  0.69453027  0.15712898  0.12479629  1
  O2-  O157  1  0.69215249  0.15939644  0.62721719  1
  O2-  O158  1  0.69064263  0.49257153  0.12429228  1
  O2-  O159  1  0.68460673  0.49212157  0.62557419  1
  O2-  O160  1  0.69366222  0.83451951  0.12247166  1
  O2-  O161  1  0.68677782  0.82905239  0.62794086  1
  O2-  O162  1  0.14259698  0.32469261  0.12932207  1
  O2-  O163  1  0.14119625  0.32485258  0.62266202  1
  O2-  O164  1  0.14001600  0.66096547  0.12623181  1
  O2-  O165  1  0.14022558  0.66121941  0.62544105  1
  O2-  O166  1  0.13979155  0.99423824  0.12391056  1
  O2-  O167  1  0.14313603  0.99854886  0.62778454  1
  O2-  O168  1  0.47281527  0.32676131  0.12539257  1
  O2-  O169  1  0.47506726  0.32787370  0.62184167  1
  O2-  O170  1  0.48013220  0.66323449  0.12627361  1
  O2-  O171  1  0.47432242  0.66414809  0.62286396  1
  O2-  O172  1  0.47059638  0.99216818  0.12577129  1
  O2-  O173  1  0.47300421  0.99355732  0.62168067  1
  O2-  O174  1  0.80818664  0.32540875  0.12472970  1
  O2-  O175  1  0.80854606  0.32646680  0.62456642  1
  O2-  O176  1  0.81519579  0.66043824  0.12369665  1
  O2-  O177  1  0.80830491  0.66986141  0.62687174  1
  O2-  O178  1  0.81137095  1.00301342  0.12240073  1
  O2-  O179  1  0.80712135  0.99449781  0.62822919  1
  O2-  O180  1  0.30676960  0.17007784  0.37447069  1
  O2-  O181  1  0.30965561  0.17265745  0.87683425  1
  O2-  O182  1  0.30844353  0.51037570  0.37638557  1
  O2-  O183  1  0.30649073  0.50726295  0.87233585  1
  O2-  O184  1  0.30470162  0.84334729  0.37521386  1
  O2-  O185  1  0.31406437  0.83631269  0.87543425  1
  O2-  O186  1  0.64350186  0.17592377  0.37299125  1
  O2-  O187  1  0.63953657  0.17233056  0.87526053  1
  O2-  O188  1  0.64166500  0.50836668  0.37577252  1
  O2-  O189  1  0.64071061  0.50602631  0.87449975  1
  O2-  O190  1  0.64445097  0.84350636  0.37362746  1
  O2-  O191  1  0.63771803  0.83694738  0.87596942  1
  O2-  O192  1  0.97403069  0.17115963  0.37517886  1
  O2-  O193  1  0.97444553  0.17686589  0.87373294  1
  O2-  O194  1  0.97865477  0.50622040  0.37478375  1
  O2-  O195  1  0.97424953  0.50229184  0.87591449  1
  O2-  O196  1  0.98235296  0.83373439  0.37457006  1
  O2-  O197  1  0.97295462  0.83863538  0.87548523  1
  O2-  O198  1  0.18935458  0.00250728  0.37324088  1
  O2-  O199  1  0.19346906  0.00562833  0.87544537  1
  O2-  O200  1  0.19666323  0.34455635  0.37559178  1
  O2-  O201  1  0.19122656  0.34124914  0.87155735  1
  O2-  O202  1  0.19390368  0.67443564  0.37596355  1
  O2-  O203  1  0.19100934  0.67008305  0.87274021  1
  O2-  O204  1  0.53064605  0.00686448  0.37384535  1
  O2-  O205  1  0.52457096  0.00774132  0.87756968  1
  O2-  O206  1  0.53007682  0.33888981  0.37478197  1
  O2-  O207  1  0.52511950  0.33878944  0.87725101  1
  O2-  O208  1  0.53008261  0.67062149  0.37514589  1
  O2-  O209  1  0.52315367  0.67036733  0.87509818  1
  O2-  O210  1  0.85269937  0.00350675  0.37603876  1
  O2-  O211  1  0.86016738  0.00650544  0.87443678  1
  O2-  O212  1  0.85790507  0.33248594  0.37418783  1
  O2-  O213  1  0.85971245  0.33959754  0.87655285  1
  O2-  O214  1  0.85426348  0.67056449  0.37445630  1
  O2-  O215  1  0.85979004  0.67157166  0.87603869  1
  O2-  O216  1  0.23538314  0.10031724  0.01979924  1
  O2-  O217  1  0.23966969  0.09364414  0.51760117  1
  O2-  O218  1  0.23727195  0.42576114  0.02225813  1
  O2-  O219  1  0.23814788  0.42804866  0.52210809  1
  O2-  O220  1  0.23810633  0.76234845  0.01821660  1
  O2-  O221  1  0.23721346  0.76202897  0.52204753  1
  O2-  O222  1  0.56996281  0.09116028  0.02270010  1
  O2-  O223  1  0.57180630  0.09444205  0.52109292  1
  O2-  O224  1  0.57023594  0.42575984  0.02148992  1
  O2-  O225  1  0.56918611  0.42970014  0.51907353  1
  O2-  O226  1  0.57213743  0.76192254  0.01890729  1
  O2-  O227  1  0.56749943  0.76470089  0.51579925  1
  O2-  O228  1  0.90505738  0.09834548  0.01423017  1
  O2-  O229  1  0.90395136  0.09206284  0.52158251  1
  O2-  O230  1  0.90489222  0.42867085  0.02206406  1
  O2-  O231  1  0.90913263  0.42278490  0.51791913  1
  O2-  O232  1  0.90528265  0.76394449  0.02336653  1
  O2-  O233  1  0.90600094  0.75989842  0.52125260  1
  O2-  O234  1  0.26336533  0.26163581  0.23154369  1
  O2-  O235  1  0.26241181  0.26244911  0.72879817  1
  O2-  O236  1  0.25557642  0.58973038  0.23196946  1
  O2-  O237  1  0.26239105  0.59477531  0.72637949  1
  O2-  O238  1  0.26119778  0.93105917  0.22782697  1
  O2-  O239  1  0.26534454  0.92818895  0.72957307  1
  O2-  O240  1  0.59444718  0.25642511  0.22532091  1
  O2-  O241  1  0.59544924  0.26093652  0.72971621  1
  O2-  O242  1  0.58906395  0.58836167  0.23030300  1
  O2-  O243  1  0.59447895  0.59806964  0.72899593  1
  O2-  O244  1  0.59093763  0.92436324  0.22595258  1
  O2-  O245  1  0.59527732  0.92971767  0.73061845  1
  O2-  O246  1  0.93110559  0.25941151  0.22973807  1
  O2-  O247  1  0.92939731  0.26050098  0.72769666  1
  O2-  O248  1  0.92625177  0.59616633  0.23217531  1
  O2-  O249  1  0.92927001  0.59700010  0.73404605  1
  O2-  O250  1  0.92923632  0.92885811  0.22830727  1
  O2-  O251  1  0.92757765  0.92651600  0.72876523  1
  O2-  O252  1  0.09555022  0.24055052  0.27690674  1
  O2-  O253  1  0.09620650  0.23939420  0.77063163  1
  O2-  O254  1  0.09391713  0.57426066  0.27172353  1
  O2-  O255  1  0.09468993  0.56907642  0.77042294  1
  O2-  O256  1  0.09831222  0.90328089  0.26480518  1
  O2-  O257  1  0.09156781  0.90815511  0.76665382  1
  O2-  O258  1  0.43007432  0.23744295  0.26985430  1
  O2-  O259  1  0.42762857  0.23786094  0.76913321  1
  O2-  O260  1  0.42799756  0.57153551  0.26767196  1
  O2-  O261  1  0.43001803  0.57314607  0.76975712  1
  O2-  O262  1  0.42779213  0.90725772  0.27372391  1
  O2-  O263  1  0.43080216  0.90292723  0.77135728  1
  O2-  O264  1  0.76431942  0.23519183  0.26599565  1
  O2-  O265  1  0.76230973  0.23890791  0.77141683  1
  O2-  O266  1  0.75936042  0.57145061  0.26151811  1
  O2-  O267  1  0.76104444  0.57409092  0.77380851  1
  O2-  O268  1  0.75869873  0.90968721  0.26068586  1
  O2-  O269  1  0.75941936  0.90258270  0.77290639  1
  O2-  O270  1  0.07271784  0.07216679  0.48713165  1
  O2-  O271  1  0.07200511  0.07528289  0.97447168  1
  O2-  O272  1  0.07466453  0.40484172  0.47955245  1
  O2-  O273  1  0.06919644  0.40374212  0.98497747  1
  O2-  O274  1  0.07287611  0.73768834  0.48056050  1
  O2-  O275  1  0.06781334  0.73600773  0.98301735  1
  O2-  O276  1  0.40878303  0.07355008  0.47411489  1
  O2-  O277  1  0.40409932  0.07308648  0.97979493  1
  O2-  O278  1  0.40495433  0.40259677  0.47617286  1
  O2-  O279  1  0.40359368  0.40694532  0.97819403  1
  O2-  O280  1  0.40467490  0.73680840  0.47597504  1
  O2-  O281  1  0.40575302  0.73828451  0.98101636  1
  O2-  O282  1  0.73745361  0.07095506  0.48089259  1
  O2-  O283  1  0.73939945  0.07083062  0.97740875  1
  O2-  O284  1  0.73312841  0.40310114  0.48355307  1
  O2-  O285  1  0.73779622  0.40608056  0.97895415  1
  O2-  O286  1  0.73432778  0.73856752  0.48365499  1
  O2-  O287  1  0.73767954  0.73900554  0.97760998  1
  O2-  O288  1  0.09824580  0.23938851  0.47647392  1
  O2-  O289  1  0.09451541  0.24147836  0.97668940  1
  O2-  O290  1  0.09607512  0.57372056  0.47921561  1
  O2-  O291  1  0.09412874  0.56972324  0.97886470  1
  O2-  O292  1  0.09861517  0.90481945  0.48727851  1
  O2-  O293  1  0.09207748  0.90653810  0.98145859  1
  O2-  O294  1  0.43090434  0.23666415  0.47970490  1
  O2-  O295  1  0.42789765  0.23777955  0.98031646  1
  O2-  O296  1  0.43239617  0.57095468  0.48159892  1
  O2-  O297  1  0.42576009  0.57294282  0.98047399  1
  O2-  O298  1  0.42897509  0.90677366  0.47427205  1
  O2-  O299  1  0.43021828  0.90397452  0.97895875  1
  O2-  O300  1  0.76377017  0.23533015  0.48398817  1
  O2-  O301  1  0.76241104  0.23955237  0.97818987  1
  O2-  O302  1  0.75866643  0.57370914  0.48433209  1
  O2-  O303  1  0.76205644  0.57338916  0.98036277  1
  O2-  O304  1  0.75960005  0.90514631  0.48955715  1
  O2-  O305  1  0.76042454  0.90626060  0.97670882  1
  O2-  O306  1  0.07419753  0.07442725  0.26712983  1
  O2-  O307  1  0.07051197  0.07382014  0.77274336  1
  O2-  O308  1  0.07365915  0.40408641  0.27142674  1
  O2-  O309  1  0.07132729  0.40270882  0.76434811  1
  O2-  O310  1  0.07151268  0.73802067  0.26964138  1
  O2-  O311  1  0.06856282  0.73688163  0.76783646  1
  O2-  O312  1  0.40801024  0.07480485  0.27180836  1
  O2-  O313  1  0.40544290  0.07105618  0.77203982  1
  O2-  O314  1  0.40308191  0.40578791  0.27311815  1
  O2-  O315  1  0.40420074  0.40630859  0.77133605  1
  O2-  O316  1  0.40785351  0.73965616  0.27493760  1
  O2-  O317  1  0.40261993  0.73558318  0.76636898  1
  O2-  O318  1  0.73785052  0.07228866  0.27100720  1
  O2-  O319  1  0.73792713  0.07117596  0.77272946  1
  O2-  O320  1  0.73345051  0.40179636  0.26664113  1
  O2-  O321  1  0.73838070  0.40566514  0.77132372  1
  O2-  O322  1  0.73565906  0.73794870  0.26913047  1
  O2-  O323  1  0.73817119  0.73905521  0.77188605  1
  O2-  O324  1  0.23905999  0.09488329  0.23030800  1
  O2-  O325  1  0.23687863  0.09848456  0.73264410  1
  O2-  O326  1  0.23685132  0.42696994  0.22905395  1
  O2-  O327  1  0.23912998  0.42600338  0.72393134  1
  O2-  O328  1  0.23480504  0.76386212  0.23313258  1
  O2-  O329  1  0.24123011  0.76176632  0.72634528  1
  O2-  O330  1  0.57265388  0.09206070  0.22690811  1
  O2-  O331  1  0.56952623  0.09357715  0.72885000  1
  O2-  O332  1  0.56966953  0.42637447  0.22845189  1
  O2-  O333  1  0.57031158  0.42848482  0.73164613  1
  O2-  O334  1  0.56984845  0.76407796  0.23326290  1
  O2-  O335  1  0.56972551  0.76265478  0.73175494  1
  O2-  O336  1  0.90439665  0.09553129  0.23434588  1
  O2-  O337  1  0.90645780  0.09504641  0.72989070  1
  O2-  O338  1  0.90617025  0.42559114  0.22743357  1
  O2-  O339  1  0.90776194  0.42633665  0.73183858  1
  O2-  O340  1  0.90698703  0.76256211  0.22819729  1
  O2-  O341  1  0.90611019  0.76059753  0.72864175  1
  O2-  O342  1  0.26545812  0.26441921  0.01555662  1
  O2-  O343  1  0.26224778  0.26050080  0.52201229  1
  O2-  O344  1  0.25860270  0.59195630  0.01878506  1
  O2-  O345  1  0.25892958  0.59414864  0.52317778  1
  O2-  O346  1  0.26405706  0.92941724  0.01984362  1
  O2-  O347  1  0.26250438  0.93018879  0.52175597  1
  O2-  O348  1  0.59527889  0.25893975  0.02202059  1
  O2-  O349  1  0.59365678  0.26006702  0.52275879  1
  O2-  O350  1  0.59017627  0.59096424  0.01674148  1
  O2-  O351  1  0.59359880  0.59558391  0.52395991  1
  O2-  O352  1  0.59601965  0.92749477  0.02102895  1
  O2-  O353  1  0.59254329  0.92638061  0.52221949  1
  O2-  O354  1  0.93075613  0.26091500  0.02177308  1
  O2-  O355  1  0.93040980  0.25865233  0.52058535  1
  O2-  O356  1  0.92928661  0.59427055  0.01897712  1
  O2-  O357  1  0.92805735  0.59821383  0.51580465  1
  O2-  O358  1  0.93096228  0.93227867  0.01982953  1
  O2-  O359  1  0.92504611  0.92607250  0.52447346  1
