# generated using pymatgen
data_Sr7Ca15Pr50Mn72O216
_symmetry_space_group_name_H-M   'P 1'
_cell_length_a   16.55896337
_cell_length_b   16.60460723
_cell_length_c   15.59200062
_cell_angle_alpha   89.99300785
_cell_angle_beta   89.98691373
_cell_angle_gamma   89.98923944
_symmetry_Int_Tables_number   1
_chemical_formula_structural   Sr7Ca15Pr50Mn72O216
_chemical_formula_sum   'Sr7 Ca15 Pr50 Mn72 O216'
_cell_volume   4287.09960540
_cell_formula_units_Z   1
loop_
 _symmetry_equiv_pos_site_id
 _symmetry_equiv_pos_as_xyz
  1  'x, y, z'
loop_
 _atom_type_symbol
 _atom_type_oxidation_number
  Sr2+  2.0
  Ca2+  2.0
  Pr3+  3.0
  Mn3.30+  3.3
  O2-  -2.0
loop_
 _atom_site_type_symbol
 _atom_site_label
 _atom_site_symmetry_multiplicity
 _atom_site_fract_x
 _atom_site_fract_y
 _atom_site_fract_z
 _atom_site_occupancy
  Sr2+  Sr0  1  0.83102615  0.82454275  0.37294223  1
  Sr2+  Sr1  1  0.83319726  0.15747271  0.87754172  1
  Sr2+  Sr2  1  0.33265794  0.34322603  0.12474320  1
  Sr2+  Sr3  1  0.83768491  0.84601895  0.12765192  1
  Sr2+  Sr4  1  0.66514018  0.67845330  0.62306005  1
  Sr2+  Sr5  1  0.66709905  0.34266627  0.12642670  1
  Sr2+  Sr6  1  0.50365823  0.84196189  0.62497862  1
  Ca2+  Ca7  1  1.00070449  0.98965612  0.87988592  1
  Ca2+  Ca8  1  1.00591620  0.64830767  0.87715157  1
  Ca2+  Ca9  1  0.82805908  0.15068670  0.37118521  1
  Ca2+  Ca10  1  0.34050876  0.64905354  0.37468268  1
  Ca2+  Ca11  1  0.16237329  0.48374765  0.87773918  1
  Ca2+  Ca12  1  0.67312820  0.31913532  0.37191269  1
  Ca2+  Ca13  1  0.33260013  0.32037652  0.87734440  1
  Ca2+  Ca14  1  0.83766493  0.18260972  0.12736741  1
  Ca2+  Ca15  1  -0.01034736  0.01744810  0.12764682  1
  Ca2+  Ca16  1  0.99870816  0.98711252  0.37070818  1
  Ca2+  Ca17  1  0.50266141  0.48894820  0.37347691  1
  Ca2+  Ca18  1  -0.00858409  0.35010145  0.12436103  1
  Ca2+  Ca19  1  0.67256196  0.98462947  0.37472943  1
  Ca2+  Ca20  1  0.83607521  0.51283740  0.12569725  1
  Ca2+  Ca21  1  0.67189536  0.65560895  0.37563679  1
  Pr3+  Pr22  1  0.49591714  0.48403057  0.87450352  1
  Pr3+  Pr23  1  0.83573009  0.82437063  0.87726367  1
  Pr3+  Pr24  1  0.67226544  0.98953985  0.87625554  1
  Pr3+  Pr25  1  0.16620394  0.84659598  0.12530964  1
  Pr3+  Pr26  1  0.33163821  0.68054022  0.62275866  1
  Pr3+  Pr27  1  0.50047492  0.81791119  0.37511823  1
  Pr3+  Pr28  1  0.16125948  0.15416744  0.87706939  1
  Pr3+  Pr29  1  0.17046671  0.84782882  0.62456861  1
  Pr3+  Pr30  1  0.33612672  0.98693358  0.37292084  1
  Pr3+  Pr31  1  0.16409840  0.18087503  0.12555781  1
  Pr3+  Pr32  1  0.16464006  0.48774157  0.37407364  1
  Pr3+  Pr33  1  -0.00439848  0.01279241  0.62402041  1
  Pr3+  Pr34  1  0.33064662  0.34650146  0.62436811  1
  Pr3+  Pr35  1  0.50309341  0.17735413  0.62312319  1
  Pr3+  Pr36  1  0.16070963  0.15232644  0.37277299  1
  Pr3+  Pr37  1  0.33518311  0.65255205  0.87475529  1
  Pr3+  Pr38  1  0.66914218  0.65575143  0.87387997  1
  Pr3+  Pr39  1  0.50256596  0.50884025  0.12686798  1
  Pr3+  Pr40  1  0.66980631  0.67535743  0.12678836  1
  Pr3+  Pr41  1  0.32962639  0.01408393  0.12599981  1
  Pr3+  Pr42  1  0.66307920  0.34493215  0.62371772  1
  Pr3+  Pr43  1  0.50537933  0.84449346  0.12503745  1
  Pr3+  Pr44  1  0.49843100  0.81959509  0.87490524  1
  Pr3+  Pr45  1  0.82581696  0.49063246  0.37246175  1
  Pr3+  Pr46  1  0.49780134  0.15692845  0.87793157  1
  Pr3+  Pr47  1  0.32951211  0.67663329  0.12650639  1
  Pr3+  Pr48  1  -0.00377912  0.34722333  0.62534128  1
  Pr3+  Pr49  1  0.83476168  0.51533000  0.62579413  1
  Pr3+  Pr50  1  1.00011159  0.32060155  0.37256425  1
  Pr3+  Pr51  1  0.16848754  0.50937929  0.12437593  1
  Pr3+  Pr52  1  0.67027395  0.01311030  0.12928906  1
  Pr3+  Pr53  1  1.00223109  0.32144743  0.87812697  1
  Pr3+  Pr54  1  0.83270457  0.48874923  0.87765812  1
  Pr3+  Pr55  1  0.16975321  0.51348466  0.62533751  1
  Pr3+  Pr56  1  0.83438225  0.84609569  0.62220030  1
  Pr3+  Pr57  1  0.83510391  0.17966496  0.62280152  1
  Pr3+  Pr58  1  0.33630584  0.32315137  0.37303627  1
  Pr3+  Pr59  1  0.67118097  0.31901415  0.87671694  1
  Pr3+  Pr60  1  -0.00358134  0.68076180  0.62618381  1
  Pr3+  Pr61  1  0.50468547  0.18271908  0.12665119  1
  Pr3+  Pr62  1  0.66466583  0.00925391  0.62093056  1
  Pr3+  Pr63  1  0.15939509  0.81845137  0.87542192  1
  Pr3+  Pr64  1  0.50260976  0.51311924  0.62344141  1
  Pr3+  Pr65  1  0.33560743  0.98803268  0.87696474  1
  Pr3+  Pr66  1  0.50219183  0.15510881  0.37209718  1
  Pr3+  Pr67  1  -0.00567348  0.67791101  0.12335432  1
  Pr3+  Pr68  1  0.16876843  0.17930417  0.62431417  1
  Pr3+  Pr69  1  0.99874791  0.65623097  0.37322307  1
  Pr3+  Pr70  1  0.33122673  0.01251615  0.62397089  1
  Pr3+  Pr71  1  0.16261495  0.81974375  0.37415408  1
  Mn3.30+  Mn72  1  0.16251014  0.00060242  0.00248657  1
  Mn3.30+  Mn73  1  0.16450415  0.00018112  0.49765592  1
  Mn3.30+  Mn74  1  0.16540561  0.33424804  0.00088896  1
  Mn3.30+  Mn75  1  0.16579371  0.33320251  0.49912130  1
  Mn3.30+  Mn76  1  0.16401960  0.66430747  -0.00056342  1
  Mn3.30+  Mn77  1  0.16831331  0.66636585  0.49769379  1
  Mn3.30+  Mn78  1  0.50130318  0.00069030  0.00203769  1
  Mn3.30+  Mn79  1  0.50145592  -0.00138160  0.49716157  1
  Mn3.30+  Mn80  1  0.49938056  0.33365868  0.00046504  1
  Mn3.30+  Mn81  1  0.50187786  0.33372799  0.49635451  1
  Mn3.30+  Mn82  1  0.49958754  0.66476545  0.00120218  1
  Mn3.30+  Mn83  1  0.50157085  0.66444356  0.49645162  1
  Mn3.30+  Mn84  1  0.83762447  0.00216172  0.00162983  1
  Mn3.30+  Mn85  1  0.83214267  0.00096645  0.49598610  1
  Mn3.30+  Mn86  1  0.83510375  0.33407307  0.00420702  1
  Mn3.30+  Mn87  1  0.83097157  0.33365667  0.49746876  1
  Mn3.30+  Mn88  1  0.83656412  0.66672049  -0.00246501  1
  Mn3.30+  Mn89  1  0.83150573  0.66832978  0.49989920  1
  Mn3.30+  Mn90  1  -0.00538082  0.16652036  0.25016249  1
  Mn3.30+  Mn91  1  -0.00008320  0.16575752  0.75083981  1
  Mn3.30+  Mn92  1  -0.00299543  0.49931116  0.24889065  1
  Mn3.30+  Mn93  1  0.00270178  0.50074108  0.75177869  1
  Mn3.30+  Mn94  1  -0.00099477  0.83555841  0.25046240  1
  Mn3.30+  Mn95  1  0.00096933  0.83450382  0.75107892  1
  Mn3.30+  Mn96  1  0.33220372  0.16790858  0.24976096  1
  Mn3.30+  Mn97  1  0.33270976  0.16780820  0.75136477  1
  Mn3.30+  Mn98  1  0.33535285  0.49955381  0.25097017  1
  Mn3.30+  Mn99  1  0.33094920  0.49824691  0.75184803  1
  Mn3.30+  Mn100  1  0.33373158  0.83122934  0.25003247  1
  Mn3.30+  Mn101  1  0.33266655  0.83387378  0.75030662  1
  Mn3.30+  Mn102  1  0.67142678  0.16786508  0.25169708  1
  Mn3.30+  Mn103  1  0.66722083  0.16543008  0.74932483  1
  Mn3.30+  Mn104  1  0.66724842  0.49975421  0.25015247  1
  Mn3.30+  Mn105  1  0.66596686  0.49982435  0.75061975  1
  Mn3.30+  Mn106  1  0.66871245  0.83318330  0.25001191  1
  Mn3.30+  Mn107  1  0.66732357  0.83409104  0.75068217  1
  Mn3.30+  Mn108  1  0.16161514  0.00027819  0.24817255  1
  Mn3.30+  Mn109  1  0.16483076  0.00042111  0.75147255  1
  Mn3.30+  Mn110  1  0.16410484  0.33391416  0.24816788  1
  Mn3.30+  Mn111  1  0.16720383  0.33365856  0.75199005  1
  Mn3.30+  Mn112  1  0.16742914  0.66526439  0.25117279  1
  Mn3.30+  Mn113  1  0.16514539  0.66500101  0.75091553  1
  Mn3.30+  Mn114  1  0.50200277  -0.00065412  0.25042679  1
  Mn3.30+  Mn115  1  0.50059508  -0.00015948  0.75046857  1
  Mn3.30+  Mn116  1  0.50387710  0.33583614  0.25293560  1
  Mn3.30+  Mn117  1  0.49722906  0.33130238  0.75012312  1
  Mn3.30+  Mn118  1  0.50064282  0.66378586  0.25204239  1
  Mn3.30+  Mn119  1  0.50073602  0.66572888  0.74981455  1
  Mn3.30+  Mn120  1  0.83429134  0.00200464  0.25146194  1
  Mn3.30+  Mn121  1  0.83460627  0.00117024  0.75124076  1
  Mn3.30+  Mn122  1  0.83382331  0.33351156  0.24913366  1
  Mn3.30+  Mn123  1  0.83277832  0.33402031  0.75002750  1
  Mn3.30+  Mn124  1  0.83249267  0.66655133  0.24972381  1
  Mn3.30+  Mn125  1  0.83646869  0.66897241  0.75259238  1
  Mn3.30+  Mn126  1  -0.00303532  0.16638353  0.00264272  1
  Mn3.30+  Mn127  1  -0.00226716  0.16548295  0.49678609  1
  Mn3.30+  Mn128  1  0.00034114  0.49958056  0.00048195  1
  Mn3.30+  Mn129  1  -0.00126317  0.50090503  0.49920278  1
  Mn3.30+  Mn130  1  -0.00034001  0.83569587  0.00042326  1
  Mn3.30+  Mn131  1  0.00058642  0.83511583  0.49812467  1
  Mn3.30+  Mn132  1  0.33110395  0.16884097  0.00085485  1
  Mn3.30+  Mn133  1  0.33384031  0.16652162  0.49765804  1
  Mn3.30+  Mn134  1  0.33120748  0.49742067  -0.00137756  1
  Mn3.30+  Mn135  1  0.33586135  0.50065864  0.49787221  1
  Mn3.30+  Mn136  1  0.33213758  0.83276413  0.00123902  1
  Mn3.30+  Mn137  1  0.33424684  0.83221037  0.49770927  1
  Mn3.30+  Mn138  1  0.66967250  0.16683646  0.00322870  1
  Mn3.30+  Mn139  1  0.66949632  0.16655044  0.49630700  1
  Mn3.30+  Mn140  1  0.66765803  0.49950925  0.00128528  1
  Mn3.30+  Mn141  1  0.66508330  0.50027976  0.49736950  1
  Mn3.30+  Mn142  1  0.66881278  0.83377067  0.00140771  1
  Mn3.30+  Mn143  1  0.66677019  0.83269140  0.49795844  1
  O2-  O144  1  0.02343043  0.15914995  0.12643953  1
  O2-  O145  1  0.02542488  0.16107529  0.62235882  1
  O2-  O146  1  0.02513223  0.49692313  0.12562313  1
  O2-  O147  1  0.02520690  0.49535491  0.62495505  1
  O2-  O148  1  0.02404987  0.82354181  0.12538523  1
  O2-  O149  1  0.02678678  0.82757262  0.62402698  1
  O2-  O150  1  0.35854454  0.16181469  0.12625757  1
  O2-  O151  1  0.35821471  0.16013076  0.62288346  1
  O2-  O152  1  0.35778872  0.49821837  0.12684765  1
  O2-  O153  1  0.35814620  0.49408952  0.62622039  1
  O2-  O154  1  0.36048433  0.82562760  0.12610532  1
  O2-  O155  1  0.35253656  0.82984649  0.62385054  1
  O2-  O156  1  0.69318316  0.16094099  0.12795846  1
  O2-  O157  1  0.69090688  0.15934701  0.62118991  1
  O2-  O158  1  0.69261396  0.49959135  0.12233202  1
  O2-  O159  1  0.69083293  0.49176929  0.62574151  1
  O2-  O160  1  0.68726543  0.82425950  0.12402701  1
  O2-  O161  1  0.68969920  0.83510449  0.62822451  1
  O2-  O162  1  0.13609231  0.33013809  0.12777762  1
  O2-  O163  1  0.14067542  0.32724268  0.62435038  1
  O2-  O164  1  0.13917529  0.65810915  0.12547631  1
  O2-  O165  1  0.14003970  0.66104024  0.62500677  1
  O2-  O166  1  0.13470133  0.99427763  0.12529838  1
  O2-  O167  1  0.14103325  0.99697172  0.62261490  1
  O2-  O168  1  0.48224026  0.33179010  0.12668695  1
  O2-  O169  1  0.47339262  0.32472248  0.62385015  1
  O2-  O170  1  0.47273961  0.65890981  0.12472570  1
  O2-  O171  1  0.47514840  0.66161039  0.62330991  1
  O2-  O172  1  0.47272598  0.99288555  0.12539726  1
  O2-  O173  1  0.47440906  0.99859696  0.62215671  1
  O2-  O174  1  0.81405842  0.32710059  0.12646264  1
  O2-  O175  1  0.80717886  0.32869597  0.62254869  1
  O2-  O176  1  0.81421211  0.66157259  0.12050649  1
  O2-  O177  1  0.81563237  0.66507169  0.62710642  1
  O2-  O178  1  0.81200077  0.99787125  0.12617677  1
  O2-  O179  1  0.80865627  0.99549160  0.62398365  1
  O2-  O180  1  0.30647087  0.17234897  0.37335577  1
  O2-  O181  1  0.30672721  0.17159853  0.87770116  1
  O2-  O182  1  0.30773904  0.50374355  0.37430706  1
  O2-  O183  1  0.30351361  0.50799625  0.87206288  1
  O2-  O184  1  0.30609506  0.84048828  0.37231978  1
  O2-  O185  1  0.30541653  0.83919956  0.87691472  1
  O2-  O186  1  0.64294567  0.17526789  0.37506453  1
  O2-  O187  1  0.64273060  0.16926619  0.87659511  1
  O2-  O188  1  0.64447758  0.51191597  0.37525933  1
  O2-  O189  1  0.64069063  0.50667268  0.87556489  1
  O2-  O190  1  0.64321563  0.84027655  0.37049702  1
  O2-  O191  1  0.64217079  0.84160311  0.87783171  1
  O2-  O192  1  0.97071076  0.17563331  0.37505323  1
  O2-  O193  1  0.98205524  0.17525749  0.87713708  1
  O2-  O194  1  0.97243843  0.50698210  0.37503028  1
  O2-  O195  1  0.97637544  0.50166941  0.87473765  1
  O2-  O196  1  0.98283843  0.83768927  0.37568321  1
  O2-  O197  1  0.97933898  0.84506041  0.87501529  1
  O2-  O198  1  0.19230740  0.00455615  0.37304732  1
  O2-  O199  1  0.19234767  0.00512002  0.87874955  1
  O2-  O200  1  0.19053440  0.33819425  0.37437834  1
  O2-  O201  1  0.19070313  0.33711265  0.87332005  1
  O2-  O202  1  0.19716785  0.67213810  0.37481751  1
  O2-  O203  1  0.19334137  0.67379171  0.87470890  1
  O2-  O204  1  0.52801717  0.00687431  0.37265779  1
  O2-  O205  1  0.52706077  0.00928034  0.87927845  1
  O2-  O206  1  0.52998214  0.34137817  0.37643957  1
  O2-  O207  1  0.52636465  0.33519852  0.87374911  1
  O2-  O208  1  0.52950596  0.67164573  0.37321330  1
  O2-  O209  1  0.52340989  0.66998091  0.87746401  1
  O2-  O210  1  0.85883621  0.00635202  0.37513879  1
  O2-  O211  1  0.85871856  0.00234901  0.87515750  1
  O2-  O212  1  0.85897763  0.34481497  0.37472301  1
  O2-  O213  1  0.85768035  0.33975892  0.87692222  1
  O2-  O214  1  0.85530061  0.66313411  0.37742522  1
  O2-  O215  1  0.86384230  0.67464286  0.87462949  1
  O2-  O216  1  0.23640635  0.09280542  0.02357637  1
  O2-  O217  1  0.23606454  0.09345448  0.51883049  1
  O2-  O218  1  0.23502496  0.42801458  0.01906765  1
  O2-  O219  1  0.23947492  0.42914383  0.51906583  1
  O2-  O220  1  0.23597340  0.75827855  0.02256553  1
  O2-  O221  1  0.23732410  0.76102257  0.52067978  1
  O2-  O222  1  0.57170098  0.09399219  0.02462124  1
  O2-  O223  1  0.57087951  0.09477353  0.51777903  1
  O2-  O224  1  0.56864140  0.42977542  0.01404493  1
  O2-  O225  1  0.57193612  0.42548112  0.52436675  1
  O2-  O226  1  0.57027620  0.75920520  0.01800742  1
  O2-  O227  1  0.57051992  0.76049131  0.51183770  1
  O2-  O228  1  0.90319777  0.09958862  0.02108558  1
  O2-  O229  1  0.90559563  0.09413398  0.52299776  1
  O2-  O230  1  0.90239775  0.43266343  0.01797434  1
  O2-  O231  1  0.90227424  0.42811554  0.52246494  1
  O2-  O232  1  0.90783382  0.76322387  0.01603118  1
  O2-  O233  1  0.90958620  0.76102447  0.52010906  1
  O2-  O234  1  0.25532395  0.25961023  0.23143109  1
  O2-  O235  1  0.26035543  0.26063989  0.72682856  1
  O2-  O236  1  0.25944531  0.59208455  0.22837087  1
  O2-  O237  1  0.26204287  0.59635606  0.72649049  1
  O2-  O238  1  0.26062312  0.92825348  0.22736193  1
  O2-  O239  1  0.26081062  0.93101319  0.73015806  1
  O2-  O240  1  0.59281541  0.25663086  0.23282042  1
  O2-  O241  1  0.59355692  0.25962496  0.72927256  1
  O2-  O242  1  0.59340683  0.59297912  0.22433531  1
  O2-  O243  1  0.59166783  0.59088777  0.73212529  1
  O2-  O244  1  0.59201529  0.92527696  0.22525203  1
  O2-  O245  1  0.59706490  0.93119296  0.73510302  1
  O2-  O246  1  0.93326597  0.26799092  0.23299417  1
  O2-  O247  1  0.92663626  0.26193190  0.72926934  1
  O2-  O248  1  0.93065020  0.59571254  0.23272401  1
  O2-  O249  1  0.92926567  0.59486130  0.72999898  1
  O2-  O250  1  0.93111329  0.93182306  0.23451833  1
  O2-  O251  1  0.92575392  0.92746235  0.72575337  1
  O2-  O252  1  0.09263795  0.23715116  0.27121464  1
  O2-  O253  1  0.09728699  0.23814841  0.76821867  1
  O2-  O254  1  0.09408080  0.57301404  0.27279766  1
  O2-  O255  1  0.10075029  0.56720125  0.76893956  1
  O2-  O256  1  0.09866278  0.90216299  0.26667758  1
  O2-  O257  1  0.09817296  0.90101059  0.76497323  1
  O2-  O258  1  0.42960974  0.24300494  0.27151395  1
  O2-  O259  1  0.42941181  0.23588572  0.76914037  1
  O2-  O260  1  0.43155585  0.57005915  0.27002723  1
  O2-  O261  1  0.42487739  0.56921771  0.77040889  1
  O2-  O262  1  0.42891239  0.90519292  0.27087762  1
  O2-  O263  1  0.42764634  0.90816478  0.77481425  1
  O2-  O264  1  0.76481484  0.23902355  0.27133372  1
  O2-  O265  1  0.75782753  0.24146944  0.76619576  1
  O2-  O266  1  0.76025976  0.57160469  0.26450651  1
  O2-  O267  1  0.76478647  0.57633110  0.77123880  1
  O2-  O268  1  0.75905148  0.90918927  0.26434514  1
  O2-  O269  1  0.76297313  0.90638099  0.77138678  1
  O2-  O270  1  0.07017197  0.06937264  0.47593828  1
  O2-  O271  1  0.07278271  0.07343524  0.97769203  1
  O2-  O272  1  0.07001014  0.40655764  0.47961572  1
  O2-  O273  1  0.07007949  0.40438148  0.98090133  1
  O2-  O274  1  0.07378855  0.73736864  0.47851022  1
  O2-  O275  1  0.07157414  0.73636868  0.97859718  1
  O2-  O276  1  0.40573820  0.07166333  0.47688936  1
  O2-  O277  1  0.40487146  0.07317863  0.98094571  1
  O2-  O278  1  0.40387062  0.40106430  0.48275008  1
  O2-  O279  1  0.40353995  0.40667634  0.97516536  1
  O2-  O280  1  0.40611844  0.73479097  0.47767891  1
  O2-  O281  1  0.40541572  0.73755362  0.97912363  1
  O2-  O282  1  0.73559139  0.06949790  0.48033738  1
  O2-  O283  1  0.73638261  0.06989724  0.98506062  1
  O2-  O284  1  0.73508646  0.40391681  0.47832699  1
  O2-  O285  1  0.73921744  0.40824812  0.97651255  1
  O2-  O286  1  0.73978743  0.73778613  0.48246126  1
  O2-  O287  1  0.73976638  0.73980723  0.97787416  1
  O2-  O288  1  0.09295468  0.23620890  0.47884498  1
  O2-  O289  1  0.09514603  0.23821280  0.98248898  1
  O2-  O290  1  0.09636040  0.57369644  0.47793567  1
  O2-  O291  1  0.09803956  0.56814387  0.98088671  1
  O2-  O292  1  0.09916565  0.90224990  0.48374474  1
  O2-  O293  1  0.09940214  0.90099745  0.98408411  1
  O2-  O294  1  0.43101565  0.23968650  0.47568603  1
  O2-  O295  1  0.42876934  0.23960445  0.98382280  1
  O2-  O296  1  0.43094506  0.56804938  0.48059339  1
  O2-  O297  1  0.42700331  0.57107191  0.97820633  1
  O2-  O298  1  0.42695924  0.90701775  0.47398377  1
  O2-  O299  1  0.42987441  0.90732738  0.97913830  1
  O2-  O300  1  0.76602099  0.23556540  0.48108527  1
  O2-  O301  1  0.75786366  0.24410115  0.98184603  1
  O2-  O302  1  0.76248470  0.56889616  0.48807439  1
  O2-  O303  1  0.75947817  0.57627197  0.97457684  1
  O2-  O304  1  0.76179079  0.90661405  0.48607906  1
  O2-  O305  1  0.76331711  0.90863434  0.97984371  1
  O2-  O306  1  0.06944665  0.07347093  0.27433927  1
  O2-  O307  1  0.07200333  0.06927795  0.77085989  1
  O2-  O308  1  0.07155842  0.40848818  0.27375270  1
  O2-  O309  1  0.07018754  0.40092634  0.76687862  1
  O2-  O310  1  0.07526138  0.73803382  0.27138040  1
  O2-  O311  1  0.07063081  0.73425645  0.77152823  1
  O2-  O312  1  0.40662982  0.07159350  0.26973536  1
  O2-  O313  1  0.40469266  0.07239241  0.77162514  1
  O2-  O314  1  0.40610120  0.40643976  0.27132658  1
  O2-  O315  1  0.40194891  0.40197532  0.77169487  1
  O2-  O316  1  0.40642635  0.73515103  0.27233767  1
  O2-  O317  1  0.40579213  0.73832273  0.77003792  1
  O2-  O318  1  0.73467798  0.06968116  0.27027190  1
  O2-  O319  1  0.73723654  0.06977304  0.76606081  1
  O2-  O320  1  0.73839068  0.40677372  0.27280200  1
  O2-  O321  1  0.73831730  0.40649477  0.77127710  1
  O2-  O322  1  0.73610305  0.73561526  0.26515994  1
  O2-  O323  1  0.74293411  0.74274678  0.77551551  1
  O2-  O324  1  0.23408498  0.09177645  0.22806427  1
  O2-  O325  1  0.23842081  0.09564670  0.73030855  1
  O2-  O326  1  0.23627334  0.42862308  0.23416825  1
  O2-  O327  1  0.23833130  0.42671524  0.72511941  1
  O2-  O328  1  0.23793248  0.75921042  0.22682919  1
  O2-  O329  1  0.23658904  0.76010968  0.72973150  1
  O2-  O330  1  0.57125536  0.09429859  0.22903965  1
  O2-  O331  1  0.57128477  0.09450477  0.72931503  1
  O2-  O332  1  0.57223892  0.43079061  0.23248444  1
  O2-  O333  1  0.56663830  0.42402301  0.72997147  1
  O2-  O334  1  0.56976855  0.75911266  0.22890907  1
  O2-  O335  1  0.57523001  0.76206015  0.74082471  1
  O2-  O336  1  0.90113416  0.10053024  0.23114380  1
  O2-  O337  1  0.90502688  0.09331517  0.72629202  1
  O2-  O338  1  0.90209185  0.43235448  0.23113341  1
  O2-  O339  1  0.90470884  0.42855711  0.72968833  1
  O2-  O340  1  0.91114765  0.75767403  0.23539035  1
  O2-  O341  1  0.90647936  0.76426675  0.72994959  1
  O2-  O342  1  0.25465059  0.25863359  0.02103206  1
  O2-  O343  1  0.26197334  0.26045520  0.51992704  1
  O2-  O344  1  0.26198405  0.59457291  0.02053158  1
  O2-  O345  1  0.26070601  0.59444568  0.52273476  1
  O2-  O346  1  0.26072572  0.92916055  0.02377712  1
  O2-  O347  1  0.26066151  0.93067934  0.51871604  1
  O2-  O348  1  0.59269152  0.25704175  0.01686035  1
  O2-  O349  1  0.59376840  0.25893710  0.52258890  1
  O2-  O350  1  0.59450867  0.59435110  0.02087136  1
  O2-  O351  1  0.59139508  0.59004511  0.52187562  1
  O2-  O352  1  0.59576312  0.92774302  0.02265735  1
  O2-  O353  1  0.59340604  0.92858407  0.51631515  1
  O2-  O354  1  0.93179716  0.26571592  0.01774381  1
  O2-  O355  1  0.92849825  0.26317696  0.52104728  1
  O2-  O356  1  0.93149553  0.59447381  0.01574602  1
  O2-  O357  1  0.92867961  0.59548305  0.52099464  1
  O2-  O358  1  0.93264980  0.93309812  0.01860911  1
  O2-  O359  1  0.92710673  0.92730250  0.52130808  1
