# generated using pymatgen
data_Sr7Ca15Pr50Mn72O216
_symmetry_space_group_name_H-M   'P 1'
_cell_length_a   16.55877123
_cell_length_b   16.60523131
_cell_length_c   15.59351490
_cell_angle_alpha   89.99814291
_cell_angle_beta   89.99825030
_cell_angle_gamma   90.01644365
_symmetry_Int_Tables_number   1
_chemical_formula_structural   Sr7Ca15Pr50Mn72O216
_chemical_formula_sum   'Sr7 Ca15 Pr50 Mn72 O216'
_cell_volume   4287.62739617
_cell_formula_units_Z   1
loop_
 _symmetry_equiv_pos_site_id
 _symmetry_equiv_pos_as_xyz
  1  'x, y, z'
loop_
 _atom_type_symbol
 _atom_type_oxidation_number
  Sr2+  2.0
  Ca2+  2.0
  Pr3+  3.0
  Mn3.30+  3.3
  O2-  -2.0
loop_
 _atom_site_type_symbol
 _atom_site_label
 _atom_site_symmetry_multiplicity
 _atom_site_fract_x
 _atom_site_fract_y
 _atom_site_fract_z
 _atom_site_occupancy
  Sr2+  Sr0  1  0.66521454  0.99165426  0.37461536  1
  Sr2+  Sr1  1  0.83544041  0.51033313  0.62439675  1
  Sr2+  Sr2  1  0.16567595  0.82583402  0.87604786  1
  Sr2+  Sr3  1  0.83467515  0.84256262  0.62396555  1
  Sr2+  Sr4  1  0.16830603  0.17638621  0.62501989  1
  Sr2+  Sr5  1  1.00373172  0.99043008  0.87506680  1
  Sr2+  Sr6  1  0.66147126  0.68060663  0.12753232  1
  Ca2+  Ca7  1  0.33431721  0.98538145  0.87357127  1
  Ca2+  Ca8  1  0.33128906  0.68053110  0.62404214  1
  Ca2+  Ca9  1  0.66636650  0.65452081  0.37552478  1
  Ca2+  Ca10  1  0.16632193  0.15523908  0.37620373  1
  Ca2+  Ca11  1  0.66280151  0.34749670  0.12656032  1
  Ca2+  Ca12  1  0.16344358  0.15099597  0.87354608  1
  Ca2+  Ca13  1  0.50299774  0.51463733  0.62255143  1
  Ca2+  Ca14  1  0.50389352  0.84746321  0.12715414  1
  Ca2+  Ca15  1  0.49883138  0.81856429  0.37348081  1
  Ca2+  Ca16  1  0.49792509  0.15430144  0.37480341  1
  Ca2+  Ca17  1  1.00406951  0.31650961  0.37605234  1
  Ca2+  Ca18  1  0.83367634  0.84811781  0.12683633  1
  Ca2+  Ca19  1  0.83972611  0.17941789  0.62332021  1
  Ca2+  Ca20  1  0.33764962  0.31413937  0.37523967  1
  Ca2+  Ca21  1  0.17060764  0.51597444  0.12621385  1
  Pr3+  Pr22  1  0.33989742  0.98877155  0.37636085  1
  Pr3+  Pr23  1  0.50476533  0.51231946  0.12675627  1
  Pr3+  Pr24  1  0.17080258  0.17773504  0.12440301  1
  Pr3+  Pr25  1  0.83106474  0.15373545  0.37612540  1
  Pr3+  Pr26  1  0.32858186  0.34812568  0.12762227  1
  Pr3+  Pr27  1  0.83548100  0.17797888  0.12627942  1
  Pr3+  Pr28  1  0.66776215  0.65379613  0.87514365  1
  Pr3+  Pr29  1  0.50223931  0.84578016  0.62315722  1
  Pr3+  Pr30  1  1.00409736  0.32032828  0.87493595  1
  Pr3+  Pr31  1  0.33725743  0.65457081  0.37653592  1
  Pr3+  Pr32  1  0.33432390  0.31984539  0.87509995  1
  Pr3+  Pr33  1  1.00129259  0.65443548  0.37585632  1
  Pr3+  Pr34  1  0.83118161  0.82182701  0.87617665  1
  Pr3+  Pr35  1  -0.00163021  0.01238494  0.12366818  1
  Pr3+  Pr36  1  0.49606224  0.15073116  0.87455317  1
  Pr3+  Pr37  1  0.33236045  0.67983698  0.12644669  1
  Pr3+  Pr38  1  0.32972633  0.01326113  0.62611677  1
  Pr3+  Pr39  1  0.16967406  0.51317884  0.62354634  1
  Pr3+  Pr40  1  0.16363917  0.49077111  0.87611937  1
  Pr3+  Pr41  1  0.49493995  0.82063708  0.87615627  1
  Pr3+  Pr42  1  0.83177727  0.15208057  0.87372698  1
  Pr3+  Pr43  1  -0.00576654  0.67989026  0.62403284  1
  Pr3+  Pr44  1  -0.00289150  0.34369801  0.62265593  1
  Pr3+  Pr45  1  0.66488903  0.34762164  0.62314833  1
  Pr3+  Pr46  1  0.67037538  0.98555100  0.87520963  1
  Pr3+  Pr47  1  0.16522958  0.82090271  0.37444019  1
  Pr3+  Pr48  1  0.16327371  0.48404685  0.37335314  1
  Pr3+  Pr49  1  0.66712391  0.01284836  0.62332050  1
  Pr3+  Pr50  1  0.66412475  0.67771667  0.62187021  1
  Pr3+  Pr51  1  0.16998217  0.84586946  0.62553580  1
  Pr3+  Pr52  1  0.49592170  0.48711724  0.87445157  1
  Pr3+  Pr53  1  0.82523306  0.82092787  0.37388292  1
  Pr3+  Pr54  1  0.49625848  0.48584283  0.37552262  1
  Pr3+  Pr55  1  0.82950926  0.48856165  0.37582464  1
  Pr3+  Pr56  1  0.83103218  0.48754061  0.87460019  1
  Pr3+  Pr57  1  0.66441038  0.00698165  0.12673428  1
  Pr3+  Pr58  1  0.67007904  0.32044257  0.87613520  1
  Pr3+  Pr59  1  0.66855728  0.32138046  0.37339307  1
  Pr3+  Pr60  1  0.83107444  0.51264662  0.12625328  1
  Pr3+  Pr61  1  0.32914134  0.34360276  0.62248495  1
  Pr3+  Pr62  1  0.33434753  0.65507828  0.87364288  1
  Pr3+  Pr63  1  0.33293547  0.01080921  0.12349620  1
  Pr3+  Pr64  1  0.50121081  0.17726778  0.62205360  1
  Pr3+  Pr65  1  0.16961158  0.84724454  0.12489439  1
  Pr3+  Pr66  1  -0.00250575  0.01580830  0.62629926  1
  Pr3+  Pr67  1  1.00309767  0.65886392  0.87463070  1
  Pr3+  Pr68  1  1.00342003  0.99005243  0.37542879  1
  Pr3+  Pr69  1  0.50507525  0.17975357  0.12706000  1
  Pr3+  Pr70  1  -0.00056205  0.34679636  0.12761973  1
  Pr3+  Pr71  1  -0.00502428  0.68182703  0.12648147  1
  Mn3.30+  Mn72  1  0.16731308  0.00097762  -0.00188139  1
  Mn3.30+  Mn73  1  0.16818113  0.00193999  0.49880025  1
  Mn3.30+  Mn74  1  0.16728596  0.33454716  0.00104514  1
  Mn3.30+  Mn75  1  0.16676773  0.33035605  0.49644240  1
  Mn3.30+  Mn76  1  0.16619910  0.66717081  0.00207086  1
  Mn3.30+  Mn77  1  0.16830227  0.66637295  0.50011961  1
  Mn3.30+  Mn78  1  0.49891194  -0.00180146  -0.00023722  1
  Mn3.30+  Mn79  1  0.50038629  0.00037857  0.49849477  1
  Mn3.30+  Mn80  1  0.50071554  0.33277253  0.00065150  1
  Mn3.30+  Mn81  1  0.49774121  0.33224007  0.49918303  1
  Mn3.30+  Mn82  1  0.50017190  0.66735757  0.00092305  1
  Mn3.30+  Mn83  1  0.49909133  0.66645580  0.49999909  1
  Mn3.30+  Mn84  1  0.83343624  -0.00126072  0.00057790  1
  Mn3.30+  Mn85  1  0.83395119  0.00025155  0.50063171  1
  Mn3.30+  Mn86  1  0.83303453  0.33329020  0.00256233  1
  Mn3.30+  Mn87  1  0.83495852  0.33235615  0.49824777  1
  Mn3.30+  Mn88  1  0.83217741  0.66848708  0.00269094  1
  Mn3.30+  Mn89  1  0.83132141  0.66613138  0.49827713  1
  Mn3.30+  Mn90  1  0.00288606  0.16802518  0.25156851  1
  Mn3.30+  Mn91  1  0.00120785  0.16782433  0.74978493  1
  Mn3.30+  Mn92  1  0.00064488  0.49939370  0.24944475  1
  Mn3.30+  Mn93  1  -0.00008720  0.50029836  0.75008015  1
  Mn3.30+  Mn94  1  -0.00227826  0.83475744  0.25038069  1
  Mn3.30+  Mn95  1  0.00043743  0.83469603  0.75026032  1
  Mn3.30+  Mn96  1  0.33512847  0.16641794  0.25124880  1
  Mn3.30+  Mn97  1  0.33156086  0.16554262  0.75223033  1
  Mn3.30+  Mn98  1  0.33187131  0.49887692  0.25158505  1
  Mn3.30+  Mn99  1  0.33387921  0.50056700  0.74661738  1
  Mn3.30+  Mn100  1  0.33683458  0.83382013  0.25011152  1
  Mn3.30+  Mn101  1  0.33357210  0.83225891  0.74980144  1
  Mn3.30+  Mn102  1  0.66613891  0.16674535  0.25052274  1
  Mn3.30+  Mn103  1  0.66825737  0.16728859  0.74761957  1
  Mn3.30+  Mn104  1  0.66504105  0.50037219  0.25157868  1
  Mn3.30+  Mn105  1  0.66449183  0.50023046  0.74771817  1
  Mn3.30+  Mn106  1  0.66340108  0.83302503  0.25141867  1
  Mn3.30+  Mn107  1  0.66593878  0.83269102  0.74846699  1
  Mn3.30+  Mn108  1  0.16857078  0.00208883  0.25134261  1
  Mn3.30+  Mn109  1  0.16700271  0.00067294  0.75165409  1
  Mn3.30+  Mn110  1  0.16694143  0.33162667  0.25261390  1
  Mn3.30+  Mn111  1  0.16666565  0.33283695  0.74992754  1
  Mn3.30+  Mn112  1  0.16674800  0.66568472  0.24962884  1
  Mn3.30+  Mn113  1  0.16778945  0.66794320  0.74859631  1
  Mn3.30+  Mn114  1  0.49977545  -0.00144896  0.25121371  1
  Mn3.30+  Mn115  1  0.49944417  -0.00062682  0.74975619  1
  Mn3.30+  Mn116  1  0.49853171  0.33140476  0.25116048  1
  Mn3.30+  Mn117  1  0.49976388  0.33345488  0.74823990  1
  Mn3.30+  Mn118  1  0.50147886  0.66861029  0.25268665  1
  Mn3.30+  Mn119  1  0.49831149  0.66547196  0.74646077  1
  Mn3.30+  Mn120  1  0.83308352  -0.00082081  0.24985518  1
  Mn3.30+  Mn121  1  0.83448736  -0.00068807  0.74896502  1
  Mn3.30+  Mn122  1  0.83385297  0.33380042  0.25010003  1
  Mn3.30+  Mn123  1  0.83405504  0.33205416  0.74930597  1
  Mn3.30+  Mn124  1  0.82968381  0.66834946  0.24943829  1
  Mn3.30+  Mn125  1  0.83352499  0.66646843  0.75012469  1
  Mn3.30+  Mn126  1  0.00264847  0.16759177  0.00014687  1
  Mn3.30+  Mn127  1  0.00115178  0.16816981  0.49855553  1
  Mn3.30+  Mn128  1  0.00061509  0.50168972  0.00314081  1
  Mn3.30+  Mn129  1  0.00000002  0.49764387  0.49785776  1
  Mn3.30+  Mn130  1  -0.00130732  0.83498405  0.00152269  1
  Mn3.30+  Mn131  1  -0.00104706  0.83435926  0.49866632  1
  Mn3.30+  Mn132  1  0.33374714  0.16510086  -0.00136938  1
  Mn3.30+  Mn133  1  0.33331995  0.16702076  0.49750283  1
  Mn3.30+  Mn134  1  0.33172456  0.50051413  0.00129427  1
  Mn3.30+  Mn135  1  0.33410556  0.49898974  0.50072012  1
  Mn3.30+  Mn136  1  0.33457883  0.83399526  0.00018047  1
  Mn3.30+  Mn137  1  0.33531365  0.83205553  0.49998794  1
  Mn3.30+  Mn138  1  0.66633014  0.16654749  0.00089486  1
  Mn3.30+  Mn139  1  0.66826408  0.16735670  0.49987095  1
  Mn3.30+  Mn140  1  0.66503786  0.49885471  0.00035780  1
  Mn3.30+  Mn141  1  0.66422157  0.50140490  0.49977916  1
  Mn3.30+  Mn142  1  0.66462026  0.83263442  0.00270198  1
  Mn3.30+  Mn143  1  0.66482047  0.83350449  0.49723231  1
  O2-  O144  1  0.02628315  0.16259226  0.12650175  1
  O2-  O145  1  0.01933507  0.16569252  0.62386263  1
  O2-  O146  1  0.02924500  0.49368665  0.12671568  1
  O2-  O147  1  0.02517278  0.49264918  0.62209611  1
  O2-  O148  1  0.02548709  0.82963863  0.12796371  1
  O2-  O149  1  0.02443981  0.82701020  0.62230093  1
  O2-  O150  1  0.36116186  0.16016780  0.12263686  1
  O2-  O151  1  0.35709776  0.16340465  0.62710777  1
  O2-  O152  1  0.36100999  0.49429990  0.12822024  1
  O2-  O153  1  0.36200671  0.48834939  0.62370559  1
  O2-  O154  1  0.36066521  0.82868872  0.12628155  1
  O2-  O155  1  0.35829311  0.82750645  0.62424613  1
  O2-  O156  1  0.69177403  0.15644630  0.12558547  1
  O2-  O157  1  0.69635499  0.16163898  0.62615269  1
  O2-  O158  1  0.68679556  0.49277034  0.12698898  1
  O2-  O159  1  0.68702929  0.49649704  0.62467929  1
  O2-  O160  1  0.69080425  0.83608189  0.12544330  1
  O2-  O161  1  0.68599868  0.82606306  0.62426749  1
  O2-  O162  1  0.14197470  0.32377528  0.12639533  1
  O2-  O163  1  0.14149211  0.33150705  0.62211695  1
  O2-  O164  1  0.14022234  0.66131034  0.12811465  1
  O2-  O165  1  0.13837990  0.66145251  0.62287173  1
  O2-  O166  1  0.14360340  0.99600871  0.12713084  1
  O2-  O167  1  0.14374242  0.99397118  0.62289828  1
  O2-  O168  1  0.47262216  0.32760131  0.12577457  1
  O2-  O169  1  0.47234768  0.32300082  0.62369136  1
  O2-  O170  1  0.47548088  0.65782371  0.12744317  1
  O2-  O171  1  0.47261565  0.65985221  0.62489353  1
  O2-  O172  1  0.47624857  0.99345574  0.12470503  1
  O2-  O173  1  0.47462059  0.99656546  0.62532571  1
  O2-  O174  1  0.80573361  0.32655514  0.12562175  1
  O2-  O175  1  0.80977297  0.32550504  0.62341256  1
  O2-  O176  1  0.80986785  0.65880074  0.12562322  1
  O2-  O177  1  0.80972982  0.66506569  0.62325775  1
  O2-  O178  1  0.80939886  0.99731001  0.12375812  1
  O2-  O179  1  0.81022596  0.99616278  0.62492089  1
  O2-  O180  1  0.30893174  0.16805945  0.37307311  1
  O2-  O181  1  0.30650076  0.17486743  0.87631788  1
  O2-  O182  1  0.30613008  0.50916465  0.37600985  1
  O2-  O183  1  0.30697756  0.50657445  0.87293697  1
  O2-  O184  1  0.30794413  0.83919655  0.37471541  1
  O2-  O185  1  0.31544694  0.83574330  0.87475547  1
  O2-  O186  1  0.64075266  0.17402874  0.37345624  1
  O2-  O187  1  0.64011884  0.17319726  0.87411581  1
  O2-  O188  1  0.64137685  0.50265439  0.37625502  1
  O2-  O189  1  0.64057269  0.50358587  0.87220609  1
  O2-  O190  1  0.63953383  0.83908462  0.37617365  1
  O2-  O191  1  0.63935741  0.83754584  0.87314966  1
  O2-  O192  1  0.97409658  0.16910491  0.37376741  1
  O2-  O193  1  0.97471743  0.17300151  0.87597295  1
  O2-  O194  1  0.97338824  0.50748416  0.37276134  1
  O2-  O195  1  0.97492896  0.50837962  0.87915398  1
  O2-  O196  1  0.97243505  0.84107924  0.37365263  1
  O2-  O197  1  0.97605676  0.83175115  0.87708273  1
  O2-  O198  1  0.19405839  0.00652634  0.37398826  1
  O2-  O199  1  0.19122262  0.00525217  0.87634633  1
  O2-  O200  1  0.19700613  0.34042112  0.37335024  1
  O2-  O201  1  0.19268057  0.34590639  0.87750097  1
  O2-  O202  1  0.19229302  0.67250606  0.37436711  1
  O2-  O203  1  0.19009038  0.66764392  0.87502942  1
  O2-  O204  1  0.51669403  0.01109158  0.37627484  1
  O2-  O205  1  0.52704068  0.00404047  0.87279249  1
  O2-  O206  1  0.52563920  0.33857008  0.37613419  1
  O2-  O207  1  0.52604803  0.33903758  0.87379675  1
  O2-  O208  1  0.52424634  0.67220310  0.37566735  1
  O2-  O209  1  0.52370137  0.67220897  0.87271971  1
  O2-  O210  1  0.85927676  0.00556537  0.37554157  1
  O2-  O211  1  0.85290504  0.00360037  0.87577628  1
  O2-  O212  1  0.86064542  0.34115061  0.37239823  1
  O2-  O213  1  0.85855658  0.33941602  0.87853954  1
  O2-  O214  1  0.85769389  0.67201770  0.37259832  1
  O2-  O215  1  0.85821341  0.67252060  0.87869487  1
  O2-  O216  1  0.24152719  0.09246645  0.02319601  1
  O2-  O217  1  0.24277557  0.09103189  0.51923131  1
  O2-  O218  1  0.23690791  0.42984534  0.02389463  1
  O2-  O219  1  0.23751410  0.42859499  0.52002766  1
  O2-  O220  1  0.23936893  0.75901853  0.02394050  1
  O2-  O221  1  0.23692299  0.76278961  0.51716127  1
  O2-  O222  1  0.56959377  0.09395433  0.01908259  1
  O2-  O223  1  0.57568106  0.09285586  0.52303703  1
  O2-  O224  1  0.56858545  0.42819382  0.01749538  1
  O2-  O225  1  0.56895472  0.42658798  0.52064228  1
  O2-  O226  1  0.56816612  0.76601223  0.01749772  1
  O2-  O227  1  0.57077582  0.75845964  0.52281717  1
  O2-  O228  1  0.90625969  0.09547129  0.02014921  1
  O2-  O229  1  0.90596584  0.09572053  0.51945869  1
  O2-  O230  1  0.90600968  0.42971794  0.02303042  1
  O2-  O231  1  0.90666582  0.42444967  0.51792303  1
  O2-  O232  1  0.90363610  0.76360558  0.02348576  1
  O2-  O233  1  0.90673207  0.75798154  0.51434857  1
  O2-  O234  1  0.26333508  0.25950570  0.22717286  1
  O2-  O235  1  0.26453636  0.26503319  0.73455190  1
  O2-  O236  1  0.26349096  0.59525053  0.23085327  1
  O2-  O237  1  0.26285839  0.59369931  0.72581884  1
  O2-  O238  1  0.26262221  0.92741121  0.22941345  1
  O2-  O239  1  0.26194027  0.92451599  0.72886635  1
  O2-  O240  1  0.59735991  0.26179470  0.22745788  1
  O2-  O241  1  0.59683542  0.26110025  0.72735198  1
  O2-  O242  1  0.59067243  0.59134122  0.23328817  1
  O2-  O243  1  0.59519569  0.59784405  0.73176821  1
  O2-  O244  1  0.59409584  0.92846698  0.23094368  1
  O2-  O245  1  0.59620677  0.92803220  0.72805357  1
  O2-  O246  1  0.92823888  0.26000075  0.22730943  1
  O2-  O247  1  0.93102687  0.26349512  0.73393078  1
  O2-  O248  1  0.92823181  0.59427624  0.22968489  1
  O2-  O249  1  0.93059107  0.59577763  0.73342473  1
  O2-  O250  1  0.93042241  0.93055478  0.23118749  1
  O2-  O251  1  0.92988996  0.92836107  0.73149661  1
  O2-  O252  1  0.09899409  0.23525707  0.27035632  1
  O2-  O253  1  0.09491145  0.24176663  0.77455015  1
  O2-  O254  1  0.09254025  0.57248391  0.27387281  1
  O2-  O255  1  0.09550733  0.57236572  0.76857765  1
  O2-  O256  1  0.09684608  0.90723345  0.27112377  1
  O2-  O257  1  0.09467691  0.90521871  0.76251419  1
  O2-  O258  1  0.43239336  0.23363760  0.26792109  1
  O2-  O259  1  0.42882570  0.23745991  0.77104032  1
  O2-  O260  1  0.42762173  0.57125584  0.27213634  1
  O2-  O261  1  0.42642407  0.57255491  0.77289461  1
  O2-  O262  1  0.42785790  0.90520606  0.27465405  1
  O2-  O263  1  0.43001254  0.90260977  0.76568220  1
  O2-  O264  1  0.76282313  0.23990695  0.27137537  1
  O2-  O265  1  0.76054136  0.23960102  0.77472764  1
  O2-  O266  1  0.76312831  0.57076558  0.26749161  1
  O2-  O267  1  0.76067211  0.57364387  0.77318911  1
  O2-  O268  1  0.76076731  0.90447823  0.26748581  1
  O2-  O269  1  0.75914862  0.90497049  0.77127426  1
  O2-  O270  1  0.07001344  0.07174507  0.48332296  1
  O2-  O271  1  0.07489615  0.07498551  0.98634014  1
  O2-  O272  1  0.07331770  0.40320474  0.47573486  1
  O2-  O273  1  0.06985801  0.40696578  0.98040628  1
  O2-  O274  1  0.07210083  0.74008232  0.47749025  1
  O2-  O275  1  0.06832180  0.73759586  0.98694603  1
  O2-  O276  1  0.40364944  0.07057937  0.48682109  1
  O2-  O277  1  0.40542534  0.06954046  0.97638112  1
  O2-  O278  1  0.40296558  0.40274379  0.47602933  1
  O2-  O279  1  0.40252933  0.40573730  0.97976997  1
  O2-  O280  1  0.40483658  0.73799420  0.48039643  1
  O2-  O281  1  0.40446034  0.73599747  0.98082042  1
  O2-  O282  1  0.74222846  0.07471547  0.48138039  1
  O2-  O283  1  0.73772282  0.07285736  0.97925859  1
  O2-  O284  1  0.73892480  0.40522382  0.48061899  1
  O2-  O285  1  0.73963093  0.40679874  0.97839656  1
  O2-  O286  1  0.73681236  0.73906435  0.47806024  1
  O2-  O287  1  0.73655783  0.74094026  0.97720875  1
  O2-  O288  1  0.09642018  0.23767175  0.47647005  1
  O2-  O289  1  0.09763367  0.24104566  0.97784027  1
  O2-  O290  1  0.09588584  0.57108415  0.47846508  1
  O2-  O291  1  0.09315144  0.57425018  0.97928450  1
  O2-  O292  1  0.09723688  0.90670379  0.47766356  1
  O2-  O293  1  0.09376161  0.90662614  0.98908528  1
  O2-  O294  1  0.43142003  0.23394114  0.48105593  1
  O2-  O295  1  0.43078854  0.23789307  0.97870904  1
  O2-  O296  1  0.42761834  0.57195889  0.47700000  1
  O2-  O297  1  0.42672857  0.57095606  0.97963884  1
  O2-  O298  1  0.42940397  0.90409224  0.48038710  1
  O2-  O299  1  0.42948470  0.90608377  0.98021432  1
  O2-  O300  1  0.76118813  0.24233756  0.47483609  1
  O2-  O301  1  0.76290308  0.23697787  0.97916513  1
  O2-  O302  1  0.76081769  0.57354082  0.47906063  1
  O2-  O303  1  0.76031720  0.57137261  0.97997228  1
  O2-  O304  1  0.76195164  0.90590174  0.48165844  1
  O2-  O305  1  0.75802022  0.90500630  0.97824856  1
  O2-  O306  1  0.07188461  0.07122809  0.26780827  1
  O2-  O307  1  0.07200853  0.07565622  0.76322062  1
  O2-  O308  1  0.06942495  0.40156445  0.27214230  1
  O2-  O309  1  0.07261866  0.40722365  0.77121567  1
  O2-  O310  1  0.07042989  0.74056708  0.27120357  1
  O2-  O311  1  0.06990446  0.73795174  0.76535024  1
  O2-  O312  1  0.40262217  0.06856317  0.26408150  1
  O2-  O313  1  0.40544859  0.07198278  0.77180478  1
  O2-  O314  1  0.40098999  0.40300353  0.27239470  1
  O2-  O315  1  0.40336566  0.40560219  0.77260015  1
  O2-  O316  1  0.40226264  0.73523420  0.26846470  1
  O2-  O317  1  0.40609364  0.73865022  0.77089983  1
  O2-  O318  1  0.74311636  0.07636445  0.26846255  1
  O2-  O319  1  0.73721175  0.07243553  0.77060148  1
  O2-  O320  1  0.73941290  0.40790191  0.27211322  1
  O2-  O321  1  0.73875614  0.40470453  0.76889228  1
  O2-  O322  1  0.73468825  0.73997845  0.27404451  1
  O2-  O323  1  0.73818283  0.73914160  0.77094162  1
  O2-  O324  1  0.24180194  0.09353701  0.22591904  1
  O2-  O325  1  0.24325792  0.09137978  0.73112872  1
  O2-  O326  1  0.23491402  0.42948126  0.22839339  1
  O2-  O327  1  0.23836796  0.42902130  0.72828121  1
  O2-  O328  1  0.23935274  0.76250437  0.23008631  1
  O2-  O329  1  0.23901955  0.76007960  0.72876705  1
  O2-  O330  1  0.57311535  0.09160327  0.22776091  1
  O2-  O331  1  0.57356495  0.09586365  0.72848069  1
  O2-  O332  1  0.56762383  0.42727566  0.23434521  1
  O2-  O333  1  0.56904410  0.42768283  0.72711734  1
  O2-  O334  1  0.56723178  0.76442110  0.23117063  1
  O2-  O335  1  0.57049781  0.76069050  0.72881714  1
  O2-  O336  1  0.90830660  0.09522299  0.22908395  1
  O2-  O337  1  0.90481539  0.09694142  0.73164135  1
  O2-  O338  1  0.90465081  0.42876252  0.22598290  1
  O2-  O339  1  0.90765903  0.42583623  0.73466752  1
  O2-  O340  1  0.90161305  0.76178389  0.22914628  1
  O2-  O341  1  0.90758930  0.75929300  0.73403998  1
  O2-  O342  1  0.26397341  0.26223119  0.02144341  1
  O2-  O343  1  0.26399731  0.26228263  0.51661534  1
  O2-  O344  1  0.26338767  0.59535849  0.01973506  1
  O2-  O345  1  0.26314136  0.59416185  0.52337170  1
  O2-  O346  1  0.25944303  0.92560400  0.02140270  1
  O2-  O347  1  0.26372171  0.92633032  0.52014970  1
  O2-  O348  1  0.59784201  0.26142024  0.02211017  1
  O2-  O349  1  0.59589691  0.26187580  0.52154070  1
  O2-  O350  1  0.59204829  0.59348112  0.01559135  1
  O2-  O351  1  0.59227669  0.59591676  0.51950979  1
  O2-  O352  1  0.59714901  0.93116869  0.01555772  1
  O2-  O353  1  0.59290676  0.92742510  0.52345840  1
  O2-  O354  1  0.92955012  0.26223135  0.02205536  1
  O2-  O355  1  0.92943299  0.26136810  0.51621650  1
  O2-  O356  1  0.92882030  0.59409258  0.02340126  1
  O2-  O357  1  0.92990841  0.59547976  0.51494882  1
  O2-  O358  1  0.92735365  0.92736688  0.02078864  1
  O2-  O359  1  0.93209990  0.93205778  0.51711008  1
