# generated using pymatgen
data_Sr7Ca15Pr50Mn72O216
_symmetry_space_group_name_H-M   'P 1'
_cell_length_a   16.55917371
_cell_length_b   16.60476900
_cell_length_c   15.59410424
_cell_angle_alpha   90.00128457
_cell_angle_beta   90.01006488
_cell_angle_gamma   89.99934659
_symmetry_Int_Tables_number   1
_chemical_formula_structural   Sr7Ca15Pr50Mn72O216
_chemical_formula_sum   'Sr7 Ca15 Pr50 Mn72 O216'
_cell_volume   4287.77439509
_cell_formula_units_Z   1
loop_
 _symmetry_equiv_pos_site_id
 _symmetry_equiv_pos_as_xyz
  1  'x, y, z'
loop_
 _atom_type_symbol
 _atom_type_oxidation_number
  Sr2+  2.0
  Ca2+  2.0
  Pr3+  3.0
  Mn3.30+  3.3
  O2-  -2.0
loop_
 _atom_site_type_symbol
 _atom_site_label
 _atom_site_symmetry_multiplicity
 _atom_site_fract_x
 _atom_site_fract_y
 _atom_site_fract_z
 _atom_site_occupancy
  Sr2+  Sr0  1  1.00326741  0.98831671  0.87488519  1
  Sr2+  Sr1  1  0.83069444  0.82417918  0.37463359  1
  Sr2+  Sr2  1  0.33475752  0.32339564  0.37673180  1
  Sr2+  Sr3  1  1.00189671  0.32492492  0.87512717  1
  Sr2+  Sr4  1  0.66400704  0.01086949  0.12621906  1
  Sr2+  Sr5  1  0.66508192  0.65582155  0.87505011  1
  Sr2+  Sr6  1  0.33077722  0.00898285  0.12608423  1
  Ca2+  Ca7  1  0.49814473  0.48568242  0.87420364  1
  Ca2+  Ca8  1  0.50378364  0.84608094  0.62711238  1
  Ca2+  Ca9  1  0.49744017  0.48295309  0.37550210  1
  Ca2+  Ca10  1  -0.00287929  0.68096925  0.62546517  1
  Ca2+  Ca11  1  0.33008424  0.34829695  0.62317384  1
  Ca2+  Ca12  1  0.49550435  0.82213243  0.37459201  1
  Ca2+  Ca13  1  0.66228424  0.34745146  0.12665841  1
  Ca2+  Ca14  1  0.49686061  0.81963677  0.87480200  1
  Ca2+  Ca15  1  0.17166067  0.85020936  0.12348286  1
  Ca2+  Ca16  1  0.16215807  0.81951900  0.87613933  1
  Ca2+  Ca17  1  -0.00330427  0.34730780  0.12455257  1
  Ca2+  Ca18  1  0.83972895  0.18567130  0.62456181  1
  Ca2+  Ca19  1  -0.00330218  0.34661116  0.62574935  1
  Ca2+  Ca20  1  0.16562046  0.15243522  0.37391725  1
  Ca2+  Ca21  1  0.66924644  0.32062213  0.37469202  1
  Pr3+  Pr22  1  0.16927014  0.17717499  0.12498491  1
  Pr3+  Pr23  1  0.66247541  0.68069513  0.62594535  1
  Pr3+  Pr24  1  0.16891710  0.50946875  0.12465894  1
  Pr3+  Pr25  1  0.66797951  0.98599597  0.37451122  1
  Pr3+  Pr26  1  0.50541115  0.18015697  0.12615741  1
  Pr3+  Pr27  1  0.66267828  0.67842811  0.12426023  1
  Pr3+  Pr28  1  0.50061779  0.18097556  0.62430701  1
  Pr3+  Pr29  1  0.66728101  0.65568995  0.37511442  1
  Pr3+  Pr30  1  -0.00134312  0.01188505  0.12435630  1
  Pr3+  Pr31  1  0.49829900  0.15395494  0.87416621  1
  Pr3+  Pr32  1  0.33996979  0.65228679  0.37544049  1
  Pr3+  Pr33  1  0.16795999  0.50956997  0.62469184  1
  Pr3+  Pr34  1  0.16369437  0.48724915  0.87520273  1
  Pr3+  Pr35  1  0.66971292  0.32440876  0.87470301  1
  Pr3+  Pr36  1  0.83934638  0.51397451  0.62524653  1
  Pr3+  Pr37  1  -0.00121816  0.68055782  0.12481422  1
  Pr3+  Pr38  1  1.00386863  0.65665787  0.87349493  1
  Pr3+  Pr39  1  0.16388670  0.82117224  0.37383218  1
  Pr3+  Pr40  1  0.33704024  0.32158532  0.87330991  1
  Pr3+  Pr41  1  0.83058605  0.48750507  0.87537986  1
  Pr3+  Pr42  1  0.50452238  0.51056196  0.12611173  1
  Pr3+  Pr43  1  0.83321123  0.51060933  0.12485965  1
  Pr3+  Pr44  1  0.83629742  0.84411412  0.62530569  1
  Pr3+  Pr45  1  0.83089054  0.82015076  0.87523010  1
  Pr3+  Pr46  1  0.82941242  0.48496052  0.37472529  1
  Pr3+  Pr47  1  0.83432269  0.84720506  0.12462796  1
  Pr3+  Pr48  1  0.16198062  0.15363016  0.87489654  1
  Pr3+  Pr49  1  0.50154513  0.84765520  0.12364455  1
  Pr3+  Pr50  1  0.16995715  0.18186718  0.62424174  1
  Pr3+  Pr51  1  0.66932040  0.98685712  0.87562989  1
  Pr3+  Pr52  1  0.33145921  0.01047014  0.62490376  1
  Pr3+  Pr53  1  0.33542525  0.98298803  0.87555557  1
  Pr3+  Pr54  1  0.33787872  0.65303605  0.87451744  1
  Pr3+  Pr55  1  0.66415663  0.01254044  0.62417252  1
  Pr3+  Pr56  1  0.33232424  0.67890930  0.62485337  1
  Pr3+  Pr57  1  0.49878605  0.15676555  0.37588217  1
  Pr3+  Pr58  1  0.83566624  0.18199230  0.12556281  1
  Pr3+  Pr59  1  0.33496190  0.98735591  0.37476001  1
  Pr3+  Pr60  1  0.83209749  0.15627702  0.87278941  1
  Pr3+  Pr61  1  0.32883472  0.68132323  0.12511841  1
  Pr3+  Pr62  1  1.00271705  0.98791004  0.37584228  1
  Pr3+  Pr63  1  0.16523247  0.48626320  0.37470202  1
  Pr3+  Pr64  1  0.50173076  0.51039986  0.62333280  1
  Pr3+  Pr65  1  0.82920741  0.15608425  0.37752965  1
  Pr3+  Pr66  1  -0.00519493  0.01569197  0.62603639  1
  Pr3+  Pr67  1  0.16737909  0.84519173  0.62624753  1
  Pr3+  Pr68  1  1.00187495  0.65421365  0.37654812  1
  Pr3+  Pr69  1  1.00662436  0.31846984  0.37504346  1
  Pr3+  Pr70  1  0.33341656  0.34376850  0.12660489  1
  Pr3+  Pr71  1  0.66775052  0.34594846  0.62246408  1
  Mn3.30+  Mn72  1  0.16681547  -0.00236352  -0.00032496  1
  Mn3.30+  Mn73  1  0.16569214  0.00131717  0.50024666  1
  Mn3.30+  Mn74  1  0.16604545  0.33289113  0.00125103  1
  Mn3.30+  Mn75  1  0.16665319  0.33208224  0.50040128  1
  Mn3.30+  Mn76  1  0.16763614  0.66875560  0.00009866  1
  Mn3.30+  Mn77  1  0.16675061  0.66586310  0.50104041  1
  Mn3.30+  Mn78  1  0.49974172  -0.00055701  -0.00099253  1
  Mn3.30+  Mn79  1  0.49927934  -0.00199713  0.50082728  1
  Mn3.30+  Mn80  1  0.50197972  0.33390399  -0.00107786  1
  Mn3.30+  Mn81  1  0.49989522  0.33443047  0.49975847  1
  Mn3.30+  Mn82  1  0.49803903  0.66564653  -0.00154983  1
  Mn3.30+  Mn83  1  0.50072567  0.66846833  0.49977592  1
  Mn3.30+  Mn84  1  0.83365940  0.00158197  -0.00076464  1
  Mn3.30+  Mn85  1  0.83223901  0.00149476  0.50120987  1
  Mn3.30+  Mn86  1  0.83313969  0.33378080  0.00213037  1
  Mn3.30+  Mn87  1  0.83571804  0.33313579  0.49932694  1
  Mn3.30+  Mn88  1  0.83282941  0.66658448  0.00066694  1
  Mn3.30+  Mn89  1  0.83386874  0.66747309  0.49953320  1
  Mn3.30+  Mn90  1  0.00071864  0.16746982  0.25024110  1
  Mn3.30+  Mn91  1  -0.00052592  0.16973729  0.74888388  1
  Mn3.30+  Mn92  1  -0.00070082  0.49901714  0.24921632  1
  Mn3.30+  Mn93  1  0.00088354  0.50049858  0.74898414  1
  Mn3.30+  Mn94  1  0.00126183  0.83378900  0.24895260  1
  Mn3.30+  Mn95  1  0.00152702  0.83270996  0.75081734  1
  Mn3.30+  Mn96  1  0.33307868  0.16623619  0.25151412  1
  Mn3.30+  Mn97  1  0.33243053  0.16712406  0.74884608  1
  Mn3.30+  Mn98  1  0.33663730  0.49862027  0.25081861  1
  Mn3.30+  Mn99  1  0.33461578  0.49868253  0.74960386  1
  Mn3.30+  Mn100  1  0.33211194  0.83338586  0.25052595  1
  Mn3.30+  Mn101  1  0.33403018  0.83180395  0.75029750  1
  Mn3.30+  Mn102  1  0.66698968  0.16937854  0.25066357  1
  Mn3.30+  Mn103  1  0.66786951  0.16788758  0.74742397  1
  Mn3.30+  Mn104  1  0.66531715  0.49702897  0.25266964  1
  Mn3.30+  Mn105  1  0.66665827  0.50062387  0.74992041  1
  Mn3.30+  Mn106  1  0.66379962  0.83282811  0.25099740  1
  Mn3.30+  Mn107  1  0.66435061  0.83267891  0.75065862  1
  Mn3.30+  Mn108  1  0.16659693  0.00039603  0.25053770  1
  Mn3.30+  Mn109  1  0.16508372  -0.00109588  0.75003011  1
  Mn3.30+  Mn110  1  0.16568629  0.33107485  0.24967858  1
  Mn3.30+  Mn111  1  0.16675530  0.33410943  0.74785291  1
  Mn3.30+  Mn112  1  0.16782204  0.66675866  0.25003120  1
  Mn3.30+  Mn113  1  0.16659295  0.66746916  0.74903002  1
  Mn3.30+  Mn114  1  0.49935090  0.00028833  0.25071067  1
  Mn3.30+  Mn115  1  0.49977722  -0.00297199  0.74975397  1
  Mn3.30+  Mn116  1  0.50258441  0.33347619  0.25306005  1
  Mn3.30+  Mn117  1  0.49980162  0.33497958  0.74783409  1
  Mn3.30+  Mn118  1  0.49936237  0.66675741  0.25096392  1
  Mn3.30+  Mn119  1  0.49931070  0.66666574  0.75125825  1
  Mn3.30+  Mn120  1  0.83232767  0.00178009  0.24960512  1
  Mn3.30+  Mn121  1  0.83336117  0.00110211  0.75028308  1
  Mn3.30+  Mn122  1  0.83272428  0.33355595  0.24924199  1
  Mn3.30+  Mn123  1  0.83605611  0.33327316  0.74890688  1
  Mn3.30+  Mn124  1  0.83255599  0.66697930  0.25068512  1
  Mn3.30+  Mn125  1  0.83407159  0.66673451  0.74955912  1
  Mn3.30+  Mn126  1  0.00045250  0.16858738  0.00026592  1
  Mn3.30+  Mn127  1  -0.00010987  0.16853617  0.50078844  1
  Mn3.30+  Mn128  1  0.00021282  0.49996943  0.00132337  1
  Mn3.30+  Mn129  1  -0.00018814  0.49933452  0.50045083  1
  Mn3.30+  Mn130  1  0.00357433  0.83435916  0.00058237  1
  Mn3.30+  Mn131  1  -0.00044215  0.83205171  0.50037154  1
  Mn3.30+  Mn132  1  0.33376457  0.16534405  0.00046044  1
  Mn3.30+  Mn133  1  0.33189578  0.16779460  0.49896037  1
  Mn3.30+  Mn134  1  0.33575196  0.49897996  -0.00044838  1
  Mn3.30+  Mn135  1  0.33565831  0.49820330  0.49990195  1
  Mn3.30+  Mn136  1  0.33032712  0.83225943  -0.00187456  1
  Mn3.30+  Mn137  1  0.33583753  0.83294052  0.50138125  1
  Mn3.30+  Mn138  1  0.66680867  0.16827398  0.00040102  1
  Mn3.30+  Mn139  1  0.66798868  0.16872403  0.50170768  1
  Mn3.30+  Mn140  1  0.66500666  0.49868708  -0.00074522  1
  Mn3.30+  Mn141  1  0.66688702  0.49952773  0.49818225  1
  Mn3.30+  Mn142  1  0.66453826  0.83279510  -0.00149858  1
  Mn3.30+  Mn143  1  0.66347872  0.83302346  0.49993712  1
  O2-  O144  1  0.02551790  0.15892010  0.12639857  1
  O2-  O145  1  0.02619039  0.16152199  0.62394700  1
  O2-  O146  1  0.02466063  0.49498334  0.12532305  1
  O2-  O147  1  0.02395416  0.49110010  0.62231423  1
  O2-  O148  1  0.02926730  0.82852501  0.12574360  1
  O2-  O149  1  0.02349316  0.82772275  0.62468165  1
  O2-  O150  1  0.35998592  0.16516080  0.12534809  1
  O2-  O151  1  0.35793809  0.15753073  0.62536491  1
  O2-  O152  1  0.35986990  0.49427790  0.12541215  1
  O2-  O153  1  0.35746046  0.49662046  0.62496077  1
  O2-  O154  1  0.35765776  0.82965519  0.12460895  1
  O2-  O155  1  0.36161692  0.82819269  0.62499045  1
  O2-  O156  1  0.69127536  0.16293721  0.12466694  1
  O2-  O157  1  0.69608039  0.16018183  0.62491037  1
  O2-  O158  1  0.68921840  0.49443104  0.12732387  1
  O2-  O159  1  0.69475930  0.49539777  0.62247199  1
  O2-  O160  1  0.68929001  0.82777547  0.12367984  1
  O2-  O161  1  0.69224006  0.82964761  0.62584331  1
  O2-  O162  1  0.13948099  0.32601393  0.12742123  1
  O2-  O163  1  0.13866545  0.32973316  0.62365451  1
  O2-  O164  1  0.14214532  0.65591791  0.12550709  1
  O2-  O165  1  0.13936102  0.65752137  0.62241090  1
  O2-  O166  1  0.14305888  0.99471669  0.12613041  1
  O2-  O167  1  0.14056913  0.99303936  0.62555066  1
  O2-  O168  1  0.47685866  0.32769118  0.12524658  1
  O2-  O169  1  0.47267634  0.32921253  0.62531854  1
  O2-  O170  1  0.47315662  0.65724949  0.12433073  1
  O2-  O171  1  0.47533973  0.65674721  0.62551072  1
  O2-  O172  1  0.48067052  0.99649568  0.12470792  1
  O2-  O173  1  0.47466523  0.99164895  0.62562845  1
  O2-  O174  1  0.80411910  0.32969435  0.12624618  1
  O2-  O175  1  0.81130634  0.33256997  0.62429776  1
  O2-  O176  1  0.80763627  0.66091780  0.12592633  1
  O2-  O177  1  0.80793820  0.66235310  0.62388438  1
  O2-  O178  1  0.81415686  0.99595677  0.12313119  1
  O2-  O179  1  0.80797309  0.99129209  0.62650830  1
  O2-  O180  1  0.30809904  0.16796873  0.37706763  1
  O2-  O181  1  0.30732600  0.17425174  0.87239215  1
  O2-  O182  1  0.30904137  0.50468245  0.37481718  1
  O2-  O183  1  0.30708262  0.50356207  0.87456225  1
  O2-  O184  1  0.30726927  0.83592122  0.37726363  1
  O2-  O185  1  0.30397805  0.83477153  0.87332067  1
  O2-  O186  1  0.64318024  0.17532310  0.37819002  1
  O2-  O187  1  0.64188978  0.17604831  0.87196255  1
  O2-  O188  1  0.63876121  0.50956367  0.37630060  1
  O2-  O189  1  0.64187790  0.49721583  0.87320045  1
  O2-  O190  1  0.63832874  0.83739431  0.37636642  1
  O2-  O191  1  0.64031597  0.83879487  0.87447943  1
  O2-  O192  1  0.97310406  0.17152413  0.37533156  1
  O2-  O193  1  0.97669741  0.17101830  0.87428201  1
  O2-  O194  1  0.97465631  0.50647820  0.37448285  1
  O2-  O195  1  0.97564864  0.50817535  0.87728782  1
  O2-  O196  1  0.98041280  0.83801217  0.37453103  1
  O2-  O197  1  0.97499741  0.83136236  0.87591696  1
  O2-  O198  1  0.18939706  0.00558468  0.37713906  1
  O2-  O199  1  0.19110225  0.00783626  0.87167323  1
  O2-  O200  1  0.18549740  0.33976739  0.37437290  1
  O2-  O201  1  0.19297502  0.33854331  0.87366913  1
  O2-  O202  1  0.19469927  0.67255485  0.37527435  1
  O2-  O203  1  0.19284459  0.67310618  0.87644426  1
  O2-  O204  1  0.52485730  0.00857379  0.37708636  1
  O2-  O205  1  0.52583514  0.00723543  0.87298800  1
  O2-  O206  1  0.52675670  0.33558173  0.37684292  1
  O2-  O207  1  0.52523072  0.33745819  0.87172740  1
  O2-  O208  1  0.52493514  0.67993088  0.37566241  1
  O2-  O209  1  0.51670373  0.67623979  0.87497572  1
  O2-  O210  1  0.85809979  0.00679202  0.37621732  1
  O2-  O211  1  0.85408527  0.00719447  0.87416762  1
  O2-  O212  1  0.86219678  0.33667184  0.37362507  1
  O2-  O213  1  0.85223333  0.33859856  0.87520076  1
  O2-  O214  1  0.85779226  0.66902607  0.37399709  1
  O2-  O215  1  0.85902331  0.67090816  0.87626456  1
  O2-  O216  1  0.23721979  0.09579138  0.01597378  1
  O2-  O217  1  0.23925304  0.09242021  0.52312030  1
  O2-  O218  1  0.24098628  0.42660198  0.02190049  1
  O2-  O219  1  0.23588924  0.42815672  0.51725141  1
  O2-  O220  1  0.23697086  0.76079410  0.02566692  1
  O2-  O221  1  0.23876152  0.76092165  0.52243186  1
  O2-  O222  1  0.57132674  0.10028620  0.01403953  1
  O2-  O223  1  0.57073936  0.09348075  0.52251497  1
  O2-  O224  1  0.57099015  0.42791742  0.01933545  1
  O2-  O225  1  0.57564416  0.42704376  0.52336167  1
  O2-  O226  1  0.57000116  0.75759501  0.02249297  1
  O2-  O227  1  0.57089214  0.76140081  0.52640577  1
  O2-  O228  1  0.90643209  0.09628112  0.01951666  1
  O2-  O229  1  0.90421466  0.09893984  0.52248767  1
  O2-  O230  1  0.90203347  0.42882182  0.01834738  1
  O2-  O231  1  0.90132725  0.43162661  0.51509267  1
  O2-  O232  1  0.90679941  0.76266893  0.02228804  1
  O2-  O233  1  0.90485449  0.76113198  0.51944723  1
  O2-  O234  1  0.26021558  0.25912824  0.22726933  1
  O2-  O235  1  0.26251683  0.26307209  0.72677414  1
  O2-  O236  1  0.26238926  0.59326052  0.23024774  1
  O2-  O237  1  0.26203055  0.59301134  0.72975157  1
  O2-  O238  1  0.25980910  0.92710941  0.23876627  1
  O2-  O239  1  0.26328093  0.92657567  0.72860346  1
  O2-  O240  1  0.59622150  0.26207097  0.22839875  1
  O2-  O241  1  0.59600475  0.26102708  0.72613710  1
  O2-  O242  1  0.59512287  0.59559423  0.23004772  1
  O2-  O243  1  0.59474705  0.59199956  0.72782931  1
  O2-  O244  1  0.59038867  0.92578429  0.23376292  1
  O2-  O245  1  0.59776867  0.92991420  0.73136158  1
  O2-  O246  1  0.93029389  0.26355496  0.22768754  1
  O2-  O247  1  0.92924239  0.26386061  0.72889020  1
  O2-  O248  1  0.92893736  0.59363036  0.22926691  1
  O2-  O249  1  0.93053744  0.59565704  0.72843961  1
  O2-  O250  1  0.92843138  0.92716457  0.23029340  1
  O2-  O251  1  0.92814209  0.92620745  0.72933894  1
  O2-  O252  1  0.09535265  0.23556235  0.27276313  1
  O2-  O253  1  0.09916305  0.23755808  0.76616213  1
  O2-  O254  1  0.09677446  0.57354268  0.27098566  1
  O2-  O255  1  0.09651722  0.57347135  0.77128779  1
  O2-  O256  1  0.09339466  0.90719475  0.27261093  1
  O2-  O257  1  0.09747661  0.90051680  0.76707441  1
  O2-  O258  1  0.43236524  0.23802879  0.26737399  1
  O2-  O259  1  0.42795526  0.23722669  0.76938984  1
  O2-  O260  1  0.43192145  0.57237548  0.27374188  1
  O2-  O261  1  0.42810017  0.56983006  0.77108847  1
  O2-  O262  1  0.42536056  0.90388466  0.27064425  1
  O2-  O263  1  0.42589469  0.90299931  0.77498818  1
  O2-  O264  1  0.76615791  0.23716569  0.26823689  1
  O2-  O265  1  0.76111303  0.24105637  0.76938292  1
  O2-  O266  1  0.75852687  0.56973738  0.27029031  1
  O2-  O267  1  0.76394649  0.56981872  0.76687255  1
  O2-  O268  1  0.75594616  0.90837063  0.26615706  1
  O2-  O269  1  0.76053099  0.90515878  0.77195191  1
  O2-  O270  1  0.06593945  0.07051711  0.48388740  1
  O2-  O271  1  0.07493187  0.07211720  0.98439205  1
  O2-  O272  1  0.07189268  0.40667072  0.47734763  1
  O2-  O273  1  0.07753230  0.41030091  0.98228303  1
  O2-  O274  1  0.07563593  0.73828949  0.47757080  1
  O2-  O275  1  0.06905221  0.73554619  0.98340094  1
  O2-  O276  1  0.40523598  0.07089304  0.48157522  1
  O2-  O277  1  0.40647270  0.07198322  0.97548781  1
  O2-  O278  1  0.40940022  0.40832198  0.48319792  1
  O2-  O279  1  0.40478901  0.40135597  0.98193659  1
  O2-  O280  1  0.40205777  0.73591954  0.48314820  1
  O2-  O281  1  0.39845074  0.73513634  0.98525392  1
  O2-  O282  1  0.73708646  0.07242576  0.47897768  1
  O2-  O283  1  0.73843897  0.07652150  0.97651982  1
  O2-  O284  1  0.73877202  0.40430667  0.47698685  1
  O2-  O285  1  0.73894888  0.40665468  0.97983615  1
  O2-  O286  1  0.73364246  0.73745710  0.48348392  1
  O2-  O287  1  0.74150397  0.74153950  0.98197465  1
  O2-  O288  1  0.09756006  0.23500176  0.47838642  1
  O2-  O289  1  0.09700835  0.23656342  0.98257698  1
  O2-  O290  1  0.09544155  0.57106616  0.47682467  1
  O2-  O291  1  0.09638796  0.57466491  0.97952710  1
  O2-  O292  1  0.09509116  0.90525259  0.48097858  1
  O2-  O293  1  0.09689615  0.90225307  0.98059054  1
  O2-  O294  1  0.42985616  0.23550333  0.48412538  1
  O2-  O295  1  0.42974441  0.23882862  0.97891789  1
  O2-  O296  1  0.43125506  0.57368127  0.47821278  1
  O2-  O297  1  0.42915507  0.56961935  0.97695244  1
  O2-  O298  1  0.42622979  0.90619156  0.47507444  1
  O2-  O299  1  0.42590715  0.90138935  0.97824758  1
  O2-  O300  1  0.76570461  0.24110658  0.48312754  1
  O2-  O301  1  0.76227483  0.23881110  0.97909046  1
  O2-  O302  1  0.76212126  0.57180536  0.47910265  1
  O2-  O303  1  0.76104901  0.56915864  0.98381183  1
  O2-  O304  1  0.75559191  0.90715063  0.48203386  1
  O2-  O305  1  0.76125603  0.90695739  0.97989928  1
  O2-  O306  1  0.06831029  0.06929814  0.26797405  1
  O2-  O307  1  0.07233289  0.07480615  0.76558947  1
  O2-  O308  1  0.07218345  0.40696024  0.27005941  1
  O2-  O309  1  0.07665832  0.41070844  0.76917886  1
  O2-  O310  1  0.07180274  0.73750973  0.27089104  1
  O2-  O311  1  0.07124206  0.73820705  0.76766476  1
  O2-  O312  1  0.40653077  0.07265214  0.27330104  1
  O2-  O313  1  0.40468296  0.07096903  0.76999532  1
  O2-  O314  1  0.40726555  0.40409875  0.26503446  1
  O2-  O315  1  0.40476339  0.40622416  0.77020054  1
  O2-  O316  1  0.40118940  0.73550346  0.26565093  1
  O2-  O317  1  0.39963101  0.73538034  0.76591505  1
  O2-  O318  1  0.73787734  0.07631852  0.27393915  1
  O2-  O319  1  0.73637943  0.07330546  0.77116399  1
  O2-  O320  1  0.73836406  0.40504545  0.27559314  1
  O2-  O321  1  0.73945054  0.40562713  0.76727412  1
  O2-  O322  1  0.73399642  0.73810140  0.26678070  1
  O2-  O323  1  0.74016081  0.74123809  0.76783814  1
  O2-  O324  1  0.23580234  0.09412796  0.23235747  1
  O2-  O325  1  0.23916509  0.09469828  0.72843639  1
  O2-  O326  1  0.23858505  0.42558683  0.22932987  1
  O2-  O327  1  0.23820231  0.42910575  0.73026464  1
  O2-  O328  1  0.23635931  0.76158008  0.22864848  1
  O2-  O329  1  0.23922439  0.75866516  0.72397587  1
  O2-  O330  1  0.57097599  0.09889005  0.23576849  1
  O2-  O331  1  0.57266766  0.09600004  0.72790992  1
  O2-  O332  1  0.57089884  0.42859857  0.23180750  1
  O2-  O333  1  0.57568558  0.42655843  0.72452911  1
  O2-  O334  1  0.56979037  0.75923702  0.22488108  1
  O2-  O335  1  0.57245162  0.76044281  0.72729453  1
  O2-  O336  1  0.90604164  0.09735139  0.22977012  1
  O2-  O337  1  0.90440109  0.09735318  0.72817384  1
  O2-  O338  1  0.90033370  0.42875048  0.23132857  1
  O2-  O339  1  0.90363099  0.43092193  0.73467074  1
  O2-  O340  1  0.90867347  0.76208078  0.22602827  1
  O2-  O341  1  0.90420534  0.76341486  0.73302545  1
  O2-  O342  1  0.26189894  0.26105349  0.02026384  1
  O2-  O343  1  0.26104699  0.26105107  0.52483529  1
  O2-  O344  1  0.26134225  0.59389501  0.02015552  1
  O2-  O345  1  0.26115299  0.59387162  0.51998272  1
  O2-  O346  1  0.26226852  0.92841253  0.01305474  1
  O2-  O347  1  0.26239316  0.92576085  0.52071140  1
  O2-  O348  1  0.59660765  0.26385126  0.01958055  1
  O2-  O349  1  0.59342880  0.25960888  0.52505363  1
  O2-  O350  1  0.59374216  0.59193404  0.02145905  1
  O2-  O351  1  0.59563670  0.59610417  0.52056279  1
  O2-  O352  1  0.59186815  0.92646931  0.01652018  1
  O2-  O353  1  0.59548164  0.92982176  0.51876097  1
  O2-  O354  1  0.92565035  0.26234693  0.02451440  1
  O2-  O355  1  0.93454935  0.26646783  0.51750797  1
  O2-  O356  1  0.92758560  0.59504576  0.02229963  1
  O2-  O357  1  0.93100545  0.59521117  0.52090110  1
  O2-  O358  1  0.92901256  0.92511143  0.02137581  1
  O2-  O359  1  0.92623855  0.92928652  0.52002970  1
