# generated using pymatgen
data_Sr7Ca15Pr50Mn72O216
_symmetry_space_group_name_H-M   'P 1'
_cell_length_a   16.56051911
_cell_length_b   16.60417105
_cell_length_c   15.59391860
_cell_angle_alpha   89.99974961
_cell_angle_beta   89.99555899
_cell_angle_gamma   89.99146532
_symmetry_Int_Tables_number   1
_chemical_formula_structural   Sr7Ca15Pr50Mn72O216
_chemical_formula_sum   'Sr7 Ca15 Pr50 Mn72 O216'
_cell_volume   4287.91730807
_cell_formula_units_Z   1
loop_
 _symmetry_equiv_pos_site_id
 _symmetry_equiv_pos_as_xyz
  1  'x, y, z'
loop_
 _atom_type_symbol
 _atom_type_oxidation_number
  Sr2+  2.0
  Ca2+  2.0
  Pr3+  3.0
  Mn3.30+  3.3
  O2-  -2.0
loop_
 _atom_site_type_symbol
 _atom_site_label
 _atom_site_symmetry_multiplicity
 _atom_site_fract_x
 _atom_site_fract_y
 _atom_site_fract_z
 _atom_site_occupancy
  Sr2+  Sr0  1  0.83040114  0.48908512  0.87516951  1
  Sr2+  Sr1  1  0.50165851  0.82457564  0.37436905  1
  Sr2+  Sr2  1  0.16976291  0.17504927  0.12703472  1
  Sr2+  Sr3  1  0.49875853  0.17491902  0.12445468  1
  Sr2+  Sr4  1  -0.00315859  0.01252352  0.12662393  1
  Sr2+  Sr5  1  0.16761605  0.17538330  0.62326392  1
  Sr2+  Sr6  1  0.33260202  0.33951300  0.12367129  1
  Ca2+  Ca7  1  0.49838047  0.15271610  0.88090201  1
  Ca2+  Ca8  1  1.00320670  0.65351720  0.37281313  1
  Ca2+  Ca9  1  0.66981227  0.65428656  0.37206899  1
  Ca2+  Ca10  1  0.66304413  0.01556428  0.12706712  1
  Ca2+  Ca11  1  0.16240387  0.48307338  0.87773940  1
  Ca2+  Ca12  1  0.67167996  0.65222893  0.87749979  1
  Ca2+  Ca13  1  0.16143963  0.15005499  0.37138839  1
  Ca2+  Ca14  1  -0.00198074  0.34378045  0.12474586  1
  Ca2+  Ca15  1  0.83893399  0.18123920  0.12468587  1
  Ca2+  Ca16  1  1.00538623  0.98476005  0.37140714  1
  Ca2+  Ca17  1  0.16018117  0.81834465  0.37260566  1
  Ca2+  Ca18  1  0.66750164  0.98946850  0.88003755  1
  Ca2+  Ca19  1  0.66245679  0.67978376  0.12503762  1
  Ca2+  Ca20  1  0.66867043  0.98577650  0.36890669  1
  Ca2+  Ca21  1  0.32927333  0.01588105  0.12765409  1
  Pr3+  Pr22  1  0.49940172  0.15421078  0.37161525  1
  Pr3+  Pr23  1  -0.00334348  0.01340745  0.62254703  1
  Pr3+  Pr24  1  0.33053022  0.68148676  0.62465721  1
  Pr3+  Pr25  1  1.00210912  0.98831899  0.87779914  1
  Pr3+  Pr26  1  0.16320023  0.82242183  0.87691626  1
  Pr3+  Pr27  1  0.83797999  0.17928284  0.62446544  1
  Pr3+  Pr28  1  1.00478202  0.31823162  0.37214129  1
  Pr3+  Pr29  1  0.83012685  0.14949030  0.37200039  1
  Pr3+  Pr30  1  0.33376727  0.32061076  0.37309789  1
  Pr3+  Pr31  1  0.66330011  0.34266173  0.12510292  1
  Pr3+  Pr32  1  0.50305641  0.17912579  0.62497454  1
  Pr3+  Pr33  1  0.50242261  0.51364116  0.62584931  1
  Pr3+  Pr34  1  0.50413526  0.84842687  0.12684062  1
  Pr3+  Pr35  1  0.33561498  0.65694877  0.37395484  1
  Pr3+  Pr36  1  0.83618154  0.84732113  0.62391628  1
  Pr3+  Pr37  1  0.50010882  0.82291281  0.87609870  1
  Pr3+  Pr38  1  0.83221088  0.48863568  0.37384087  1
  Pr3+  Pr39  1  0.67074597  0.31892078  0.87651779  1
  Pr3+  Pr40  1  0.33567867  0.31861443  0.87695626  1
  Pr3+  Pr41  1  0.82989329  0.82155859  0.37240767  1
  Pr3+  Pr42  1  0.33321228  0.98955496  0.37175887  1
  Pr3+  Pr43  1  0.17053126  0.84920666  0.12837687  1
  Pr3+  Pr44  1  0.32867170  0.34585240  0.62552471  1
  Pr3+  Pr45  1  0.82752611  0.82168423  0.87734374  1
  Pr3+  Pr46  1  0.82941471  0.15243256  0.87762704  1
  Pr3+  Pr47  1  -0.00418731  0.67865320  0.12700901  1
  Pr3+  Pr48  1  0.16834063  0.50728635  0.12428956  1
  Pr3+  Pr49  1  0.83590247  0.51134514  0.12354297  1
  Pr3+  Pr50  1  0.50264239  0.84687209  0.62322609  1
  Pr3+  Pr51  1  0.66493805  0.01097390  0.62247912  1
  Pr3+  Pr52  1  0.16830660  0.84648721  0.62221163  1
  Pr3+  Pr53  1  0.33552464  0.65357534  0.87632310  1
  Pr3+  Pr54  1  0.16332852  0.48827187  0.37372648  1
  Pr3+  Pr55  1  0.16478083  0.15466610  0.87749457  1
  Pr3+  Pr56  1  0.83718305  0.51549068  0.62577982  1
  Pr3+  Pr57  1  0.49859255  0.49131433  0.37435331  1
  Pr3+  Pr58  1  0.16950715  0.51377639  0.62611666  1
  Pr3+  Pr59  1  -0.00392775  0.68083625  0.62309622  1
  Pr3+  Pr60  1  0.83254225  0.84693363  0.12572881  1
  Pr3+  Pr61  1  0.33127865  0.67858964  0.12592940  1
  Pr3+  Pr62  1  1.00250484  0.65026355  0.87710978  1
  Pr3+  Pr63  1  1.00192867  0.32180658  0.87771497  1
  Pr3+  Pr64  1  0.50006091  0.48849775  0.87598276  1
  Pr3+  Pr65  1  0.50438788  0.51281030  0.12463218  1
  Pr3+  Pr66  1  -0.00107410  0.34649172  0.62433528  1
  Pr3+  Pr67  1  0.67048483  0.31966046  0.37358072  1
  Pr3+  Pr68  1  0.66469319  0.34666346  0.62512707  1
  Pr3+  Pr69  1  0.33791797  0.99290589  0.87904316  1
  Pr3+  Pr70  1  0.33122850  0.01310804  0.62338869  1
  Pr3+  Pr71  1  0.66515282  0.67985518  0.62574016  1
  Mn3.30+  Mn72  1  0.16848718  0.00066879  0.00252072  1
  Mn3.30+  Mn73  1  0.16423223  -0.00043674  0.49688028  1
  Mn3.30+  Mn74  1  0.16615713  0.33261976  0.00133573  1
  Mn3.30+  Mn75  1  0.16639849  0.33120273  0.49932174  1
  Mn3.30+  Mn76  1  0.16603618  0.66540626  0.00066970  1
  Mn3.30+  Mn77  1  0.16430266  0.66817837  0.49792849  1
  Mn3.30+  Mn78  1  0.50316103  0.00188832  0.00203375  1
  Mn3.30+  Mn79  1  0.50065101  -0.00006038  0.49677054  1
  Mn3.30+  Mn80  1  0.50097459  0.33216557  0.00030410  1
  Mn3.30+  Mn81  1  0.49973717  0.33382369  0.49962621  1
  Mn3.30+  Mn82  1  0.50292728  0.66778870  -0.00040028  1
  Mn3.30+  Mn83  1  0.50118521  0.66791628  0.49826798  1
  Mn3.30+  Mn84  1  0.83069260  0.00162751  0.00315914  1
  Mn3.30+  Mn85  1  0.83398935  -0.00144062  0.49554434  1
  Mn3.30+  Mn86  1  0.83417636  0.33230217  0.00173957  1
  Mn3.30+  Mn87  1  0.83438828  0.33326954  0.49885168  1
  Mn3.30+  Mn88  1  0.82911678  0.66686078  0.00165844  1
  Mn3.30+  Mn89  1  0.83362120  0.66771390  0.49603981  1
  Mn3.30+  Mn90  1  -0.00070047  0.16563393  0.24841043  1
  Mn3.30+  Mn91  1  -0.00010367  0.16702492  0.75051258  1
  Mn3.30+  Mn92  1  -0.00057461  0.49936674  0.24910342  1
  Mn3.30+  Mn93  1  0.00191330  0.49949556  0.75152549  1
  Mn3.30+  Mn94  1  0.00029245  0.83395428  0.25086227  1
  Mn3.30+  Mn95  1  -0.00092673  0.83336422  0.75084445  1
  Mn3.30+  Mn96  1  0.33020436  0.16603180  0.25051847  1
  Mn3.30+  Mn97  1  0.33536621  0.16630220  0.75055443  1
  Mn3.30+  Mn98  1  0.33308650  0.49962511  0.24845841  1
  Mn3.30+  Mn99  1  0.33195039  0.49998636  0.75278613  1
  Mn3.30+  Mn100  1  0.33298459  0.83461669  0.25092371  1
  Mn3.30+  Mn101  1  0.33306132  0.83515726  0.75088299  1
  Mn3.30+  Mn102  1  0.66863185  0.16388981  0.24711216  1
  Mn3.30+  Mn103  1  0.66598082  0.16394545  0.75183485  1
  Mn3.30+  Mn104  1  0.66748059  0.50206753  0.25025182  1
  Mn3.30+  Mn105  1  0.66782590  0.50132888  0.75056683  1
  Mn3.30+  Mn106  1  0.66681382  0.83255997  0.24970117  1
  Mn3.30+  Mn107  1  0.66671114  0.83478777  0.75194301  1
  Mn3.30+  Mn108  1  0.16505909  0.00073627  0.25138587  1
  Mn3.30+  Mn109  1  0.16720233  0.00014787  0.74988069  1
  Mn3.30+  Mn110  1  0.16575105  0.33078160  0.24849799  1
  Mn3.30+  Mn111  1  0.16681219  0.33295582  0.75063618  1
  Mn3.30+  Mn112  1  0.16429896  0.66717719  0.25027892  1
  Mn3.30+  Mn113  1  0.16579549  0.66621013  0.75148797  1
  Mn3.30+  Mn114  1  0.50124386  0.00049197  0.24891924  1
  Mn3.30+  Mn115  1  0.50223338  0.00145191  0.75221954  1
  Mn3.30+  Mn116  1  0.50050299  0.33360026  0.24928388  1
  Mn3.30+  Mn117  1  0.50004879  0.33187086  0.75136578  1
  Mn3.30+  Mn118  1  0.50272799  0.66808961  0.25051305  1
  Mn3.30+  Mn119  1  0.50135474  0.66786714  0.75193918  1
  Mn3.30+  Mn120  1  0.83311479  0.00058724  0.24843368  1
  Mn3.30+  Mn121  1  0.83136352  -0.00017493  0.75119028  1
  Mn3.30+  Mn122  1  0.83550105  0.33167983  0.24818791  1
  Mn3.30+  Mn123  1  0.83325051  0.33362743  0.75063292  1
  Mn3.30+  Mn124  1  0.83131184  0.66674587  0.25000243  1
  Mn3.30+  Mn125  1  0.83193677  0.66794844  0.75159728  1
  Mn3.30+  Mn126  1  -0.00229911  0.16770343  0.00373415  1
  Mn3.30+  Mn127  1  0.00142502  0.16480863  0.49647318  1
  Mn3.30+  Mn128  1  0.00067879  0.49736788  0.00073470  1
  Mn3.30+  Mn129  1  0.00054812  0.50171130  0.49888578  1
  Mn3.30+  Mn130  1  -0.00190745  0.83345740  0.00209875  1
  Mn3.30+  Mn131  1  0.00143890  0.83341313  0.49556683  1
  Mn3.30+  Mn132  1  0.33382213  0.16566228  0.00174959  1
  Mn3.30+  Mn133  1  0.33165467  0.16677311  0.49778979  1
  Mn3.30+  Mn134  1  0.33234504  0.49860152  -0.00061536  1
  Mn3.30+  Mn135  1  0.33291485  0.50128946  0.50019881  1
  Mn3.30+  Mn136  1  0.33383093  0.83516403  0.00126640  1
  Mn3.30+  Mn137  1  0.33161379  0.83421092  0.49673343  1
  Mn3.30+  Mn138  1  0.66681574  0.16388677  0.00164206  1
  Mn3.30+  Mn139  1  0.66815996  0.16449730  0.49870691  1
  Mn3.30+  Mn140  1  0.66820847  0.50165579  0.00048598  1
  Mn3.30+  Mn141  1  0.66751075  0.50179958  0.49893196  1
  Mn3.30+  Mn142  1  0.66552524  0.83431016  0.00126940  1
  Mn3.30+  Mn143  1  0.66802883  0.83269490  0.49661679  1
  O2-  O144  1  0.02099854  0.16447890  0.12563752  1
  O2-  O145  1  0.01750818  0.16062196  0.62199726  1
  O2-  O146  1  0.02422885  0.49461936  0.12461734  1
  O2-  O147  1  0.02585941  0.49630677  0.62606593  1
  O2-  O148  1  0.02537914  0.82585933  0.12623296  1
  O2-  O149  1  0.02410100  0.82724953  0.62371282  1
  O2-  O150  1  0.34927238  0.16316329  0.12581722  1
  O2-  O151  1  0.35928263  0.16252161  0.62326941  1
  O2-  O152  1  0.35916344  0.49843514  0.12473207  1
  O2-  O153  1  0.35855920  0.49493188  0.62786117  1
  O2-  O154  1  0.35952207  0.82431458  0.12456696  1
  O2-  O155  1  0.35832486  0.82870225  0.62416402  1
  O2-  O156  1  0.69535034  0.16278617  0.12613967  1
  O2-  O157  1  0.69454148  0.15851169  0.62346749  1
  O2-  O158  1  0.69214046  0.48990895  0.12676672  1
  O2-  O159  1  0.69274621  0.49400096  0.62365276  1
  O2-  O160  1  0.69047892  0.82148463  0.12529796  1
  O2-  O161  1  0.69226952  0.82682421  0.62306805  1
  O2-  O162  1  0.14192066  0.33389362  0.12606136  1
  O2-  O163  1  0.14286543  0.32994811  0.62417362  1
  O2-  O164  1  0.14009213  0.65751996  0.12453868  1
  O2-  O165  1  0.13998137  0.66186174  0.62580255  1
  O2-  O166  1  0.14637554  0.99570614  0.12629349  1
  O2-  O167  1  0.14036695  0.99422389  0.62192545  1
  O2-  O168  1  0.48360778  0.33461882  0.12536569  1
  O2-  O169  1  0.47300998  0.32735753  0.62594909  1
  O2-  O170  1  0.47478357  0.66196497  0.12496928  1
  O2-  O171  1  0.47403826  0.66236455  0.62732345  1
  O2-  O172  1  0.47213932  0.99499104  0.12633116  1
  O2-  O173  1  0.47549530  0.99551988  0.62363185  1
  O2-  O174  1  0.80671861  0.32778779  0.12604481  1
  O2-  O175  1  0.80876481  0.32723920  0.62370158  1
  O2-  O176  1  0.80515702  0.66000294  0.12597468  1
  O2-  O177  1  0.81007433  0.66490398  0.62321927  1
  O2-  O178  1  0.80492525  0.99350825  0.12515922  1
  O2-  O179  1  0.80937890  0.99591395  0.62318810  1
  O2-  O180  1  0.30630024  0.17302728  0.37658184  1
  O2-  O181  1  0.30993047  0.16710756  0.87476580  1
  O2-  O182  1  0.30800184  0.50889189  0.37365453  1
  O2-  O183  1  0.30507386  0.50710178  0.87459426  1
  O2-  O184  1  0.30322686  0.83932882  0.37503780  1
  O2-  O185  1  0.30637269  0.84337115  0.87683442  1
  O2-  O186  1  0.64322291  0.17369730  0.37575085  1
  O2-  O187  1  0.64000792  0.17366246  0.87402420  1
  O2-  O188  1  0.64244951  0.50666556  0.37572762  1
  O2-  O189  1  0.64376092  0.50641604  0.87392038  1
  O2-  O190  1  0.64951388  0.84216008  0.37416261  1
  O2-  O191  1  0.64161527  0.84651287  0.87731907  1
  O2-  O192  1  0.97241983  0.17339194  0.37379835  1
  O2-  O193  1  0.97421199  0.17228545  0.87748271  1
  O2-  O194  1  0.97613266  0.50612723  0.37370009  1
  O2-  O195  1  0.97921217  0.50248523  0.87557516  1
  O2-  O196  1  0.97395799  0.84029055  0.37325149  1
  O2-  O197  1  0.97416122  0.83947544  0.87671522  1
  O2-  O198  1  0.19008280  0.00479491  0.37558403  1
  O2-  O199  1  0.19137208  0.00206941  0.87669254  1
  O2-  O200  1  0.19012278  0.34238395  0.37600326  1
  O2-  O201  1  0.19063813  0.33857022  0.87369349  1
  O2-  O202  1  0.19211075  0.67088113  0.37374389  1
  O2-  O203  1  0.19258723  0.67653634  0.87643607  1
  O2-  O204  1  0.52677328  0.00635486  0.37434893  1
  O2-  O205  1  0.52615484  0.00557842  0.87499192  1
  O2-  O206  1  0.52625185  0.34082611  0.37548702  1
  O2-  O207  1  0.52742352  0.34119648  0.87427136  1
  O2-  O208  1  0.52611174  0.66444812  0.37362782  1
  O2-  O209  1  0.52870737  0.67391971  0.87425471  1
  O2-  O210  1  0.86187467  0.00221042  0.37307620  1
  O2-  O211  1  0.85887662  0.00369296  0.87707513  1
  O2-  O212  1  0.85957379  0.34034772  0.37521142  1
  O2-  O213  1  0.85664957  0.33307925  0.87524985  1
  O2-  O214  1  0.86190491  0.67207009  0.37371839  1
  O2-  O215  1  0.85870453  0.67333887  0.87705561  1
  O2-  O216  1  0.23948167  0.09278539  0.01245767  1
  O2-  O217  1  0.24313772  0.09006970  0.51886655  1
  O2-  O218  1  0.23731822  0.42722871  0.01760659  1
  O2-  O219  1  0.23924286  0.43030464  0.52041409  1
  O2-  O220  1  0.23659276  0.76119548  0.02164521  1
  O2-  O221  1  0.23853292  0.76019643  0.52221337  1
  O2-  O222  1  0.57524910  0.09333823  0.01981320  1
  O2-  O223  1  0.57279814  0.09562803  0.52053388  1
  O2-  O224  1  0.57362021  0.43064615  0.01754854  1
  O2-  O225  1  0.57070600  0.42759368  0.52142503  1
  O2-  O226  1  0.56780416  0.76581438  0.01701028  1
  O2-  O227  1  0.57264326  0.75932355  0.52206793  1
  O2-  O228  1  0.90060491  0.09812146  0.01691862  1
  O2-  O229  1  0.90235749  0.09534093  0.51764498  1
  O2-  O230  1  0.90454419  0.42672784  0.02018782  1
  O2-  O231  1  0.90661836  0.42985669  0.52101558  1
  O2-  O232  1  0.90232400  0.75866526  0.02250455  1
  O2-  O233  1  0.90419503  0.76284195  0.51902897  1
  O2-  O234  1  0.26087876  0.26334757  0.23769302  1
  O2-  O235  1  0.26509086  0.26384341  0.73488913  1
  O2-  O236  1  0.26117872  0.59408112  0.22902898  1
  O2-  O237  1  0.26194902  0.59617033  0.72875891  1
  O2-  O238  1  0.26311250  0.92755057  0.22927301  1
  O2-  O239  1  0.26127638  0.92669218  0.72710198  1
  O2-  O240  1  0.59863935  0.26141757  0.23563732  1
  O2-  O241  1  0.59666907  0.25971662  0.72648064  1
  O2-  O242  1  0.59470789  0.59297368  0.22589046  1
  O2-  O243  1  0.59361421  0.59267836  0.72652710  1
  O2-  O244  1  0.59413667  0.92643270  0.22724320  1
  O2-  O245  1  0.59348425  0.92661320  0.72561818  1
  O2-  O246  1  0.93151218  0.26572794  0.23250340  1
  O2-  O247  1  0.92772473  0.26190686  0.72931837  1
  O2-  O248  1  0.92481324  0.59316626  0.22673119  1
  O2-  O249  1  0.93049581  0.59546002  0.73157278  1
  O2-  O250  1  0.92358913  0.92449680  0.22899863  1
  O2-  O251  1  0.92926706  0.92872180  0.72982976  1
  O2-  O252  1  0.09379827  0.23779298  0.27347557  1
  O2-  O253  1  0.09511205  0.24047072  0.77224914  1
  O2-  O254  1  0.09648350  0.57136531  0.26763132  1
  O2-  O255  1  0.09708677  0.56978932  0.77235368  1
  O2-  O256  1  0.09765532  0.90157910  0.26713609  1
  O2-  O257  1  0.09367723  0.90401468  0.77018544  1
  O2-  O258  1  0.42564933  0.24200016  0.27227592  1
  O2-  O259  1  0.43048210  0.23697679  0.77276004  1
  O2-  O260  1  0.42791860  0.57426353  0.26926290  1
  O2-  O261  1  0.42862479  0.57403557  0.77274617  1
  O2-  O262  1  0.42568383  0.90863956  0.26982142  1
  O2-  O263  1  0.42951114  0.90774097  0.77069405  1
  O2-  O264  1  0.76232244  0.24010392  0.27307650  1
  O2-  O265  1  0.75999601  0.23505260  0.76887066  1
  O2-  O266  1  0.76289591  0.57044742  0.27036756  1
  O2-  O267  1  0.76256774  0.57417439  0.76211367  1
  O2-  O268  1  0.76346900  0.90327559  0.26533297  1
  O2-  O269  1  0.76531092  0.90309215  0.76577149  1
  O2-  O270  1  0.06716131  0.06620218  0.48102096  1
  O2-  O271  1  0.07254505  0.07444699  0.97817464  1
  O2-  O272  1  0.07105463  0.40435242  0.48105858  1
  O2-  O273  1  0.07226619  0.40458106  0.98077419  1
  O2-  O274  1  0.06688206  0.73458728  0.48076966  1
  O2-  O275  1  0.07154818  0.73684072  0.98011457  1
  O2-  O276  1  0.40593886  0.07500820  0.47732919  1
  O2-  O277  1  0.40850252  0.07312907  0.98190890  1
  O2-  O278  1  0.40441464  0.40732674  0.47936297  1
  O2-  O279  1  0.40771645  0.40840036  0.97589702  1
  O2-  O280  1  0.40216404  0.73819668  0.48219979  1
  O2-  O281  1  0.40332981  0.74027637  0.97769813  1
  O2-  O282  1  0.73809975  0.06660675  0.47646910  1
  O2-  O283  1  0.73872369  0.07237151  0.97539726  1
  O2-  O284  1  0.73900225  0.40520341  0.47943789  1
  O2-  O285  1  0.73666794  0.40242291  0.98350131  1
  O2-  O286  1  0.73769936  0.73617043  0.47753346  1
  O2-  O287  1  0.73638607  0.74098150  0.97568412  1
  O2-  O288  1  0.09328526  0.23574489  0.47625053  1
  O2-  O289  1  0.09296459  0.24065487  0.97681766  1
  O2-  O290  1  0.09735079  0.56950940  0.48276101  1
  O2-  O291  1  0.09633418  0.57136015  0.97898301  1
  O2-  O292  1  0.09758940  0.89861039  0.48108092  1
  O2-  O293  1  0.09588156  0.90701482  0.98186526  1
  O2-  O294  1  0.42955030  0.23967090  0.47822082  1
  O2-  O295  1  0.42568763  0.24069782  0.97891463  1
  O2-  O296  1  0.42787002  0.57286052  0.48143054  1
  O2-  O297  1  0.42896453  0.57434512  0.97841317  1
  O2-  O298  1  0.42271794  0.90872097  0.48095691  1
  O2-  O299  1  0.43031009  0.90710989  0.97871705  1
  O2-  O300  1  0.76180529  0.23657768  0.47945217  1
  O2-  O301  1  0.76025532  0.23833373  0.97865444  1
  O2-  O302  1  0.76577156  0.57144726  0.48229113  1
  O2-  O303  1  0.76120062  0.57156385  0.98485513  1
  O2-  O304  1  0.76671186  0.90161357  0.48424374  1
  O2-  O305  1  0.76206652  0.90332936  0.98409027  1
  O2-  O306  1  0.06952560  0.07073731  0.27086761  1
  O2-  O307  1  0.07211723  0.07195351  0.77036020  1
  O2-  O308  1  0.07352362  0.40621790  0.27140283  1
  O2-  O309  1  0.07018025  0.40251453  0.76668165  1
  O2-  O310  1  0.06844802  0.73507418  0.26799962  1
  O2-  O311  1  0.06998358  0.73760516  0.77182872  1
  O2-  O312  1  0.40784488  0.07582701  0.27291339  1
  O2-  O313  1  0.40643671  0.07002121  0.76713640  1
  O2-  O314  1  0.40699218  0.41036054  0.27394984  1
  O2-  O315  1  0.40479007  0.40625775  0.77252790  1
  O2-  O316  1  0.40223840  0.73837583  0.26832209  1
  O2-  O317  1  0.40352115  0.74133032  0.77237755  1
  O2-  O318  1  0.73874811  0.07067586  0.27385106  1
  O2-  O319  1  0.73540329  0.06945797  0.77188686  1
  O2-  O320  1  0.73926877  0.40534193  0.27179556  1
  O2-  O321  1  0.73625410  0.40250522  0.76614141  1
  O2-  O322  1  0.74007921  0.73843111  0.27362991  1
  O2-  O323  1  0.73508705  0.73977117  0.77242094  1
  O2-  O324  1  0.24096047  0.09119145  0.23803344  1
  O2-  O325  1  0.24277733  0.09267891  0.73237398  1
  O2-  O326  1  0.23746254  0.42996098  0.23429787  1
  O2-  O327  1  0.23819955  0.42624990  0.72762370  1
  O2-  O328  1  0.23784572  0.75873039  0.22707859  1
  O2-  O329  1  0.23700811  0.76170338  0.72996585  1
  O2-  O330  1  0.57315665  0.09511600  0.23430883  1
  O2-  O331  1  0.57380663  0.09297067  0.72408980  1
  O2-  O332  1  0.57354536  0.42969220  0.23216010  1
  O2-  O333  1  0.57099268  0.42746527  0.72890615  1
  O2-  O334  1  0.57104243  0.76142970  0.23049617  1
  O2-  O335  1  0.57060559  0.76275352  0.72899899  1
  O2-  O336  1  0.89940622  0.09945485  0.23218723  1
  O2-  O337  1  0.90247782  0.09364319  0.73185884  1
  O2-  O338  1  0.90206024  0.42886992  0.23206651  1
  O2-  O339  1  0.90843934  0.42863197  0.72694953  1
  O2-  O340  1  0.90377303  0.76000742  0.22792124  1
  O2-  O341  1  0.90424343  0.76209438  0.73036979  1
  O2-  O342  1  0.25944424  0.26067093  0.00980717  1
  O2-  O343  1  0.26556726  0.26467288  0.51716366  1
  O2-  O344  1  0.26184689  0.59549949  0.02042539  1
  O2-  O345  1  0.26165046  0.59581320  0.52139482  1
  O2-  O346  1  0.26430272  0.92740182  0.02361451  1
  O2-  O347  1  0.26033367  0.92720776  0.52161839  1
  O2-  O348  1  0.59859568  0.26220330  0.01645387  1
  O2-  O349  1  0.59530167  0.26143358  0.52101838  1
  O2-  O350  1  0.59494853  0.59356996  0.02289131  1
  O2-  O351  1  0.59389989  0.59282795  0.52444341  1
  O2-  O352  1  0.59448416  0.92793992  0.02659031  1
  O2-  O353  1  0.59385075  0.92433954  0.52129986  1
  O2-  O354  1  0.92966231  0.26448256  0.01906361  1
  O2-  O355  1  0.92861448  0.26219799  0.51915841  1
  O2-  O356  1  0.92906554  0.59343263  0.01943560  1
  O2-  O357  1  0.92711816  0.59523245  0.52211995  1
  O2-  O358  1  0.92355838  0.92753048  0.01821775  1
  O2-  O359  1  0.92863589  0.92728109  0.52170546  1
