# generated using pymatgen
data_Sr7Ca15Pr50Mn72O216
_symmetry_space_group_name_H-M   'P 1'
_cell_length_a   16.55735515
_cell_length_b   16.60594426
_cell_length_c   15.59363499
_cell_angle_alpha   89.99881430
_cell_angle_beta   89.99369469
_cell_angle_gamma   89.99204293
_symmetry_Int_Tables_number   1
_chemical_formula_structural   Sr7Ca15Pr50Mn72O216
_chemical_formula_sum   'Sr7 Ca15 Pr50 Mn72 O216'
_cell_volume   4287.47792937
_cell_formula_units_Z   1
loop_
 _symmetry_equiv_pos_site_id
 _symmetry_equiv_pos_as_xyz
  1  'x, y, z'
loop_
 _atom_type_symbol
 _atom_type_oxidation_number
  Sr2+  2.0
  Ca2+  2.0
  Pr3+  3.0
  Mn3.30+  3.3
  O2-  -2.0
loop_
 _atom_site_type_symbol
 _atom_site_label
 _atom_site_symmetry_multiplicity
 _atom_site_fract_x
 _atom_site_fract_y
 _atom_site_fract_z
 _atom_site_occupancy
  Sr2+  Sr0  1  0.33455290  0.67710092  0.12560380  1
  Sr2+  Sr1  1  0.50132456  0.51165536  0.62460122  1
  Sr2+  Sr2  1  0.49901744  0.15769049  0.37306348  1
  Sr2+  Sr3  1  0.83215063  0.48850823  0.37648666  1
  Sr2+  Sr4  1  -0.00162587  0.01078512  0.12396986  1
  Sr2+  Sr5  1  0.83154861  0.82315735  0.87634868  1
  Sr2+  Sr6  1  0.66487841  0.34236553  0.12481046  1
  Ca2+  Ca7  1  0.82704216  0.48409860  0.87357870  1
  Ca2+  Ca8  1  0.16557616  0.15314541  0.37465178  1
  Ca2+  Ca9  1  0.33288256  0.35011170  0.62500399  1
  Ca2+  Ca10  1  0.67032383  0.32177067  0.87284871  1
  Ca2+  Ca11  1  0.16491306  0.48699663  0.87407271  1
  Ca2+  Ca12  1  0.49600099  0.81841988  0.87590152  1
  Ca2+  Ca13  1  0.50276509  0.85107102  0.12271507  1
  Ca2+  Ca14  1  0.34186235  0.64894007  0.37662158  1
  Ca2+  Ca15  1  0.66118099  0.35014602  0.62498325  1
  Ca2+  Ca16  1  0.34094449  0.98159349  0.87823593  1
  Ca2+  Ca17  1  0.66167560  0.67952749  0.62602677  1
  Ca2+  Ca18  1  0.33164092  0.01356588  0.12491054  1
  Ca2+  Ca19  1  0.49673769  0.48667480  0.37632987  1
  Ca2+  Ca20  1  0.66191779  0.01383346  0.12291252  1
  Ca2+  Ca21  1  0.33289764  0.68039257  0.62517788  1
  Pr3+  Pr22  1  0.17346642  0.18380652  0.62386155  1
  Pr3+  Pr23  1  0.66689285  0.65136899  0.37758637  1
  Pr3+  Pr24  1  -0.00491306  0.34390645  0.12397841  1
  Pr3+  Pr25  1  0.33762475  0.98992459  0.37244974  1
  Pr3+  Pr26  1  0.17362155  0.85008296  0.12418451  1
  Pr3+  Pr27  1  0.17533169  0.51527380  0.62639940  1
  Pr3+  Pr28  1  0.50345046  0.18263376  0.62386020  1
  Pr3+  Pr29  1  0.82854969  0.15572085  0.87536836  1
  Pr3+  Pr30  1  0.83231886  0.84251567  0.62631734  1
  Pr3+  Pr31  1  0.17080430  0.51224576  0.12304297  1
  Pr3+  Pr32  1  1.00432025  0.31807759  0.37635419  1
  Pr3+  Pr33  1  -0.00258600  0.34795968  0.62619779  1
  Pr3+  Pr34  1  1.00285954  0.65186875  0.87544623  1
  Pr3+  Pr35  1  0.83478526  0.17909243  0.12382704  1
  Pr3+  Pr36  1  0.66732404  0.98477818  0.87703373  1
  Pr3+  Pr37  1  0.50425075  0.51134622  0.12630664  1
  Pr3+  Pr38  1  0.50017653  0.48769864  0.87402452  1
  Pr3+  Pr39  1  0.65976345  0.67987073  0.12522437  1
  Pr3+  Pr40  1  0.49425248  0.81892973  0.37402307  1
  Pr3+  Pr41  1  -0.00233357  0.01141907  0.62603701  1
  Pr3+  Pr42  1  0.66633138  0.98843673  0.37229925  1
  Pr3+  Pr43  1  0.83415403  0.84745216  0.12369820  1
  Pr3+  Pr44  1  0.16596077  0.82113810  0.87679568  1
  Pr3+  Pr45  1  0.17302611  0.84472143  0.62515536  1
  Pr3+  Pr46  1  0.16572401  0.15303474  0.87396336  1
  Pr3+  Pr47  1  1.00448958  0.98867688  0.37356624  1
  Pr3+  Pr48  1  0.66145094  0.01064201  0.62676067  1
  Pr3+  Pr49  1  0.82892924  0.15580395  0.37478928  1
  Pr3+  Pr50  1  0.83370951  0.18148185  0.62615397  1
  Pr3+  Pr51  1  0.66495022  0.32436717  0.37739275  1
  Pr3+  Pr52  1  -0.00252376  0.67836140  0.12618490  1
  Pr3+  Pr53  1  0.83202585  0.51303903  0.62550025  1
  Pr3+  Pr54  1  0.49990912  0.84113192  0.62725099  1
  Pr3+  Pr55  1  0.33164243  0.01140250  0.62595608  1
  Pr3+  Pr56  1  0.33769373  0.65490631  0.87448058  1
  Pr3+  Pr57  1  0.33926560  0.32082772  0.37732374  1
  Pr3+  Pr58  1  0.49711529  0.15362048  0.87686528  1
  Pr3+  Pr59  1  0.33575511  0.32328740  0.87271965  1
  Pr3+  Pr60  1  1.00168283  0.32198214  0.87379098  1
  Pr3+  Pr61  1  0.16770246  0.82018292  0.37294537  1
  Pr3+  Pr62  1  0.50185377  0.17655934  0.12603572  1
  Pr3+  Pr63  1  0.16948030  0.17734336  0.12534193  1
  Pr3+  Pr64  1  0.16709709  0.48865010  0.37416846  1
  Pr3+  Pr65  1  1.00182915  0.98577783  0.87690588  1
  Pr3+  Pr66  1  0.83396455  0.51024113  0.12422931  1
  Pr3+  Pr67  1  0.67034391  0.65434751  0.87265267  1
  Pr3+  Pr68  1  0.82909999  0.82077013  0.37346737  1
  Pr3+  Pr69  1  -0.00127061  0.67813342  0.62420042  1
  Pr3+  Pr70  1  0.33283125  0.34415107  0.12481389  1
  Pr3+  Pr71  1  1.00254465  0.65247852  0.37500240  1
  Mn3.30+  Mn72  1  0.17130122  0.00060541  -0.00080359  1
  Mn3.30+  Mn73  1  0.16762791  0.00120039  0.49944216  1
  Mn3.30+  Mn74  1  0.16608666  0.33359619  -0.00132373  1
  Mn3.30+  Mn75  1  0.16964939  0.33431725  0.50006658  1
  Mn3.30+  Mn76  1  0.16813448  0.66593716  0.00021280  1
  Mn3.30+  Mn77  1  0.17170136  0.66654272  0.49803080  1
  Mn3.30+  Mn78  1  0.49834729  -0.00224660  0.00134721  1
  Mn3.30+  Mn79  1  0.49902431  -0.00009071  0.49946909  1
  Mn3.30+  Mn80  1  0.50254182  0.33299054  -0.00198537  1
  Mn3.30+  Mn81  1  0.49937997  0.33638211  0.50272770  1
  Mn3.30+  Mn82  1  0.50053087  0.66944155  -0.00016919  1
  Mn3.30+  Mn83  1  0.49848821  0.66499146  0.50171987  1
  Mn3.30+  Mn84  1  0.83081588  0.00038804  0.00075456  1
  Mn3.30+  Mn85  1  0.83276749  -0.00017807  0.50040470  1
  Mn3.30+  Mn86  1  0.83080373  0.33501892  -0.00239084  1
  Mn3.30+  Mn87  1  0.83155677  0.33438412  0.50192912  1
  Mn3.30+  Mn88  1  0.83168914  0.66535650  -0.00064486  1
  Mn3.30+  Mn89  1  0.83100438  0.66628924  0.50137900  1
  Mn3.30+  Mn90  1  0.00117448  0.16577814  0.25058831  1
  Mn3.30+  Mn91  1  0.00055856  0.16671216  0.74926873  1
  Mn3.30+  Mn92  1  0.00053991  0.49853597  0.25005189  1
  Mn3.30+  Mn93  1  0.00020135  0.50028244  0.75137694  1
  Mn3.30+  Mn94  1  0.00000626  0.83356314  0.24960257  1
  Mn3.30+  Mn95  1  0.00104885  0.83156997  0.75032680  1
  Mn3.30+  Mn96  1  0.33252923  0.16571787  0.25005470  1
  Mn3.30+  Mn97  1  0.33461217  0.16693050  0.75005879  1
  Mn3.30+  Mn98  1  0.33520513  0.50081437  0.25093384  1
  Mn3.30+  Mn99  1  0.33391984  0.50078653  0.74971525  1
  Mn3.30+  Mn100  1  0.33550970  0.83350049  0.24660151  1
  Mn3.30+  Mn101  1  0.33490715  0.83271228  0.75254944  1
  Mn3.30+  Mn102  1  0.66568498  0.16580316  0.24933657  1
  Mn3.30+  Mn103  1  0.66495672  0.16920955  0.75055390  1
  Mn3.30+  Mn104  1  0.66588455  0.49895377  0.25174892  1
  Mn3.30+  Mn105  1  0.66695337  0.49937606  0.74932888  1
  Mn3.30+  Mn106  1  0.66254736  0.83454500  0.24818414  1
  Mn3.30+  Mn107  1  0.66461613  0.83124018  0.75123347  1
  Mn3.30+  Mn108  1  0.16920950  0.00241326  0.24930273  1
  Mn3.30+  Mn109  1  0.16886362  -0.00073927  0.75174849  1
  Mn3.30+  Mn110  1  0.16700602  0.33186694  0.24998680  1
  Mn3.30+  Mn111  1  0.16847107  0.33585173  0.75022151  1
  Mn3.30+  Mn112  1  0.17030040  0.66657756  0.25050137  1
  Mn3.30+  Mn113  1  0.16899655  0.66628603  0.75052838  1
  Mn3.30+  Mn114  1  0.49990766  -0.00052177  0.24645128  1
  Mn3.30+  Mn115  1  0.49715781  -0.00148942  0.75246468  1
  Mn3.30+  Mn116  1  0.49953475  0.33441799  0.25055106  1
  Mn3.30+  Mn117  1  0.50267032  0.33419169  0.74961106  1
  Mn3.30+  Mn118  1  0.49772734  0.66668296  0.25068666  1
  Mn3.30+  Mn119  1  0.50121992  0.66702698  0.74909143  1
  Mn3.30+  Mn120  1  0.83256403  0.00078372  0.24884801  1
  Mn3.30+  Mn121  1  0.83108223  -0.00068337  0.75009721  1
  Mn3.30+  Mn122  1  0.83264124  0.33380615  0.25141102  1
  Mn3.30+  Mn123  1  0.82954544  0.33582175  0.74941017  1
  Mn3.30+  Mn124  1  0.83049047  0.66548758  0.24962160  1
  Mn3.30+  Mn125  1  0.83254453  0.66598860  0.75046180  1
  Mn3.30+  Mn126  1  0.00010861  0.16624663  -0.00096516  1
  Mn3.30+  Mn127  1  0.00177735  0.16609961  0.50109889  1
  Mn3.30+  Mn128  1  -0.00023160  0.49903076  -0.00252389  1
  Mn3.30+  Mn129  1  0.00195501  0.49946000  0.50068389  1
  Mn3.30+  Mn130  1  0.00012022  0.83213886  0.00082120  1
  Mn3.30+  Mn131  1  0.00076105  0.83287817  0.49947848  1
  Mn3.30+  Mn132  1  0.33350338  0.16447873  -0.00114492  1
  Mn3.30+  Mn133  1  0.33368047  0.16780514  0.50013445  1
  Mn3.30+  Mn134  1  0.33317348  0.49997412  -0.00185020  1
  Mn3.30+  Mn135  1  0.33582832  0.50222796  0.50105292  1
  Mn3.30+  Mn136  1  0.33739256  0.83482261  0.00170086  1
  Mn3.30+  Mn137  1  0.33391975  0.83096113  0.49893331  1
  Mn3.30+  Mn138  1  0.66493431  0.16712115  -0.00057316  1
  Mn3.30+  Mn139  1  0.66595304  0.16748532  0.50110027  1
  Mn3.30+  Mn140  1  0.66849666  0.49877863  -0.00134822  1
  Mn3.30+  Mn141  1  0.66402947  0.49987049  0.50134258  1
  Mn3.30+  Mn142  1  0.66290492  0.83357006  0.00076035  1
  Mn3.30+  Mn143  1  0.66421456  0.83240999  0.49964554  1
  O2-  O144  1  0.02475512  0.16823995  0.12423522  1
  O2-  O145  1  0.02845219  0.15977812  0.62668219  1
  O2-  O146  1  0.02654733  0.49245675  0.12363768  1
  O2-  O147  1  0.02919730  0.49654363  0.62432477  1
  O2-  O148  1  0.02664081  0.82708542  0.12578673  1
  O2-  O149  1  0.02822895  0.82741413  0.62478017  1
  O2-  O150  1  0.35676957  0.16245746  0.12224573  1
  O2-  O151  1  0.35950435  0.15733714  0.62767127  1
  O2-  O152  1  0.35907138  0.49275867  0.12331990  1
  O2-  O153  1  0.35184854  0.49350476  0.62598553  1
  O2-  O154  1  0.36137513  0.82835736  0.12494093  1
  O2-  O155  1  0.35503294  0.82798206  0.62600966  1
  O2-  O156  1  0.69105158  0.16008425  0.12339047  1
  O2-  O157  1  0.69121622  0.15636701  0.62521441  1
  O2-  O158  1  0.68995197  0.49879434  0.12407609  1
  O2-  O159  1  0.69060719  0.49254463  0.62614293  1
  O2-  O160  1  0.69241301  0.82533705  0.12592378  1
  O2-  O161  1  0.68896982  0.82906608  0.62381342  1
  O2-  O162  1  0.13880613  0.32595396  0.12212002  1
  O2-  O163  1  0.14110710  0.33015556  0.62416022  1
  O2-  O164  1  0.14153268  0.66069803  0.12614730  1
  O2-  O165  1  0.14242237  0.66358137  0.62479968  1
  O2-  O166  1  0.14704444  0.99873253  0.12415758  1
  O2-  O167  1  0.14164568  0.99221707  0.62647273  1
  O2-  O168  1  0.47707304  0.32948550  0.12215698  1
  O2-  O169  1  0.47389218  0.32877036  0.62679189  1
  O2-  O170  1  0.48265628  0.65600878  0.12583047  1
  O2-  O171  1  0.47359896  0.66912806  0.62407553  1
  O2-  O172  1  0.47230189  0.99708120  0.12314091  1
  O2-  O173  1  0.47510825  0.99205058  0.62786368  1
  O2-  O174  1  0.81541392  0.32813294  0.12359127  1
  O2-  O175  1  0.80446452  0.32755568  0.62555056  1
  O2-  O176  1  0.80526314  0.65731415  0.12460966  1
  O2-  O177  1  0.80649529  0.66184532  0.62487123  1
  O2-  O178  1  0.80616387  0.99662111  0.12361968  1
  O2-  O179  1  0.80613469  0.99183836  0.62422439  1
  O2-  O180  1  0.30768386  0.17315277  0.37576414  1
  O2-  O181  1  0.30791730  0.17716451  0.87341182  1
  O2-  O182  1  0.30922621  0.50459394  0.37481416  1
  O2-  O183  1  0.30770914  0.50566732  0.87493624  1
  O2-  O184  1  0.30967947  0.84424429  0.37236642  1
  O2-  O185  1  0.30831042  0.83813340  0.87689788  1
  O2-  O186  1  0.64896879  0.17377481  0.37779928  1
  O2-  O187  1  0.64107624  0.17548827  0.87425719  1
  O2-  O188  1  0.64050451  0.50423718  0.37716056  1
  O2-  O189  1  0.64290310  0.50870544  0.87357679  1
  O2-  O190  1  0.63916145  0.84139170  0.37299801  1
  O2-  O191  1  0.63903387  0.83741127  0.87679661  1
  O2-  O192  1  0.97356062  0.17025762  0.37746490  1
  O2-  O193  1  0.97417591  0.17237404  0.87186258  1
  O2-  O194  1  0.98192748  0.50477992  0.37661698  1
  O2-  O195  1  0.97030593  0.50549860  0.87533979  1
  O2-  O196  1  0.97423633  0.83901049  0.37453193  1
  O2-  O197  1  0.98261768  0.83698903  0.87544304  1
  O2-  O198  1  0.19295545  0.00691723  0.37434396  1
  O2-  O199  1  0.19701936  0.00549359  0.87453296  1
  O2-  O200  1  0.19516150  0.34157802  0.37640822  1
  O2-  O201  1  0.19176759  0.33938359  0.87619848  1
  O2-  O202  1  0.19713983  0.67172028  0.37300217  1
  O2-  O203  1  0.19285152  0.67449779  0.87530771  1
  O2-  O204  1  0.52282422  0.00123805  0.37259198  1
  O2-  O205  1  0.52564598  0.00730161  0.87542381  1
  O2-  O206  1  0.52008066  0.33773333  0.37716406  1
  O2-  O207  1  0.52749887  0.33710314  0.87502325  1
  O2-  O208  1  0.52494390  0.67364059  0.37470646  1
  O2-  O209  1  0.52607515  0.67273625  0.87554983  1
  O2-  O210  1  0.86016803  0.00646545  0.37713373  1
  O2-  O211  1  0.85718928  0.00611989  0.87501147  1
  O2-  O212  1  0.85963048  0.33177726  0.37866096  1
  O2-  O213  1  0.85860500  0.33676745  0.87304383  1
  O2-  O214  1  0.85822461  0.67298046  0.37568312  1
  O2-  O215  1  0.85918057  0.67143540  0.87521161  1
  O2-  O216  1  0.23564932  0.09862772  0.01573886  1
  O2-  O217  1  0.23925046  0.09475604  0.52276541  1
  O2-  O218  1  0.23887811  0.42382740  0.02255155  1
  O2-  O219  1  0.23524999  0.43349751  0.51572531  1
  O2-  O220  1  0.23759567  0.76612744  0.01748595  1
  O2-  O221  1  0.23514888  0.76518772  0.51534606  1
  O2-  O222  1  0.56784460  0.09458716  0.01712570  1
  O2-  O223  1  0.57324627  0.09336968  0.52197178  1
  O2-  O224  1  0.57051003  0.43186023  0.01552815  1
  O2-  O225  1  0.57305487  0.42681843  0.51684297  1
  O2-  O226  1  0.57093087  0.76225605  0.02481653  1
  O2-  O227  1  0.56689322  0.76318258  0.51583801  1
  O2-  O228  1  0.90332072  0.09673993  0.01667087  1
  O2-  O229  1  0.90337645  0.09324275  0.52380688  1
  O2-  O230  1  0.90611302  0.42699901  0.02121875  1
  O2-  O231  1  0.90477179  0.42419463  0.52493121  1
  O2-  O232  1  0.90376358  0.75602565  0.02511931  1
  O2-  O233  1  0.90458679  0.75977239  0.52115596  1
  O2-  O234  1  0.25895066  0.26105289  0.22657114  1
  O2-  O235  1  0.26446127  0.26238586  0.72844785  1
  O2-  O236  1  0.25819023  0.58872412  0.22927535  1
  O2-  O237  1  0.26244365  0.59886368  0.72890135  1
  O2-  O238  1  0.26344722  0.92979928  0.22854575  1
  O2-  O239  1  0.26105211  0.92697630  0.72838476  1
  O2-  O240  1  0.59039371  0.25745773  0.23479191  1
  O2-  O241  1  0.59498526  0.26097365  0.72453165  1
  O2-  O242  1  0.59574402  0.59563672  0.23338755  1
  O2-  O243  1  0.59915197  0.59767354  0.73283815  1
  O2-  O244  1  0.59749216  0.93128923  0.22850443  1
  O2-  O245  1  0.59289752  0.92790055  0.73072672  1
  O2-  O246  1  0.92930605  0.26022529  0.23252518  1
  O2-  O247  1  0.92654605  0.26281802  0.72787674  1
  O2-  O248  1  0.92797093  0.59243165  0.22987593  1
  O2-  O249  1  0.93040407  0.59461164  0.72780331  1
  O2-  O250  1  0.92325225  0.92588562  0.23141394  1
  O2-  O251  1  0.92844154  0.92471962  0.73034995  1
  O2-  O252  1  0.09533796  0.23809319  0.27390274  1
  O2-  O253  1  0.09657216  0.23992148  0.76944964  1
  O2-  O254  1  0.09409195  0.57261487  0.26918549  1
  O2-  O255  1  0.09708999  0.57250383  0.77236253  1
  O2-  O256  1  0.09752776  0.90880708  0.27009784  1
  O2-  O257  1  0.09643026  0.90649409  0.77158483  1
  O2-  O258  1  0.42179925  0.24121587  0.26484100  1
  O2-  O259  1  0.43092489  0.23827306  0.77060775  1
  O2-  O260  1  0.43077865  0.56885125  0.26813519  1
  O2-  O261  1  0.42897211  0.57472477  0.77286171  1
  O2-  O262  1  0.42821146  0.90642306  0.27043301  1
  O2-  O263  1  0.42949789  0.90170404  0.76946623  1
  O2-  O264  1  0.76157952  0.23993755  0.26778689  1
  O2-  O265  1  0.76424895  0.23707279  0.76742523  1
  O2-  O266  1  0.75891137  0.57335915  0.26965464  1
  O2-  O267  1  0.76468575  0.56957248  0.76923643  1
  O2-  O268  1  0.76020103  0.90516588  0.27091364  1
  O2-  O269  1  0.75585744  0.90653122  0.76758467  1
  O2-  O270  1  0.06852736  0.06957129  0.48323469  1
  O2-  O271  1  0.07323127  0.07298981  0.97603755  1
  O2-  O272  1  0.07312424  0.40302303  0.47966485  1
  O2-  O273  1  0.06931057  0.40334900  0.97991521  1
  O2-  O274  1  0.07380137  0.73634193  0.47733671  1
  O2-  O275  1  0.07268528  0.73598682  0.98134019  1
  O2-  O276  1  0.40350118  0.06852943  0.48392833  1
  O2-  O277  1  0.40525241  0.07194579  0.97624093  1
  O2-  O278  1  0.40256360  0.40575319  0.48232850  1
  O2-  O279  1  0.40643820  0.40536185  0.97807333  1
  O2-  O280  1  0.40331552  0.73863085  0.47709749  1
  O2-  O281  1  0.40435370  0.73802125  0.97931130  1
  O2-  O282  1  0.73905502  0.07075591  0.47959023  1
  O2-  O283  1  0.73731036  0.07513795  0.97559689  1
  O2-  O284  1  0.73728765  0.40445928  0.48139179  1
  O2-  O285  1  0.73761482  0.40417636  0.97837022  1
  O2-  O286  1  0.73840767  0.74247382  0.47642546  1
  O2-  O287  1  0.73433659  0.73616192  0.98372643  1
  O2-  O288  1  0.09840640  0.23849856  0.47944530  1
  O2-  O289  1  0.09500424  0.23955439  0.97613395  1
  O2-  O290  1  0.10035379  0.57456303  0.47910864  1
  O2-  O291  1  0.09333251  0.56947898  0.97789467  1
  O2-  O292  1  0.09573327  0.90651895  0.47739033  1
  O2-  O293  1  0.09883027  0.90867342  0.98129291  1
  O2-  O294  1  0.42674908  0.23956946  0.48428167  1
  O2-  O295  1  0.42518613  0.23933697  0.97930075  1
  O2-  O296  1  0.43027281  0.57061660  0.47860820  1
  O2-  O297  1  0.42961566  0.57410537  0.97882300  1
  O2-  O298  1  0.42713670  0.90366251  0.48164255  1
  O2-  O299  1  0.43189256  0.90310658  0.97821124  1
  O2-  O300  1  0.76300713  0.23767320  0.48331806  1
  O2-  O301  1  0.76289049  0.23809426  0.98267567  1
  O2-  O302  1  0.75964458  0.57331522  0.48332380  1
  O2-  O303  1  0.76422707  0.56946189  0.97833777  1
  O2-  O304  1  0.76167812  0.90640493  0.47810359  1
  O2-  O305  1  0.75650955  0.90603721  0.98297881  1
  O2-  O306  1  0.07115044  0.07294796  0.26993866  1
  O2-  O307  1  0.07312747  0.06930062  0.77226529  1
  O2-  O308  1  0.07319346  0.40311478  0.27021288  1
  O2-  O309  1  0.06791588  0.40493758  0.76861599  1
  O2-  O310  1  0.07245700  0.73772344  0.27197609  1
  O2-  O311  1  0.07228093  0.73653071  0.76993433  1
  O2-  O312  1  0.40439672  0.07193494  0.26641556  1
  O2-  O313  1  0.40292117  0.06970421  0.77291277  1
  O2-  O314  1  0.40167418  0.40396121  0.26662931  1
  O2-  O315  1  0.40868146  0.40609177  0.77300311  1
  O2-  O316  1  0.40407825  0.73739637  0.27393001  1
  O2-  O317  1  0.40432761  0.73860228  0.76971165  1
  O2-  O318  1  0.74052016  0.07328376  0.27315323  1
  O2-  O319  1  0.73507214  0.07429836  0.77145964  1
  O2-  O320  1  0.73740684  0.40460422  0.27031868  1
  O2-  O321  1  0.73736182  0.40454377  0.77120585  1
  O2-  O322  1  0.73484429  0.74010523  0.27141640  1
  O2-  O323  1  0.73835407  0.73823806  0.76775477  1
  O2-  O324  1  0.23799428  0.09663785  0.23125104  1
  O2-  O325  1  0.23620010  0.09583880  0.72878274  1
  O2-  O326  1  0.23803082  0.42647388  0.22813279  1
  O2-  O327  1  0.23686960  0.42883212  0.73295728  1
  O2-  O328  1  0.23599827  0.76637967  0.23173577  1
  O2-  O329  1  0.23604666  0.76480075  0.73481021  1
  O2-  O330  1  0.57150748  0.09268575  0.22971217  1
  O2-  O331  1  0.56930094  0.09502364  0.73060474  1
  O2-  O332  1  0.57154488  0.42942609  0.23345892  1
  O2-  O333  1  0.57188724  0.42962150  0.73585821  1
  O2-  O334  1  0.56858398  0.76425305  0.22928708  1
  O2-  O335  1  0.57160119  0.76104610  0.73008041  1
  O2-  O336  1  0.90352735  0.09741089  0.23232558  1
  O2-  O337  1  0.90543095  0.09322339  0.72774114  1
  O2-  O338  1  0.90674800  0.42573345  0.22929359  1
  O2-  O339  1  0.90408276  0.42676969  0.72605539  1
  O2-  O340  1  0.90202490  0.75827112  0.22850098  1
  O2-  O341  1  0.90641896  0.75781849  0.72555001  1
  O2-  O342  1  0.25995650  0.26083862  0.02010038  1
  O2-  O343  1  0.26279388  0.26514065  0.52376118  1
  O2-  O344  1  0.25853837  0.59273936  0.01877048  1
  O2-  O345  1  0.26419219  0.59664886  0.52296627  1
  O2-  O346  1  0.26498872  0.92881598  0.02291604  1
  O2-  O347  1  0.26243200  0.92763657  0.51986591  1
  O2-  O348  1  0.58955187  0.25529903  0.02111420  1
  O2-  O349  1  0.59471138  0.26200818  0.52093076  1
  O2-  O350  1  0.59676817  0.59496813  0.01701238  1
  O2-  O351  1  0.59755634  0.60016258  0.51814794  1
  O2-  O352  1  0.59634114  0.93189278  0.01945429  1
  O2-  O353  1  0.59409952  0.92805515  0.51982264  1
  O2-  O354  1  0.92737076  0.26158646  0.01643841  1
  O2-  O355  1  0.92972044  0.25976158  0.52347278  1
  O2-  O356  1  0.92978412  0.59333254  0.02304719  1
  O2-  O357  1  0.92841692  0.59389879  0.52018499  1
  O2-  O358  1  0.92405740  0.92452352  0.01616493  1
  O2-  O359  1  0.92612053  0.92787172  0.52222250  1
