# generated using pymatgen
data_Sr7Ca15Pr50Mn72O216
_symmetry_space_group_name_H-M   'P 1'
_cell_length_a   16.55841539
_cell_length_b   16.60592242
_cell_length_c   15.59186353
_cell_angle_alpha   89.99826348
_cell_angle_beta   90.00540128
_cell_angle_gamma   90.00786751
_symmetry_Int_Tables_number   1
_chemical_formula_structural   Sr7Ca15Pr50Mn72O216
_chemical_formula_sum   'Sr7 Ca15 Pr50 Mn72 O216'
_cell_volume   4287.25974969
_cell_formula_units_Z   1
loop_
 _symmetry_equiv_pos_site_id
 _symmetry_equiv_pos_as_xyz
  1  'x, y, z'
loop_
 _atom_type_symbol
 _atom_type_oxidation_number
  Sr2+  2.0
  Ca2+  2.0
  Pr3+  3.0
  Mn3.30+  3.3
  O2-  -2.0
loop_
 _atom_site_type_symbol
 _atom_site_label
 _atom_site_symmetry_multiplicity
 _atom_site_fract_x
 _atom_site_fract_y
 _atom_site_fract_z
 _atom_site_occupancy
  Sr2+  Sr0  1  0.49794290  0.82503338  0.87585897  1
  Sr2+  Sr1  1  0.66688445  0.32584146  0.87425901  1
  Sr2+  Sr2  1  0.33235779  0.00924703  0.12388799  1
  Sr2+  Sr3  1  0.49919419  0.50576169  0.62669100  1
  Sr2+  Sr4  1  0.82928318  0.82543970  0.87730427  1
  Sr2+  Sr5  1  0.16401989  0.82531541  0.87629805  1
  Sr2+  Sr6  1  0.34126812  0.32321178  0.87318778  1
  Ca2+  Ca7  1  0.83579713  0.84769764  0.12532706  1
  Ca2+  Ca8  1  0.82582578  0.81455858  0.37302358  1
  Ca2+  Ca9  1  0.49829784  0.15296593  0.37498997  1
  Ca2+  Ca10  1  0.82930833  0.15507084  0.87439277  1
  Ca2+  Ca11  1  0.82935597  0.48594762  0.87644752  1
  Ca2+  Ca12  1  0.66172598  0.01564189  0.62757303  1
  Ca2+  Ca13  1  0.33352639  0.34967444  0.62644283  1
  Ca2+  Ca14  1  -0.00729395  0.68467321  0.12474703  1
  Ca2+  Ca15  1  0.66898467  0.65065058  0.37502424  1
  Ca2+  Ca16  1  0.49775057  0.15394778  0.87526276  1
  Ca2+  Ca17  1  0.16339935  0.48422849  0.37487569  1
  Ca2+  Ca18  1  0.49984406  0.48727035  0.37565751  1
  Ca2+  Ca19  1  0.49806079  0.48628699  0.87432813  1
  Ca2+  Ca20  1  1.00198064  0.32018208  0.87571444  1
  Ca2+  Ca21  1  0.66402980  0.34803590  0.12289808  1
  Pr3+  Pr22  1  0.66504591  0.01152387  0.12322607  1
  Pr3+  Pr23  1  0.50494234  0.50917371  0.12357790  1
  Pr3+  Pr24  1  -0.00491424  0.01080152  0.12318620  1
  Pr3+  Pr25  1  0.16607962  0.15624085  0.87511854  1
  Pr3+  Pr26  1  1.00441469  0.32254405  0.37444073  1
  Pr3+  Pr27  1  0.83349232  0.17987973  0.62798741  1
  Pr3+  Pr28  1  0.17425924  0.18461191  0.62536658  1
  Pr3+  Pr29  1  0.67103108  0.98656530  0.37645623  1
  Pr3+  Pr30  1  0.83076425  0.15578855  0.37519504  1
  Pr3+  Pr31  1  0.83398531  0.51203436  0.62768597  1
  Pr3+  Pr32  1  0.33820498  0.98786638  0.37479182  1
  Pr3+  Pr33  1  1.00005551  0.98563484  0.37523147  1
  Pr3+  Pr34  1  0.50510653  0.17978010  0.62630330  1
  Pr3+  Pr35  1  0.66552437  0.32290054  0.37483876  1
  Pr3+  Pr36  1  0.67034510  0.65279161  0.87584372  1
  Pr3+  Pr37  1  0.33215528  0.67837923  0.12561688  1
  Pr3+  Pr38  1  0.33766036  0.98767493  0.87510782  1
  Pr3+  Pr39  1  0.17179758  0.17732233  0.12427291  1
  Pr3+  Pr40  1  0.16544076  0.15460103  0.37505749  1
  Pr3+  Pr41  1  0.50570946  0.84766317  0.62521928  1
  Pr3+  Pr42  1  -0.00168071  0.34755465  0.62726457  1
  Pr3+  Pr43  1  0.66809874  0.99033411  0.87375016  1
  Pr3+  Pr44  1  0.16601824  0.84573169  0.12448556  1
  Pr3+  Pr45  1  -0.00383539  0.67819402  0.62487125  1
  Pr3+  Pr46  1  1.00183275  0.65139005  0.37220743  1
  Pr3+  Pr47  1  0.16876492  0.84549342  0.62499717  1
  Pr3+  Pr48  1  0.16381529  0.48506152  0.87580184  1
  Pr3+  Pr49  1  0.33559892  0.64869473  0.37364943  1
  Pr3+  Pr50  1  0.99936837  0.98678443  0.87474159  1
  Pr3+  Pr51  1  0.33943491  0.32164523  0.37636737  1
  Pr3+  Pr52  1  -0.00308886  0.01340316  0.62669240  1
  Pr3+  Pr53  1  0.16935318  0.51282510  0.12525518  1
  Pr3+  Pr54  1  0.50603047  0.18118264  0.12380859  1
  Pr3+  Pr55  1  0.82898575  0.48874701  0.37394690  1
  Pr3+  Pr56  1  0.83399086  0.18027758  0.12217393  1
  Pr3+  Pr57  1  0.66462294  0.34756067  0.62657085  1
  Pr3+  Pr58  1  0.17177638  0.51111038  0.62531411  1
  Pr3+  Pr59  1  -0.00244739  0.34578323  0.12277548  1
  Pr3+  Pr60  1  0.33302167  0.34453632  0.12311448  1
  Pr3+  Pr61  1  0.33304295  0.67449713  0.62487733  1
  Pr3+  Pr62  1  0.33224917  0.01293658  0.62556143  1
  Pr3+  Pr63  1  0.50293244  0.84813684  0.12544213  1
  Pr3+  Pr64  1  0.66509709  0.68069154  0.12695061  1
  Pr3+  Pr65  1  0.16304572  0.82077668  0.37386930  1
  Pr3+  Pr66  1  0.49854218  0.81836870  0.37438427  1
  Pr3+  Pr67  1  0.83266927  0.84701313  0.62474067  1
  Pr3+  Pr68  1  0.33773125  0.65381738  0.87620748  1
  Pr3+  Pr69  1  1.00182054  0.65711706  0.87761947  1
  Pr3+  Pr70  1  0.66198330  0.67648228  0.62379432  1
  Pr3+  Pr71  1  0.83499822  0.51360538  0.12263712  1
  Mn3.30+  Mn72  1  0.16560861  0.00028815  -0.00061144  1
  Mn3.30+  Mn73  1  0.16672724  0.00051671  0.50021442  1
  Mn3.30+  Mn74  1  0.16611140  0.33214253  -0.00178225  1
  Mn3.30+  Mn75  1  0.16965603  0.33565793  0.49991523  1
  Mn3.30+  Mn76  1  0.16480323  0.66739928  0.00178849  1
  Mn3.30+  Mn77  1  0.16514132  0.66468877  0.49791355  1
  Mn3.30+  Mn78  1  0.49959284  0.00250787  0.00014940  1
  Mn3.30+  Mn79  1  0.50279585  0.00126184  0.49904544  1
  Mn3.30+  Mn80  1  0.50229881  0.33334258  -0.00203104  1
  Mn3.30+  Mn81  1  0.49967812  0.33361391  0.50045573  1
  Mn3.30+  Mn82  1  0.50119785  0.66605245  -0.00025957  1
  Mn3.30+  Mn83  1  0.50041958  0.66298748  0.49776208  1
  Mn3.30+  Mn84  1  0.83158573  0.00136167  -0.00072624  1
  Mn3.30+  Mn85  1  0.83145944  -0.00002561  0.50140518  1
  Mn3.30+  Mn86  1  0.83238332  0.33401053  -0.00271209  1
  Mn3.30+  Mn87  1  0.83398862  0.33406684  0.50018992  1
  Mn3.30+  Mn88  1  0.83444514  0.66828999  0.00080880  1
  Mn3.30+  Mn89  1  0.83049621  0.66672871  0.49815354  1
  Mn3.30+  Mn90  1  0.00013099  0.16663554  0.24924338  1
  Mn3.30+  Mn91  1  -0.00027255  0.16869015  0.75221143  1
  Mn3.30+  Mn92  1  0.00060420  0.50087879  0.24816033  1
  Mn3.30+  Mn93  1  -0.00102454  0.49963416  0.75394107  1
  Mn3.30+  Mn94  1  -0.00582756  0.83192461  0.25087216  1
  Mn3.30+  Mn95  1  -0.00135136  0.83271400  0.74978410  1
  Mn3.30+  Mn96  1  0.33648308  0.16631695  0.25019699  1
  Mn3.30+  Mn97  1  0.33683730  0.16915515  0.75026284  1
  Mn3.30+  Mn98  1  0.33417598  0.49795426  0.25109702  1
  Mn3.30+  Mn99  1  0.33504175  0.49925682  0.75043847  1
  Mn3.30+  Mn100  1  0.33235127  0.83248450  0.25061155  1
  Mn3.30+  Mn101  1  0.33415331  0.83189724  0.74924103  1
  Mn3.30+  Mn102  1  0.66603972  0.16807111  0.25050480  1
  Mn3.30+  Mn103  1  0.66709632  0.16753135  0.75236591  1
  Mn3.30+  Mn104  1  0.66617772  0.49948122  0.25011498  1
  Mn3.30+  Mn105  1  0.66655698  0.49959827  0.75263911  1
  Mn3.30+  Mn106  1  0.66956496  0.83226020  0.25104709  1
  Mn3.30+  Mn107  1  0.66621471  0.83338211  0.75038839  1
  Mn3.30+  Mn108  1  0.16624726  -0.00003387  0.25068824  1
  Mn3.30+  Mn109  1  0.16631754  0.00117208  0.74943968  1
  Mn3.30+  Mn110  1  0.16827102  0.33381075  0.24962802  1
  Mn3.30+  Mn111  1  0.16807608  0.33387179  0.75207086  1
  Mn3.30+  Mn112  1  0.16384462  0.66523396  0.24886012  1
  Mn3.30+  Mn113  1  0.16625278  0.66694752  0.75173687  1
  Mn3.30+  Mn114  1  0.50146866  0.00228716  0.25113415  1
  Mn3.30+  Mn115  1  0.50077292  0.00162222  0.74958791  1
  Mn3.30+  Mn116  1  0.50171728  0.33351414  0.25069438  1
  Mn3.30+  Mn117  1  0.49999694  0.33339853  0.75081567  1
  Mn3.30+  Mn118  1  0.50161051  0.66376130  0.25159676  1
  Mn3.30+  Mn119  1  0.50043324  0.66541763  0.75092995  1
  Mn3.30+  Mn120  1  0.83255285  -0.00152113  0.25080334  1
  Mn3.30+  Mn121  1  0.83038193  0.00221641  0.74896442  1
  Mn3.30+  Mn122  1  0.83204521  0.33407022  0.24773570  1
  Mn3.30+  Mn123  1  0.83442811  0.33399922  0.75435494  1
  Mn3.30+  Mn124  1  0.83283164  0.66819451  0.24967627  1
  Mn3.30+  Mn125  1  0.83225803  0.66674317  0.75189521  1
  Mn3.30+  Mn126  1  -0.00135155  0.16766307  -0.00315409  1
  Mn3.30+  Mn127  1  0.00102924  0.16764757  0.50183585  1
  Mn3.30+  Mn128  1  -0.00179420  0.50076389  -0.00109542  1
  Mn3.30+  Mn129  1  0.00117103  0.49995355  0.49964970  1
  Mn3.30+  Mn130  1  -0.00336264  0.83249164  0.00153236  1
  Mn3.30+  Mn131  1  -0.00357611  0.83192097  0.49820861  1
  Mn3.30+  Mn132  1  0.33676516  0.16695780  -0.00086635  1
  Mn3.30+  Mn133  1  0.33664326  0.16863248  0.50024274  1
  Mn3.30+  Mn134  1  0.33574131  0.49925638  0.00001063  1
  Mn3.30+  Mn135  1  0.33320364  0.49821719  0.49817922  1
  Mn3.30+  Mn136  1  0.33258139  0.83278616  0.00025597  1
  Mn3.30+  Mn137  1  0.33401492  0.83149480  0.49980485  1
  Mn3.30+  Mn138  1  0.66756730  0.16990352  -0.00313959  1
  Mn3.30+  Mn139  1  0.66564362  0.16604587  0.49968326  1
  Mn3.30+  Mn140  1  0.66816284  0.49817069  -0.00089119  1
  Mn3.30+  Mn141  1  0.66451123  0.50081098  0.49804042  1
  Mn3.30+  Mn142  1  0.66766719  0.83359743  0.00088400  1
  Mn3.30+  Mn143  1  0.66762772  0.83214672  0.49856468  1
  O2-  O144  1  0.02708039  0.15939729  0.12317590  1
  O2-  O145  1  0.02901724  0.16144596  0.62555109  1
  O2-  O146  1  0.02681826  0.49180659  0.12373977  1
  O2-  O147  1  0.02751874  0.49596448  0.62721085  1
  O2-  O148  1  0.02276056  0.83249024  0.12778983  1
  O2-  O149  1  0.02459098  0.82720921  0.62243263  1
  O2-  O150  1  0.36034151  0.16492511  0.12608310  1
  O2-  O151  1  0.36112096  0.15859772  0.62441372  1
  O2-  O152  1  0.35940881  0.49603781  0.12597034  1
  O2-  O153  1  0.34829505  0.50402697  0.62387877  1
  O2-  O154  1  0.35820592  0.82752348  0.12848641  1
  O2-  O155  1  0.36033819  0.82532426  0.62242614  1
  O2-  O156  1  0.69159010  0.15903145  0.12473299  1
  O2-  O157  1  0.69080381  0.16148283  0.62472357  1
  O2-  O158  1  0.69098549  0.49424349  0.12462013  1
  O2-  O159  1  0.69016185  0.49807715  0.62487687  1
  O2-  O160  1  0.69324951  0.83000114  0.12829164  1
  O2-  O161  1  0.69040694  0.82357190  0.62270808  1
  O2-  O162  1  0.14226629  0.32596479  0.12343781  1
  O2-  O163  1  0.14234119  0.33213224  0.62737047  1
  O2-  O164  1  0.13716791  0.65888221  0.12629102  1
  O2-  O165  1  0.14025512  0.65732513  0.62125315  1
  O2-  O166  1  0.14018338  0.99729649  0.12703474  1
  O2-  O167  1  0.14175294  0.99561849  0.62404925  1
  O2-  O168  1  0.47674941  0.32816931  0.12622731  1
  O2-  O169  1  0.47654563  0.32601230  0.62373813  1
  O2-  O170  1  0.47579108  0.65793184  0.12656799  1
  O2-  O171  1  0.47657691  0.66199823  0.62169341  1
  O2-  O172  1  0.48190793  0.99700397  0.12730028  1
  O2-  O173  1  0.47551692  0.99522325  0.62258265  1
  O2-  O174  1  0.80688641  0.32723782  0.12403958  1
  O2-  O175  1  0.80978449  0.32883823  0.62492651  1
  O2-  O176  1  0.80743747  0.65928371  0.12520921  1
  O2-  O177  1  0.80728278  0.65922982  0.62428967  1
  O2-  O178  1  0.80965311  0.99628041  0.12581585  1
  O2-  O179  1  0.80431023  0.99558791  0.62249503  1
  O2-  O180  1  0.30805330  0.17397846  0.37578932  1
  O2-  O181  1  0.30984846  0.16791294  0.87331799  1
  O2-  O182  1  0.30466838  0.50116671  0.37262166  1
  O2-  O183  1  0.30829730  0.50564472  0.87728291  1
  O2-  O184  1  0.30808266  0.83850963  0.37549771  1
  O2-  O185  1  0.31470957  0.83791909  0.87239465  1
  O2-  O186  1  0.64033358  0.17499259  0.37502014  1
  O2-  O187  1  0.63959584  0.16919715  0.87513776  1
  O2-  O188  1  0.64261071  0.50444244  0.37394703  1
  O2-  O189  1  0.64069461  0.50612313  0.87641204  1
  O2-  O190  1  0.64016908  0.84111838  0.37529145  1
  O2-  O191  1  0.64711980  0.83968565  0.87390990  1
  O2-  O192  1  0.97540858  0.17452561  0.37699331  1
  O2-  O193  1  0.97183160  0.17416334  0.87427507  1
  O2-  O194  1  0.97288342  0.50320235  0.37227710  1
  O2-  O195  1  0.97065571  0.51162827  0.87699997  1
  O2-  O196  1  0.96838513  0.83912687  0.37625145  1
  O2-  O197  1  0.97981960  0.83661216  0.87414875  1
  O2-  O198  1  0.19249982  0.00490564  0.37635062  1
  O2-  O199  1  0.19223502  0.00589752  0.87211471  1
  O2-  O200  1  0.19310043  0.33750448  0.37291761  1
  O2-  O201  1  0.19059980  0.33595823  0.87589894  1
  O2-  O202  1  0.19157233  0.67518104  0.37348066  1
  O2-  O203  1  0.19246211  0.67103117  0.87940859  1
  O2-  O204  1  0.52685234  0.00587661  0.37513890  1
  O2-  O205  1  0.52280209  0.00441679  0.87504937  1
  O2-  O206  1  0.52272371  0.34208270  0.37524452  1
  O2-  O207  1  0.51758288  0.34211272  0.87463639  1
  O2-  O208  1  0.52719231  0.67316692  0.37359461  1
  O2-  O209  1  0.52567938  0.67309597  0.87844786  1
  O2-  O210  1  0.85847071  0.01007368  0.37774752  1
  O2-  O211  1  0.85614982  0.00706155  0.87381495  1
  O2-  O212  1  0.86035547  0.33906627  0.37540389  1
  O2-  O213  1  0.86205414  0.34272784  0.87494843  1
  O2-  O214  1  0.85882084  0.66863580  0.37337539  1
  O2-  O215  1  0.85892619  0.67379167  0.87792123  1
  O2-  O216  1  0.23717704  0.09561362  0.01618562  1
  O2-  O217  1  0.24129452  0.09857227  0.51968253  1
  O2-  O218  1  0.23850781  0.42784417  0.02056368  1
  O2-  O219  1  0.23628952  0.42980678  0.51812891  1
  O2-  O220  1  0.23826356  0.75791906  0.02598724  1
  O2-  O221  1  0.23455735  0.75892845  0.52060909  1
  O2-  O222  1  0.57426065  0.09413436  0.02054449  1
  O2-  O223  1  0.57164917  0.09505610  0.51943151  1
  O2-  O224  1  0.57265055  0.42708609  0.01900932  1
  O2-  O225  1  0.57675011  0.42357929  0.51904091  1
  O2-  O226  1  0.57222075  0.76035831  0.02528614  1
  O2-  O227  1  0.56982291  0.76295297  0.51838717  1
  O2-  O228  1  0.90667643  0.09357158  0.02211459  1
  O2-  O229  1  0.90512998  0.09488283  0.52311916  1
  O2-  O230  1  0.90688578  0.42674563  0.02401189  1
  O2-  O231  1  0.90625269  0.42936016  0.52185435  1
  O2-  O232  1  0.90307046  0.76356992  0.02322081  1
  O2-  O233  1  0.90382494  0.75964488  0.52277857  1
  O2-  O234  1  0.26361229  0.25967392  0.22933103  1
  O2-  O235  1  0.26493332  0.26065625  0.72641933  1
  O2-  O236  1  0.26279020  0.59339801  0.22950610  1
  O2-  O237  1  0.25976942  0.59603449  0.73269514  1
  O2-  O238  1  0.25572184  0.92421115  0.23268204  1
  O2-  O239  1  0.26135830  0.92514041  0.72743670  1
  O2-  O240  1  0.59764284  0.26381439  0.22922150  1
  O2-  O241  1  0.59666921  0.25976498  0.72738637  1
  O2-  O242  1  0.59531278  0.59200049  0.22697279  1
  O2-  O243  1  0.59703486  0.59670187  0.73473316  1
  O2-  O244  1  0.59648950  0.92782574  0.23106676  1
  O2-  O245  1  0.59360798  0.92796555  0.72875131  1
  O2-  O246  1  0.92904628  0.26095596  0.22896921  1
  O2-  O247  1  0.92949389  0.26015919  0.72652101  1
  O2-  O248  1  0.93083055  0.59667314  0.22911722  1
  O2-  O249  1  0.92787959  0.59419736  0.72878460  1
  O2-  O250  1  0.93040469  0.93159961  0.23300814  1
  O2-  O251  1  0.92406400  0.92868765  0.72912495  1
  O2-  O252  1  0.09542313  0.23832046  0.27014920  1
  O2-  O253  1  0.09756737  0.23760551  0.76742572  1
  O2-  O254  1  0.09627783  0.56939832  0.27247673  1
  O2-  O255  1  0.09356604  0.57093693  0.77310813  1
  O2-  O256  1  0.09080207  0.90420645  0.27211661  1
  O2-  O257  1  0.08976582  0.90903457  0.76479588  1
  O2-  O258  1  0.43108855  0.23778448  0.27148457  1
  O2-  O259  1  0.43407929  0.23334123  0.76713476  1
  O2-  O260  1  0.42731549  0.56821723  0.27292425  1
  O2-  O261  1  0.42602593  0.57331314  0.77359762  1
  O2-  O262  1  0.42827064  0.90633422  0.27126205  1
  O2-  O263  1  0.42565328  0.90767317  0.76384540  1
  O2-  O264  1  0.76086567  0.23716578  0.27126098  1
  O2-  O265  1  0.76653317  0.23738793  0.76693990  1
  O2-  O266  1  0.76439351  0.56967776  0.26597261  1
  O2-  O267  1  0.76228349  0.57161895  0.77212976  1
  O2-  O268  1  0.76074927  0.90508949  0.27493736  1
  O2-  O269  1  0.75807496  0.90761698  0.76504040  1
  O2-  O270  1  0.07137811  0.07269057  0.47891441  1
  O2-  O271  1  0.07060446  0.07354244  0.97625796  1
  O2-  O272  1  0.06892628  0.40434262  0.48148218  1
  O2-  O273  1  0.07011081  0.40616908  0.97813314  1
  O2-  O274  1  0.07061514  0.73625424  0.47779446  1
  O2-  O275  1  0.06990851  0.73843996  0.98509857  1
  O2-  O276  1  0.40336539  0.06925291  0.48150131  1
  O2-  O277  1  0.40521162  0.07258711  0.97935890  1
  O2-  O278  1  0.40279267  0.40496914  0.48385734  1
  O2-  O279  1  0.40561570  0.40542108  0.98911154  1
  O2-  O280  1  0.40543272  0.73525487  0.47704777  1
  O2-  O281  1  0.40343581  0.73514784  0.98640212  1
  O2-  O282  1  0.73930589  0.07490185  0.47629592  1
  O2-  O283  1  0.73682587  0.07293287  0.98179310  1
  O2-  O284  1  0.73907270  0.40659521  0.47955586  1
  O2-  O285  1  0.74260167  0.40764168  0.98177973  1
  O2-  O286  1  0.73448405  0.73516252  0.47912712  1
  O2-  O287  1  0.73598818  0.73548239  0.98462879  1
  O2-  O288  1  0.09892076  0.24068204  0.48090148  1
  O2-  O289  1  0.09472333  0.23639401  0.98087707  1
  O2-  O290  1  0.09500509  0.57032572  0.47565259  1
  O2-  O291  1  0.09519847  0.57150586  0.97876166  1
  O2-  O292  1  0.09118155  0.90289558  0.47864675  1
  O2-  O293  1  0.08853021  0.90892601  0.98470625  1
  O2-  O294  1  0.43080270  0.23637832  0.47715048  1
  O2-  O295  1  0.43387204  0.23594955  0.98426410  1
  O2-  O296  1  0.42529689  0.57080695  0.47394673  1
  O2-  O297  1  0.42944566  0.57171165  0.97925188  1
  O2-  O298  1  0.43159235  0.90629802  0.47839411  1
  O2-  O299  1  0.42418535  0.90981608  0.98602369  1
  O2-  O300  1  0.76143522  0.23915373  0.48005469  1
  O2-  O301  1  0.76657629  0.23568688  0.98083861  1
  O2-  O302  1  0.76328524  0.56963687  0.48160987  1
  O2-  O303  1  0.76333983  0.57221148  0.98016473  1
  O2-  O304  1  0.76344815  0.90234324  0.47824331  1
  O2-  O305  1  0.75590173  0.91273819  0.98235315  1
  O2-  O306  1  0.07158675  0.07204031  0.27285244  1
  O2-  O307  1  0.06964525  0.07519606  0.77247208  1
  O2-  O308  1  0.07001868  0.40401666  0.26715258  1
  O2-  O309  1  0.06905459  0.40614263  0.77371698  1
  O2-  O310  1  0.06864891  0.74118614  0.27300896  1
  O2-  O311  1  0.07117417  0.73480326  0.76501215  1
  O2-  O312  1  0.40494418  0.07280818  0.27251874  1
  O2-  O313  1  0.40205507  0.06902814  0.76610773  1
  O2-  O314  1  0.40266223  0.40120359  0.26571043  1
  O2-  O315  1  0.40643104  0.40813696  0.75995252  1
  O2-  O316  1  0.40463871  0.73656466  0.27037741  1
  O2-  O317  1  0.40280921  0.73542320  0.76537613  1
  O2-  O318  1  0.73849322  0.07236685  0.27096066  1
  O2-  O319  1  0.73772377  0.07384263  0.76972105  1
  O2-  O320  1  0.73853919  0.40735063  0.27302266  1
  O2-  O321  1  0.74215900  0.40722719  0.76317952  1
  O2-  O322  1  0.73309072  0.73414196  0.27016280  1
  O2-  O323  1  0.73628471  0.73630822  0.76652390  1
  O2-  O324  1  0.23829347  0.09748892  0.23464210  1
  O2-  O325  1  0.23950478  0.09596451  0.72827728  1
  O2-  O326  1  0.24043529  0.42625708  0.22456426  1
  O2-  O327  1  0.23624803  0.43147508  0.73551798  1
  O2-  O328  1  0.23550199  0.75912260  0.22866312  1
  O2-  O329  1  0.23991279  0.76013585  0.72536788  1
  O2-  O330  1  0.57531035  0.09571752  0.22891545  1
  O2-  O331  1  0.57128593  0.09390156  0.73063466  1
  O2-  O332  1  0.57149151  0.42788607  0.23109888  1
  O2-  O333  1  0.57765221  0.42315567  0.73163663  1
  O2-  O334  1  0.57157972  0.76377913  0.22935959  1
  O2-  O335  1  0.57246846  0.76067728  0.72774520  1
  O2-  O336  1  0.90548952  0.09583702  0.23005088  1
  O2-  O337  1  0.90723765  0.09363945  0.72586220  1
  O2-  O338  1  0.90612524  0.42981469  0.22767408  1
  O2-  O339  1  0.90797870  0.42697485  0.72650628  1
  O2-  O340  1  0.90041546  0.76442204  0.22996622  1
  O2-  O341  1  0.90539567  0.75968217  0.72594249  1
  O2-  O342  1  0.26210004  0.25730819  0.02128119  1
  O2-  O343  1  0.26603673  0.26377512  0.52226836  1
  O2-  O344  1  0.26117030  0.59344156  0.02248180  1
  O2-  O345  1  0.26080239  0.59612039  0.51592791  1
  O2-  O346  1  0.25464707  0.92362356  0.01695469  1
  O2-  O347  1  0.26074039  0.92723886  0.52118567  1
  O2-  O348  1  0.59715995  0.26152905  0.02303277  1
  O2-  O349  1  0.59753425  0.26061898  0.52052881  1
  O2-  O350  1  0.59615673  0.59466024  0.02166295  1
  O2-  O351  1  0.59531839  0.59493632  0.51681670  1
  O2-  O352  1  0.59169834  0.92739960  0.01964830  1
  O2-  O353  1  0.59758445  0.92930620  0.52101090  1
  O2-  O354  1  0.92789013  0.26026836  0.02316505  1
  O2-  O355  1  0.93000865  0.26153177  0.52180682  1
  O2-  O356  1  0.92905982  0.59693326  0.02387480  1
  O2-  O357  1  0.92913377  0.59361535  0.51918177  1
  O2-  O358  1  0.92656725  0.93019246  0.01523170  1
  O2-  O359  1  0.92714654  0.92987657  0.52317672  1
