# generated using pymatgen
data_Sr7Ca15Pr50Mn72O216
_symmetry_space_group_name_H-M   'P 1'
_cell_length_a   16.55984791
_cell_length_b   16.60536984
_cell_length_c   15.59287543
_cell_angle_alpha   89.99679493
_cell_angle_beta   90.00611073
_cell_angle_gamma   90.01075583
_symmetry_Int_Tables_number   1
_chemical_formula_structural   Sr7Ca15Pr50Mn72O216
_chemical_formula_sum   'Sr7 Ca15 Pr50 Mn72 O216'
_cell_volume   4287.76618671
_cell_formula_units_Z   1
loop_
 _symmetry_equiv_pos_site_id
 _symmetry_equiv_pos_as_xyz
  1  'x, y, z'
loop_
 _atom_type_symbol
 _atom_type_oxidation_number
  Sr2+  2.0
  Ca2+  2.0
  Pr3+  3.0
  Mn3.30+  3.3
  O2-  -2.0
loop_
 _atom_site_type_symbol
 _atom_site_label
 _atom_site_symmetry_multiplicity
 _atom_site_fract_x
 _atom_site_fract_y
 _atom_site_fract_z
 _atom_site_occupancy
  Sr2+  Sr0  1  0.33814793  0.98732504  0.37552724  1
  Sr2+  Sr1  1  0.16472006  0.15739629  0.87389510  1
  Sr2+  Sr2  1  0.33472123  0.65784693  0.87739490  1
  Sr2+  Sr3  1  1.00042514  0.32314096  0.87457943  1
  Sr2+  Sr4  1  -0.00082441  0.34037279  0.62751815  1
  Sr2+  Sr5  1  0.66573288  0.98879905  0.37539729  1
  Sr2+  Sr6  1  0.83233135  0.84285260  0.62554581  1
  Ca2+  Ca7  1  0.33445433  0.32064805  0.87594351  1
  Ca2+  Ca8  1  0.66561576  0.34534359  0.62546344  1
  Ca2+  Ca9  1  1.00147130  0.98918979  0.87425863  1
  Ca2+  Ca10  1  0.83031384  0.15084372  0.87206187  1
  Ca2+  Ca11  1  0.33051085  0.68244558  0.12382521  1
  Ca2+  Ca12  1  0.83559142  0.18022493  0.62779940  1
  Ca2+  Ca13  1  0.66137325  0.68543789  0.62514032  1
  Ca2+  Ca14  1  0.33552675  0.98540647  0.87478934  1
  Ca2+  Ca15  1  0.66999037  0.98538288  0.87319716  1
  Ca2+  Ca16  1  0.33803322  0.31697902  0.37474250  1
  Ca2+  Ca17  1  0.66223470  0.34827658  0.12463974  1
  Ca2+  Ca18  1  0.50600775  0.84733312  0.62477433  1
  Ca2+  Ca19  1  -0.00217478  0.34618862  0.12227040  1
  Ca2+  Ca20  1  0.49684057  0.82154530  0.37718190  1
  Ca2+  Ca21  1  -0.00481595  0.68286230  0.12415747  1
  Pr3+  Pr22  1  0.49955348  0.84420666  0.12416343  1
  Pr3+  Pr23  1  0.67341882  0.31863364  0.87479262  1
  Pr3+  Pr24  1  0.32975809  0.34514441  0.62612253  1
  Pr3+  Pr25  1  0.50369914  0.18029072  0.12516945  1
  Pr3+  Pr26  1  0.16924512  0.51055744  0.62657728  1
  Pr3+  Pr27  1  0.67027456  0.31977473  0.37500819  1
  Pr3+  Pr28  1  0.82812737  0.82209065  0.37626618  1
  Pr3+  Pr29  1  -0.00729143  0.01459707  0.62831829  1
  Pr3+  Pr30  1  0.16791814  0.17960961  0.62704744  1
  Pr3+  Pr31  1  0.66434231  0.67944081  0.12418366  1
  Pr3+  Pr32  1  0.16528363  0.48763524  0.87533266  1
  Pr3+  Pr33  1  0.16630759  0.15422246  0.37574265  1
  Pr3+  Pr34  1  0.83347635  0.50881891  0.62576996  1
  Pr3+  Pr35  1  0.49584788  0.48386372  0.87574011  1
  Pr3+  Pr36  1  0.83197618  0.48596980  0.87493362  1
  Pr3+  Pr37  1  -0.00332284  0.67901131  0.62519636  1
  Pr3+  Pr38  1  0.83723655  0.51268026  0.12437324  1
  Pr3+  Pr39  1  0.16918900  0.84551983  0.12406222  1
  Pr3+  Pr40  1  0.49464697  0.15206100  0.87484868  1
  Pr3+  Pr41  1  0.50456000  0.18090267  0.62516161  1
  Pr3+  Pr42  1  0.16508488  0.82489473  0.87503058  1
  Pr3+  Pr43  1  0.32938317  0.01246498  0.12316571  1
  Pr3+  Pr44  1  0.16949892  0.84681116  0.62632715  1
  Pr3+  Pr45  1  1.00306259  0.65397904  0.37452831  1
  Pr3+  Pr46  1  0.33324707  0.68045759  0.62697005  1
  Pr3+  Pr47  1  0.66640730  0.65745193  0.37699321  1
  Pr3+  Pr48  1  1.00272217  0.98773765  0.37569145  1
  Pr3+  Pr49  1  0.49762586  0.82134503  0.87286147  1
  Pr3+  Pr50  1  0.50706390  0.51335330  0.62526086  1
  Pr3+  Pr51  1  1.00140307  0.32009540  0.37488599  1
  Pr3+  Pr52  1  0.33250372  0.01180781  0.62718500  1
  Pr3+  Pr53  1  0.49530752  0.48412770  0.37445054  1
  Pr3+  Pr54  1  0.83576998  0.18141034  0.12321483  1
  Pr3+  Pr55  1  0.32950814  0.34543289  0.12363057  1
  Pr3+  Pr56  1  0.16671400  0.82103122  0.37513828  1
  Pr3+  Pr57  1  0.66349425  0.01192315  0.12261191  1
  Pr3+  Pr58  1  0.83645965  0.84744184  0.12408741  1
  Pr3+  Pr59  1  0.16622816  0.48677208  0.37463503  1
  Pr3+  Pr60  1  0.33921928  0.65787464  0.37308751  1
  Pr3+  Pr61  1  0.49709698  0.15277649  0.37575396  1
  Pr3+  Pr62  1  0.83141387  0.82380222  0.87328075  1
  Pr3+  Pr63  1  0.50204799  0.51264462  0.12468718  1
  Pr3+  Pr64  1  0.82950631  0.15303068  0.37700558  1
  Pr3+  Pr65  1  0.16739945  0.18025806  0.12250904  1
  Pr3+  Pr66  1  0.83038604  0.48660266  0.37500803  1
  Pr3+  Pr67  1  0.67002476  0.65441582  0.87282571  1
  Pr3+  Pr68  1  -0.00305181  0.01324697  0.12188347  1
  Pr3+  Pr69  1  1.00476582  0.65639775  0.87540034  1
  Pr3+  Pr70  1  0.66486184  0.01032844  0.62734610  1
  Pr3+  Pr71  1  0.16801608  0.51468536  0.12374088  1
  Mn3.30+  Mn72  1  0.16497275  0.00122385  -0.00358774  1
  Mn3.30+  Mn73  1  0.16653551  0.00003695  0.50099137  1
  Mn3.30+  Mn74  1  0.16465141  0.33349907  -0.00029700  1
  Mn3.30+  Mn75  1  0.16894337  0.33306736  0.49847728  1
  Mn3.30+  Mn76  1  0.16689547  0.66813285  0.00202303  1
  Mn3.30+  Mn77  1  0.16869635  0.66628612  0.50014207  1
  Mn3.30+  Mn78  1  0.49931729  -0.00055058  -0.00251733  1
  Mn3.30+  Mn79  1  0.49994725  -0.00248970  0.50120495  1
  Mn3.30+  Mn80  1  0.50122887  0.33196867  -0.00001704  1
  Mn3.30+  Mn81  1  0.50033700  0.33314499  0.50021753  1
  Mn3.30+  Mn82  1  0.49884289  0.66632469  0.00049182  1
  Mn3.30+  Mn83  1  0.50188340  0.66905649  0.50112078  1
  Mn3.30+  Mn84  1  0.83192130  0.00201231  -0.00429577  1
  Mn3.30+  Mn85  1  0.83165045  -0.00004066  0.50199865  1
  Mn3.30+  Mn86  1  0.83315134  0.33205467  0.00090471  1
  Mn3.30+  Mn87  1  0.83258440  0.33194299  0.50257740  1
  Mn3.30+  Mn88  1  0.83540216  0.66713156  -0.00027228  1
  Mn3.30+  Mn89  1  0.83174513  0.66641229  0.50172485  1
  Mn3.30+  Mn90  1  -0.00073312  0.16807336  0.24868467  1
  Mn3.30+  Mn91  1  -0.00359820  0.16653769  0.75315035  1
  Mn3.30+  Mn92  1  0.00033699  0.49952105  0.24860089  1
  Mn3.30+  Mn93  1  0.00003073  0.49919988  0.74937578  1
  Mn3.30+  Mn94  1  -0.00033088  0.83259874  0.24985353  1
  Mn3.30+  Mn95  1  -0.00100554  0.83578062  0.75025343  1
  Mn3.30+  Mn96  1  0.33386727  0.16704431  0.24940030  1
  Mn3.30+  Mn97  1  0.33424564  0.16652354  0.75269755  1
  Mn3.30+  Mn98  1  0.33316950  0.50059303  0.24891760  1
  Mn3.30+  Mn99  1  0.33622929  0.49935366  0.75150220  1
  Mn3.30+  Mn100  1  0.33463104  0.83305211  0.24992513  1
  Mn3.30+  Mn101  1  0.33597509  0.83477974  0.74987836  1
  Mn3.30+  Mn102  1  0.66700287  0.16705575  0.24874963  1
  Mn3.30+  Mn103  1  0.66858134  0.16592292  0.75054762  1
  Mn3.30+  Mn104  1  0.66616809  0.49974871  0.24971019  1
  Mn3.30+  Mn105  1  0.66627624  0.49927294  0.74899944  1
  Mn3.30+  Mn106  1  0.66498414  0.83346626  0.25114222  1
  Mn3.30+  Mn107  1  0.66542302  0.83427250  0.74905432  1
  Mn3.30+  Mn108  1  0.16665545  0.00008661  0.25053734  1
  Mn3.30+  Mn109  1  0.16482717  0.00142619  0.75214117  1
  Mn3.30+  Mn110  1  0.16680642  0.33346684  0.24996474  1
  Mn3.30+  Mn111  1  0.16697274  0.33275608  0.75166370  1
  Mn3.30+  Mn112  1  0.16748112  0.66736617  0.24759800  1
  Mn3.30+  Mn113  1  0.16782701  0.66726374  0.75062637  1
  Mn3.30+  Mn114  1  0.49869859  -0.00192987  0.25001146  1
  Mn3.30+  Mn115  1  0.50028036  -0.00099919  0.75172716  1
  Mn3.30+  Mn116  1  0.49976807  0.33267410  0.24972537  1
  Mn3.30+  Mn117  1  0.50146416  0.33250519  0.75042634  1
  Mn3.30+  Mn118  1  0.49923281  0.66778678  0.24880964  1
  Mn3.30+  Mn119  1  0.50182846  0.66715929  0.74955562  1
  Mn3.30+  Mn120  1  0.83213300  0.00075057  0.24964920  1
  Mn3.30+  Mn121  1  0.83169569  0.00137532  0.75193802  1
  Mn3.30+  Mn122  1  0.83307656  0.33410755  0.24732672  1
  Mn3.30+  Mn123  1  0.83256022  0.32958095  0.74958313  1
  Mn3.30+  Mn124  1  0.83454680  0.66703259  0.24985220  1
  Mn3.30+  Mn125  1  0.83268927  0.66665341  0.74865809  1
  Mn3.30+  Mn126  1  -0.00153474  0.16737459  -0.00311729  1
  Mn3.30+  Mn127  1  -0.00273425  0.16686018  0.50122613  1
  Mn3.30+  Mn128  1  0.00027640  0.50032763  0.00171928  1
  Mn3.30+  Mn129  1  -0.00007466  0.49861115  0.50032487  1
  Mn3.30+  Mn130  1  -0.00010713  0.83455806  -0.00027494  1
  Mn3.30+  Mn131  1  -0.00102801  0.83365627  0.50036224  1
  Mn3.30+  Mn132  1  0.33353477  0.16673539  -0.00245459  1
  Mn3.30+  Mn133  1  0.33471195  0.16660370  0.50076360  1
  Mn3.30+  Mn134  1  0.33359702  0.50064992  -0.00010359  1
  Mn3.30+  Mn135  1  0.33545925  0.49948351  0.49957628  1
  Mn3.30+  Mn136  1  0.33344305  0.83403640  -0.00103855  1
  Mn3.30+  Mn137  1  0.33737258  0.83370628  0.50174392  1
  Mn3.30+  Mn138  1  0.66778969  0.16590709  -0.00217562  1
  Mn3.30+  Mn139  1  0.66818202  0.16709466  0.50337368  1
  Mn3.30+  Mn140  1  0.66654721  0.49881951  0.00062881  1
  Mn3.30+  Mn141  1  0.66588491  0.50010347  0.50034624  1
  Mn3.30+  Mn142  1  0.66702170  0.83410694  -0.00142930  1
  Mn3.30+  Mn143  1  0.66324036  0.83369561  0.50055569  1
  O2-  O144  1  0.02413089  0.15916846  0.12461804  1
  O2-  O145  1  0.02398122  0.16116268  0.62462542  1
  O2-  O146  1  0.02440030  0.49113900  0.12687116  1
  O2-  O147  1  0.02483815  0.49842202  0.62318562  1
  O2-  O148  1  0.02448800  0.82923886  0.12733934  1
  O2-  O149  1  0.02503237  0.82786593  0.62485252  1
  O2-  O150  1  0.35781454  0.16134806  0.12223047  1
  O2-  O151  1  0.35865517  0.16101456  0.62781687  1
  O2-  O152  1  0.35945490  0.49087935  0.12569060  1
  O2-  O153  1  0.36247018  0.49166866  0.62634349  1
  O2-  O154  1  0.35509419  0.83130135  0.12346443  1
  O2-  O155  1  0.36113674  0.82863279  0.62662287  1
  O2-  O156  1  0.69185342  0.15780220  0.12165390  1
  O2-  O157  1  0.69390512  0.15708159  0.62708724  1
  O2-  O158  1  0.69191351  0.49586627  0.12540276  1
  O2-  O159  1  0.68957749  0.49023778  0.62337876  1
  O2-  O160  1  0.69275554  0.82774379  0.12367664  1
  O2-  O161  1  0.68502145  0.83079714  0.62587276  1
  O2-  O162  1  0.14037200  0.32829572  0.12664651  1
  O2-  O163  1  0.15027381  0.33035456  0.62436769  1
  O2-  O164  1  0.13615952  0.66335670  0.12553994  1
  O2-  O165  1  0.14127963  0.66037046  0.62463705  1
  O2-  O166  1  0.14136651  0.99411623  0.12477352  1
  O2-  O167  1  0.13883466  0.99509070  0.62522270  1
  O2-  O168  1  0.47329681  0.32849091  0.12632561  1
  O2-  O169  1  0.47357499  0.32991380  0.62578479  1
  O2-  O170  1  0.47387982  0.65988006  0.12420958  1
  O2-  O171  1  0.47518064  0.65782216  0.62557926  1
  O2-  O172  1  0.47335572  0.99380401  0.12264232  1
  O2-  O173  1  0.47608747  0.99477361  0.62832457  1
  O2-  O174  1  0.80313012  0.32819072  0.12472531  1
  O2-  O175  1  0.80676542  0.32821203  0.62512234  1
  O2-  O176  1  0.80776038  0.66168159  0.12419020  1
  O2-  O177  1  0.80579809  0.65767754  0.62343410  1
  O2-  O178  1  0.80781579  0.99495815  0.12204515  1
  O2-  O179  1  0.80862487  0.99530417  0.62630680  1
  O2-  O180  1  0.31071975  0.17206779  0.37466469  1
  O2-  O181  1  0.31555408  0.17664913  0.87585195  1
  O2-  O182  1  0.30877798  0.51126228  0.37201120  1
  O2-  O183  1  0.30915130  0.50531628  0.87605686  1
  O2-  O184  1  0.31024266  0.83000337  0.37689262  1
  O2-  O185  1  0.30946532  0.83782888  0.87394428  1
  O2-  O186  1  0.64140559  0.17327685  0.37610712  1
  O2-  O187  1  0.63753914  0.17476155  0.87501678  1
  O2-  O188  1  0.64035420  0.50831590  0.37476529  1
  O2-  O189  1  0.64112922  0.50667427  0.87579933  1
  O2-  O190  1  0.64016343  0.83110002  0.37429729  1
  O2-  O191  1  0.64211084  0.83641483  0.87582921  1
  O2-  O192  1  0.97409011  0.17156399  0.37377081  1
  O2-  O193  1  0.97178048  0.17106269  0.87651632  1
  O2-  O194  1  0.97502822  0.50627786  0.37414723  1
  O2-  O195  1  0.97620214  0.50872236  0.87601811  1
  O2-  O196  1  0.97311624  0.83929571  0.37438256  1
  O2-  O197  1  0.97579137  0.83913732  0.87369406  1
  O2-  O198  1  0.18745562  0.00592793  0.37620221  1
  O2-  O199  1  0.19283308  -0.00064351  0.87362092  1
  O2-  O200  1  0.19607395  0.33831026  0.37371248  1
  O2-  O201  1  0.19223483  0.34001099  0.87508468  1
  O2-  O202  1  0.19481888  0.67206454  0.37522473  1
  O2-  O203  1  0.18549414  0.67440988  0.87558207  1
  O2-  O204  1  0.51750756  0.00739236  0.37439604  1
  O2-  O205  1  0.52835061  0.00583732  0.87507619  1
  O2-  O206  1  0.52653869  0.33593718  0.37363660  1
  O2-  O207  1  0.52894360  0.33681618  0.87480479  1
  O2-  O208  1  0.52237747  0.67381906  0.37447193  1
  O2-  O209  1  0.52617872  0.67169561  0.87544798  1
  O2-  O210  1  0.85881438  0.00528911  0.37626458  1
  O2-  O211  1  0.86006902  0.00450695  0.87523923  1
  O2-  O212  1  0.85777447  0.33882847  0.37338849  1
  O2-  O213  1  0.85126218  0.34070420  0.87604629  1
  O2-  O214  1  0.85850071  0.67276802  0.37618155  1
  O2-  O215  1  0.85990743  0.67242537  0.87569312  1
  O2-  O216  1  0.23705360  0.09278205  0.02168240  1
  O2-  O217  1  0.23783058  0.09399988  0.52089827  1
  O2-  O218  1  0.23872656  0.42895874  0.02133761  1
  O2-  O219  1  0.23993156  0.43025632  0.51962628  1
  O2-  O220  1  0.23649985  0.76195651  0.01875503  1
  O2-  O221  1  0.23976135  0.76126228  0.52256784  1
  O2-  O222  1  0.56984633  0.09462450  0.02102090  1
  O2-  O223  1  0.57396551  0.09476669  0.52073836  1
  O2-  O224  1  0.56821231  0.42836603  0.01892799  1
  O2-  O225  1  0.56763688  0.42975592  0.51457923  1
  O2-  O226  1  0.57333135  0.75849697  0.02110825  1
  O2-  O227  1  0.56951487  0.76194374  0.52087449  1
  O2-  O228  1  0.90398343  0.09422097  0.02254645  1
  O2-  O229  1  0.90382494  0.09589238  0.52126293  1
  O2-  O230  1  0.90209765  0.42968834  0.01761311  1
  O2-  O231  1  0.90113525  0.42855774  0.51679529  1
  O2-  O232  1  0.90341699  0.76266290  0.01863077  1
  O2-  O233  1  0.90791553  0.75704585  0.51837355  1
  O2-  O234  1  0.25969121  0.26061248  0.22691359  1
  O2-  O235  1  0.26152682  0.25928790  0.73007825  1
  O2-  O236  1  0.26082292  0.59745396  0.22515766  1
  O2-  O237  1  0.26201068  0.59126274  0.72709893  1
  O2-  O238  1  0.26001401  0.92724613  0.22967362  1
  O2-  O239  1  0.25955312  0.92625437  0.72704061  1
  O2-  O240  1  0.59521623  0.26279079  0.22760655  1
  O2-  O241  1  0.59748429  0.26244812  0.72682100  1
  O2-  O242  1  0.59474693  0.59554799  0.22931302  1
  O2-  O243  1  0.59787025  0.59730752  0.72894532  1
  O2-  O244  1  0.59287550  0.92634014  0.22586792  1
  O2-  O245  1  0.59447486  0.92872207  0.73275561  1
  O2-  O246  1  0.92880889  0.26509526  0.22814920  1
  O2-  O247  1  0.92376358  0.25843673  0.73164559  1
  O2-  O248  1  0.92866430  0.59730015  0.22913572  1
  O2-  O249  1  0.92775891  0.59331214  0.72882793  1
  O2-  O250  1  0.92734584  0.93018380  0.22977459  1
  O2-  O251  1  0.92825708  0.92847965  0.73239246  1
  O2-  O252  1  0.09553175  0.23838827  0.27226835  1
  O2-  O253  1  0.09290733  0.23910186  0.76174584  1
  O2-  O254  1  0.09760233  0.57271677  0.27140197  1
  O2-  O255  1  0.09506530  0.57474625  0.77022230  1
  O2-  O256  1  0.09392352  0.90527970  0.27166238  1
  O2-  O257  1  0.09682596  0.90400091  0.76668884  1
  O2-  O258  1  0.43163506  0.23639019  0.26741093  1
  O2-  O259  1  0.43456779  0.23662697  0.76561755  1
  O2-  O260  1  0.43018341  0.57208527  0.26992907  1
  O2-  O261  1  0.43260791  0.56828364  0.76742873  1
  O2-  O262  1  0.43122897  0.90105585  0.26570535  1
  O2-  O263  1  0.42842611  0.90685447  0.77242116  1
  O2-  O264  1  0.76375558  0.23977241  0.27063678  1
  O2-  O265  1  0.75965224  0.23670316  0.77432714  1
  O2-  O266  1  0.76261350  0.57400745  0.27014212  1
  O2-  O267  1  0.76209696  0.57135443  0.77134635  1
  O2-  O268  1  0.76261640  0.90278391  0.26674670  1
  O2-  O269  1  0.76115923  0.90642269  0.77081025  1
  O2-  O270  1  0.06967884  0.07404829  0.47976125  1
  O2-  O271  1  0.06811780  0.06815888  0.98242309  1
  O2-  O272  1  0.07442681  0.40679174  0.47591117  1
  O2-  O273  1  0.07654028  0.41019108  0.98052746  1
  O2-  O274  1  0.07334258  0.73929371  0.47884239  1
  O2-  O275  1  0.07175407  0.74175832  0.97897217  1
  O2-  O276  1  0.40705286  0.07378073  0.48589616  1
  O2-  O277  1  0.40481890  0.06868219  0.97816125  1
  O2-  O278  1  0.40252196  0.40448391  0.47671944  1
  O2-  O279  1  0.40545447  0.40125472  0.97929474  1
  O2-  O280  1  0.40228605  0.73388729  0.48539496  1
  O2-  O281  1  0.41099681  0.74234712  0.98222090  1
  O2-  O282  1  0.74076019  0.07432215  0.48093226  1
  O2-  O283  1  0.73360983  0.06800740  0.97950620  1
  O2-  O284  1  0.73931347  0.40627559  0.47691323  1
  O2-  O285  1  0.73814259  0.40641458  0.97942905  1
  O2-  O286  1  0.73904635  0.74051751  0.47951683  1
  O2-  O287  1  0.74010273  0.73787335  0.97873092  1
  O2-  O288  1  0.09493151  0.23844873  0.47939241  1
  O2-  O289  1  0.09367441  0.23798350  0.98585241  1
  O2-  O290  1  0.09606811  0.57304021  0.47840734  1
  O2-  O291  1  0.09636916  0.57405030  0.98039941  1
  O2-  O292  1  0.09514080  0.90525807  0.47952574  1
  O2-  O293  1  0.09680669  0.90460327  0.98269598  1
  O2-  O294  1  0.43246494  0.23742225  0.48310018  1
  O2-  O295  1  0.43449196  0.23638903  0.98493005  1
  O2-  O296  1  0.43030727  0.57119019  0.47965400  1
  O2-  O297  1  0.43188133  0.56869935  0.98322003  1
  O2-  O298  1  0.42944274  0.90128273  0.48219683  1
  O2-  O299  1  0.43046662  0.90511285  0.98029863  1
  O2-  O300  1  0.76058904  0.24032274  0.47698441  1
  O2-  O301  1  0.76336532  0.23488915  0.97822036  1
  O2-  O302  1  0.76205309  0.57271937  0.47768756  1
  O2-  O303  1  0.76323816  0.57344334  0.97953630  1
  O2-  O304  1  0.76097148  0.90497123  0.48092631  1
  O2-  O305  1  0.76440489  0.90436981  0.98108142  1
  O2-  O306  1  0.07212701  0.07220198  0.26981744  1
  O2-  O307  1  0.06704577  0.06989791  0.76756678  1
  O2-  O308  1  0.07446264  0.40586163  0.27443171  1
  O2-  O309  1  0.07815769  0.41154631  0.76826681  1
  O2-  O310  1  0.07437855  0.73929761  0.27500427  1
  O2-  O311  1  0.07175641  0.74168774  0.76855614  1
  O2-  O312  1  0.40665117  0.07256733  0.26402889  1
  O2-  O313  1  0.40427970  0.07022678  0.77150763  1
  O2-  O314  1  0.40453721  0.40234586  0.27210725  1
  O2-  O315  1  0.40471842  0.40233204  0.77359728  1
  O2-  O316  1  0.40485492  0.73714478  0.26475469  1
  O2-  O317  1  0.40781328  0.73865967  0.76777672  1
  O2-  O318  1  0.74164376  0.07365107  0.26770677  1
  O2-  O319  1  0.73444318  0.06894450  0.77151659  1
  O2-  O320  1  0.73842406  0.40669869  0.27275592  1
  O2-  O321  1  0.73884597  0.40581525  0.76969876  1
  O2-  O322  1  0.73906066  0.73752309  0.27007091  1
  O2-  O323  1  0.74025634  0.74113817  0.77129430  1
  O2-  O324  1  0.23801358  0.09505794  0.22936478  1
  O2-  O325  1  0.23780875  0.09243439  0.72741165  1
  O2-  O326  1  0.23666007  0.42901128  0.22813901  1
  O2-  O327  1  0.24218601  0.42848269  0.72974782  1
  O2-  O328  1  0.23602019  0.76337875  0.23178092  1
  O2-  O329  1  0.23988094  0.76037389  0.72891634  1
  O2-  O330  1  0.57191503  0.09226163  0.22942400  1
  O2-  O331  1  0.57105758  0.09575663  0.72919819  1
  O2-  O332  1  0.56772350  0.42922282  0.23268508  1
  O2-  O333  1  0.56867714  0.42993992  0.73378401  1
  O2-  O334  1  0.57326507  0.75809886  0.22473816  1
  O2-  O335  1  0.57005454  0.76318742  0.73319169  1
  O2-  O336  1  0.90522119  0.09656340  0.22939568  1
  O2-  O337  1  0.90229460  0.09390596  0.72759263  1
  O2-  O338  1  0.90074925  0.42978538  0.23182248  1
  O2-  O339  1  0.90268560  0.42858077  0.73421417  1
  O2-  O340  1  0.90300187  0.76284962  0.23147053  1
  O2-  O341  1  0.90887146  0.75762642  0.73169358  1
  O2-  O342  1  0.25859355  0.26155756  0.02153966  1
  O2-  O343  1  0.26224049  0.25887531  0.52111192  1
  O2-  O344  1  0.25892678  0.59583621  0.02458068  1
  O2-  O345  1  0.26409052  0.59312392  0.52292535  1
  O2-  O346  1  0.25880679  0.92748610  0.02009649  1
  O2-  O347  1  0.26177603  0.92489965  0.52341243  1
  O2-  O348  1  0.59763671  0.26232459  0.02276343  1
  O2-  O349  1  0.59757137  0.26168354  0.52290398  1
  O2-  O350  1  0.59586368  0.59443411  0.02059495  1
  O2-  O351  1  0.59628311  0.59794713  0.52050333  1
  O2-  O352  1  0.59207925  0.92625292  0.02227292  1
  O2-  O353  1  0.59530733  0.92900627  0.51983116  1
  O2-  O354  1  0.92588983  0.26221332  0.02519433  1
  O2-  O355  1  0.92797113  0.26175254  0.51276722  1
  O2-  O356  1  0.92923228  0.59640708  0.02218965  1
  O2-  O357  1  0.92723391  0.59356243  0.51999141  1
  O2-  O358  1  0.92704456  0.92691321  0.02151663  1
  O2-  O359  1  0.92973824  0.93111512  0.51675205  1
