# generated using pymatgen
data_Sr7Ca15Pr50Mn72O216
_symmetry_space_group_name_H-M   'P 1'
_cell_length_a   16.55850278
_cell_length_b   16.60647708
_cell_length_c   15.59334153
_cell_angle_alpha   90.00132539
_cell_angle_beta   90.00828311
_cell_angle_gamma   89.99363493
_symmetry_Int_Tables_number   1
_chemical_formula_structural   Sr7Ca15Pr50Mn72O216
_chemical_formula_sum   'Sr7 Ca15 Pr50 Mn72 O216'
_cell_volume   4287.83198378
_cell_formula_units_Z   1
loop_
 _symmetry_equiv_pos_site_id
 _symmetry_equiv_pos_as_xyz
  1  'x, y, z'
loop_
 _atom_type_symbol
 _atom_type_oxidation_number
  Sr2+  2.0
  Ca2+  2.0
  Pr3+  3.0
  Mn3.30+  3.3
  O2-  -2.0
loop_
 _atom_site_type_symbol
 _atom_site_label
 _atom_site_symmetry_multiplicity
 _atom_site_fract_x
 _atom_site_fract_y
 _atom_site_fract_z
 _atom_site_occupancy
  Sr2+  Sr0  1  1.00295695  0.32395863  0.87392446  1
  Sr2+  Sr1  1  0.66736579  0.67648953  0.12344565  1
  Sr2+  Sr2  1  0.66778623  0.34121664  0.12531102  1
  Sr2+  Sr3  1  1.00186705  0.32428706  0.37597646  1
  Sr2+  Sr4  1  0.83525073  0.17494932  0.12567633  1
  Sr2+  Sr5  1  0.33477712  0.32502203  0.87191586  1
  Sr2+  Sr6  1  0.67185874  0.98641686  0.37430988  1
  Ca2+  Ca7  1  1.00106614  0.65236801  0.87259084  1
  Ca2+  Ca8  1  0.83662852  0.84999866  0.12434540  1
  Ca2+  Ca9  1  0.32780750  0.34833865  0.62570038  1
  Ca2+  Ca10  1  0.83685685  0.18174058  0.62450169  1
  Ca2+  Ca11  1  0.17073244  0.18495632  0.62508420  1
  Ca2+  Ca12  1  0.66669866  0.34880875  0.62483564  1
  Ca2+  Ca13  1  0.33616127  0.65201379  0.87437125  1
  Ca2+  Ca14  1  -0.00322452  0.01383887  0.12413987  1
  Ca2+  Ca15  1  0.49475435  0.81565785  0.87591147  1
  Ca2+  Ca16  1  0.83029021  0.82065200  0.37272916  1
  Ca2+  Ca17  1  0.84014980  0.51782577  0.62539061  1
  Ca2+  Ca18  1  0.16685104  0.84884945  0.12386076  1
  Ca2+  Ca19  1  0.16075415  0.48369948  0.37729183  1
  Ca2+  Ca20  1  0.83155476  0.81744674  0.87635234  1
  Ca2+  Ca21  1  -0.00561701  0.68015639  0.62777107  1
  Pr3+  Pr22  1  0.50036414  0.51040123  0.62630133  1
  Pr3+  Pr23  1  0.16778778  0.51096015  0.62410526  1
  Pr3+  Pr24  1  0.67179394  0.65689324  0.37478659  1
  Pr3+  Pr25  1  0.50051376  0.48828897  0.37552013  1
  Pr3+  Pr26  1  0.50593085  0.17932085  0.12539634  1
  Pr3+  Pr27  1  0.49938117  0.82039212  0.37441519  1
  Pr3+  Pr28  1  0.66738155  0.00979597  0.12575055  1
  Pr3+  Pr29  1  0.33363583  0.65274041  0.37543556  1
  Pr3+  Pr30  1  0.16134992  0.81652244  0.87770253  1
  Pr3+  Pr31  1  0.32880946  0.67838566  0.62770221  1
  Pr3+  Pr32  1  0.33154604  0.34592240  0.12428306  1
  Pr3+  Pr33  1  0.49714150  0.48859650  0.87414457  1
  Pr3+  Pr34  1  0.16287968  0.15538343  0.87296067  1
  Pr3+  Pr35  1  0.83342383  0.15626738  0.87475478  1
  Pr3+  Pr36  1  0.66875722  0.65449131  0.87525773  1
  Pr3+  Pr37  1  1.00181987  0.65397436  0.37693288  1
  Pr3+  Pr38  1  0.83283041  0.48842154  0.87265012  1
  Pr3+  Pr39  1  0.50363214  0.84524536  0.62716865  1
  Pr3+  Pr40  1  0.32721473  0.68098687  0.12238145  1
  Pr3+  Pr41  1  -0.00468799  0.34579672  0.12530514  1
  Pr3+  Pr42  1  0.33362843  0.32142568  0.37844515  1
  Pr3+  Pr43  1  0.49977421  0.15307261  0.37636044  1
  Pr3+  Pr44  1  0.33540235  0.98690761  0.37521608  1
  Pr3+  Pr45  1  0.16144828  0.82169755  0.37232282  1
  Pr3+  Pr46  1  0.67031619  0.32217661  0.87340382  1
  Pr3+  Pr47  1  0.16070138  0.15409570  0.37716245  1
  Pr3+  Pr48  1  0.16443568  0.48744317  0.87358925  1
  Pr3+  Pr49  1  0.66746289  0.67768356  0.62654378  1
  Pr3+  Pr50  1  -0.00636723  0.68105909  0.12280160  1
  Pr3+  Pr51  1  0.50534178  0.84434893  0.12258694  1
  Pr3+  Pr52  1  0.67187379  0.98417152  0.87520912  1
  Pr3+  Pr53  1  0.16706468  0.50969573  0.12581775  1
  Pr3+  Pr54  1  0.67259945  0.32043277  0.37652355  1
  Pr3+  Pr55  1  0.49633141  0.15657038  0.87417497  1
  Pr3+  Pr56  1  0.16548208  0.17767635  0.12493163  1
  Pr3+  Pr57  1  0.83091295  0.48770848  0.37744446  1
  Pr3+  Pr58  1  0.32775426  0.01453755  0.62544815  1
  Pr3+  Pr59  1  0.50327278  0.18319541  0.62494053  1
  Pr3+  Pr60  1  0.83223121  0.15338615  0.37560048  1
  Pr3+  Pr61  1  0.50564603  0.51211350  0.12351903  1
  Pr3+  Pr62  1  0.83709655  0.84357899  0.62612968  1
  Pr3+  Pr63  1  -0.00400841  0.01571310  0.62574517  1
  Pr3+  Pr64  1  0.66613236  0.01220005  0.62388325  1
  Pr3+  Pr65  1  1.00151352  0.98780867  0.87765897  1
  Pr3+  Pr66  1  -0.00345126  0.34753183  0.62508547  1
  Pr3+  Pr67  1  0.33024313  0.01214573  0.12460695  1
  Pr3+  Pr68  1  0.16480184  0.84283618  0.62589394  1
  Pr3+  Pr69  1  0.99974129  0.98766505  0.37202571  1
  Pr3+  Pr70  1  0.83545765  0.51024176  0.12441642  1
  Pr3+  Pr71  1  0.33693649  0.98644838  0.87494431  1
  Mn3.30+  Mn72  1  0.16627336  -0.00131157  0.00118546  1
  Mn3.30+  Mn73  1  0.16492514  0.00026766  0.50122565  1
  Mn3.30+  Mn74  1  0.16625361  0.33262287  -0.00057170  1
  Mn3.30+  Mn75  1  0.16658968  0.33340016  0.50116196  1
  Mn3.30+  Mn76  1  0.16429585  0.66661471  -0.00045929  1
  Mn3.30+  Mn77  1  0.16410246  0.66593483  0.50060794  1
  Mn3.30+  Mn78  1  0.50050567  -0.00184708  -0.00195777  1
  Mn3.30+  Mn79  1  0.49974630  -0.00059498  0.50085995  1
  Mn3.30+  Mn80  1  0.50013683  0.33320019  -0.00086036  1
  Mn3.30+  Mn81  1  0.50109947  0.33444383  0.50194934  1
  Mn3.30+  Mn82  1  0.49757437  0.66761316  -0.00161110  1
  Mn3.30+  Mn83  1  0.50005622  0.66630460  0.50093022  1
  Mn3.30+  Mn84  1  0.83596754  -0.00233508  -0.00038545  1
  Mn3.30+  Mn85  1  0.83346879  -0.00082842  0.50096955  1
  Mn3.30+  Mn86  1  0.83473935  0.33291896  -0.00091849  1
  Mn3.30+  Mn87  1  0.83286242  0.33391313  0.50392449  1
  Mn3.30+  Mn88  1  0.83440100  0.66912520  -0.00149395  1
  Mn3.30+  Mn89  1  0.83586250  0.66792305  0.50097587  1
  Mn3.30+  Mn90  1  -0.00085908  0.16595173  0.25044591  1
  Mn3.30+  Mn91  1  0.00016252  0.16863009  0.74729529  1
  Mn3.30+  Mn92  1  0.00197019  0.50105445  0.25209013  1
  Mn3.30+  Mn93  1  -0.00082684  0.50250566  0.74876826  1
  Mn3.30+  Mn94  1  -0.00272970  0.83442867  0.24684522  1
  Mn3.30+  Mn95  1  -0.00154976  0.83093008  0.75348957  1
  Mn3.30+  Mn96  1  0.33309510  0.16694117  0.25095748  1
  Mn3.30+  Mn97  1  0.33146506  0.16928451  0.74825467  1
  Mn3.30+  Mn98  1  0.33267871  0.49982564  0.25153659  1
  Mn3.30+  Mn99  1  0.33273653  0.50013159  0.74925195  1
  Mn3.30+  Mn100  1  0.33116845  0.83284125  0.24829936  1
  Mn3.30+  Mn101  1  0.33355005  0.83187728  0.75227568  1
  Mn3.30+  Mn102  1  0.66799510  0.16522404  0.25045490  1
  Mn3.30+  Mn103  1  0.66787008  0.16788849  0.74753571  1
  Mn3.30+  Mn104  1  0.66735258  0.49992426  0.25008804  1
  Mn3.30+  Mn105  1  0.66874173  0.49965085  0.74672152  1
  Mn3.30+  Mn106  1  0.67057910  0.83261637  0.24758888  1
  Mn3.30+  Mn107  1  0.66730349  0.83209578  0.75310960  1
  Mn3.30+  Mn108  1  0.16532357  -0.00094823  0.24761950  1
  Mn3.30+  Mn109  1  0.16597186  -0.00011444  0.74998698  1
  Mn3.30+  Mn110  1  0.16586618  0.33358921  0.25096837  1
  Mn3.30+  Mn111  1  0.16722458  0.33228478  0.74835729  1
  Mn3.30+  Mn112  1  0.16462550  0.66665788  0.24908967  1
  Mn3.30+  Mn113  1  0.16393030  0.66585643  0.75144465  1
  Mn3.30+  Mn114  1  0.50037566  -0.00187725  0.25084503  1
  Mn3.30+  Mn115  1  0.50031863  -0.00043024  0.75047164  1
  Mn3.30+  Mn116  1  0.50040894  0.33304601  0.25249273  1
  Mn3.30+  Mn117  1  0.50047134  0.33456285  0.74642715  1
  Mn3.30+  Mn118  1  0.49986715  0.66657838  0.24942133  1
  Mn3.30+  Mn119  1  0.49824496  0.66738768  0.75092093  1
  Mn3.30+  Mn120  1  0.83533853  -0.00245224  0.24846968  1
  Mn3.30+  Mn121  1  0.83392771  -0.00027773  0.75045538  1
  Mn3.30+  Mn122  1  0.83463091  0.33308282  0.25072653  1
  Mn3.30+  Mn123  1  0.83297279  0.33370998  0.74677044  1
  Mn3.30+  Mn124  1  0.83432922  0.66979080  0.24882879  1
  Mn3.30+  Mn125  1  0.83617055  0.66701743  0.75189096  1
  Mn3.30+  Mn126  1  -0.00069067  0.16566957  -0.00061018  1
  Mn3.30+  Mn127  1  -0.00007307  0.16870801  0.50276104  1
  Mn3.30+  Mn128  1  0.00115175  0.50209606  -0.00180680  1
  Mn3.30+  Mn129  1  -0.00013777  0.50150146  0.50138067  1
  Mn3.30+  Mn130  1  -0.00200312  0.83334511  0.00091069  1
  Mn3.30+  Mn131  1  -0.00225224  0.83259729  0.49923920  1
  Mn3.30+  Mn132  1  0.33344007  0.16747846  -0.00045974  1
  Mn3.30+  Mn133  1  0.33126285  0.16833079  0.50171782  1
  Mn3.30+  Mn134  1  0.33395821  0.50145533  -0.00008968  1
  Mn3.30+  Mn135  1  0.33123453  0.49865229  0.49887346  1
  Mn3.30+  Mn136  1  0.33248888  0.83215793  -0.00113058  1
  Mn3.30+  Mn137  1  0.33211123  0.83255773  0.50043220  1
  Mn3.30+  Mn138  1  0.66624962  0.16577526  -0.00135536  1
  Mn3.30+  Mn139  1  0.66923914  0.16754404  0.50348454  1
  Mn3.30+  Mn140  1  0.66688209  0.49948916  -0.00079308  1
  Mn3.30+  Mn141  1  0.66892700  0.50025614  0.50373898  1
  Mn3.30+  Mn142  1  0.66853350  0.83178555  -0.00138334  1
  Mn3.30+  Mn143  1  0.66944811  0.83281978  0.49960192  1
  O2-  O144  1  0.02194072  0.16107622  0.12505246  1
  O2-  O145  1  0.02870468  0.16184091  0.62464816  1
  O2-  O146  1  0.02207334  0.49684210  0.12631815  1
  O2-  O147  1  0.02440686  0.49603202  0.62497456  1
  O2-  O148  1  0.02828788  0.82478890  0.12334598  1
  O2-  O149  1  0.02273295  0.82617145  0.62796835  1
  O2-  O150  1  0.36209271  0.16061866  0.12825185  1
  O2-  O151  1  0.36041795  0.15889035  0.62554925  1
  O2-  O152  1  0.36180024  0.49419268  0.12866840  1
  O2-  O153  1  0.35629208  0.49694206  0.62368587  1
  O2-  O154  1  0.36069415  0.82863915  0.12415990  1
  O2-  O155  1  0.35880565  0.82678985  0.62714795  1
  O2-  O156  1  0.68350803  0.16000288  0.12460609  1
  O2-  O157  1  0.69512667  0.15768187  0.62593528  1
  O2-  O158  1  0.69021886  0.49765160  0.12431300  1
  O2-  O159  1  0.69646933  0.49750293  0.62555927  1
  O2-  O160  1  0.69203144  0.83252409  0.12312751  1
  O2-  O161  1  0.69206708  0.82689629  0.62731204  1
  O2-  O162  1  0.14114197  0.32801889  0.12524562  1
  O2-  O163  1  0.14182122  0.33045613  0.62480994  1
  O2-  O164  1  0.13770568  0.65551970  0.12565176  1
  O2-  O165  1  0.13821035  0.66171348  0.62462949  1
  O2-  O166  1  0.14149014  0.99636343  0.12399600  1
  O2-  O167  1  0.13946873  0.98888064  0.62553103  1
  O2-  O168  1  0.47523457  0.32727586  0.12967886  1
  O2-  O169  1  0.47051179  0.33049247  0.62334663  1
  O2-  O170  1  0.47240711  0.66010561  0.12403906  1
  O2-  O171  1  0.47293680  0.66109824  0.62502653  1
  O2-  O172  1  0.47434196  0.99232734  0.12264057  1
  O2-  O173  1  0.47312168  0.99238341  0.62478125  1
  O2-  O174  1  0.81770142  0.33665114  0.12487609  1
  O2-  O175  1  0.80612652  0.32407379  0.62559787  1
  O2-  O176  1  0.81572940  0.65602941  0.12366983  1
  O2-  O177  1  0.81081316  0.66438108  0.62712930  1
  O2-  O178  1  0.80986287  0.99547525  0.12123578  1
  O2-  O179  1  0.80897581  0.99000209  0.62657528  1
  O2-  O180  1  0.30501533  0.17249229  0.37485581  1
  O2-  O181  1  0.30758253  0.16926270  0.87179898  1
  O2-  O182  1  0.30328734  0.50580010  0.37409058  1
  O2-  O183  1  0.30870452  0.50589608  0.87320909  1
  O2-  O184  1  0.30602014  0.83850186  0.37359107  1
  O2-  O185  1  0.30468201  0.84097924  0.87471310  1
  O2-  O186  1  0.64387132  0.17117518  0.37851325  1
  O2-  O187  1  0.63998531  0.17280856  0.87135705  1
  O2-  O188  1  0.64475870  0.50701475  0.37782597  1
  O2-  O189  1  0.64227020  0.50424288  0.87206525  1
  O2-  O190  1  0.64293157  0.83012833  0.37510066  1
  O2-  O191  1  0.63742117  0.83759834  0.87388799  1
  O2-  O192  1  0.97731322  0.16749351  0.37824075  1
  O2-  O193  1  0.97806758  0.16764806  0.87216271  1
  O2-  O194  1  0.97486056  0.50525786  0.37708153  1
  O2-  O195  1  0.97694063  0.50472073  0.87181593  1
  O2-  O196  1  0.97239557  0.84028344  0.37160495  1
  O2-  O197  1  0.97198987  0.84258785  0.87710097  1
  O2-  O198  1  0.19166837  0.00481704  0.37586034  1
  O2-  O199  1  0.19261739  0.00703886  0.87492691  1
  O2-  O200  1  0.19005578  0.33711430  0.37513505  1
  O2-  O201  1  0.18548838  0.33757668  0.87444714  1
  O2-  O202  1  0.19194530  0.67683276  0.37332809  1
  O2-  O203  1  0.19461535  0.67036593  0.87654785  1
  O2-  O204  1  0.52069004  0.00459219  0.37890073  1
  O2-  O205  1  0.52740497  0.01074322  0.87414630  1
  O2-  O206  1  0.52827156  0.33926599  0.37736867  1
  O2-  O207  1  0.52543131  0.33843140  0.86924654  1
  O2-  O208  1  0.52591745  0.67181447  0.37676479  1
  O2-  O209  1  0.52419322  0.66949284  0.87378138  1
  O2-  O210  1  0.85690666  0.00603623  0.37750057  1
  O2-  O211  1  0.85823568  0.00910507  0.87346961  1
  O2-  O212  1  0.85227263  0.33954814  0.37765862  1
  O2-  O213  1  0.85349499  0.33854871  0.87237097  1
  O2-  O214  1  0.85768652  0.67469652  0.37424310  1
  O2-  O215  1  0.85938681  0.67144741  0.87573288  1
  O2-  O216  1  0.24145140  0.09480084  0.02201427  1
  O2-  O217  1  0.23484911  0.09398912  0.52235500  1
  O2-  O218  1  0.24208823  0.42793959  0.02072259  1
  O2-  O219  1  0.23841029  0.42736982  0.51934695  1
  O2-  O220  1  0.23199544  0.76101880  0.02304320  1
  O2-  O221  1  0.23802540  0.76065009  0.52192752  1
  O2-  O222  1  0.57070591  0.09213312  0.02032017  1
  O2-  O223  1  0.57291894  0.09546572  0.52192031  1
  O2-  O224  1  0.57265179  0.42900172  0.01567251  1
  O2-  O225  1  0.56943091  0.42979708  0.51922580  1
  O2-  O226  1  0.56756041  0.76017224  0.01727359  1
  O2-  O227  1  0.57210720  0.76122502  0.52163201  1
  O2-  O228  1  0.90597220  0.09474541  0.01237414  1
  O2-  O229  1  0.90615701  0.09616114  0.52248160  1
  O2-  O230  1  0.90870257  0.43022407  0.01697798  1
  O2-  O231  1  0.90220178  0.42929126  0.52245392  1
  O2-  O232  1  0.90397916  0.76367818  0.02385433  1
  O2-  O233  1  0.90409854  0.76280244  0.51907166  1
  O2-  O234  1  0.26314871  0.26075656  0.22928248  1
  O2-  O235  1  0.26338928  0.26275959  0.72737317  1
  O2-  O236  1  0.26218197  0.59458309  0.22794373  1
  O2-  O237  1  0.25842988  0.59302111  0.72677774  1
  O2-  O238  1  0.26299619  0.92967572  0.23149067  1
  O2-  O239  1  0.26202207  0.92738152  0.72969837  1
  O2-  O240  1  0.59098554  0.25724739  0.23536466  1
  O2-  O241  1  0.59616787  0.26256932  0.72540085  1
  O2-  O242  1  0.59115786  0.59137924  0.23314715  1
  O2-  O243  1  0.59462587  0.59258928  0.72866367  1
  O2-  O244  1  0.59606970  0.92404172  0.22859111  1
  O2-  O245  1  0.59672927  0.92776757  0.72851201  1
  O2-  O246  1  0.92966953  0.26220270  0.23362866  1
  O2-  O247  1  0.92819416  0.26245931  0.72929935  1
  O2-  O248  1  0.92996821  0.59661395  0.23388023  1
  O2-  O249  1  0.92915657  0.59682053  0.73060473  1
  O2-  O250  1  0.93290462  0.93203263  0.22877082  1
  O2-  O251  1  0.92982090  0.92866123  0.73012204  1
  O2-  O252  1  0.09712169  0.23460930  0.26580790  1
  O2-  O253  1  0.09696887  0.23680923  0.76637176  1
  O2-  O254  1  0.09624455  0.57122015  0.27372529  1
  O2-  O255  1  0.09748154  0.57091548  0.76928527  1
  O2-  O256  1  0.09283374  0.90497986  0.27109093  1
  O2-  O257  1  0.09399917  0.90261145  0.77230453  1
  O2-  O258  1  0.42689459  0.23898927  0.27501567  1
  O2-  O259  1  0.43155675  0.23604556  0.76544469  1
  O2-  O260  1  0.42575135  0.57198323  0.27383608  1
  O2-  O261  1  0.42822498  0.57238406  0.76703904  1
  O2-  O262  1  0.42829224  0.90533279  0.27097062  1
  O2-  O263  1  0.42939650  0.90422677  0.77254126  1
  O2-  O264  1  0.75916073  0.23978812  0.27096674  1
  O2-  O265  1  0.75952793  0.23955873  0.77321883  1
  O2-  O266  1  0.76349725  0.57368003  0.27031726  1
  O2-  O267  1  0.76128806  0.57484956  0.77242492  1
  O2-  O268  1  0.76469936  0.90301976  0.26681983  1
  O2-  O269  1  0.76095190  0.90251709  0.77284215  1
  O2-  O270  1  0.07095135  0.06952961  0.47993690  1
  O2-  O271  1  0.07478303  0.07347482  0.97869190  1
  O2-  O272  1  0.07307064  0.40619640  0.48735185  1
  O2-  O273  1  0.07532927  0.40881175  0.98511419  1
  O2-  O274  1  0.07360258  0.74131210  0.47675554  1
  O2-  O275  1  0.06745745  0.73597961  0.97733830  1
  O2-  O276  1  0.40202337  0.07368050  0.48035079  1
  O2-  O277  1  0.40579266  0.07123921  0.97921992  1
  O2-  O278  1  0.40820899  0.40659031  0.47551789  1
  O2-  O279  1  0.40921435  0.40721055  0.98308326  1
  O2-  O280  1  0.40484185  0.73850148  0.47851860  1
  O2-  O281  1  0.39916274  0.73567535  0.98074202  1
  O2-  O282  1  0.74224691  0.07105815  0.48354027  1
  O2-  O283  1  0.73829129  0.07222424  0.97889696  1
  O2-  O284  1  0.73831941  0.40645482  0.48011292  1
  O2-  O285  1  0.74099565  0.40824067  0.97784690  1
  O2-  O286  1  0.73624349  0.73484150  0.48581994  1
  O2-  O287  1  0.73786046  0.73751919  0.97776124  1
  O2-  O288  1  0.09777643  0.23754427  0.48299868  1
  O2-  O289  1  0.09664779  0.23432844  0.98471552  1
  O2-  O290  1  0.09749024  0.57296509  0.47708389  1
  O2-  O291  1  0.09647875  0.57046038  0.98052965  1
  O2-  O292  1  0.09351820  0.90488223  0.47923675  1
  O2-  O293  1  0.09407914  0.90405708  0.97735673  1
  O2-  O294  1  0.43174143  0.23901362  0.47836971  1
  O2-  O295  1  0.42826380  0.23628780  0.98322423  1
  O2-  O296  1  0.42648778  0.57204357  0.47878270  1
  O2-  O297  1  0.42810836  0.57122018  0.98087214  1
  O2-  O298  1  0.42576953  0.90384141  0.47943035  1
  O2-  O299  1  0.43144445  0.90529421  0.97602830  1
  O2-  O300  1  0.76157668  0.23984724  0.47843012  1
  O2-  O301  1  0.75800597  0.23992474  0.97826474  1
  O2-  O302  1  0.76356485  0.57543422  0.47929221  1
  O2-  O303  1  0.76033083  0.57210551  0.97847127  1
  O2-  O304  1  0.76399334  0.89963271  0.48335292  1
  O2-  O305  1  0.76310577  0.90694470  0.97502310  1
  O2-  O306  1  0.07450354  0.07322315  0.27165744  1
  O2-  O307  1  0.07158587  0.07013067  0.76966161  1
  O2-  O308  1  0.07357384  0.40717376  0.26361233  1
  O2-  O309  1  0.07434077  0.40831655  0.76432734  1
  O2-  O310  1  0.06803775  0.73898951  0.27076654  1
  O2-  O311  1  0.07149088  0.73847848  0.77559310  1
  O2-  O312  1  0.40342249  0.07347767  0.27225536  1
  O2-  O313  1  0.40406479  0.07217228  0.76959156  1
  O2-  O314  1  0.40523864  0.40533360  0.27420047  1
  O2-  O315  1  0.41035529  0.41139267  0.76789178  1
  O2-  O316  1  0.40332793  0.73846228  0.27085242  1
  O2-  O317  1  0.39980564  0.73739902  0.76971151  1
  O2-  O318  1  0.74214018  0.07277881  0.26544263  1
  O2-  O319  1  0.73805117  0.07142219  0.77095098  1
  O2-  O320  1  0.74011722  0.40766979  0.27160379  1
  O2-  O321  1  0.73966754  0.40717728  0.77122515  1
  O2-  O322  1  0.73786111  0.73732079  0.26822994  1
  O2-  O323  1  0.73582262  0.73587484  0.76826715  1
  O2-  O324  1  0.24019758  0.09484311  0.22873580  1
  O2-  O325  1  0.23866428  0.09604919  0.72688360  1
  O2-  O326  1  0.24283043  0.42592765  0.22630353  1
  O2-  O327  1  0.23795908  0.42870588  0.73199033  1
  O2-  O328  1  0.23524294  0.76149499  0.22583203  1
  O2-  O329  1  0.23525528  0.76051129  0.72921616  1
  O2-  O330  1  0.57119046  0.09141874  0.23196852  1
  O2-  O331  1  0.57243883  0.09532588  0.72667233  1
  O2-  O332  1  0.56880068  0.42838594  0.23465318  1
  O2-  O333  1  0.57334549  0.42889405  0.72797277  1
  O2-  O334  1  0.56937079  0.76283791  0.23224198  1
  O2-  O335  1  0.57213662  0.75923899  0.72788816  1
  O2-  O336  1  0.90709439  0.09424962  0.23847196  1
  O2-  O337  1  0.90607556  0.09713760  0.72758078  1
  O2-  O338  1  0.90736548  0.43098825  0.23297751  1
  O2-  O339  1  0.90450782  0.42979617  0.72808270  1
  O2-  O340  1  0.90490351  0.76331726  0.22435457  1
  O2-  O341  1  0.90340891  0.76271879  0.73293453  1
  O2-  O342  1  0.26025611  0.25978191  0.02357527  1
  O2-  O343  1  0.26569650  0.26458243  0.51857940  1
  O2-  O344  1  0.25865168  0.59279966  0.02429792  1
  O2-  O345  1  0.26022567  0.59667138  0.52050505  1
  O2-  O346  1  0.26462212  0.92922519  0.01824561  1
  O2-  O347  1  0.25975240  0.92819909  0.52059073  1
  O2-  O348  1  0.59087053  0.25856735  0.01593821  1
  O2-  O349  1  0.59534465  0.26416154  0.52320211  1
  O2-  O350  1  0.59118664  0.59157071  0.01521783  1
  O2-  O351  1  0.59462375  0.59333097  0.52277695  1
  O2-  O352  1  0.59653864  0.92849122  0.01941358  1
  O2-  O353  1  0.59494221  0.92425647  0.52286815  1
  O2-  O354  1  0.92935642  0.26152885  0.01644255  1
  O2-  O355  1  0.92811768  0.26293843  0.52117103  1
  O2-  O356  1  0.92689501  0.59353739  0.01847175  1
  O2-  O357  1  0.93123028  0.59994235  0.51750102  1
  O2-  O358  1  0.93311954  0.93154860  0.01944953  1
  O2-  O359  1  0.92918797  0.92972679  0.52125456  1
