# generated using pymatgen
data_Sr7Ca15Pr50Mn72O216
_symmetry_space_group_name_H-M   'P 1'
_cell_length_a   16.55721942
_cell_length_b   16.60557786
_cell_length_c   15.59775833
_cell_angle_alpha   89.99982206
_cell_angle_beta   89.99933058
_cell_angle_gamma   90.00353153
_symmetry_Int_Tables_number   1
_chemical_formula_structural   Sr7Ca15Pr50Mn72O216
_chemical_formula_sum   'Sr7 Ca15 Pr50 Mn72 O216'
_cell_volume   4288.48192245
_cell_formula_units_Z   1
loop_
 _symmetry_equiv_pos_site_id
 _symmetry_equiv_pos_as_xyz
  1  'x, y, z'
loop_
 _atom_type_symbol
 _atom_type_oxidation_number
  Sr2+  2.0
  Ca2+  2.0
  Pr3+  3.0
  Mn3.30+  3.3
  O2-  -2.0
loop_
 _atom_site_type_symbol
 _atom_site_label
 _atom_site_symmetry_multiplicity
 _atom_site_fract_x
 _atom_site_fract_y
 _atom_site_fract_z
 _atom_site_occupancy
  Sr2+  Sr0  1  0.16909601  0.84504364  0.62439551  1
  Sr2+  Sr1  1  0.33297251  0.32679783  0.87632914  1
  Sr2+  Sr2  1  1.00394249  0.98849226  0.87624144  1
  Sr2+  Sr3  1  0.00147327  0.67854311  0.62416470  1
  Sr2+  Sr4  1  0.16655237  0.82573635  0.87270434  1
  Sr2+  Sr5  1  0.49462331  0.48934452  0.87310973  1
  Sr2+  Sr6  1  0.33052853  0.67475066  0.12469324  1
  Ca2+  Ca7  1  0.17324580  0.18285602  0.12518607  1
  Ca2+  Ca8  1  -0.00015737  0.01386365  0.12446107  1
  Ca2+  Ca9  1  0.49356169  0.15066692  0.37493306  1
  Ca2+  Ca10  1  0.17009821  0.48940650  0.87433920  1
  Ca2+  Ca11  1  0.32985673  0.34725664  0.12394117  1
  Ca2+  Ca12  1  0.33096114  0.01055443  0.62452757  1
  Ca2+  Ca13  1  0.33251333  0.65541426  0.37649372  1
  Ca2+  Ca14  1  0.33899920  0.31554327  0.37373311  1
  Ca2+  Ca15  1  0.32718974  0.01714125  0.12626795  1
  Ca2+  Ca16  1  0.49987063  0.84847008  0.62401012  1
  Ca2+  Ca17  1  0.16594150  0.82030798  0.37590173  1
  Ca2+  Ca18  1  0.49674328  0.51218181  0.62804592  1
  Ca2+  Ca19  1  0.33090469  0.34854876  0.62669832  1
  Ca2+  Ca20  1  1.00894246  0.98261095  0.37379391  1
  Ca2+  Ca21  1  0.33391813  0.65137219  0.87386481  1
  Pr3+  Pr22  1  1.00850843  0.32197585  0.87515397  1
  Pr3+  Pr23  1  0.00021096  0.34535447  0.62369789  1
  Pr3+  Pr24  1  0.49142694  0.48748650  0.37674108  1
  Pr3+  Pr25  1  0.00103255  0.67977581  0.12563951  1
  Pr3+  Pr26  1  0.49697251  0.17755241  0.62176806  1
  Pr3+  Pr27  1  0.49339488  0.81686018  0.37672442  1
  Pr3+  Pr28  1  0.83301391  0.15288989  0.87605149  1
  Pr3+  Pr29  1  0.66607335  0.31926160  0.37544236  1
  Pr3+  Pr30  1  0.66587596  0.32151299  0.87434478  1
  Pr3+  Pr31  1  0.83823301  0.84491154  0.62369939  1
  Pr3+  Pr32  1  0.65874542  0.68221639  0.62541405  1
  Pr3+  Pr33  1  0.66761224  0.65303990  0.37524126  1
  Pr3+  Pr34  1  0.49578166  0.50969788  0.12184458  1
  Pr3+  Pr35  1  0.82982237  0.48739536  0.37633733  1
  Pr3+  Pr36  1  0.00186185  0.00730720  0.62574437  1
  Pr3+  Pr37  1  0.17217943  0.84870178  0.12537135  1
  Pr3+  Pr38  1  0.83726229  0.17733612  0.62460067  1
  Pr3+  Pr39  1  0.83292728  0.82131234  0.37417178  1
  Pr3+  Pr40  1  0.66191477  0.01172210  0.62365705  1
  Pr3+  Pr41  1  0.33370221  0.98937025  0.87564174  1
  Pr3+  Pr42  1  1.00756671  0.65388628  0.87326994  1
  Pr3+  Pr43  1  0.16595998  0.15452769  0.87737601  1
  Pr3+  Pr44  1  0.00262584  0.34438693  0.12615649  1
  Pr3+  Pr45  1  0.65983292  0.34841722  0.62421550  1
  Pr3+  Pr46  1  0.83296724  0.82187214  0.87490453  1
  Pr3+  Pr47  1  0.66239172  0.34580067  0.12580627  1
  Pr3+  Pr48  1  0.65983025  0.67935435  0.12441047  1
  Pr3+  Pr49  1  0.83799629  0.17834516  0.12554017  1
  Pr3+  Pr50  1  0.66567283  0.98839016  0.37449157  1
  Pr3+  Pr51  1  0.66811650  0.98773162  0.87516225  1
  Pr3+  Pr52  1  0.17466880  0.17664211  0.62518617  1
  Pr3+  Pr53  1  1.00615104  0.32039732  0.37493970  1
  Pr3+  Pr54  1  0.33521119  0.98685595  0.37472087  1
  Pr3+  Pr55  1  0.16494458  0.15255587  0.37260136  1
  Pr3+  Pr56  1  0.66323565  0.01352977  0.12617245  1
  Pr3+  Pr57  1  0.49705365  0.84652833  0.12620873  1
  Pr3+  Pr58  1  0.49134800  0.81893821  0.87373334  1
  Pr3+  Pr59  1  0.49840757  0.17987669  0.12816215  1
  Pr3+  Pr60  1  1.00479043  0.65631954  0.37667287  1
  Pr3+  Pr61  1  0.17352420  0.51144666  0.12332535  1
  Pr3+  Pr62  1  0.66741886  0.65232937  0.87453573  1
  Pr3+  Pr63  1  0.33144549  0.67837868  0.62608942  1
  Pr3+  Pr64  1  0.83723652  0.51528408  0.62479094  1
  Pr3+  Pr65  1  0.83877136  0.84868842  0.12579054  1
  Pr3+  Pr66  1  0.83445975  0.15256987  0.37409493  1
  Pr3+  Pr67  1  0.17012983  0.48851664  0.37548366  1
  Pr3+  Pr68  1  0.17137547  0.51309758  0.62619905  1
  Pr3+  Pr69  1  0.83729168  0.51286950  0.12519058  1
  Pr3+  Pr70  1  0.49373146  0.15669885  0.87547651  1
  Pr3+  Pr71  1  0.83055137  0.48697650  0.87362590  1
  Mn3.30+  Mn72  1  0.16634532  0.00206380  0.00401029  1
  Mn3.30+  Mn73  1  0.16836394  -0.00105936  0.49851858  1
  Mn3.30+  Mn74  1  0.16944650  0.33355118  0.00065905  1
  Mn3.30+  Mn75  1  0.17251826  0.33214650  0.49923154  1
  Mn3.30+  Mn76  1  0.16869461  0.66679821  -0.00277455  1
  Mn3.30+  Mn77  1  0.16950427  0.66885056  0.49921781  1
  Mn3.30+  Mn78  1  0.49732254  0.00081570  0.00208747  1
  Mn3.30+  Mn79  1  0.49726640  -0.00038605  0.50026990  1
  Mn3.30+  Mn80  1  0.49679739  0.33359488  0.00081151  1
  Mn3.30+  Mn81  1  0.49540892  0.33300191  0.49994471  1
  Mn3.30+  Mn82  1  0.49618582  0.66638857  -0.00085796  1
  Mn3.30+  Mn83  1  0.49767340  0.66548028  0.50142865  1
  Mn3.30+  Mn84  1  0.83490441  0.00014877  0.00112029  1
  Mn3.30+  Mn85  1  0.83518951  -0.00076586  0.49721155  1
  Mn3.30+  Mn86  1  0.83504003  0.33305604  -0.00004513  1
  Mn3.30+  Mn87  1  0.83271624  0.33212680  0.50016815  1
  Mn3.30+  Mn88  1  0.83394622  0.66736187  0.00016261  1
  Mn3.30+  Mn89  1  0.83260787  0.66755800  0.49983361  1
  Mn3.30+  Mn90  1  0.00365685  0.16389575  0.24847095  1
  Mn3.30+  Mn91  1  0.00257532  0.16605022  0.74925275  1
  Mn3.30+  Mn92  1  0.00180871  0.50019181  0.25093182  1
  Mn3.30+  Mn93  1  0.00160407  0.49986309  0.74994077  1
  Mn3.30+  Mn94  1  0.00379736  0.83595010  0.25053199  1
  Mn3.30+  Mn95  1  0.00156600  0.83367962  0.74955820  1
  Mn3.30+  Mn96  1  0.33221603  0.16763020  0.24968670  1
  Mn3.30+  Mn97  1  0.33345142  0.16724223  0.74952935  1
  Mn3.30+  Mn98  1  0.33266507  0.49917831  0.25158694  1
  Mn3.30+  Mn99  1  0.33446317  0.49932028  0.74954791  1
  Mn3.30+  Mn100  1  0.33051164  0.83185947  0.25111323  1
  Mn3.30+  Mn101  1  0.33347815  0.83418360  0.74845201  1
  Mn3.30+  Mn102  1  0.66543034  0.16645295  0.25207296  1
  Mn3.30+  Mn103  1  0.66550258  0.16698467  0.74880524  1
  Mn3.30+  Mn104  1  0.66434453  0.49935097  0.25032843  1
  Mn3.30+  Mn105  1  0.66430628  0.50020433  0.74875467  1
  Mn3.30+  Mn106  1  0.66578288  0.83350793  0.24963784  1
  Mn3.30+  Mn107  1  0.66345293  0.83394829  0.74998431  1
  Mn3.30+  Mn108  1  0.16631824  0.00084111  0.24858679  1
  Mn3.30+  Mn109  1  0.16825721  0.00012620  0.74935300  1
  Mn3.30+  Mn110  1  0.17243401  0.33184066  0.25099977  1
  Mn3.30+  Mn111  1  0.16960484  0.33420844  0.74976451  1
  Mn3.30+  Mn112  1  0.16845806  0.66800716  0.25222755  1
  Mn3.30+  Mn113  1  0.16919625  0.66739288  0.75113832  1
  Mn3.30+  Mn114  1  0.49637417  0.00090287  0.24980615  1
  Mn3.30+  Mn115  1  0.49822882  -0.00015628  0.74806445  1
  Mn3.30+  Mn116  1  0.49582962  0.33243525  0.25158538  1
  Mn3.30+  Mn117  1  0.49644270  0.33435081  0.74761779  1
  Mn3.30+  Mn118  1  0.49669746  0.66546321  0.24987619  1
  Mn3.30+  Mn119  1  0.49729970  0.66623166  0.74944602  1
  Mn3.30+  Mn120  1  0.83772483  -0.00001780  0.25103039  1
  Mn3.30+  Mn121  1  0.83243762  -0.00078101  0.74988013  1
  Mn3.30+  Mn122  1  0.83399864  0.33290558  0.25058468  1
  Mn3.30+  Mn123  1  0.83383401  0.33230156  0.74924666  1
  Mn3.30+  Mn124  1  0.83268110  0.66713309  0.24931326  1
  Mn3.30+  Mn125  1  0.83364228  0.66755929  0.75029439  1
  Mn3.30+  Mn126  1  0.00315952  0.16580092  0.00296909  1
  Mn3.30+  Mn127  1  0.00309209  0.16375031  0.49922538  1
  Mn3.30+  Mn128  1  0.00282390  0.49984404  -0.00008755  1
  Mn3.30+  Mn129  1  0.00101150  0.50014834  0.49921105  1
  Mn3.30+  Mn130  1  0.00265149  0.83480560  0.00069914  1
  Mn3.30+  Mn131  1  0.00295252  0.83481425  0.49856732  1
  Mn3.30+  Mn132  1  0.33099380  0.16825996  0.00299212  1
  Mn3.30+  Mn133  1  0.33419667  0.16672440  0.49833441  1
  Mn3.30+  Mn134  1  0.33224874  0.49981271  -0.00240395  1
  Mn3.30+  Mn135  1  0.33472477  0.49872235  0.50149194  1
  Mn3.30+  Mn136  1  0.33136489  0.83287649  0.00052490  1
  Mn3.30+  Mn137  1  0.33256670  0.83322812  0.50064625  1
  Mn3.30+  Mn138  1  0.66568718  0.16718821  0.00081846  1
  Mn3.30+  Mn139  1  0.66532930  0.16629810  0.49826325  1
  Mn3.30+  Mn140  1  0.66663505  0.49903837  -0.00071236  1
  Mn3.30+  Mn141  1  0.66230446  0.50042561  0.50110355  1
  Mn3.30+  Mn142  1  0.66468421  0.83370065  0.00006673  1
  Mn3.30+  Mn143  1  0.66453493  0.83382056  0.49958334  1
  O2-  O144  1  0.02788934  0.16139452  0.12654346  1
  O2-  O145  1  0.02808147  0.15803237  0.62218317  1
  O2-  O146  1  0.02765698  0.49486981  0.12589127  1
  O2-  O147  1  0.02533248  0.49415886  0.62215060  1
  O2-  O148  1  0.02663735  0.82496324  0.12623038  1
  O2-  O149  1  0.01679295  0.83569540  0.62204150  1
  O2-  O150  1  0.35766236  0.15881249  0.12682397  1
  O2-  O151  1  0.35458281  0.15430276  0.62284116  1
  O2-  O152  1  0.35204082  0.49410417  0.12653656  1
  O2-  O153  1  0.35611737  0.49305085  0.62395763  1
  O2-  O154  1  0.35567853  0.82693905  0.12620024  1
  O2-  O155  1  0.36082003  0.82544128  0.62483448  1
  O2-  O156  1  0.69335298  0.16276071  0.12648890  1
  O2-  O157  1  0.69343797  0.16047575  0.62196922  1
  O2-  O158  1  0.69380090  0.49379575  0.12335815  1
  O2-  O159  1  0.69391048  0.49584701  0.62410344  1
  O2-  O160  1  0.69310452  0.82689050  0.12442022  1
  O2-  O161  1  0.69333410  0.82969970  0.62297949  1
  O2-  O162  1  0.14465528  0.33214904  0.12700163  1
  O2-  O163  1  0.14256317  0.32691557  0.62300362  1
  O2-  O164  1  0.14333164  0.65886936  0.12548464  1
  O2-  O165  1  0.14956474  0.66027587  0.62459578  1
  O2-  O166  1  0.13920185  0.99364255  0.12722944  1
  O2-  O167  1  0.14546234  1.00565409  0.62146918  1
  O2-  O168  1  0.47418924  0.32820433  0.12878150  1
  O2-  O169  1  0.47272949  0.32357697  0.62211380  1
  O2-  O170  1  0.48106981  0.65994482  0.12537630  1
  O2-  O171  1  0.47681643  0.65927466  0.62531591  1
  O2-  O172  1  0.47151473  0.99379473  0.12753238  1
  O2-  O173  1  0.47453619  0.99466236  0.62467102  1
  O2-  O174  1  0.80679908  0.32692508  0.12639247  1
  O2-  O175  1  0.80535028  0.32435705  0.62452819  1
  O2-  O176  1  0.80522690  0.66074431  0.12519057  1
  O2-  O177  1  0.80513043  0.66363073  0.62469578  1
  O2-  O178  1  0.80704594  0.99701797  0.12559785  1
  O2-  O179  1  0.80592373  0.99379179  0.62228460  1
  O2-  O180  1  0.30814948  0.17292247  0.37327462  1
  O2-  O181  1  0.31096892  0.17034047  0.87792488  1
  O2-  O182  1  0.31302939  0.51018361  0.37680711  1
  O2-  O183  1  0.31139494  0.50454889  0.87324858  1
  O2-  O184  1  0.30781586  0.84081909  0.37449308  1
  O2-  O185  1  0.31561809  0.84411845  0.87524469  1
  O2-  O186  1  0.63779709  0.17090376  0.37551890  1
  O2-  O187  1  0.63942882  0.17223329  0.87575837  1
  O2-  O188  1  0.63708906  0.50546816  0.37730809  1
  O2-  O189  1  0.64603569  0.50298873  0.87485280  1
  O2-  O190  1  0.63948177  0.83893888  0.37475358  1
  O2-  O191  1  0.63652198  0.84112537  0.87734984  1
  O2-  O192  1  0.97683471  0.17499880  0.37472565  1
  O2-  O193  1  0.97597114  0.17550671  0.87640483  1
  O2-  O194  1  0.97378911  0.50514669  0.37562522  1
  O2-  O195  1  0.97351362  0.50335579  0.87682949  1
  O2-  O196  1  0.97519916  0.83805117  0.37353201  1
  O2-  O197  1  0.97683864  0.83334852  0.87720329  1
  O2-  O198  1  0.19280098  0.00638226  0.37264120  1
  O2-  O199  1  0.18978553  0.00585463  0.87872163  1
  O2-  O200  1  0.19645586  0.33875058  0.37591610  1
  O2-  O201  1  0.18254787  0.33887685  0.87477869  1
  O2-  O202  1  0.19111382  0.67293422  0.37585349  1
  O2-  O203  1  0.19119002  0.67146416  0.87431291  1
  O2-  O204  1  0.52261273  0.00409729  0.37316688  1
  O2-  O205  1  0.52493979  0.00738627  0.87538096  1
  O2-  O206  1  0.52537467  0.34215954  0.37576281  1
  O2-  O207  1  0.52239137  0.33065054  0.87384663  1
  O2-  O208  1  0.52504755  0.66879965  0.37504307  1
  O2-  O209  1  0.52524035  0.67234327  0.87399887  1
  O2-  O210  1  0.86508689  0.00590758  0.37392357  1
  O2-  O211  1  0.85269164  0.00420058  0.87719274  1
  O2-  O212  1  0.86050232  0.33999572  0.37507448  1
  O2-  O213  1  0.86268949  0.33929749  0.87411841  1
  O2-  O214  1  0.85805942  0.67150103  0.37335453  1
  O2-  O215  1  0.86067225  0.67315111  0.87624336  1
  O2-  O216  1  0.23604745  0.09918706  0.01942321  1
  O2-  O217  1  0.23559666  0.09901822  0.51134625  1
  O2-  O218  1  0.23765606  0.42856949  0.01580236  1
  O2-  O219  1  0.23611321  0.43125938  0.51739780  1
  O2-  O220  1  0.23667651  0.76396597  0.01811326  1
  O2-  O221  1  0.24366407  0.75908422  0.51998331  1
  O2-  O222  1  0.57058710  0.09367941  0.02381763  1
  O2-  O223  1  0.57364262  0.09217414  0.52146204  1
  O2-  O224  1  0.57403566  0.42370044  0.02245593  1
  O2-  O225  1  0.56903788  0.43045952  0.52375899  1
  O2-  O226  1  0.57094874  0.76237747  0.02145858  1
  O2-  O227  1  0.56828913  0.76165093  0.52074711  1
  O2-  O228  1  0.90449926  0.09790050  0.01776974  1
  O2-  O229  1  0.90458659  0.09326171  0.52174032  1
  O2-  O230  1  0.90566224  0.42814871  0.02242752  1
  O2-  O231  1  0.90359163  0.42511615  0.52166254  1
  O2-  O232  1  0.90436712  0.76181131  0.02203492  1
  O2-  O233  1  0.90208435  0.76408163  0.51351885  1
  O2-  O234  1  0.26567231  0.26418617  0.22910838  1
  O2-  O235  1  0.26225876  0.26038761  0.72762558  1
  O2-  O236  1  0.25715489  0.59081530  0.23400202  1
  O2-  O237  1  0.26135796  0.59206414  0.72889906  1
  O2-  O238  1  0.26204317  0.93230468  0.22831979  1
  O2-  O239  1  0.26468367  0.93211559  0.73347615  1
  O2-  O240  1  0.59529890  0.26353545  0.23091328  1
  O2-  O241  1  0.59471595  0.26224588  0.72859675  1
  O2-  O242  1  0.59592684  0.59435670  0.23016245  1
  O2-  O243  1  0.59713521  0.59832644  0.73346795  1
  O2-  O244  1  0.59415225  0.92779239  0.22914555  1
  O2-  O245  1  0.59683236  0.93159880  0.73204284  1
  O2-  O246  1  0.93031278  0.25903896  0.22943202  1
  O2-  O247  1  0.92957496  0.25915593  0.72627379  1
  O2-  O248  1  0.92573398  0.59505305  0.22847370  1
  O2-  O249  1  0.92713444  0.59114599  0.73190913  1
  O2-  O250  1  0.93009213  0.92821066  0.22533994  1
  O2-  O251  1  0.92275517  0.92707331  0.72946248  1
  O2-  O252  1  0.09607246  0.24156178  0.27119190  1
  O2-  O253  1  0.09664463  0.23997327  0.76871508  1
  O2-  O254  1  0.09363814  0.57390856  0.27373286  1
  O2-  O255  1  0.09570245  0.57119714  0.77058674  1
  O2-  O256  1  0.09952299  0.90119395  0.26958964  1
  O2-  O257  1  0.09203151  0.91059812  0.76096297  1
  O2-  O258  1  0.43301257  0.23396582  0.26925571  1
  O2-  O259  1  0.43082947  0.23388120  0.76327290  1
  O2-  O260  1  0.43097607  0.56778632  0.26348034  1
  O2-  O261  1  0.42601734  0.57396636  0.76428756  1
  O2-  O262  1  0.42810996  0.90221100  0.27011563  1
  O2-  O263  1  0.42910867  0.90697235  0.77069847  1
  O2-  O264  1  0.76163123  0.23884677  0.27325516  1
  O2-  O265  1  0.76286366  0.23907638  0.77255773  1
  O2-  O266  1  0.75973824  0.57036525  0.27167050  1
  O2-  O267  1  0.76291213  0.57291262  0.76992181  1
  O2-  O268  1  0.76433473  0.90802323  0.27046032  1
  O2-  O269  1  0.75882809  0.90414509  0.77126775  1
  O2-  O270  1  0.07039550  0.06995406  0.47687800  1
  O2-  O271  1  0.07416435  0.07608807  0.98049000  1
  O2-  O272  1  0.07453158  0.40380081  0.47894503  1
  O2-  O273  1  0.06847711  0.40272373  0.98628692  1
  O2-  O274  1  0.07140798  0.74046539  0.48047460  1
  O2-  O275  1  0.06892043  0.73341654  0.98528352  1
  O2-  O276  1  0.40384031  0.07155105  0.47909631  1
  O2-  O277  1  0.40460695  0.07401681  0.97974971  1
  O2-  O278  1  0.40346314  0.40293027  0.47589320  1
  O2-  O279  1  0.40796454  0.40694510  0.98808328  1
  O2-  O280  1  0.40501424  0.73549606  0.47807524  1
  O2-  O281  1  0.40501341  0.73952341  0.97708427  1
  O2-  O282  1  0.74150227  0.07110087  0.47549994  1
  O2-  O283  1  0.73685704  0.07369219  0.98081510  1
  O2-  O284  1  0.73427005  0.40703338  0.47877451  1
  O2-  O285  1  0.74020668  0.40460761  0.97811637  1
  O2-  O286  1  0.73685733  0.73934843  0.47797133  1
  O2-  O287  1  0.73537603  0.74042973  0.97736238  1
  O2-  O288  1  0.09761906  0.23902169  0.47881692  1
  O2-  O289  1  0.09454172  0.24121481  0.98114893  1
  O2-  O290  1  0.09575609  0.57478761  0.47878519  1
  O2-  O291  1  0.09471852  0.56981574  0.97709597  1
  O2-  O292  1  0.09684375  0.90608534  0.47926996  1
  O2-  O293  1  0.09548830  0.90437381  0.98760113  1
  O2-  O294  1  0.43201985  0.23294040  0.48040371  1
  O2-  O295  1  0.43126233  0.23529741  0.98715024  1
  O2-  O296  1  0.43060663  0.56895923  0.48538439  1
  O2-  O297  1  0.42643117  0.57200362  0.98692268  1
  O2-  O298  1  0.42721493  0.90350242  0.47789216  1
  O2-  O299  1  0.42970771  0.90477173  0.98263990  1
  O2-  O300  1  0.76181031  0.23867753  0.47678357  1
  O2-  O301  1  0.76243678  0.23960399  0.97781354  1
  O2-  O302  1  0.75950702  0.57146645  0.47831079  1
  O2-  O303  1  0.76337854  0.57248043  0.97895197  1
  O2-  O304  1  0.76256616  0.90717939  0.47541184  1
  O2-  O305  1  0.75883046  0.90458334  0.98034455  1
  O2-  O306  1  0.07111955  0.07042397  0.27426782  1
  O2-  O307  1  0.07453019  0.07574895  0.76851868  1
  O2-  O308  1  0.07536379  0.40429653  0.27199262  1
  O2-  O309  1  0.06747727  0.40305329  0.76319394  1
  O2-  O310  1  0.06810910  0.73556256  0.26713645  1
  O2-  O311  1  0.07229999  0.73734828  0.76638486  1
  O2-  O312  1  0.40239607  0.07168861  0.26953279  1
  O2-  O313  1  0.40650915  0.07306063  0.77234042  1
  O2-  O314  1  0.40487814  0.40469446  0.27337593  1
  O2-  O315  1  0.40522943  0.40487460  0.76406121  1
  O2-  O316  1  0.40535540  0.73679212  0.27373172  1
  O2-  O317  1  0.40505361  0.73784846  0.77155813  1
  O2-  O318  1  0.73980575  0.07176300  0.27227936  1
  O2-  O319  1  0.73875927  0.07180020  0.76958120  1
  O2-  O320  1  0.73647157  0.40633630  0.27207683  1
  O2-  O321  1  0.73830229  0.40476804  0.76986213  1
  O2-  O322  1  0.73811540  0.73873705  0.27053999  1
  O2-  O323  1  0.73542039  0.73968585  0.77245814  1
  O2-  O324  1  0.23356312  0.09954645  0.23223899  1
  O2-  O325  1  0.23821110  0.09803719  0.73766333  1
  O2-  O326  1  0.23608668  0.43082300  0.23517694  1
  O2-  O327  1  0.23666489  0.42833514  0.73114233  1
  O2-  O328  1  0.23507314  0.76325296  0.23239360  1
  O2-  O329  1  0.24421290  0.75932800  0.73023393  1
  O2-  O330  1  0.57351527  0.09211106  0.22729173  1
  O2-  O331  1  0.57035985  0.09362358  0.72732864  1
  O2-  O332  1  0.57079994  0.42807868  0.22794958  1
  O2-  O333  1  0.57208313  0.42624092  0.72657546  1
  O2-  O334  1  0.56894285  0.75924016  0.23003795  1
  O2-  O335  1  0.57023722  0.76434448  0.72812438  1
  O2-  O336  1  0.90234201  0.09672919  0.23127730  1
  O2-  O337  1  0.90555905  0.09364699  0.73017893  1
  O2-  O338  1  0.90647610  0.42735558  0.22929731  1
  O2-  O339  1  0.90339818  0.42674276  0.72715199  1
  O2-  O340  1  0.90530542  0.76379478  0.23019588  1
  O2-  O341  1  0.90048777  0.76282963  0.73364664  1
  O2-  O342  1  0.26248232  0.26309227  0.02148759  1
  O2-  O343  1  0.26440438  0.26119835  0.52405778  1
  O2-  O344  1  0.25704617  0.59163403  0.01737914  1
  O2-  O345  1  0.26266385  0.59208655  0.52057823  1
  O2-  O346  1  0.26255318  0.93158134  0.02176107  1
  O2-  O347  1  0.26511448  0.93309646  0.51735929  1
  O2-  O348  1  0.59519559  0.26088659  0.02129454  1
  O2-  O349  1  0.59431052  0.26459335  0.51950993  1
  O2-  O350  1  0.59523285  0.59398805  0.01790409  1
  O2-  O351  1  0.59812743  0.59917992  0.51776076  1
  O2-  O352  1  0.59536900  0.92836256  0.02303254  1
  O2-  O353  1  0.59652891  0.92972278  0.51656450  1
  O2-  O354  1  0.92943765  0.26083635  0.02343180  1
  O2-  O355  1  0.93111284  0.25707123  0.52079765  1
  O2-  O356  1  0.93054693  0.59234708  0.02241094  1
  O2-  O357  1  0.92242507  0.59288576  0.51800181  1
  O2-  O358  1  0.92682840  0.92635974  0.02349434  1
  O2-  O359  1  0.92657285  0.92776510  0.52042232  1
