# generated using pymatgen
data_Sr7Ca15Pr50Mn72O216
_symmetry_space_group_name_H-M   'P 1'
_cell_length_a   16.55745264
_cell_length_b   16.60364610
_cell_length_c   15.59316440
_cell_angle_alpha   90.00492921
_cell_angle_beta   89.99825007
_cell_angle_gamma   89.99325615
_symmetry_Int_Tables_number   1
_chemical_formula_structural   Sr7Ca15Pr50Mn72O216
_chemical_formula_sum   'Sr7 Ca15 Pr50 Mn72 O216'
_cell_volume   4286.78045899
_cell_formula_units_Z   1
loop_
 _symmetry_equiv_pos_site_id
 _symmetry_equiv_pos_as_xyz
  1  'x, y, z'
loop_
 _atom_type_symbol
 _atom_type_oxidation_number
  Sr2+  2.0
  Ca2+  2.0
  Pr3+  3.0
  Mn3.30+  3.3
  O2-  -2.0
loop_
 _atom_site_type_symbol
 _atom_site_label
 _atom_site_symmetry_multiplicity
 _atom_site_fract_x
 _atom_site_fract_y
 _atom_site_fract_z
 _atom_site_occupancy
  Sr2+  Sr0  1  0.66335754  0.00918489  0.62798949  1
  Sr2+  Sr1  1  0.67316961  0.32222934  0.87625243  1
  Sr2+  Sr2  1  0.50060630  0.16208031  0.37238289  1
  Sr2+  Sr3  1  -0.00198831  0.67592663  0.12532151  1
  Sr2+  Sr4  1  0.50245545  0.82726817  0.87194554  1
  Sr2+  Sr5  1  0.99875442  0.32250298  0.87466650  1
  Sr2+  Sr6  1  0.33644582  0.32197218  0.37426258  1
  Ca2+  Ca7  1  0.66931994  0.98733515  0.87516354  1
  Ca2+  Ca8  1  0.50502775  0.51343180  0.62354417  1
  Ca2+  Ca9  1  0.33827101  0.64993634  0.37654397  1
  Ca2+  Ca10  1  0.83430554  0.51137738  0.62867561  1
  Ca2+  Ca11  1  1.00270907  0.31886040  0.37471859  1
  Ca2+  Ca12  1  0.82946201  0.48460381  0.87396544  1
  Ca2+  Ca13  1  0.66225574  0.01919817  0.12163960  1
  Ca2+  Ca14  1  0.66886278  0.65043386  0.37678685  1
  Ca2+  Ca15  1  0.16365125  0.15393845  0.87636080  1
  Ca2+  Ca16  1  0.82437075  0.14953511  0.87840396  1
  Ca2+  Ca17  1  0.83557063  0.18168438  0.12133604  1
  Ca2+  Ca18  1  0.50558666  0.85056774  0.62609966  1
  Ca2+  Ca19  1  0.50453214  0.18283810  0.12524755  1
  Ca2+  Ca20  1  0.33898052  0.31945608  0.87573344  1
  Ca2+  Ca21  1  0.66885934  0.31774462  0.37324196  1
  Pr3+  Pr22  1  0.32968123  0.67887422  0.12695363  1
  Pr3+  Pr23  1  0.82549145  0.82344435  0.87426269  1
  Pr3+  Pr24  1  0.33546071  0.98885853  0.87583189  1
  Pr3+  Pr25  1  0.33458394  0.34346904  0.12576153  1
  Pr3+  Pr26  1  0.34054362  0.99359016  0.37384986  1
  Pr3+  Pr27  1  0.83410633  0.17832777  0.62738311  1
  Pr3+  Pr28  1  0.16463741  0.48695600  0.87390988  1
  Pr3+  Pr29  1  0.83294469  0.84801001  0.62365072  1
  Pr3+  Pr30  1  0.33574444  0.01186241  0.62864248  1
  Pr3+  Pr31  1  0.33283353  0.01444291  0.12191684  1
  Pr3+  Pr32  1  0.33544261  0.67970892  0.62270649  1
  Pr3+  Pr33  1  -0.00638848  0.01672519  0.12390646  1
  Pr3+  Pr34  1  0.82793221  0.48339008  0.37593373  1
  Pr3+  Pr35  1  0.16860820  0.84637598  0.12556500  1
  Pr3+  Pr36  1  1.00252339  0.98859574  0.37389879  1
  Pr3+  Pr37  1  1.00180764  0.65136140  0.37456702  1
  Pr3+  Pr38  1  0.66111915  0.67943445  0.62230829  1
  Pr3+  Pr39  1  0.50531663  0.84878316  0.12421106  1
  Pr3+  Pr40  1  0.66611894  0.99053837  0.37413339  1
  Pr3+  Pr41  1  0.16674255  0.81919396  0.37519849  1
  Pr3+  Pr42  1  0.16837084  0.18058974  0.12136351  1
  Pr3+  Pr43  1  0.16544114  0.15768538  0.37411872  1
  Pr3+  Pr44  1  0.82680130  0.81639378  0.37536410  1
  Pr3+  Pr45  1  0.49917541  0.48754199  0.37688607  1
  Pr3+  Pr46  1  0.16943012  0.51128905  0.62512933  1
  Pr3+  Pr47  1  -0.00548808  0.67874628  0.62425247  1
  Pr3+  Pr48  1  0.16878022  0.84747754  0.62472798  1
  Pr3+  Pr49  1  0.83521381  0.84623489  0.12584837  1
  Pr3+  Pr50  1  0.83554400  0.50995484  0.12179138  1
  Pr3+  Pr51  1  0.50558532  0.17783834  0.62513116  1
  Pr3+  Pr52  1  -0.00414331  0.34398763  0.12384047  1
  Pr3+  Pr53  1  0.66330069  0.67719875  0.12717349  1
  Pr3+  Pr54  1  0.99986878  0.65341157  0.87538784  1
  Pr3+  Pr55  1  0.82951650  0.15746240  0.37274885  1
  Pr3+  Pr56  1  0.99739518  0.99260414  0.87538299  1
  Pr3+  Pr57  1  0.66328106  0.34761538  0.62461120  1
  Pr3+  Pr58  1  0.16911501  0.17844684  0.62887696  1
  Pr3+  Pr59  1  0.16276316  0.82209878  0.87464129  1
  Pr3+  Pr60  1  0.66976091  0.65249683  0.87415518  1
  Pr3+  Pr61  1  0.49566314  0.82033885  0.37771936  1
  Pr3+  Pr62  1  0.16310254  0.48249172  0.37611134  1
  Pr3+  Pr63  1  0.16874676  0.51007674  0.12467847  1
  Pr3+  Pr64  1  0.33397125  0.34424161  0.62398593  1
  Pr3+  Pr65  1  0.50145575  0.15678003  0.87808718  1
  Pr3+  Pr66  1  0.66652580  0.34381098  0.12582607  1
  Pr3+  Pr67  1  0.49734149  0.48558667  0.87314843  1
  Pr3+  Pr68  1  -0.00536066  0.34708709  0.62576319  1
  Pr3+  Pr69  1  0.50270378  0.51080220  0.12619249  1
  Pr3+  Pr70  1  -0.00558714  0.01453690  0.62529551  1
  Pr3+  Pr71  1  0.33860217  0.65540864  0.87387721  1
  Mn3.30+  Mn72  1  0.16446576  0.00109749  -0.00066863  1
  Mn3.30+  Mn73  1  0.16834757  0.00155422  0.49999213  1
  Mn3.30+  Mn74  1  0.16772824  0.33192000  -0.00396663  1
  Mn3.30+  Mn75  1  0.16480849  0.33138641  0.50095722  1
  Mn3.30+  Mn76  1  0.16690087  0.66702570  0.00026586  1
  Mn3.30+  Mn77  1  0.16819017  0.66516085  0.49911012  1
  Mn3.30+  Mn78  1  0.50339272  0.00270322  0.00025305  1
  Mn3.30+  Mn79  1  0.50164032  0.00131647  0.50026254  1
  Mn3.30+  Mn80  1  0.50152830  0.33240481  -0.00079779  1
  Mn3.30+  Mn81  1  0.50127354  0.33412019  0.49967344  1
  Mn3.30+  Mn82  1  0.50013277  0.66770360  -0.00033477  1
  Mn3.30+  Mn83  1  0.50061635  0.66627674  0.49884432  1
  Mn3.30+  Mn84  1  0.82800996  0.00228112  0.00253041  1
  Mn3.30+  Mn85  1  0.83251531  0.00102844  0.49815989  1
  Mn3.30+  Mn86  1  0.83270058  0.33057606  -0.00199269  1
  Mn3.30+  Mn87  1  0.83253610  0.33328203  0.49984049  1
  Mn3.30+  Mn88  1  0.83277708  0.66583994  -0.00040433  1
  Mn3.30+  Mn89  1  0.83018189  0.66331984  0.50067207  1
  Mn3.30+  Mn90  1  -0.00211356  0.16868567  0.24924747  1
  Mn3.30+  Mn91  1  -0.00040544  0.16766709  0.75417786  1
  Mn3.30+  Mn92  1  -0.00148939  0.49756845  0.25098383  1
  Mn3.30+  Mn93  1  -0.00234172  0.49926455  0.75018866  1
  Mn3.30+  Mn94  1  -0.00092317  0.83261240  0.24994488  1
  Mn3.30+  Mn95  1  -0.00265172  0.83413221  0.75028972  1
  Mn3.30+  Mn96  1  0.33554574  0.16766403  0.24702320  1
  Mn3.30+  Mn97  1  0.33369927  0.16857701  0.75411265  1
  Mn3.30+  Mn98  1  0.33410945  0.50020024  0.25241458  1
  Mn3.30+  Mn99  1  0.33589189  0.49893213  0.74795449  1
  Mn3.30+  Mn100  1  0.33506967  0.83399568  0.25088335  1
  Mn3.30+  Mn101  1  0.33513784  0.83363667  0.74872357  1
  Mn3.30+  Mn102  1  0.66711257  0.16707074  0.24703695  1
  Mn3.30+  Mn103  1  0.66895446  0.16634687  0.75249034  1
  Mn3.30+  Mn104  1  0.66745655  0.49969476  0.25224675  1
  Mn3.30+  Mn105  1  0.66798986  0.49963396  0.74806427  1
  Mn3.30+  Mn106  1  0.66593752  0.83333199  0.25077408  1
  Mn3.30+  Mn107  1  0.66435242  0.83374396  0.74938400  1
  Mn3.30+  Mn108  1  0.16762099  0.00121695  0.24948348  1
  Mn3.30+  Mn109  1  0.16533899  0.00145801  0.75114230  1
  Mn3.30+  Mn110  1  0.16499757  0.33194080  0.24982882  1
  Mn3.30+  Mn111  1  0.16766988  0.33163635  0.75274198  1
  Mn3.30+  Mn112  1  0.16814828  0.66506574  0.25223305  1
  Mn3.30+  Mn113  1  0.16682750  0.66691194  0.74871718  1
  Mn3.30+  Mn114  1  0.50319908  0.00370209  0.24677694  1
  Mn3.30+  Mn115  1  0.50241745  0.00075933  0.75310540  1
  Mn3.30+  Mn116  1  0.50193461  0.33293649  0.25014291  1
  Mn3.30+  Mn117  1  0.50064407  0.33374182  0.75122695  1
  Mn3.30+  Mn118  1  0.49902428  0.66715362  0.25294556  1
  Mn3.30+  Mn119  1  0.50152547  0.66671141  0.74838731  1
  Mn3.30+  Mn120  1  0.83113294  0.00195785  0.24805650  1
  Mn3.30+  Mn121  1  0.82995037  0.00171402  0.75093047  1
  Mn3.30+  Mn122  1  0.83362668  0.33120189  0.25113796  1
  Mn3.30+  Mn123  1  0.83172465  0.33329780  0.75155780  1
  Mn3.30+  Mn124  1  0.83139652  0.66435699  0.25111645  1
  Mn3.30+  Mn125  1  0.83161786  0.66429585  0.74891465  1
  Mn3.30+  Mn126  1  -0.00269724  0.16757789  -0.00311531  1
  Mn3.30+  Mn127  1  -0.00010502  0.16865568  0.49983888  1
  Mn3.30+  Mn128  1  -0.00090670  0.49870761  -0.00214548  1
  Mn3.30+  Mn129  1  -0.00298064  0.49806121  0.50057236  1
  Mn3.30+  Mn130  1  -0.00248264  0.83390214  0.00050983  1
  Mn3.30+  Mn131  1  -0.00069972  0.83318215  0.49825456  1
  Mn3.30+  Mn132  1  0.33357578  0.16902839  -0.00210031  1
  Mn3.30+  Mn133  1  0.33516701  0.16720805  0.50099405  1
  Mn3.30+  Mn134  1  0.33423251  0.49870776  -0.00102145  1
  Mn3.30+  Mn135  1  0.33578119  0.50028106  0.50076353  1
  Mn3.30+  Mn136  1  0.33488689  0.83350487  -0.00022216  1
  Mn3.30+  Mn137  1  0.33503586  0.83482127  0.50113736  1
  Mn3.30+  Mn138  1  0.66835443  0.16618684  0.00194939  1
  Mn3.30+  Mn139  1  0.66727111  0.16715725  0.49878483  1
  Mn3.30+  Mn140  1  0.66816539  0.49882552  -0.00127097  1
  Mn3.30+  Mn141  1  0.66718191  0.49988671  0.50044746  1
  Mn3.30+  Mn142  1  0.66689970  0.83489085  0.00109290  1
  Mn3.30+  Mn143  1  0.66321496  0.83289358  0.49846211  1
  O2-  O144  1  0.02445039  0.16415288  0.12357172  1
  O2-  O145  1  0.02476649  0.16127918  0.62792121  1
  O2-  O146  1  0.02437091  0.49365104  0.12408913  1
  O2-  O147  1  0.02536764  0.49609525  0.62492072  1
  O2-  O148  1  0.02475207  0.83086899  0.12808309  1
  O2-  O149  1  0.02440382  0.82774666  0.62507662  1
  O2-  O150  1  0.35910169  0.16204329  0.12180920  1
  O2-  O151  1  0.36005417  0.16027871  0.63037016  1
  O2-  O152  1  0.35791484  0.49395132  0.12507384  1
  O2-  O153  1  0.36279658  0.49141606  0.62435330  1
  O2-  O154  1  0.36027027  0.82602856  0.12663377  1
  O2-  O155  1  0.36192646  0.82909098  0.62488898  1
  O2-  O156  1  0.69523358  0.16345780  0.12426329  1
  O2-  O157  1  0.68955578  0.16432317  0.62581920  1
  O2-  O158  1  0.69088694  0.49672207  0.12711404  1
  O2-  O159  1  0.69354378  0.49545260  0.62260267  1
  O2-  O160  1  0.69226226  0.82244910  0.12836210  1
  O2-  O161  1  0.69046072  0.82756474  0.62167260  1
  O2-  O162  1  0.14051500  0.33015226  0.12285896  1
  O2-  O163  1  0.13954339  0.32681281  0.62679712  1
  O2-  O164  1  0.14768852  0.66007867  0.12555991  1
  O2-  O165  1  0.13900252  0.66094586  0.62189578  1
  O2-  O166  1  0.13879133  0.99348428  0.12332768  1
  O2-  O167  1  0.13846035  0.99595426  0.62501809  1
  O2-  O168  1  0.47900663  0.33543982  0.12398609  1
  O2-  O169  1  0.47746518  0.32583170  0.62752808  1
  O2-  O170  1  0.47317176  0.66001711  0.12782346  1
  O2-  O171  1  0.47701565  0.65665685  0.62381643  1
  O2-  O172  1  0.47509730  0.99418174  0.12320881  1
  O2-  O173  1  0.47956625  0.99912283  0.62928719  1
  O2-  O174  1  0.81128591  0.32951631  0.12578555  1
  O2-  O175  1  0.80748122  0.32460251  0.62480326  1
  O2-  O176  1  0.80721086  0.65831826  0.12720978  1
  O2-  O177  1  0.80601919  0.65823533  0.62515755  1
  O2-  O178  1  0.80394352  0.99106263  0.12697830  1
  O2-  O179  1  0.81452639  0.99753919  0.62356864  1
  O2-  O180  1  0.31030026  0.16346242  0.37227295  1
  O2-  O181  1  0.30508028  0.17470217  0.87579584  1
  O2-  O182  1  0.30706989  0.50459202  0.37752850  1
  O2-  O183  1  0.30782054  0.50948361  0.87336794  1
  O2-  O184  1  0.30850143  0.84675396  0.37578511  1
  O2-  O185  1  0.30710187  0.83746805  0.87327003  1
  O2-  O186  1  0.64959786  0.17126602  0.37308068  1
  O2-  O187  1  0.64381091  0.17128454  0.87764933  1
  O2-  O188  1  0.64244014  0.50642413  0.37586997  1
  O2-  O189  1  0.64104411  0.50478084  0.87382645  1
  O2-  O190  1  0.63930464  0.84227122  0.37316843  1
  O2-  O191  1  0.65297926  0.83688763  0.87720071  1
  O2-  O192  1  0.97489993  0.17247845  0.37298030  1
  O2-  O193  1  0.96962638  0.16306060  0.87461612  1
  O2-  O194  1  0.97211422  0.50488739  0.37708308  1
  O2-  O195  1  0.97426309  0.50601973  0.87310987  1
  O2-  O196  1  0.97279452  0.84010478  0.37299024  1
  O2-  O197  1  0.97074694  0.84207632  0.87317277  1
  O2-  O198  1  0.19580038  0.01024729  0.37537929  1
  O2-  O199  1  0.19064801  0.00374182  0.87625179  1
  O2-  O200  1  0.18660257  0.33392983  0.37629913  1
  O2-  O201  1  0.19796677  0.34290894  0.87390669  1
  O2-  O202  1  0.19557781  0.67105145  0.37767010  1
  O2-  O203  1  0.19387919  0.67379156  0.87527344  1
  O2-  O204  1  0.52129251  0.00484576  0.36997892  1
  O2-  O205  1  0.52665567  0.00750399  0.87808920  1
  O2-  O206  1  0.52549694  0.33893822  0.37381020  1
  O2-  O207  1  0.52372796  0.33884364  0.87460510  1
  O2-  O208  1  0.52818163  0.67455182  0.37546791  1
  O2-  O209  1  0.52496770  0.67014640  0.87272736  1
  O2-  O210  1  0.85952106  0.00811449  0.37266532  1
  O2-  O211  1  0.85411339  -0.00046265  0.87609633  1
  O2-  O212  1  0.86147282  0.33690332  0.37618781  1
  O2-  O213  1  0.85058699  0.34339488  0.87405432  1
  O2-  O214  1  0.85845365  0.66979899  0.37560967  1
  O2-  O215  1  0.85736690  0.67742986  0.87206441  1
  O2-  O216  1  0.23837468  0.09203645  0.02090549  1
  O2-  O217  1  0.23861147  0.09395609  0.52322064  1
  O2-  O218  1  0.24020105  0.42787263  0.02158998  1
  O2-  O219  1  0.23728748  0.42537688  0.52066371  1
  O2-  O220  1  0.23822817  0.76162649  0.02130972  1
  O2-  O221  1  0.24048164  0.76497494  0.52144657  1
  O2-  O222  1  0.56912808  0.10024086  0.02057943  1
  O2-  O223  1  0.57287171  0.09591408  0.51601584  1
  O2-  O224  1  0.57318116  0.42925696  0.01932281  1
  O2-  O225  1  0.57338425  0.43052183  0.52137154  1
  O2-  O226  1  0.57377907  0.76063478  0.02259864  1
  O2-  O227  1  0.56746601  0.76365385  0.52107613  1
  O2-  O228  1  0.90107586  0.09188113  0.02295707  1
  O2-  O229  1  0.90828127  0.09621279  0.51920405  1
  O2-  O230  1  0.90821937  0.42437652  0.02083291  1
  O2-  O231  1  0.90133485  0.42963465  0.52355079  1
  O2-  O232  1  0.90318045  0.76403716  0.01819107  1
  O2-  O233  1  0.89935248  0.75808050  0.52016646  1
  O2-  O234  1  0.25944755  0.25834328  0.22659406  1
  O2-  O235  1  0.26159408  0.26040652  0.72582169  1
  O2-  O236  1  0.26017836  0.59183530  0.22934810  1
  O2-  O237  1  0.26476257  0.59218032  0.72585571  1
  O2-  O238  1  0.26388931  0.92759839  0.22654917  1
  O2-  O239  1  0.25759263  0.92631748  0.72868503  1
  O2-  O240  1  0.59642330  0.26144199  0.23028255  1
  O2-  O241  1  0.59509526  0.26108959  0.72945692  1
  O2-  O242  1  0.59165126  0.59432006  0.22936517  1
  O2-  O243  1  0.59902865  0.59659483  0.73200862  1
  O2-  O244  1  0.59583460  0.93129705  0.22705208  1
  O2-  O245  1  0.59179195  0.92387004  0.73708657  1
  O2-  O246  1  0.93051453  0.26290369  0.23072109  1
  O2-  O247  1  0.92858049  0.26056350  0.72847022  1
  O2-  O248  1  0.92610271  0.59140583  0.23324089  1
  O2-  O249  1  0.92955082  0.59854487  0.73175857  1
  O2-  O250  1  0.92616103  0.93122254  0.22936256  1
  O2-  O251  1  0.92709478  0.92815429  0.72890393  1
  O2-  O252  1  0.09676602  0.23608622  0.26567474  1
  O2-  O253  1  0.09861578  0.23529755  0.77088797  1
  O2-  O254  1  0.09372298  0.56896560  0.27218123  1
  O2-  O255  1  0.09581304  0.57399149  0.77031447  1
  O2-  O256  1  0.09809778  0.90787138  0.27310565  1
  O2-  O257  1  0.09240713  0.90570817  0.77053102  1
  O2-  O258  1  0.42564118  0.24282211  0.26053243  1
  O2-  O259  1  0.42938047  0.23815223  0.77051699  1
  O2-  O260  1  0.43038650  0.57307786  0.27121539  1
  O2-  O261  1  0.42874936  0.57272738  0.77144563  1
  O2-  O262  1  0.42986672  0.90444955  0.26824992  1
  O2-  O263  1  0.42137709  0.91327939  0.76997970  1
  O2-  O264  1  0.76342610  0.23921585  0.26761830  1
  O2-  O265  1  0.76626043  0.23287572  0.76734397  1
  O2-  O266  1  0.76269283  0.56826719  0.26891468  1
  O2-  O267  1  0.76238940  0.57143617  0.77413843  1
  O2-  O268  1  0.76161855  0.90422260  0.27344300  1
  O2-  O269  1  0.76297042  0.90263864  0.76138757  1
  O2-  O270  1  0.07291617  0.07233416  0.47842193  1
  O2-  O271  1  0.06746810  0.07122201  0.98276115  1
  O2-  O272  1  0.06804532  0.40389244  0.48066858  1
  O2-  O273  1  0.07792023  0.40782635  0.97942101  1
  O2-  O274  1  0.07000955  0.74024950  0.47738008  1
  O2-  O275  1  0.07214887  0.74176301  0.97652168  1
  O2-  O276  1  0.40347609  0.07006556  0.48721932  1
  O2-  O277  1  0.40295777  0.07450402  0.97780504  1
  O2-  O278  1  0.40756424  0.40837106  0.48110953  1
  O2-  O279  1  0.40469577  0.40668860  0.97901395  1
  O2-  O280  1  0.40279299  0.73800790  0.47852940  1
  O2-  O281  1  0.40336421  0.73634349  0.98325424  1
  O2-  O282  1  0.74085240  0.07360446  0.47716242  1
  O2-  O283  1  0.73328913  0.06756025  0.98059229  1
  O2-  O284  1  0.73672617  0.40207383  0.47752200  1
  O2-  O285  1  0.74054140  0.40561938  0.99027973  1
  O2-  O286  1  0.73432413  0.73720554  0.47838261  1
  O2-  O287  1  0.73802882  0.73609637  0.98216972  1
  O2-  O288  1  0.09607802  0.23560226  0.48334117  1
  O2-  O289  1  0.10033930  0.23707833  0.98042677  1
  O2-  O290  1  0.09311311  0.56827658  0.47771705  1
  O2-  O291  1  0.09453374  0.57344586  0.97883729  1
  O2-  O292  1  0.09949384  0.90814331  0.47741827  1
  O2-  O293  1  0.09265808  0.90612503  0.97868817  1
  O2-  O294  1  0.42584986  0.23937081  0.48800035  1
  O2-  O295  1  0.42931819  0.24148720  0.98134364  1
  O2-  O296  1  0.42955917  0.57410501  0.47792747  1
  O2-  O297  1  0.42840080  0.57098022  0.97978380  1
  O2-  O298  1  0.42653039  0.90744096  0.47997819  1
  O2-  O299  1  0.42483850  0.90939012  0.98237346  1
  O2-  O300  1  0.76470245  0.23640898  0.48338191  1
  O2-  O301  1  0.76510785  0.23443668  0.98338445  1
  O2-  O302  1  0.76277787  0.56963677  0.47916473  1
  O2-  O303  1  0.76004375  0.57028154  0.97817641  1
  O2-  O304  1  0.76009394  0.90391816  0.47906206  1
  O2-  O305  1  0.76486218  0.90089914  0.98658650  1
  O2-  O306  1  0.06975259  0.07420222  0.26987836  1
  O2-  O307  1  0.06986699  0.07090572  0.76898687  1
  O2-  O308  1  0.06993202  0.40442142  0.27117537  1
  O2-  O309  1  0.07695145  0.40756606  0.76801318  1
  O2-  O310  1  0.07638185  0.73786400  0.27397811  1
  O2-  O311  1  0.06821314  0.74171143  0.77182102  1
  O2-  O312  1  0.40260004  0.06945669  0.26185617  1
  O2-  O313  1  0.40488563  0.07508771  0.77477766  1
  O2-  O314  1  0.40926417  0.41035707  0.26775162  1
  O2-  O315  1  0.40404555  0.40457634  0.77205866  1
  O2-  O316  1  0.40307876  0.73811203  0.27443716  1
  O2-  O317  1  0.40312193  0.73590514  0.76521685  1
  O2-  O318  1  0.73946363  0.07301525  0.27187479  1
  O2-  O319  1  0.73756875  0.06933343  0.77118858  1
  O2-  O320  1  0.74003620  0.40250844  0.27141465  1
  O2-  O321  1  0.73620499  0.40491661  0.76126947  1
  O2-  O322  1  0.73637584  0.73444486  0.27334737  1
  O2-  O323  1  0.73761928  0.73696921  0.76756635  1
  O2-  O324  1  0.23752888  0.09393886  0.22566530  1
  O2-  O325  1  0.24194336  0.09249718  0.72997287  1
  O2-  O326  1  0.23747774  0.42523818  0.23104842  1
  O2-  O327  1  0.24028269  0.42773075  0.72661206  1
  O2-  O328  1  0.23988389  0.76389445  0.23093088  1
  O2-  O329  1  0.23714641  0.76030447  0.72715644  1
  O2-  O330  1  0.57270098  0.09696563  0.22695938  1
  O2-  O331  1  0.57036309  0.09877909  0.73638243  1
  O2-  O332  1  0.57481326  0.42873145  0.23001055  1
  O2-  O333  1  0.57060606  0.43059406  0.72842910  1
  O2-  O334  1  0.56849882  0.76221868  0.22948471  1
  O2-  O335  1  0.57186113  0.75988902  0.72573303  1
  O2-  O336  1  0.90472560  0.09720620  0.22689433  1
  O2-  O337  1  0.90658238  0.09203770  0.72957426  1
  O2-  O338  1  0.90370510  0.42733147  0.22884919  1
  O2-  O339  1  0.90574515  0.42587880  0.72698606  1
  O2-  O340  1  0.89943591  0.76042898  0.23435614  1
  O2-  O341  1  0.90287149  0.76172928  0.72596745  1
  O2-  O342  1  0.26172247  0.26137708  0.02413514  1
  O2-  O343  1  0.26015686  0.25741696  0.52332081  1
  O2-  O344  1  0.26284249  0.59293835  0.02028149  1
  O2-  O345  1  0.26245782  0.59036456  0.52554101  1
  O2-  O346  1  0.25919459  0.92614180  0.02056227  1
  O2-  O347  1  0.26169222  0.92911916  0.52517881  1
  O2-  O348  1  0.59754532  0.26127562  0.02122521  1
  O2-  O349  1  0.59463126  0.26046939  0.51973814  1
  O2-  O350  1  0.59391177  0.59480382  0.02041480  1
  O2-  O351  1  0.59664524  0.59560635  0.51764145  1
  O2-  O352  1  0.59590555  0.92636067  0.02315648  1
  O2-  O353  1  0.59342534  0.92857841  0.51317122  1
  O2-  O354  1  0.92993297  0.26185612  0.01810499  1
  O2-  O355  1  0.92742395  0.26203242  0.52270598  1
  O2-  O356  1  0.92451918  0.59369406  0.01623388  1
  O2-  O357  1  0.93145338  0.59617129  0.51780512  1
  O2-  O358  1  0.92667500  0.92981299  0.02162524  1
  O2-  O359  1  0.92881146  0.92752933  0.51783354  1
