# generated using pymatgen
data_Sr7Ca15Pr50Mn72O216
_symmetry_space_group_name_H-M   'P 1'
_cell_length_a   16.55546968
_cell_length_b   16.60247839
_cell_length_c   15.58984834
_cell_angle_alpha   89.99390241
_cell_angle_beta   89.99828914
_cell_angle_gamma   89.99126575
_symmetry_Int_Tables_number   1
_chemical_formula_structural   Sr7Ca15Pr50Mn72O216
_chemical_formula_sum   'Sr7 Ca15 Pr50 Mn72 O216'
_cell_volume   4285.05413177
_cell_formula_units_Z   1
loop_
 _symmetry_equiv_pos_site_id
 _symmetry_equiv_pos_as_xyz
  1  'x, y, z'
loop_
 _atom_type_symbol
 _atom_type_oxidation_number
  Sr2+  2.0
  Ca2+  2.0
  Pr3+  3.0
  Mn3.30+  3.3
  O2-  -2.0
loop_
 _atom_site_type_symbol
 _atom_site_label
 _atom_site_symmetry_multiplicity
 _atom_site_fract_x
 _atom_site_fract_y
 _atom_site_fract_z
 _atom_site_occupancy
  Sr2+  Sr0  1  0.33609998  0.00845997  0.12588194  1
  Sr2+  Sr1  1  0.82922846  0.15474752  0.87477165  1
  Sr2+  Sr2  1  0.33250208  0.67574044  0.62481384  1
  Sr2+  Sr3  1  0.33405084  0.32458661  0.87556052  1
  Sr2+  Sr4  1  1.00274360  0.65798222  0.36984816  1
  Sr2+  Sr5  1  0.33690334  0.65540565  0.37503355  1
  Sr2+  Sr6  1  0.16740362  0.48969635  0.87656894  1
  Ca2+  Ca7  1  1.00245044  0.31884701  0.37345652  1
  Ca2+  Ca8  1  0.16517074  0.81752552  0.87768933  1
  Ca2+  Ca9  1  0.49382997  0.48446330  0.37136956  1
  Ca2+  Ca10  1  0.66804550  0.98730025  0.87794855  1
  Ca2+  Ca11  1  0.17056147  0.51424602  0.12581747  1
  Ca2+  Ca12  1  0.33901213  0.32016766  0.37415219  1
  Ca2+  Ca13  1  0.50652786  0.85288661  0.12326012  1
  Ca2+  Ca14  1  0.50197311  0.18445013  0.62376235  1
  Ca2+  Ca15  1  0.66879517  0.98652880  0.37239799  1
  Ca2+  Ca16  1  0.50229393  0.51357822  0.12718958  1
  Ca2+  Ca17  1  0.49702950  0.82080752  0.87858378  1
  Ca2+  Ca18  1  -0.00157322  0.67921005  0.12492638  1
  Ca2+  Ca19  1  0.65997902  0.35049446  0.12780069  1
  Ca2+  Ca20  1  0.66136911  0.01384631  0.12288768  1
  Ca2+  Ca21  1  0.66672738  0.32128110  0.37119041  1
  Pr3+  Pr22  1  0.17429775  0.84245830  0.62585243  1
  Pr3+  Pr23  1  1.00387072  0.98455263  0.87563513  1
  Pr3+  Pr24  1  0.16697706  0.81928309  0.37157843  1
  Pr3+  Pr25  1  0.82965448  0.82100581  0.87611273  1
  Pr3+  Pr26  1  0.83455939  0.84657105  0.12457627  1
  Pr3+  Pr27  1  0.66088298  0.01664961  0.62546717  1
  Pr3+  Pr28  1  0.17139669  0.17764360  0.12605044  1
  Pr3+  Pr29  1  0.83043719  0.48446665  0.37259689  1
  Pr3+  Pr30  1  0.66884078  0.32129663  0.87805518  1
  Pr3+  Pr31  1  0.49633993  0.15566729  0.87412186  1
  Pr3+  Pr32  1  -0.00362029  0.01260950  0.62519387  1
  Pr3+  Pr33  1  0.66772102  0.65412899  0.87631842  1
  Pr3+  Pr34  1  0.16875725  0.84204306  0.12442947  1
  Pr3+  Pr35  1  0.49917123  0.15568933  0.37609145  1
  Pr3+  Pr36  1  0.83495262  0.51149601  0.62343291  1
  Pr3+  Pr37  1  -0.00038058  0.67756154  0.62434760  1
  Pr3+  Pr38  1  0.66248121  0.34414535  0.62300224  1
  Pr3+  Pr39  1  0.33277534  0.34531345  0.62247150  1
  Pr3+  Pr40  1  0.83092352  0.17852405  0.12465978  1
  Pr3+  Pr41  1  -0.00446036  0.01141046  0.12517610  1
  Pr3+  Pr42  1  0.50426968  0.18052991  0.12561198  1
  Pr3+  Pr43  1  -0.00152628  0.34518453  0.12737383  1
  Pr3+  Pr44  1  -0.00363401  0.34701446  0.62268057  1
  Pr3+  Pr45  1  0.83463620  0.18082935  0.62549413  1
  Pr3+  Pr46  1  0.49479863  0.48772209  0.87797478  1
  Pr3+  Pr47  1  0.16608783  0.15560549  0.37411948  1
  Pr3+  Pr48  1  0.66998091  0.65306439  0.37358522  1
  Pr3+  Pr49  1  1.00588524  0.65383444  0.87856492  1
  Pr3+  Pr50  1  0.82662511  0.15340700  0.37489890  1
  Pr3+  Pr51  1  0.83575206  0.84649367  0.62586238  1
  Pr3+  Pr52  1  0.33533143  0.67612330  0.12525609  1
  Pr3+  Pr53  1  0.50109068  0.51288141  0.62353435  1
  Pr3+  Pr54  1  0.16900000  0.18004987  0.62386941  1
  Pr3+  Pr55  1  0.50046314  0.84359629  0.62592427  1
  Pr3+  Pr56  1  0.33432496  0.65533678  0.87611974  1
  Pr3+  Pr57  1  1.00155026  0.98712195  0.37430081  1
  Pr3+  Pr58  1  0.17088398  0.51314125  0.62480442  1
  Pr3+  Pr59  1  0.33825656  0.98544280  0.87730792  1
  Pr3+  Pr60  1  0.16440200  0.48691072  0.37325921  1
  Pr3+  Pr61  1  0.16549146  0.15627516  0.87625169  1
  Pr3+  Pr62  1  0.32991041  0.34732064  0.12752768  1
  Pr3+  Pr63  1  0.33240032  0.01298528  0.62509697  1
  Pr3+  Pr64  1  0.49868528  0.82244341  0.37198666  1
  Pr3+  Pr65  1  0.83124519  0.48777122  0.87741592  1
  Pr3+  Pr66  1  1.00388933  0.32052072  0.87624238  1
  Pr3+  Pr67  1  0.65913274  0.68280220  0.12515504  1
  Pr3+  Pr68  1  0.33738818  0.98795112  0.37290349  1
  Pr3+  Pr69  1  0.66228509  0.68044920  0.62520677  1
  Pr3+  Pr70  1  0.82925465  0.82030992  0.37402467  1
  Pr3+  Pr71  1  0.83508459  0.51355933  0.12628776  1
  Mn3.30+  Mn72  1  0.16810366  -0.00203476  -0.00012594  1
  Mn3.30+  Mn73  1  0.16660145  -0.00087843  0.49988910  1
  Mn3.30+  Mn74  1  0.16669789  0.33439718  0.00142171  1
  Mn3.30+  Mn75  1  0.16634182  0.33323348  0.49688886  1
  Mn3.30+  Mn76  1  0.16623777  0.66549138  0.00348132  1
  Mn3.30+  Mn77  1  0.16771127  0.66555368  0.49706132  1
  Mn3.30+  Mn78  1  0.50350517  -0.00007839  -0.00093237  1
  Mn3.30+  Mn79  1  0.50160680  0.00118539  0.49985300  1
  Mn3.30+  Mn80  1  0.50085487  0.33502680  0.00328456  1
  Mn3.30+  Mn81  1  0.49998229  0.33432267  0.49637362  1
  Mn3.30+  Mn82  1  0.50046978  0.66901066  0.00064751  1
  Mn3.30+  Mn83  1  0.50069911  0.66591381  0.49864180  1
  Mn3.30+  Mn84  1  0.82907888  0.00061674  -0.00081267  1
  Mn3.30+  Mn85  1  0.83041160  0.00005142  0.49997696  1
  Mn3.30+  Mn86  1  0.83131051  0.33369674  0.00352970  1
  Mn3.30+  Mn87  1  0.83195818  0.33252645  0.49597996  1
  Mn3.30+  Mn88  1  0.83390562  0.66696548  0.00194301  1
  Mn3.30+  Mn89  1  0.83344055  0.66552268  0.49908418  1
  Mn3.30+  Mn90  1  -0.00130263  0.16733772  0.25077803  1
  Mn3.30+  Mn91  1  -0.00062463  0.16575356  0.75031013  1
  Mn3.30+  Mn92  1  0.00162162  0.50034907  0.24907467  1
  Mn3.30+  Mn93  1  0.00034124  0.49978515  0.75037159  1
  Mn3.30+  Mn94  1  -0.00046475  0.83230907  0.24854052  1
  Mn3.30+  Mn95  1  0.00298285  0.83221908  0.75049977  1
  Mn3.30+  Mn96  1  0.33551255  0.16764263  0.25082009  1
  Mn3.30+  Mn97  1  0.33412997  0.16726185  0.74897734  1
  Mn3.30+  Mn98  1  0.33513013  0.49963940  0.25026609  1
  Mn3.30+  Mn99  1  0.33370914  0.49966912  0.75049931  1
  Mn3.30+  Mn100  1  0.33688557  0.83262770  0.24631738  1
  Mn3.30+  Mn101  1  0.33406458  0.83256578  0.75387157  1
  Mn3.30+  Mn102  1  0.66557541  0.16767715  0.25009003  1
  Mn3.30+  Mn103  1  0.66405290  0.16653163  0.75034033  1
  Mn3.30+  Mn104  1  0.66251494  0.49795706  0.25064217  1
  Mn3.30+  Mn105  1  0.66643794  0.49946364  0.75018175  1
  Mn3.30+  Mn106  1  0.66475965  0.83683072  0.24856937  1
  Mn3.30+  Mn107  1  0.66540379  0.83558433  0.75278316  1
  Mn3.30+  Mn108  1  0.16732045  -0.00060851  0.24896051  1
  Mn3.30+  Mn109  1  0.16743242  -0.00200222  0.75129535  1
  Mn3.30+  Mn110  1  0.16703321  0.33403431  0.25189125  1
  Mn3.30+  Mn111  1  0.16626393  0.33330378  0.74975317  1
  Mn3.30+  Mn112  1  0.16719503  0.66384554  0.24689456  1
  Mn3.30+  Mn113  1  0.16700400  0.66735277  0.75180991  1
  Mn3.30+  Mn114  1  0.50449564  0.00114354  0.24919683  1
  Mn3.30+  Mn115  1  0.50088583  0.00024561  0.75120194  1
  Mn3.30+  Mn116  1  0.50071060  0.33588317  0.25128628  1
  Mn3.30+  Mn117  1  0.49987764  0.33304784  0.74939618  1
  Mn3.30+  Mn118  1  0.50048310  0.66540014  0.25003787  1
  Mn3.30+  Mn119  1  0.50002792  0.66888260  0.75150521  1
  Mn3.30+  Mn120  1  0.82847791  0.00041618  0.24910278  1
  Mn3.30+  Mn121  1  0.83043779  0.00043311  0.75218961  1
  Mn3.30+  Mn122  1  0.83063086  0.33259056  0.24983261  1
  Mn3.30+  Mn123  1  0.83242525  0.33373006  0.75044685  1
  Mn3.30+  Mn124  1  0.83360860  0.66615077  0.24874438  1
  Mn3.30+  Mn125  1  0.83354678  0.66612721  0.75033831  1
  Mn3.30+  Mn126  1  -0.00107759  0.16537234  0.00077556  1
  Mn3.30+  Mn127  1  -0.00113071  0.16766201  0.49790207  1
  Mn3.30+  Mn128  1  0.00205792  0.50059785  0.00430747  1
  Mn3.30+  Mn129  1  0.00026256  0.49958616  0.49590997  1
  Mn3.30+  Mn130  1  0.00047417  0.83199432  0.00047489  1
  Mn3.30+  Mn131  1  0.00185704  0.83259796  0.50001540  1
  Mn3.30+  Mn132  1  0.33441582  0.16660989  0.00056911  1
  Mn3.30+  Mn133  1  0.33531478  0.16816603  0.50012950  1
  Mn3.30+  Mn134  1  0.33377546  0.49978503  0.00318639  1
  Mn3.30+  Mn135  1  0.33490704  0.49924431  0.49590335  1
  Mn3.30+  Mn136  1  0.33543989  0.83294176  0.00080468  1
  Mn3.30+  Mn137  1  0.33519023  0.83265398  0.49956793  1
  Mn3.30+  Mn138  1  0.66578738  0.16613511  0.00057487  1
  Mn3.30+  Mn139  1  0.66420565  0.16809028  0.49872463  1
  Mn3.30+  Mn140  1  0.66419001  0.50009320  0.00331658  1
  Mn3.30+  Mn141  1  0.66484693  0.49761759  0.49596416  1
  Mn3.30+  Mn142  1  0.66361558  0.83660745  -0.00142147  1
  Mn3.30+  Mn143  1  0.66685580  0.83548552  0.49992717  1
  O2-  O144  1  0.02632293  0.15886580  0.12587125  1
  O2-  O145  1  0.02422490  0.16070654  0.62343975  1
  O2-  O146  1  0.02852367  0.48929353  0.12701238  1
  O2-  O147  1  0.02509004  0.49348337  0.62047641  1
  O2-  O148  1  0.02328905  0.83279977  0.12321013  1
  O2-  O149  1  0.02976388  0.82691834  0.62439069  1
  O2-  O150  1  0.35823792  0.16493066  0.12660807  1
  O2-  O151  1  0.35953640  0.16053839  0.62396238  1
  O2-  O152  1  0.36070441  0.49520662  0.12660958  1
  O2-  O153  1  0.35614422  0.49471601  0.62176757  1
  O2-  O154  1  0.36328909  0.82670896  0.12436549  1
  O2-  O155  1  0.35543363  0.83353784  0.62784714  1
  O2-  O156  1  0.68875261  0.15651743  0.12567890  1
  O2-  O157  1  0.69116148  0.16455417  0.62406305  1
  O2-  O158  1  0.69124470  0.49655759  0.12580183  1
  O2-  O159  1  0.69211319  0.49257933  0.62163154  1
  O2-  O160  1  0.69198147  0.82765828  0.12363577  1
  O2-  O161  1  0.69252487  0.82751215  0.62790551  1
  O2-  O162  1  0.14125002  0.32354823  0.12720988  1
  O2-  O163  1  0.13915312  0.32808626  0.62194140  1
  O2-  O164  1  0.14012721  0.66070922  0.12503134  1
  O2-  O165  1  0.14414771  0.66345838  0.62291622  1
  O2-  O166  1  0.13973731  0.99293389  0.12472644  1
  O2-  O167  1  0.14019717  0.98984404  0.62563859  1
  O2-  O168  1  0.47326909  0.32629699  0.12733035  1
  O2-  O169  1  0.47695421  0.33090881  0.62176253  1
  O2-  O170  1  0.47967599  0.65815929  0.12516321  1
  O2-  O171  1  0.48273682  0.66275007  0.62502312  1
  O2-  O172  1  0.48385933  0.99977627  0.12419117  1
  O2-  O173  1  0.47397489  0.99014885  0.62594294  1
  O2-  O174  1  0.80398798  0.32808125  0.12542477  1
  O2-  O175  1  0.80791119  0.33161082  0.62105807  1
  O2-  O176  1  0.80407666  0.66237693  0.12565741  1
  O2-  O177  1  0.80590347  0.65981048  0.62482883  1
  O2-  O178  1  0.80521595  0.99417470  0.12462497  1
  O2-  O179  1  0.80719366  0.99450623  0.62606629  1
  O2-  O180  1  0.30990246  0.17086748  0.37634252  1
  O2-  O181  1  0.30970212  0.16888575  0.87372360  1
  O2-  O182  1  0.30771918  0.50303963  0.37307668  1
  O2-  O183  1  0.31704894  0.50508445  0.87874656  1
  O2-  O184  1  0.31194399  0.83918410  0.37159505  1
  O2-  O185  1  0.30645497  0.83819645  0.87709357  1
  O2-  O186  1  0.64242653  0.17713353  0.37534744  1
  O2-  O187  1  0.63992498  0.17684919  0.87482885  1
  O2-  O188  1  0.63655777  0.50814911  0.37447522  1
  O2-  O189  1  0.64050272  0.50502609  0.87800270  1
  O2-  O190  1  0.64278398  0.84029156  0.37375101  1
  O2-  O191  1  0.63948603  0.84045679  0.87434046  1
  O2-  O192  1  0.97199951  0.17078077  0.37498846  1
  O2-  O193  1  0.97973534  0.17230212  0.87574654  1
  O2-  O194  1  0.97380509  0.50578970  0.37308545  1
  O2-  O195  1  0.97474524  0.50534375  0.87916682  1
  O2-  O196  1  0.97379836  0.83860504  0.37544942  1
  O2-  O197  1  0.97387448  0.83647619  0.87645204  1
  O2-  O198  1  0.19208827  0.00588265  0.37480279  1
  O2-  O199  1  0.19391736  0.00948689  0.87499863  1
  O2-  O200  1  0.19622825  0.33906732  0.37470416  1
  O2-  O201  1  0.18308034  0.33140442  0.87661221  1
  O2-  O202  1  0.18678487  0.67124385  0.37215803  1
  O2-  O203  1  0.18917479  0.67131546  0.87939396  1
  O2-  O204  1  0.52765380  0.00634292  0.37673470  1
  O2-  O205  1  0.52782570  0.01072139  0.87219600  1
  O2-  O206  1  0.52708056  0.34105581  0.37379207  1
  O2-  O207  1  0.52526046  0.34037943  0.87743403  1
  O2-  O208  1  0.52733953  0.67665032  0.37489054  1
  O2-  O209  1  0.52517438  0.67315498  0.87537845  1
  O2-  O210  1  0.85808851  0.00413482  0.37536217  1
  O2-  O211  1  0.85929234  -0.00047075  0.87453436  1
  O2-  O212  1  0.86037560  0.33647117  0.37368863  1
  O2-  O213  1  0.85894973  0.33990369  0.87964366  1
  O2-  O214  1  0.85238245  0.67208551  0.37328721  1
  O2-  O215  1  0.86053407  0.67113170  0.87607301  1
  O2-  O216  1  0.23641146  0.09481318  0.01749940  1
  O2-  O217  1  0.23772829  0.09314995  0.52096223  1
  O2-  O218  1  0.23858957  0.42555148  0.02367231  1
  O2-  O219  1  0.23622195  0.42606945  0.52085574  1
  O2-  O220  1  0.23984489  0.75692835  0.02488263  1
  O2-  O221  1  0.23862089  0.76292754  0.51353301  1
  O2-  O222  1  0.56906386  0.10055264  0.01510732  1
  O2-  O223  1  0.56883068  0.09710625  0.52295878  1
  O2-  O224  1  0.56927011  0.43312395  0.01988682  1
  O2-  O225  1  0.57225725  0.42734052  0.52316060  1
  O2-  O226  1  0.57091068  0.76437642  0.02202281  1
  O2-  O227  1  0.57472761  0.76269131  0.51990704  1
  O2-  O228  1  0.90521208  0.09232763  0.02284645  1
  O2-  O229  1  0.90209741  0.09290114  0.52082360  1
  O2-  O230  1  0.90491671  0.42854260  0.02334131  1
  O2-  O231  1  0.90393668  0.42801343  0.51846187  1
  O2-  O232  1  0.90205674  0.76154162  0.01942508  1
  O2-  O233  1  0.90873754  0.76176436  0.52226452  1
  O2-  O234  1  0.26003899  0.25991637  0.22999666  1
  O2-  O235  1  0.25925808  0.25870632  0.72569716  1
  O2-  O236  1  0.26355290  0.59292109  0.22835994  1
  O2-  O237  1  0.25702377  0.59208016  0.73488852  1
  O2-  O238  1  0.25768495  0.92196796  0.23166118  1
  O2-  O239  1  0.26330977  0.92912799  0.73063879  1
  O2-  O240  1  0.59508114  0.26333053  0.22725730  1
  O2-  O241  1  0.59615024  0.26490776  0.73234602  1
  O2-  O242  1  0.59905434  0.59960031  0.23374697  1
  O2-  O243  1  0.59712020  0.59370161  0.73113720  1
  O2-  O244  1  0.59851247  0.93220108  0.23068966  1
  O2-  O245  1  0.59326802  0.92778284  0.72543547  1
  O2-  O246  1  0.92653400  0.25783940  0.22613798  1
  O2-  O247  1  0.92620408  0.26276125  0.72907569  1
  O2-  O248  1  0.92796495  0.59236038  0.22458278  1
  O2-  O249  1  0.92723993  0.59344589  0.72841375  1
  O2-  O250  1  0.92601769  0.92919530  0.23021752  1
  O2-  O251  1  0.93219830  0.92484202  0.72906666  1
  O2-  O252  1  0.09688651  0.23836551  0.27059964  1
  O2-  O253  1  0.09441153  0.23693165  0.76699574  1
  O2-  O254  1  0.09666945  0.56861836  0.26813398  1
  O2-  O255  1  0.09077919  0.57353405  0.76599900  1
  O2-  O256  1  0.09240742  0.90777669  0.27126140  1
  O2-  O257  1  0.09874981  0.90363512  0.77461310  1
  O2-  O258  1  0.43204372  0.23927237  0.27057037  1
  O2-  O259  1  0.43020237  0.24010109  0.76671610  1
  O2-  O260  1  0.43074586  0.57000743  0.26864505  1
  O2-  O261  1  0.42944919  0.57489759  0.76870297  1
  O2-  O262  1  0.42901372  0.91005868  0.26987479  1
  O2-  O263  1  0.42888357  0.90487671  0.77401072  1
  O2-  O264  1  0.76265512  0.23490129  0.26685046  1
  O2-  O265  1  0.75885021  0.24096116  0.76589496  1
  O2-  O266  1  0.76067380  0.56999765  0.27009193  1
  O2-  O267  1  0.76176930  0.57157460  0.77125649  1
  O2-  O268  1  0.76421764  0.90238393  0.26809321  1
  O2-  O269  1  0.76310205  0.90223026  0.76809983  1
  O2-  O270  1  0.07118758  0.07134850  0.47973454  1
  O2-  O271  1  0.07269409  0.06940954  0.97963593  1
  O2-  O272  1  0.07022660  0.40336844  0.47605774  1
  O2-  O273  1  0.06766330  0.40134072  0.98469743  1
  O2-  O274  1  0.07443783  0.74052020  0.48105996  1
  O2-  O275  1  0.07223369  0.73831130  0.98312794  1
  O2-  O276  1  0.40534165  0.07041904  0.47929685  1
  O2-  O277  1  0.40779414  0.07246291  0.97809649  1
  O2-  O278  1  0.40276203  0.40202148  0.48109768  1
  O2-  O279  1  0.40768671  0.40683919  0.98422563  1
  O2-  O280  1  0.41220775  0.74312119  0.48278757  1
  O2-  O281  1  0.40363863  0.73708523  0.98089527  1
  O2-  O282  1  0.73320061  0.07173372  0.47946715  1
  O2-  O283  1  0.73651701  0.06966734  0.97955206  1
  O2-  O284  1  0.73755800  0.40282210  0.47468016  1
  O2-  O285  1  0.73993961  0.40830559  0.97889767  1
  O2-  O286  1  0.73896173  0.73916785  0.48083945  1
  O2-  O287  1  0.73574521  0.74034831  0.97802726  1
  O2-  O288  1  0.09763103  0.23803070  0.47964192  1
  O2-  O289  1  0.09368250  0.23737559  0.98297576  1
  O2-  O290  1  0.09579215  0.56886344  0.48280796  1
  O2-  O291  1  0.09210444  0.57388344  0.98107937  1
  O2-  O292  1  0.09488965  0.90490074  0.47595433  1
  O2-  O293  1  0.09583134  0.90533409  0.97787207  1
  O2-  O294  1  0.43053285  0.24053427  0.48023830  1
  O2-  O295  1  0.43118919  0.23814543  0.98348836  1
  O2-  O296  1  0.43366211  0.56923938  0.48293537  1
  O2-  O297  1  0.42856121  0.57644533  0.98002244  1
  O2-  O298  1  0.42903747  0.90717919  0.47849016  1
  O2-  O299  1  0.43090396  0.90891183  0.97769671  1
  O2-  O300  1  0.76436879  0.23540831  0.48365480  1
  O2-  O301  1  0.75824933  0.23890543  0.98309810  1
  O2-  O302  1  0.75941380  0.56786262  0.47801823  1
  O2-  O303  1  0.76213577  0.57259430  0.98016202  1
  O2-  O304  1  0.76434974  0.90291114  0.48321490  1
  O2-  O305  1  0.76364808  0.90185149  0.98144857  1
  O2-  O306  1  0.06984556  0.07312309  0.27120856  1
  O2-  O307  1  0.07268483  0.06861035  0.76954408  1
  O2-  O308  1  0.07023936  0.40261979  0.27294936  1
  O2-  O309  1  0.06781101  0.40235584  0.76574027  1
  O2-  O310  1  0.07831291  0.74441211  0.26455043  1
  O2-  O311  1  0.06938892  0.73641036  0.76830939  1
  O2-  O312  1  0.40864670  0.07356116  0.27272339  1
  O2-  O313  1  0.40359407  0.06992160  0.76954486  1
  O2-  O314  1  0.40056634  0.40143586  0.26866131  1
  O2-  O315  1  0.41037912  0.40754290  0.76548927  1
  O2-  O316  1  0.41003651  0.73961467  0.26782459  1
  O2-  O317  1  0.40400961  0.74069477  0.77106959  1
  O2-  O318  1  0.73823895  0.07232101  0.27483074  1
  O2-  O319  1  0.72961705  0.07143584  0.76682901  1
  O2-  O320  1  0.73639698  0.40704033  0.27308579  1
  O2-  O321  1  0.73889047  0.40667662  0.77206605  1
  O2-  O322  1  0.73638845  0.74045733  0.26910877  1
  O2-  O323  1  0.73901204  0.73858964  0.77237857  1
  O2-  O324  1  0.23698505  0.09404368  0.23397149  1
  O2-  O325  1  0.23671312  0.09316850  0.72731679  1
  O2-  O326  1  0.23616885  0.42835770  0.22770050  1
  O2-  O327  1  0.23954157  0.42355121  0.72818049  1
  O2-  O328  1  0.24225605  0.75781486  0.22754635  1
  O2-  O329  1  0.23773258  0.76271361  0.73459599  1
  O2-  O330  1  0.56982699  0.10019996  0.23553809  1
  O2-  O331  1  0.56779489  0.09830140  0.72550384  1
  O2-  O332  1  0.56845965  0.43115609  0.22774022  1
  O2-  O333  1  0.57265895  0.42833000  0.72958439  1
  O2-  O334  1  0.57171001  0.76613805  0.22886806  1
  O2-  O335  1  0.57447242  0.76090518  0.72875960  1
  O2-  O336  1  0.90188728  0.09247184  0.22885801  1
  O2-  O337  1  0.90626149  0.09303787  0.72808173  1
  O2-  O338  1  0.90400867  0.42750490  0.22910142  1
  O2-  O339  1  0.90439471  0.42929808  0.73034354  1
  O2-  O340  1  0.90451043  0.76245831  0.23118008  1
  O2-  O341  1  0.90515933  0.75926376  0.72730152  1
  O2-  O342  1  0.25902948  0.25963572  0.02224784  1
  O2-  O343  1  0.25941879  0.25968613  0.52290592  1
  O2-  O344  1  0.26296754  0.59493845  0.01917953  1
  O2-  O345  1  0.25786516  0.59018595  0.51747951  1
  O2-  O346  1  0.25949797  0.92453328  0.02034437  1
  O2-  O347  1  0.26190500  0.92818558  0.51884508  1
  O2-  O348  1  0.59571941  0.26604096  0.02213828  1
  O2-  O349  1  0.59523017  0.26293448  0.51853491  1
  O2-  O350  1  0.59831030  0.59932186  0.01567598  1
  O2-  O351  1  0.59698132  0.59579119  0.52048462  1
  O2-  O352  1  0.59881901  0.93225283  0.01837912  1
  O2-  O353  1  0.59348080  0.92778320  0.52334156  1
  O2-  O354  1  0.92551621  0.26154453  0.02277435  1
  O2-  O355  1  0.92584114  0.26051079  0.52234909  1
  O2-  O356  1  0.92933810  0.59351333  0.02418943  1
  O2-  O357  1  0.92617764  0.59216232  0.52254354  1
  O2-  O358  1  0.92660632  0.92839645  0.01974952  1
  O2-  O359  1  0.93026329  0.92676157  0.52133520  1
