# generated using pymatgen
data_Sr7Ca15Pr50Mn72O216
_symmetry_space_group_name_H-M   'P 1'
_cell_length_a   16.56003140
_cell_length_b   16.60418750
_cell_length_c   15.59351345
_cell_angle_alpha   90.00070277
_cell_angle_beta   89.99366396
_cell_angle_gamma   90.00834371
_symmetry_Int_Tables_number   1
_chemical_formula_structural   Sr7Ca15Pr50Mn72O216
_chemical_formula_sum   'Sr7 Ca15 Pr50 Mn72 O216'
_cell_volume   4287.68386340
_cell_formula_units_Z   1
loop_
 _symmetry_equiv_pos_site_id
 _symmetry_equiv_pos_as_xyz
  1  'x, y, z'
loop_
 _atom_type_symbol
 _atom_type_oxidation_number
  Sr2+  2.0
  Ca2+  2.0
  Pr3+  3.0
  Mn3.30+  3.3
  O2-  -2.0
loop_
 _atom_site_type_symbol
 _atom_site_label
 _atom_site_symmetry_multiplicity
 _atom_site_fract_x
 _atom_site_fract_y
 _atom_site_fract_z
 _atom_site_occupancy
  Sr2+  Sr0  1  0.83245592  0.48975656  0.37407269  1
  Sr2+  Sr1  1  0.66498736  0.67909566  0.12632928  1
  Sr2+  Sr2  1  0.33457031  0.32039222  0.87580414  1
  Sr2+  Sr3  1  0.16519071  0.50950538  0.12451668  1
  Sr2+  Sr4  1  0.83001905  0.15417541  0.87322752  1
  Sr2+  Sr5  1  -0.00395755  0.67753034  0.12611305  1
  Sr2+  Sr6  1  0.83244595  0.84621946  0.62382904  1
  Ca2+  Ca7  1  0.83382677  0.17687436  0.62294143  1
  Ca2+  Ca8  1  0.32961133  0.34486710  0.62384074  1
  Ca2+  Ca9  1  0.33715145  0.31941016  0.37424200  1
  Ca2+  Ca10  1  0.49762242  0.82010862  0.37209534  1
  Ca2+  Ca11  1  0.49839707  0.15275481  0.87698707  1
  Ca2+  Ca12  1  0.50579821  0.84767337  0.12729865  1
  Ca2+  Ca13  1  0.66485749  0.01624800  0.62794225  1
  Ca2+  Ca14  1  -0.00299687  0.34732518  0.12675759  1
  Ca2+  Ca15  1  0.50350044  0.18003332  0.12328409  1
  Ca2+  Ca16  1  0.83042613  0.15481479  0.37747375  1
  Ca2+  Ca17  1  1.00180527  0.31869725  0.37310851  1
  Ca2+  Ca18  1  0.66978244  0.98786181  0.87475342  1
  Ca2+  Ca19  1  0.16335692  0.15187050  0.87513012  1
  Ca2+  Ca20  1  0.83450820  0.84841749  0.12538098  1
  Ca2+  Ca21  1  0.34096388  0.98312936  0.37471736  1
  Pr3+  Pr22  1  -0.00562059  0.01579024  0.62375727  1
  Pr3+  Pr23  1  0.17182616  0.18158756  0.62562588  1
  Pr3+  Pr24  1  0.67281216  0.31775777  0.37497930  1
  Pr3+  Pr25  1  0.83778728  0.18011152  0.12578646  1
  Pr3+  Pr26  1  0.33084034  0.68114918  0.62497249  1
  Pr3+  Pr27  1  0.33186437  0.01453947  0.62315430  1
  Pr3+  Pr28  1  0.66798973  0.34156680  0.62563481  1
  Pr3+  Pr29  1  0.66336016  0.01223094  0.12323012  1
  Pr3+  Pr30  1  0.66888154  0.98914918  0.37546876  1
  Pr3+  Pr31  1  0.33591049  0.65386556  0.87588662  1
  Pr3+  Pr32  1  0.16826621  0.17845699  0.12410257  1
  Pr3+  Pr33  1  0.49600425  0.48485626  0.37404794  1
  Pr3+  Pr34  1  0.83085535  0.48587823  0.87575839  1
  Pr3+  Pr35  1  0.66407259  0.68013156  0.62377911  1
  Pr3+  Pr36  1  0.83804454  0.51177011  0.12635851  1
  Pr3+  Pr37  1  0.16671738  0.15575368  0.37466816  1
  Pr3+  Pr38  1  0.99840942  0.98947347  0.37471205  1
  Pr3+  Pr39  1  0.49648943  0.48642395  0.87643014  1
  Pr3+  Pr40  1  1.00135200  0.99009607  0.87508009  1
  Pr3+  Pr41  1  0.50211704  0.17905601  0.62623592  1
  Pr3+  Pr42  1  0.33493759  0.99416010  0.87470567  1
  Pr3+  Pr43  1  0.82957568  0.82594109  0.87702854  1
  Pr3+  Pr44  1  0.66484925  0.34297331  0.12473263  1
  Pr3+  Pr45  1  0.32974148  0.68075867  0.12530228  1
  Pr3+  Pr46  1  1.00206714  0.65435219  0.87607276  1
  Pr3+  Pr47  1  0.16119357  0.48335913  0.37282814  1
  Pr3+  Pr48  1  0.16300842  0.82245263  0.87525364  1
  Pr3+  Pr49  1  0.66728972  0.65457433  0.37441868  1
  Pr3+  Pr50  1  0.17087213  0.51016696  0.62491314  1
  Pr3+  Pr51  1  -0.00415548  0.68072343  0.62376273  1
  Pr3+  Pr52  1  0.50028243  0.51001283  0.62572015  1
  Pr3+  Pr53  1  0.33414124  0.01279222  0.12688134  1
  Pr3+  Pr54  1  0.49545075  0.15237631  0.37303802  1
  Pr3+  Pr55  1  0.33193121  0.34420825  0.12597744  1
  Pr3+  Pr56  1  -0.00416691  0.00991493  0.12626409  1
  Pr3+  Pr57  1  1.00153364  0.65344435  0.37369602  1
  Pr3+  Pr58  1  0.83687264  0.51176649  0.62378354  1
  Pr3+  Pr59  1  0.82911641  0.82199401  0.37342362  1
  Pr3+  Pr60  1  0.16622336  0.82120400  0.37429857  1
  Pr3+  Pr61  1  0.33686866  0.65423577  0.37411091  1
  Pr3+  Pr62  1  0.66828999  0.31806006  0.87505610  1
  Pr3+  Pr63  1  -0.00323590  0.34232696  0.62411305  1
  Pr3+  Pr64  1  0.16394857  0.48536474  0.87701533  1
  Pr3+  Pr65  1  0.17012396  0.84834116  0.62390484  1
  Pr3+  Pr66  1  0.50718702  0.85049125  0.62399045  1
  Pr3+  Pr67  1  1.00632392  0.31541645  0.87719568  1
  Pr3+  Pr68  1  0.50287749  0.51151096  0.12493423  1
  Pr3+  Pr69  1  0.67001990  0.65589863  0.87569866  1
  Pr3+  Pr70  1  0.16901613  0.84431258  0.12625314  1
  Pr3+  Pr71  1  0.50031926  0.82451224  0.87739372  1
  Mn3.30+  Mn72  1  0.16696506  0.00078681  0.00124601  1
  Mn3.30+  Mn73  1  0.16823075  0.00116904  0.49700633  1
  Mn3.30+  Mn74  1  0.16637299  0.33121129  0.00170642  1
  Mn3.30+  Mn75  1  0.16794310  0.33205548  0.49758768  1
  Mn3.30+  Mn76  1  0.16626875  0.66726128  0.00119664  1
  Mn3.30+  Mn77  1  0.16732135  0.66612147  0.50001057  1
  Mn3.30+  Mn78  1  0.50174970  0.00154840  -0.00007109  1
  Mn3.30+  Mn79  1  0.50046123  0.00047118  0.49934558  1
  Mn3.30+  Mn80  1  0.49942878  0.32961558  -0.00035846  1
  Mn3.30+  Mn81  1  0.49832767  0.33229089  0.50055070  1
  Mn3.30+  Mn82  1  0.50095921  0.66902644  0.00140936  1
  Mn3.30+  Mn83  1  0.49891545  0.66741136  0.49967547  1
  Mn3.30+  Mn84  1  0.83099090  0.00048542  -0.00043898  1
  Mn3.30+  Mn85  1  0.83108041  0.00333629  0.50166518  1
  Mn3.30+  Mn86  1  0.83485526  0.33173998  0.00010167  1
  Mn3.30+  Mn87  1  0.83507530  0.33046567  0.49780916  1
  Mn3.30+  Mn88  1  0.83342452  0.66898568  0.00129598  1
  Mn3.30+  Mn89  1  0.83263082  0.66704691  0.49924467  1
  Mn3.30+  Mn90  1  -0.00116881  0.16845913  0.25193678  1
  Mn3.30+  Mn91  1  0.00025383  0.16583130  0.74945704  1
  Mn3.30+  Mn92  1  -0.00085061  0.49699889  0.25008352  1
  Mn3.30+  Mn93  1  0.00055768  0.49832076  0.74975943  1
  Mn3.30+  Mn94  1  -0.00216436  0.83349899  0.24959435  1
  Mn3.30+  Mn95  1  -0.00139450  0.83536129  0.74900619  1
  Mn3.30+  Mn96  1  0.33514933  0.16663478  0.24943656  1
  Mn3.30+  Mn97  1  0.33448359  0.16817717  0.75275777  1
  Mn3.30+  Mn98  1  0.33178569  0.49857035  0.25059899  1
  Mn3.30+  Mn99  1  0.33323129  0.49764624  0.74948967  1
  Mn3.30+  Mn100  1  0.33786645  0.83509338  0.24969604  1
  Mn3.30+  Mn101  1  0.33454307  0.83591100  0.75068174  1
  Mn3.30+  Mn102  1  0.66659845  0.16592604  0.24926636  1
  Mn3.30+  Mn103  1  0.66663641  0.16393210  0.75045574  1
  Mn3.30+  Mn104  1  0.66688416  0.49906534  0.25007845  1
  Mn3.30+  Mn105  1  0.66672274  0.49940235  0.74985174  1
  Mn3.30+  Mn106  1  0.66402310  0.83428726  0.24920118  1
  Mn3.30+  Mn107  1  0.66700006  0.83719650  0.74972202  1
  Mn3.30+  Mn108  1  0.16858438  0.00000742  0.25235582  1
  Mn3.30+  Mn109  1  0.16630178  0.00222932  0.74922878  1
  Mn3.30+  Mn110  1  0.16607013  0.33183933  0.24990144  1
  Mn3.30+  Mn111  1  0.16827478  0.33110686  0.75102743  1
  Mn3.30+  Mn112  1  0.16710380  0.66609494  0.24886734  1
  Mn3.30+  Mn113  1  0.16627057  0.66670242  0.74971508  1
  Mn3.30+  Mn114  1  0.49953071  -0.00124904  0.24920968  1
  Mn3.30+  Mn115  1  0.50309246  0.00257291  0.75244167  1
  Mn3.30+  Mn116  1  0.50001582  0.33070003  0.25049744  1
  Mn3.30+  Mn117  1  0.49750501  0.33155545  0.74942659  1
  Mn3.30+  Mn118  1  0.50011146  0.66862192  0.24942885  1
  Mn3.30+  Mn119  1  0.49995510  0.66773864  0.75068471  1
  Mn3.30+  Mn120  1  0.83148910  0.00163369  0.25059814  1
  Mn3.30+  Mn121  1  0.83028266  0.00213017  0.74806572  1
  Mn3.30+  Mn122  1  0.83601507  0.33184213  0.25249109  1
  Mn3.30+  Mn123  1  0.83422273  0.33014076  0.74948100  1
  Mn3.30+  Mn124  1  0.83240307  0.66814486  0.24862829  1
  Mn3.30+  Mn125  1  0.83380058  0.66830377  0.75021407  1
  Mn3.30+  Mn126  1  0.00111563  0.16544678  0.00096884  1
  Mn3.30+  Mn127  1  -0.00162459  0.16821482  0.49728362  1
  Mn3.30+  Mn128  1  -0.00129614  0.49868330  0.00116390  1
  Mn3.30+  Mn129  1  0.00116338  0.49662133  0.49874828  1
  Mn3.30+  Mn130  1  -0.00264827  0.83414631  0.00190321  1
  Mn3.30+  Mn131  1  -0.00049073  0.83443015  0.49896612  1
  Mn3.30+  Mn132  1  0.33565102  0.16662413  -0.00016218  1
  Mn3.30+  Mn133  1  0.33421980  0.16842819  0.49860219  1
  Mn3.30+  Mn134  1  0.33300431  0.49931115  0.00127825  1
  Mn3.30+  Mn135  1  0.33257292  0.49671159  0.49871561  1
  Mn3.30+  Mn136  1  0.33502346  0.83593245  0.00030255  1
  Mn3.30+  Mn137  1  0.33715828  0.83506349  0.49884571  1
  Mn3.30+  Mn138  1  0.66525177  0.16461238  -0.00148814  1
  Mn3.30+  Mn139  1  0.66754310  0.16526744  0.50174180  1
  Mn3.30+  Mn140  1  0.66669402  0.49965196  -0.00020209  1
  Mn3.30+  Mn141  1  0.66654188  0.49846313  0.50042856  1
  Mn3.30+  Mn142  1  0.66623109  0.83507551  0.00263704  1
  Mn3.30+  Mn143  1  0.66458248  0.83628224  0.49884754  1
  O2-  O144  1  0.02482190  0.15676905  0.12703056  1
  O2-  O145  1  0.02729856  0.16345578  0.62343927  1
  O2-  O146  1  0.01590650  0.49406581  0.12512282  1
  O2-  O147  1  0.02716108  0.49170351  0.62408249  1
  O2-  O148  1  0.02462559  0.83668391  0.12615882  1
  O2-  O149  1  0.02610542  0.82911741  0.62195917  1
  O2-  O150  1  0.36161305  0.16015527  0.12581015  1
  O2-  O151  1  0.35823058  0.16002296  0.62400802  1
  O2-  O152  1  0.35877295  0.49410851  0.12732151  1
  O2-  O153  1  0.35624508  0.49217111  0.62432638  1
  O2-  O154  1  0.36223203  0.82735410  0.12302055  1
  O2-  O155  1  0.36162984  0.82867156  0.62543321  1
  O2-  O156  1  0.69323117  0.16282090  0.12468876  1
  O2-  O157  1  0.69087732  0.16424236  0.62535897  1
  O2-  O158  1  0.69260833  0.49176693  0.12311105  1
  O2-  O159  1  0.69273630  0.49280738  0.62556303  1
  O2-  O160  1  0.69264814  0.83384685  0.12618424  1
  O2-  O161  1  0.68427491  0.82571555  0.62431306  1
  O2-  O162  1  0.13956501  0.32568014  0.12504699  1
  O2-  O163  1  0.14098826  0.32954981  0.62381245  1
  O2-  O164  1  0.14801223  0.67136052  0.12462847  1
  O2-  O165  1  0.13996780  0.65985179  0.62512148  1
  O2-  O166  1  0.14093141  0.99354538  0.12853265  1
  O2-  O167  1  0.14078851  0.99546604  0.62092218  1
  O2-  O168  1  0.47672743  0.32770182  0.12437104  1
  O2-  O169  1  0.47088042  0.32715117  0.62445826  1
  O2-  O170  1  0.47289917  0.65798988  0.12525580  1
  O2-  O171  1  0.47370127  0.65955943  0.62680696  1
  O2-  O172  1  0.47551892  0.98999528  0.12499073  1
  O2-  O173  1  0.47438186  0.99666288  0.62440278  1
  O2-  O174  1  0.80856270  0.32811526  0.12496754  1
  O2-  O175  1  0.81194333  0.32587870  0.62438520  1
  O2-  O176  1  0.81373316  0.65841770  0.12468850  1
  O2-  O177  1  0.80942381  0.66051524  0.62552704  1
  O2-  O178  1  0.80951851  0.99570786  0.12552489  1
  O2-  O179  1  0.80687488  0.99760147  0.62457007  1
  O2-  O180  1  0.30977041  0.17609020  0.37440250  1
  O2-  O181  1  0.30595164  0.16286907  0.87617898  1
  O2-  O182  1  0.30580876  0.50785304  0.37432274  1
  O2-  O183  1  0.30862212  0.50609981  0.87432393  1
  O2-  O184  1  0.30942900  0.83680580  0.37649258  1
  O2-  O185  1  0.30612538  0.84298956  0.87525752  1
  O2-  O186  1  0.64005118  0.17060520  0.37460691  1
  O2-  O187  1  0.63965768  0.17342669  0.87470152  1
  O2-  O188  1  0.64068900  0.50370407  0.37739606  1
  O2-  O189  1  0.64073675  0.50614247  0.87408640  1
  O2-  O190  1  0.63830266  0.84127674  0.37551880  1
  O2-  O191  1  0.64337329  0.83866152  0.87491040  1
  O2-  O192  1  0.97223643  0.17353325  0.37395984  1
  O2-  O193  1  0.98055593  0.16759207  0.87574953  1
  O2-  O194  1  0.98130356  0.50674343  0.37583298  1
  O2-  O195  1  0.97473516  0.50582929  0.87412536  1
  O2-  O196  1  0.97459947  0.83841250  0.37527158  1
  O2-  O197  1  0.97549223  0.84088386  0.87608054  1
  O2-  O198  1  0.19706892  0.00655749  0.37477250  1
  O2-  O199  1  0.18960443  0.00440310  0.87578011  1
  O2-  O200  1  0.19501126  0.33616155  0.37405157  1
  O2-  O201  1  0.18485986  0.33919602  0.87707917  1
  O2-  O202  1  0.19264913  0.67192623  0.37558218  1
  O2-  O203  1  0.19148396  0.67348973  0.87452269  1
  O2-  O204  1  0.52578747  0.00750425  0.37449069  1
  O2-  O205  1  0.52706577  0.00718209  0.87583995  1
  O2-  O206  1  0.52828537  0.33754510  0.37662262  1
  O2-  O207  1  0.52547369  0.34099750  0.87481869  1
  O2-  O208  1  0.52295815  0.67170895  0.37426833  1
  O2-  O209  1  0.52589027  0.67378886  0.87504121  1
  O2-  O210  1  0.85515422  0.00853403  0.37587533  1
  O2-  O211  1  0.85766054  -0.00070635  0.87368717  1
  O2-  O212  1  0.86031236  0.33741453  0.37523479  1
  O2-  O213  1  0.86030354  0.33786970  0.87500456  1
  O2-  O214  1  0.85635262  0.67303670  0.37439151  1
  O2-  O215  1  0.85807923  0.67532692  0.87491605  1
  O2-  O216  1  0.24089066  0.09196615  0.02402789  1
  O2-  O217  1  0.23903735  0.09666456  0.52008022  1
  O2-  O218  1  0.24091945  0.42410202  0.01817022  1
  O2-  O219  1  0.23468370  0.42985624  0.51661451  1
  O2-  O220  1  0.24104941  0.76451574  0.01858676  1
  O2-  O221  1  0.24017234  0.76295784  0.52154881  1
  O2-  O222  1  0.57128595  0.09418218  0.02552843  1
  O2-  O223  1  0.56858078  0.09721799  0.51754876  1
  O2-  O224  1  0.57335345  0.42653622  0.02004573  1
  O2-  O225  1  0.57023019  0.42664034  0.52272590  1
  O2-  O226  1  0.56859930  0.76487108  0.01773966  1
  O2-  O227  1  0.57168493  0.76044413  0.52108109  1
  O2-  O228  1  0.90525516  0.09372197  0.02145270  1
  O2-  O229  1  0.90564459  0.09524780  0.52216855  1
  O2-  O230  1  0.90139635  0.43037389  0.01560909  1
  O2-  O231  1  0.90686370  0.42604774  0.52356946  1
  O2-  O232  1  0.90333076  0.76740214  0.01829799  1
  O2-  O233  1  0.90848483  0.75843609  0.51710923  1
  O2-  O234  1  0.26037067  0.25854014  0.22591898  1
  O2-  O235  1  0.26289577  0.26156284  0.72735439  1
  O2-  O236  1  0.26346271  0.59606436  0.23172317  1
  O2-  O237  1  0.26219935  0.59424505  0.72918907  1
  O2-  O238  1  0.26300481  0.92475171  0.22785718  1
  O2-  O239  1  0.26102661  0.92878865  0.72765746  1
  O2-  O240  1  0.59956109  0.26158064  0.23233312  1
  O2-  O241  1  0.59297862  0.26154849  0.72858151  1
  O2-  O242  1  0.58891142  0.59239358  0.23285415  1
  O2-  O243  1  0.59548769  0.59391536  0.72879946  1
  O2-  O244  1  0.59709306  0.93103557  0.23151323  1
  O2-  O245  1  0.59392652  0.92857642  0.72799997  1
  O2-  O246  1  0.92890395  0.26118544  0.22461828  1
  O2-  O247  1  0.93402166  0.26168551  0.73506373  1
  O2-  O248  1  0.92514459  0.59164094  0.23644838  1
  O2-  O249  1  0.92983063  0.59357883  0.72864829  1
  O2-  O250  1  0.92768510  0.93149831  0.23640881  1
  O2-  O251  1  0.93021868  0.93160780  0.73159769  1
  O2-  O252  1  0.09713045  0.23618622  0.26938561  1
  O2-  O253  1  0.09856190  0.23627042  0.76931482  1
  O2-  O254  1  0.09217316  0.57254253  0.26947721  1
  O2-  O255  1  0.09562491  0.57141840  0.77142356  1
  O2-  O256  1  0.09492480  0.90620878  0.27285653  1
  O2-  O257  1  0.09540888  0.90541707  0.76862405  1
  O2-  O258  1  0.42909761  0.23852510  0.26914296  1
  O2-  O259  1  0.43107478  0.23418538  0.76982041  1
  O2-  O260  1  0.42640997  0.57045065  0.27121496  1
  O2-  O261  1  0.42858634  0.57354161  0.77125872  1
  O2-  O262  1  0.43019386  0.90339854  0.27150596  1
  O2-  O263  1  0.43120566  0.90907104  0.77131150  1
  O2-  O264  1  0.76514217  0.23697259  0.27066412  1
  O2-  O265  1  0.75514766  0.24170632  0.76857809  1
  O2-  O266  1  0.75512964  0.57523436  0.26751034  1
  O2-  O267  1  0.76258469  0.57355787  0.77093697  1
  O2-  O268  1  0.75981165  0.90769205  0.27315241  1
  O2-  O269  1  0.76198269  0.90501042  0.76895588  1
  O2-  O270  1  0.06974615  0.07491874  0.47636660  1
  O2-  O271  1  0.07062071  0.06944135  0.98474600  1
  O2-  O272  1  0.07186982  0.40198938  0.47698089  1
  O2-  O273  1  0.07126223  0.40667972  0.97967931  1
  O2-  O274  1  0.07411111  0.73747401  0.47902495  1
  O2-  O275  1  0.07235312  0.74157625  0.97763690  1
  O2-  O276  1  0.40365041  0.06970415  0.47867683  1
  O2-  O277  1  0.40387842  0.07022547  0.98270591  1
  O2-  O278  1  0.40657173  0.40414274  0.47481412  1
  O2-  O279  1  0.40965292  0.40756017  0.98372179  1
  O2-  O280  1  0.40202043  0.73519634  0.48370246  1
  O2-  O281  1  0.40354389  0.74090577  0.97695983  1
  O2-  O282  1  0.73678480  0.07307956  0.48008692  1
  O2-  O283  1  0.73426604  0.06909013  0.98259559  1
  O2-  O284  1  0.73837107  0.40147115  0.48452971  1
  O2-  O285  1  0.73778633  0.40621991  0.97710912  1
  O2-  O286  1  0.73565007  0.74199475  0.47922224  1
  O2-  O287  1  0.73763577  0.74065608  0.97811591  1
  O2-  O288  1  0.09818180  0.23699047  0.48094319  1
  O2-  O289  1  0.09724610  0.23463727  0.98037200  1
  O2-  O290  1  0.09507532  0.56941976  0.48009151  1
  O2-  O291  1  0.09144191  0.57280113  0.97855446  1
  O2-  O292  1  0.09583972  0.90580543  0.47710801  1
  O2-  O293  1  0.09476593  0.90534333  0.98046201  1
  O2-  O294  1  0.43142593  0.23529532  0.48090448  1
  O2-  O295  1  0.43014922  0.23638767  0.98033971  1
  O2-  O296  1  0.42702778  0.57013534  0.47988337  1
  O2-  O297  1  0.42771115  0.57384925  0.97931428  1
  O2-  O298  1  0.43339159  0.90160791  0.48159851  1
  O2-  O299  1  0.42562068  0.90940814  0.97462973  1
  O2-  O300  1  0.76061054  0.23901041  0.47769271  1
  O2-  O301  1  0.75954064  0.23979666  0.98260996  1
  O2-  O302  1  0.75702462  0.57559093  0.48326725  1
  O2-  O303  1  0.75929390  0.57248383  0.97750650  1
  O2-  O304  1  0.76021497  0.90749136  0.47664465  1
  O2-  O305  1  0.76137776  0.90548029  0.98244600  1
  O2-  O306  1  0.07170260  0.07386213  0.27316131  1
  O2-  O307  1  0.06931192  0.07034190  0.76534796  1
  O2-  O308  1  0.07327551  0.40418213  0.27199654  1
  O2-  O309  1  0.07052476  0.40353295  0.77086602  1
  O2-  O310  1  0.07427729  0.74037728  0.27257898  1
  O2-  O311  1  0.07133075  0.73932639  0.76972207  1
  O2-  O312  1  0.40352178  0.06913614  0.27105223  1
  O2-  O313  1  0.40411619  0.07066504  0.76678948  1
  O2-  O314  1  0.40471927  0.40545519  0.27094521  1
  O2-  O315  1  0.40946117  0.40865196  0.77008064  1
  O2-  O316  1  0.40240681  0.73550015  0.26738400  1
  O2-  O317  1  0.40423969  0.74076697  0.77230596  1
  O2-  O318  1  0.73445757  0.07076331  0.26594854  1
  O2-  O319  1  0.73490228  0.06974677  0.76972211  1
  O2-  O320  1  0.73790134  0.40097930  0.26732574  1
  O2-  O321  1  0.73901093  0.40637736  0.77081206  1
  O2-  O322  1  0.73597469  0.74209889  0.27393118  1
  O2-  O323  1  0.73705403  0.74021810  0.76917677  1
  O2-  O324  1  0.23954440  0.09498856  0.22861762  1
  O2-  O325  1  0.24031784  0.09398255  0.72795807  1
  O2-  O326  1  0.24017009  0.42533204  0.23071018  1
  O2-  O327  1  0.23423019  0.42843319  0.73420663  1
  O2-  O328  1  0.24166799  0.76365833  0.23175958  1
  O2-  O329  1  0.23742384  0.76120006  0.72839999  1
  O2-  O330  1  0.56887986  0.09506310  0.22800891  1
  O2-  O331  1  0.57121949  0.09534889  0.72823911  1
  O2-  O332  1  0.57142042  0.42638424  0.22999973  1
  O2-  O333  1  0.57173464  0.42592380  0.72846902  1
  O2-  O334  1  0.56938669  0.76367814  0.23129631  1
  O2-  O335  1  0.57102228  0.76181632  0.73102072  1
  O2-  O336  1  0.90572002  0.09365629  0.22926833  1
  O2-  O337  1  0.90494247  0.09509824  0.72648891  1
  O2-  O338  1  0.90368862  0.42693316  0.23037567  1
  O2-  O339  1  0.90462539  0.42807050  0.72912354  1
  O2-  O340  1  0.90211880  0.76558933  0.23310270  1
  O2-  O341  1  0.90818138  0.75978537  0.73070245  1
  O2-  O342  1  0.26294093  0.25784751  0.02422223  1
  O2-  O343  1  0.26155526  0.26159809  0.52290601  1
  O2-  O344  1  0.26308341  0.59674977  0.01629984  1
  O2-  O345  1  0.26124385  0.59564544  0.52242466  1
  O2-  O346  1  0.26113932  0.92761365  0.02342124  1
  O2-  O347  1  0.26368709  0.92562533  0.52209185  1
  O2-  O348  1  0.59710159  0.26223569  0.01737388  1
  O2-  O349  1  0.59516808  0.26154025  0.52172840  1
  O2-  O350  1  0.59288740  0.59083394  0.01809852  1
  O2-  O351  1  0.59162879  0.59430935  0.52147466  1
  O2-  O352  1  0.59403980  0.92785129  0.01858442  1
  O2-  O353  1  0.59632931  0.93196339  0.52246200  1
  O2-  O354  1  0.93221685  0.26110741  0.02061126  1
  O2-  O355  1  0.93002310  0.26110016  0.51985369  1
  O2-  O356  1  0.92601154  0.59334980  0.01436473  1
  O2-  O357  1  0.93004161  0.59147905  0.52023514  1
  O2-  O358  1  0.92912855  0.93111922  0.01686409  1
  O2-  O359  1  0.92863335  0.93231289  0.51511501  1
