# generated using pymatgen
data_Sr7Ca15Pr50Mn72O216
_symmetry_space_group_name_H-M   'P 1'
_cell_length_a   16.55665434
_cell_length_b   16.59978586
_cell_length_c   15.58909581
_cell_angle_alpha   89.99722579
_cell_angle_beta   89.99861807
_cell_angle_gamma   89.99841191
_symmetry_Int_Tables_number   1
_chemical_formula_structural   Sr7Ca15Pr50Mn72O216
_chemical_formula_sum   'Sr7 Ca15 Pr50 Mn72 O216'
_cell_volume   4284.45901848
_cell_formula_units_Z   1
loop_
 _symmetry_equiv_pos_site_id
 _symmetry_equiv_pos_as_xyz
  1  'x, y, z'
loop_
 _atom_type_symbol
 _atom_type_oxidation_number
  Sr2+  2.0
  Ca2+  2.0
  Pr3+  3.0
  Mn3.30+  3.3
  O2-  -2.0
loop_
 _atom_site_type_symbol
 _atom_site_label
 _atom_site_symmetry_multiplicity
 _atom_site_fract_x
 _atom_site_fract_y
 _atom_site_fract_z
 _atom_site_occupancy
  Sr2+  Sr0  1  0.16948666  0.84328299  0.12540840  1
  Sr2+  Sr1  1  0.33291980  0.99117490  0.87559354  1
  Sr2+  Sr2  1  0.49906374  0.84157619  0.62641786  1
  Sr2+  Sr3  1  0.66578447  0.65919418  0.87472477  1
  Sr2+  Sr4  1  0.33310556  0.67590229  0.12272256  1
  Sr2+  Sr5  1  0.33368916  0.34245946  0.12375458  1
  Sr2+  Sr6  1  0.66680076  0.32228655  0.37513172  1
  Ca2+  Ca7  1  0.33063964  0.34796464  0.62617853  1
  Ca2+  Ca8  1  -0.00187034  0.01212315  0.12601808  1
  Ca2+  Ca9  1  0.66038156  0.68058577  0.12190418  1
  Ca2+  Ca10  1  0.50365302  0.51856718  0.12388763  1
  Ca2+  Ca11  1  0.67103023  0.98480091  0.87742883  1
  Ca2+  Ca12  1  0.17291337  0.84805118  0.62450322  1
  Ca2+  Ca13  1  0.66456852  0.01339165  0.12326847  1
  Ca2+  Ca14  1  0.33640468  0.98372627  0.37429356  1
  Ca2+  Ca15  1  0.16453369  0.15033105  0.87611718  1
  Ca2+  Ca16  1  0.32771432  0.68587142  0.62697782  1
  Ca2+  Ca17  1  0.83679707  0.85062164  0.12387484  1
  Ca2+  Ca18  1  -0.00274469  0.34822470  0.62624024  1
  Ca2+  Ca19  1  0.66814110  0.32016442  0.87594181  1
  Ca2+  Ca20  1  0.33856646  0.65652537  0.87587563  1
  Ca2+  Ca21  1  1.00418264  0.98502989  0.37094090  1
  Pr3+  Pr22  1  0.50463382  0.84511788  0.12405161  1
  Pr3+  Pr23  1  1.00535779  0.31661506  0.87380236  1
  Pr3+  Pr24  1  0.83429339  0.17701170  0.12540075  1
  Pr3+  Pr25  1  0.66181883  0.01128238  0.62656484  1
  Pr3+  Pr26  1  0.33026647  0.00789109  0.12459822  1
  Pr3+  Pr27  1  0.83267187  0.51398517  0.12469973  1
  Pr3+  Pr28  1  0.17104439  0.51250478  0.62595862  1
  Pr3+  Pr29  1  1.00438452  0.98843409  0.87749900  1
  Pr3+  Pr30  1  0.33628294  0.32025026  0.87380056  1
  Pr3+  Pr31  1  -0.00428314  0.68268746  0.12453970  1
  Pr3+  Pr32  1  0.49642223  0.82169250  0.37506826  1
  Pr3+  Pr33  1  0.33682779  0.32011464  0.37584079  1
  Pr3+  Pr34  1  0.16856651  0.17375060  0.12181849  1
  Pr3+  Pr35  1  0.50263033  0.17596990  0.12338981  1
  Pr3+  Pr36  1  0.00003533  0.01025997  0.62331331  1
  Pr3+  Pr37  1  0.17192417  0.18201751  0.62773558  1
  Pr3+  Pr38  1  0.83289316  0.82312181  0.37409826  1
  Pr3+  Pr39  1  -0.00308623  0.34485694  0.12424609  1
  Pr3+  Pr40  1  0.82932226  0.48716047  0.37478506  1
  Pr3+  Pr41  1  0.16380609  0.15074991  0.37434223  1
  Pr3+  Pr42  1  0.50014555  0.17707470  0.62701292  1
  Pr3+  Pr43  1  0.16566538  0.82147216  0.37496726  1
  Pr3+  Pr44  1  0.66934353  0.98799138  0.37259737  1
  Pr3+  Pr45  1  0.50092380  0.15323560  0.87580942  1
  Pr3+  Pr46  1  1.00360328  0.65428090  0.37409371  1
  Pr3+  Pr47  1  0.66256141  0.68038751  0.62651276  1
  Pr3+  Pr48  1  0.65961171  0.34711505  0.12391770  1
  Pr3+  Pr49  1  0.49545462  0.49148762  0.87766536  1
  Pr3+  Pr50  1  1.00380205  0.32007146  0.37616378  1
  Pr3+  Pr51  1  0.66732157  0.65624136  0.37473212  1
  Pr3+  Pr52  1  0.83123228  0.15275647  0.37479551  1
  Pr3+  Pr53  1  1.00199756  0.65488744  0.87542966  1
  Pr3+  Pr54  1  0.49831451  0.51237960  0.62443841  1
  Pr3+  Pr55  1  0.49679896  0.81976359  0.87429192  1
  Pr3+  Pr56  1  -0.00067703  0.68125526  0.62502735  1
  Pr3+  Pr57  1  0.83656205  0.51188297  0.62563734  1
  Pr3+  Pr58  1  0.16717842  0.82059167  0.87546803  1
  Pr3+  Pr59  1  0.17037127  0.51173487  0.12428177  1
  Pr3+  Pr60  1  0.82945218  0.82265874  0.87663586  1
  Pr3+  Pr61  1  0.66344051  0.34549244  0.62573018  1
  Pr3+  Pr62  1  0.82842525  0.15128981  0.87567605  1
  Pr3+  Pr63  1  0.83453838  0.84538233  0.62644821  1
  Pr3+  Pr64  1  0.16787903  0.48962061  0.87681512  1
  Pr3+  Pr65  1  0.33010672  0.00793761  0.62535613  1
  Pr3+  Pr66  1  0.83871696  0.18209900  0.62509947  1
  Pr3+  Pr67  1  0.49547114  0.15097579  0.37477331  1
  Pr3+  Pr68  1  0.16567056  0.48691379  0.37324233  1
  Pr3+  Pr69  1  0.82566048  0.48522335  0.87513098  1
  Pr3+  Pr70  1  0.33597054  0.65575791  0.37390643  1
  Pr3+  Pr71  1  0.49639079  0.48666317  0.37265319  1
  Mn3.30+  Mn72  1  0.16550758  -0.00115365  0.00068822  1
  Mn3.30+  Mn73  1  0.16642996  -0.00129916  0.49794857  1
  Mn3.30+  Mn74  1  0.16718645  0.33070645  -0.00117808  1
  Mn3.30+  Mn75  1  0.16752272  0.33374338  0.50252296  1
  Mn3.30+  Mn76  1  0.16833116  0.66712878  -0.00105355  1
  Mn3.30+  Mn77  1  0.16884366  0.66759491  0.50181207  1
  Mn3.30+  Mn78  1  0.50334239  -0.00118051  -0.00117560  1
  Mn3.30+  Mn79  1  0.49785484  -0.00167573  0.50043079  1
  Mn3.30+  Mn80  1  0.50142894  0.33481514  -0.00122695  1
  Mn3.30+  Mn81  1  0.49780990  0.33212131  0.50182313  1
  Mn3.30+  Mn82  1  0.50039500  0.66693457  0.00065073  1
  Mn3.30+  Mn83  1  0.49777494  0.66702518  0.50141382  1
  Mn3.30+  Mn84  1  0.83272711  -0.00033413  0.00314427  1
  Mn3.30+  Mn85  1  0.83441921  -0.00013377  0.49921711  1
  Mn3.30+  Mn86  1  0.83101737  0.33236940  -0.00060152  1
  Mn3.30+  Mn87  1  0.83507853  0.33370460  0.50076608  1
  Mn3.30+  Mn88  1  0.82987807  0.66920553  0.00219606  1
  Mn3.30+  Mn89  1  0.83417530  0.66752697  0.49950494  1
  Mn3.30+  Mn90  1  0.00017422  0.16376613  0.24990866  1
  Mn3.30+  Mn91  1  0.00216641  0.16615234  0.74924752  1
  Mn3.30+  Mn92  1  -0.00096651  0.50004354  0.24894818  1
  Mn3.30+  Mn93  1  0.00034085  0.49885477  0.75078860  1
  Mn3.30+  Mn94  1  -0.00113944  0.83659869  0.24855834  1
  Mn3.30+  Mn95  1  0.00223828  0.83420462  0.74933845  1
  Mn3.30+  Mn96  1  0.33239430  0.16388686  0.25029256  1
  Mn3.30+  Mn97  1  0.33300168  0.16644032  0.75108345  1
  Mn3.30+  Mn98  1  0.33421111  0.49936155  0.24691573  1
  Mn3.30+  Mn99  1  0.33285886  0.50220544  0.74984088  1
  Mn3.30+  Mn100  1  0.33354673  0.83347468  0.24932539  1
  Mn3.30+  Mn101  1  0.33161607  0.83311197  0.75001474  1
  Mn3.30+  Mn102  1  0.66660235  0.16562875  0.25016391  1
  Mn3.30+  Mn103  1  0.66831672  0.16669963  0.75066649  1
  Mn3.30+  Mn104  1  0.66456551  0.50198000  0.24854369  1
  Mn3.30+  Mn105  1  0.66521654  0.49948274  0.75124581  1
  Mn3.30+  Mn106  1  0.66898686  0.83409565  0.24631904  1
  Mn3.30+  Mn107  1  0.66574227  0.83519150  0.75176615  1
  Mn3.30+  Mn108  1  0.16581485  -0.00184523  0.25058822  1
  Mn3.30+  Mn109  1  0.16597952  -0.00044171  0.75030120  1
  Mn3.30+  Mn110  1  0.16759572  0.33072885  0.24906604  1
  Mn3.30+  Mn111  1  0.16722834  0.33355450  0.74993095  1
  Mn3.30+  Mn112  1  0.16751936  0.66703284  0.24896823  1
  Mn3.30+  Mn113  1  0.16995753  0.66757752  0.75023542  1
  Mn3.30+  Mn114  1  0.50049492  -0.00087360  0.24907928  1
  Mn3.30+  Mn115  1  0.50034734  -0.00173566  0.75217267  1
  Mn3.30+  Mn116  1  0.49943484  0.33303926  0.24880882  1
  Mn3.30+  Mn117  1  0.50005829  0.33411597  0.75066575  1
  Mn3.30+  Mn118  1  0.50179087  0.66717632  0.24784436  1
  Mn3.30+  Mn119  1  0.49650819  0.66643621  0.74923067  1
  Mn3.30+  Mn120  1  0.83554281  -0.00091218  0.24805824  1
  Mn3.30+  Mn121  1  0.83260066  0.00036967  0.75022844  1
  Mn3.30+  Mn122  1  0.83184035  0.33301514  0.24963374  1
  Mn3.30+  Mn123  1  0.83394856  0.33301935  0.75071617  1
  Mn3.30+  Mn124  1  0.83088524  0.66986137  0.24747235  1
  Mn3.30+  Mn125  1  0.83306040  0.66698302  0.75046481  1
  Mn3.30+  Mn126  1  0.00001156  0.16456407  0.00040496  1
  Mn3.30+  Mn127  1  0.00166916  0.16602298  0.50046643  1
  Mn3.30+  Mn128  1  -0.00179641  0.49997936  -0.00083359  1
  Mn3.30+  Mn129  1  0.00121960  0.49887859  0.50109013  1
  Mn3.30+  Mn130  1  -0.00192006  0.83603724  0.00243162  1
  Mn3.30+  Mn131  1  0.00246869  0.83496587  0.49976637  1
  Mn3.30+  Mn132  1  0.33347648  0.16516126  -0.00206656  1
  Mn3.30+  Mn133  1  0.33198084  0.16555024  0.50103594  1
  Mn3.30+  Mn134  1  0.33424046  0.50094192  0.00140229  1
  Mn3.30+  Mn135  1  0.33229202  0.50061492  0.50098963  1
  Mn3.30+  Mn136  1  0.33395307  0.83252325  -0.00076546  1
  Mn3.30+  Mn137  1  0.33154138  0.83418242  0.50100748  1
  Mn3.30+  Mn138  1  0.66806620  0.16531069  -0.00084359  1
  Mn3.30+  Mn139  1  0.66694375  0.16638959  0.50029324  1
  Mn3.30+  Mn140  1  0.66386870  0.50182486  -0.00051557  1
  Mn3.30+  Mn141  1  0.66636573  0.49990201  0.50047885  1
  Mn3.30+  Mn142  1  0.66877144  0.83477501  0.00260827  1
  Mn3.30+  Mn143  1  0.66548740  0.83448002  0.49922428  1
  O2-  O144  1  0.02433170  0.16156016  0.12444041  1
  O2-  O145  1  0.02823366  0.15680281  0.62251606  1
  O2-  O146  1  0.02498346  0.49389861  0.12426621  1
  O2-  O147  1  0.02613965  0.49399553  0.62771311  1
  O2-  O148  1  0.02182131  0.82728132  0.12430860  1
  O2-  O149  1  0.02905382  0.82918310  0.62269032  1
  O2-  O150  1  0.35757844  0.15806500  0.12465960  1
  O2-  O151  1  0.35651605  0.15678366  0.62616341  1
  O2-  O152  1  0.35909330  0.49641545  0.12551164  1
  O2-  O153  1  0.35567671  0.49013496  0.62514949  1
  O2-  O154  1  0.35820141  0.83415063  0.12386464  1
  O2-  O155  1  0.35114331  0.83225204  0.62535296  1
  O2-  O156  1  0.69030759  0.16033588  0.12484026  1
  O2-  O157  1  0.69382636  0.15863313  0.62568076  1
  O2-  O158  1  0.69105054  0.49272623  0.12438191  1
  O2-  O159  1  0.69277266  0.49368456  0.62640770  1
  O2-  O160  1  0.69472518  0.82272066  0.12607403  1
  O2-  O161  1  0.69003468  0.82994844  0.62305976  1
  O2-  O162  1  0.14014867  0.32469448  0.12391797  1
  O2-  O163  1  0.13860762  0.32992818  0.62774068  1
  O2-  O164  1  0.14008029  0.65992587  0.12306484  1
  O2-  O165  1  0.14044208  0.65856667  0.62547361  1
  O2-  O166  1  0.14189369  1.00112180  0.12604430  1
  O2-  O167  1  0.14251975  0.99344747  0.62356573  1
  O2-  O168  1  0.48202758  0.32290765  0.12373581  1
  O2-  O169  1  0.47192143  0.32584912  0.62655824  1
  O2-  O170  1  0.48171616  0.66763029  0.12562293  1
  O2-  O171  1  0.47198839  0.66119934  0.62404897  1
  O2-  O172  1  0.47481938  0.99578678  0.12387809  1
  O2-  O173  1  0.47557415  0.99984794  0.62530365  1
  O2-  O174  1  0.80575308  0.32693396  0.12382919  1
  O2-  O175  1  0.80825587  0.33028694  0.62574914  1
  O2-  O176  1  0.80252090  0.65908267  0.12619570  1
  O2-  O177  1  0.80797186  0.66116081  0.62440533  1
  O2-  O178  1  0.80543782  0.99763383  0.12538077  1
  O2-  O179  1  0.80564945  0.99402350  0.62382691  1
  O2-  O180  1  0.30716000  0.17446997  0.37663648  1
  O2-  O181  1  0.30734623  0.17246301  0.87270379  1
  O2-  O182  1  0.30913260  0.50652322  0.37450441  1
  O2-  O183  1  0.31092594  0.50932757  0.87460913  1
  O2-  O184  1  0.31069119  0.83692229  0.37574160  1
  O2-  O185  1  0.31009028  0.83688250  0.87455633  1
  O2-  O186  1  0.64112889  0.16651459  0.37666161  1
  O2-  O187  1  0.64448614  0.17630944  0.87311633  1
  O2-  O188  1  0.64076021  0.50733710  0.37466145  1
  O2-  O189  1  0.63963424  0.50532171  0.87404775  1
  O2-  O190  1  0.64128394  0.84023164  0.37438440  1
  O2-  O191  1  0.64350111  0.84059583  0.87715068  1
  O2-  O192  1  0.97422807  0.17526492  0.37755593  1
  O2-  O193  1  0.97310991  0.16933301  0.87554339  1
  O2-  O194  1  0.97387227  0.50577242  0.37338092  1
  O2-  O195  1  0.97112599  0.50668210  0.87505555  1
  O2-  O196  1  0.97598431  0.83703201  0.37525721  1
  O2-  O197  1  0.97346518  0.83921131  0.87749164  1
  O2-  O198  1  0.19520178  0.00534655  0.37483933  1
  O2-  O199  1  0.18313627  0.00515331  0.87506515  1
  O2-  O200  1  0.19248889  0.33771550  0.37469092  1
  O2-  O201  1  0.19283632  0.34139580  0.87425260  1
  O2-  O202  1  0.19089467  0.66971647  0.37708924  1
  O2-  O203  1  0.19384675  0.67061189  0.87381115  1
  O2-  O204  1  0.52553023  0.00332113  0.37481008  1
  O2-  O205  1  0.52943715  0.00468382  0.87636121  1
  O2-  O206  1  0.51724321  0.33758582  0.37496358  1
  O2-  O207  1  0.52769665  0.34257624  0.87427226  1
  O2-  O208  1  0.52338294  0.67114934  0.37519289  1
  O2-  O209  1  0.51740191  0.66830072  0.87455452  1
  O2-  O210  1  0.86074802  0.00488251  0.37630328  1
  O2-  O211  1  0.86022719  0.00378469  0.87570647  1
  O2-  O212  1  0.85973534  0.33921317  0.37558609  1
  O2-  O213  1  0.86028015  0.33732914  0.87542546  1
  O2-  O214  1  0.86034376  0.67346062  0.37460679  1
  O2-  O215  1  0.85830729  0.67315411  0.87511880  1
  O2-  O216  1  0.24072482  0.08977119  0.01973093  1
  O2-  O217  1  0.23598243  0.09569951  0.52086266  1
  O2-  O218  1  0.23636668  0.42782221  0.01656143  1
  O2-  O219  1  0.23531956  0.43268289  0.51582956  1
  O2-  O220  1  0.23780421  0.75991858  0.01346049  1
  O2-  O221  1  0.23492025  0.76459739  0.51731631  1
  O2-  O222  1  0.57221014  0.09621882  0.01734748  1
  O2-  O223  1  0.57032458  0.09330136  0.52084703  1
  O2-  O224  1  0.56993445  0.43020810  0.02274482  1
  O2-  O225  1  0.57038084  0.42593751  0.52068863  1
  O2-  O226  1  0.57227830  0.76354716  0.01495931  1
  O2-  O227  1  0.57563091  0.75814291  0.51693868  1
  O2-  O228  1  0.90158881  0.09623572  0.01845896  1
  O2-  O229  1  0.90552080  0.09473996  0.52219483  1
  O2-  O230  1  0.90312245  0.42760020  0.02109801  1
  O2-  O231  1  0.90500968  0.42979649  0.51850605  1
  O2-  O232  1  0.90463536  0.76359459  0.02173150  1
  O2-  O233  1  0.90630539  0.76062780  0.52167820  1
  O2-  O234  1  0.25825909  0.25714575  0.23106823  1
  O2-  O235  1  0.26291552  0.26486969  0.72787126  1
  O2-  O236  1  0.25847434  0.59002557  0.23191850  1
  O2-  O237  1  0.26130791  0.59555989  0.72504490  1
  O2-  O238  1  0.26285923  0.92884754  0.23284381  1
  O2-  O239  1  0.25995770  0.92828782  0.73224295  1
  O2-  O240  1  0.59449521  0.25934110  0.22979229  1
  O2-  O241  1  0.59486559  0.25921646  0.72688739  1
  O2-  O242  1  0.59848030  0.59914442  0.23248894  1
  O2-  O243  1  0.59231510  0.59163367  0.72493274  1
  O2-  O244  1  0.59946490  0.92858286  0.22768683  1
  O2-  O245  1  0.59489695  0.92870441  0.73151435  1
  O2-  O246  1  0.92845189  0.26144561  0.22923708  1
  O2-  O247  1  0.93365710  0.26114623  0.72871869  1
  O2-  O248  1  0.92447860  0.59795146  0.22820256  1
  O2-  O249  1  0.92866885  0.59518398  0.72873385  1
  O2-  O250  1  0.92889410  0.93109055  0.22973109  1
  O2-  O251  1  0.92746590  0.92868248  0.72807808  1
  O2-  O252  1  0.09415244  0.23769921  0.27083770  1
  O2-  O253  1  0.09970298  0.23671926  0.77261684  1
  O2-  O254  1  0.09288515  0.57211767  0.26983845  1
  O2-  O255  1  0.09572308  0.57292619  0.77215877  1
  O2-  O256  1  0.09671939  0.90618044  0.27178004  1
  O2-  O257  1  0.09255716  0.90603654  0.77254240  1
  O2-  O258  1  0.42564083  0.23613427  0.26947843  1
  O2-  O259  1  0.43079857  0.24093816  0.77300965  1
  O2-  O260  1  0.42737004  0.57402122  0.27073113  1
  O2-  O261  1  0.43011183  0.56891015  0.76518919  1
  O2-  O262  1  0.43252057  0.90409884  0.26666350  1
  O2-  O263  1  0.42810158  0.90494008  0.76893339  1
  O2-  O264  1  0.76397078  0.23695808  0.26813148  1
  O2-  O265  1  0.76655934  0.23565497  0.76538971  1
  O2-  O266  1  0.76155772  0.57327812  0.27238289  1
  O2-  O267  1  0.76204189  0.56855225  0.76659812  1
  O2-  O268  1  0.76265523  0.90709295  0.27303043  1
  O2-  O269  1  0.76530140  0.90566474  0.76704431  1
  O2-  O270  1  0.07089382  0.06998754  0.47663880  1
  O2-  O271  1  0.07095266  0.07278252  0.98229585  1
  O2-  O272  1  0.07302843  0.40576359  0.47720522  1
  O2-  O273  1  0.07268458  0.40234065  0.97973957  1
  O2-  O274  1  0.07255577  0.73591356  0.47878044  1
  O2-  O275  1  0.07154851  0.73850834  0.97909544  1
  O2-  O276  1  0.40481633  0.06999217  0.47801412  1
  O2-  O277  1  0.41114960  0.07523932  0.98137864  1
  O2-  O278  1  0.40348010  0.40734423  0.47928464  1
  O2-  O279  1  0.40494253  0.40728197  0.97601473  1
  O2-  O280  1  0.40450048  0.74067735  0.47885053  1
  O2-  O281  1  0.40741762  0.74071104  0.97864578  1
  O2-  O282  1  0.73981863  0.07142017  0.47875507  1
  O2-  O283  1  0.73907817  0.07169689  0.97671486  1
  O2-  O284  1  0.74019607  0.40935215  0.48206229  1
  O2-  O285  1  0.73494002  0.40476208  0.97846703  1
  O2-  O286  1  0.73887204  0.74157731  0.47989543  1
  O2-  O287  1  0.74160233  0.74254578  0.97821320  1
  O2-  O288  1  0.09720619  0.23709248  0.47959293  1
  O2-  O289  1  0.09440128  0.23672987  0.97711330  1
  O2-  O290  1  0.09556262  0.57089157  0.47958619  1
  O2-  O291  1  0.09192561  0.57297290  0.97831646  1
  O2-  O292  1  0.09551000  0.90657380  0.47739966  1
  O2-  O293  1  0.09339673  0.90583520  0.97810497  1
  O2-  O294  1  0.42730464  0.23646864  0.48059249  1
  O2-  O295  1  0.42850822  0.24108102  0.97756118  1
  O2-  O296  1  0.42780549  0.57033261  0.47885546  1
  O2-  O297  1  0.42769704  0.57310467  0.98459535  1
  O2-  O298  1  0.42822280  0.90497183  0.48108436  1
  O2-  O299  1  0.43308895  0.90398543  0.98251450  1
  O2-  O300  1  0.76590477  0.23739873  0.48405543  1
  O2-  O301  1  0.76412688  0.23555060  0.98261057  1
  O2-  O302  1  0.76232917  0.57478232  0.47886260  1
  O2-  O303  1  0.76260825  0.56801476  0.98267443  1
  O2-  O304  1  0.76140084  0.90580438  0.47867976  1
  O2-  O305  1  0.76426741  0.90540071  0.98140896  1
  O2-  O306  1  0.07314022  0.07219996  0.27367547  1
  O2-  O307  1  0.06818995  0.06959152  0.76551193  1
  O2-  O308  1  0.07336182  0.40218171  0.26948367  1
  O2-  O309  1  0.07299591  0.40590029  0.77511309  1
  O2-  O310  1  0.07104721  0.73884257  0.26933684  1
  O2-  O311  1  0.07260277  0.73691985  0.77192780  1
  O2-  O312  1  0.40275887  0.07088457  0.27183355  1
  O2-  O313  1  0.41224833  0.07509414  0.76995186  1
  O2-  O314  1  0.40421951  0.40606820  0.27175268  1
  O2-  O315  1  0.40538442  0.40793849  0.77284352  1
  O2-  O316  1  0.40830586  0.74036305  0.27167143  1
  O2-  O317  1  0.40425481  0.73977571  0.76958287  1
  O2-  O318  1  0.74106720  0.07320497  0.27215472  1
  O2-  O319  1  0.73780068  0.07026128  0.77248274  1
  O2-  O320  1  0.73979429  0.40916445  0.26768187  1
  O2-  O321  1  0.73524047  0.40367630  0.77176435  1
  O2-  O322  1  0.74014053  0.74152832  0.27735219  1
  O2-  O323  1  0.74329388  0.74279178  0.76475288  1
  O2-  O324  1  0.23755543  0.09377711  0.22954485  1
  O2-  O325  1  0.23804276  0.09145153  0.72838094  1
  O2-  O326  1  0.23516916  0.42757416  0.23221173  1
  O2-  O327  1  0.23603602  0.43167537  0.73469906  1
  O2-  O328  1  0.23985039  0.75901607  0.23801742  1
  O2-  O329  1  0.23372060  0.76449012  0.73140251  1
  O2-  O330  1  0.56842054  0.09533896  0.23283356  1
  O2-  O331  1  0.57397187  0.09536612  0.73012880  1
  O2-  O332  1  0.57105133  0.43125887  0.23011566  1
  O2-  O333  1  0.57110883  0.42668763  0.72501846  1
  O2-  O334  1  0.57235572  0.76493976  0.23461586  1
  O2-  O335  1  0.57430971  0.75590158  0.73422412  1
  O2-  O336  1  0.90285349  0.09631471  0.23245075  1
  O2-  O337  1  0.90290605  0.09375513  0.72838761  1
  O2-  O338  1  0.90504852  0.42761886  0.22859259  1
  O2-  O339  1  0.90200583  0.42903116  0.73233788  1
  O2-  O340  1  0.90203867  0.76265336  0.22846632  1
  O2-  O341  1  0.90961457  0.76221186  0.72832247  1
  O2-  O342  1  0.25826190  0.25748335  0.01766285  1
  O2-  O343  1  0.26183598  0.26441673  0.52351178  1
  O2-  O344  1  0.25548834  0.58821234  0.02002446  1
  O2-  O345  1  0.26360469  0.59759568  0.52177672  1
  O2-  O346  1  0.26161900  0.92700732  0.01717249  1
  O2-  O347  1  0.26184452  0.92966044  0.51779188  1
  O2-  O348  1  0.59585237  0.25909544  0.01875280  1
  O2-  O349  1  0.59353325  0.25835218  0.52386959  1
  O2-  O350  1  0.59467637  0.59539574  0.01990650  1
  O2-  O351  1  0.59493437  0.59282658  0.52172931  1
  O2-  O352  1  0.59714521  0.92654483  0.02616932  1
  O2-  O353  1  0.59684152  0.93032285  0.51667504  1
  O2-  O354  1  0.92976017  0.26042981  0.02055680  1
  O2-  O355  1  0.93209474  0.26211160  0.52318335  1
  O2-  O356  1  0.92415608  0.59830913  0.02171929  1
  O2-  O357  1  0.93041733  0.59406610  0.52095016  1
  O2-  O358  1  0.92994404  0.93299960  0.02028074  1
  O2-  O359  1  0.92416724  0.92599394  0.52398850  1
