# generated using pymatgen
data_Sr7Ca15Pr50Mn72O216
_symmetry_space_group_name_H-M   'P 1'
_cell_length_a   16.55945755
_cell_length_b   16.60415443
_cell_length_c   15.59246115
_cell_angle_alpha   90.00445632
_cell_angle_beta   90.00395551
_cell_angle_gamma   90.00296445
_symmetry_Int_Tables_number   1
_chemical_formula_structural   Sr7Ca15Pr50Mn72O216
_chemical_formula_sum   'Sr7 Ca15 Pr50 Mn72 O216'
_cell_volume   4287.23745100
_cell_formula_units_Z   1
loop_
 _symmetry_equiv_pos_site_id
 _symmetry_equiv_pos_as_xyz
  1  'x, y, z'
loop_
 _atom_type_symbol
 _atom_type_oxidation_number
  Sr2+  2.0
  Ca2+  2.0
  Pr3+  3.0
  Mn3.30+  3.3
  O2-  -2.0
loop_
 _atom_site_type_symbol
 _atom_site_label
 _atom_site_symmetry_multiplicity
 _atom_site_fract_x
 _atom_site_fract_y
 _atom_site_fract_z
 _atom_site_occupancy
  Sr2+  Sr0  1  0.16839664  0.16060323  0.87249532  1
  Sr2+  Sr1  1  0.49718584  0.16070169  0.87078370  1
  Sr2+  Sr2  1  1.00249837  0.32697520  0.37576762  1
  Sr2+  Sr3  1  0.00034395  0.34459882  0.12284506  1
  Sr2+  Sr4  1  0.16400213  0.48998427  0.37525624  1
  Sr2+  Sr5  1  0.66329963  0.01129399  0.62275332  1
  Sr2+  Sr6  1  0.16691776  0.50924790  0.62437617  1
  Ca2+  Ca7  1  0.16214739  0.81621194  0.37516236  1
  Ca2+  Ca8  1  0.83018137  0.48286036  0.87365874  1
  Ca2+  Ca9  1  -0.00075240  0.67802479  0.62592319  1
  Ca2+  Ca10  1  0.50254115  0.18007345  0.62824556  1
  Ca2+  Ca11  1  0.32920030  0.68078258  0.12442513  1
  Ca2+  Ca12  1  0.33029946  0.01812869  0.62527967  1
  Ca2+  Ca13  1  0.16979775  0.18110025  0.62498124  1
  Ca2+  Ca14  1  0.17032789  0.51601745  0.12511975  1
  Ca2+  Ca15  1  0.66954152  0.98466595  0.37757480  1
  Ca2+  Ca16  1  0.84167749  0.51504731  0.62900674  1
  Ca2+  Ca17  1  0.49517276  0.48115304  0.87434941  1
  Ca2+  Ca18  1  1.00485567  0.65125661  0.87296054  1
  Ca2+  Ca19  1  0.66615048  0.31812157  0.87387042  1
  Ca2+  Ca20  1  0.33692750  0.31745773  0.87149425  1
  Ca2+  Ca21  1  0.49572049  0.82129257  0.87450127  1
  Pr3+  Pr22  1  0.16765786  0.18092107  0.12371586  1
  Pr3+  Pr23  1  0.33313964  0.98667628  0.37734004  1
  Pr3+  Pr24  1  0.33097602  0.34204916  0.62973715  1
  Pr3+  Pr25  1  0.50268234  0.51428256  0.12164563  1
  Pr3+  Pr26  1  0.66502049  0.67849795  0.12327496  1
  Pr3+  Pr27  1  0.33229547  0.32423830  0.37759952  1
  Pr3+  Pr28  1  1.00531874  0.98982604  0.87395039  1
  Pr3+  Pr29  1  1.00531995  0.65341780  0.37611301  1
  Pr3+  Pr30  1  1.00588105  0.98413484  0.37645485  1
  Pr3+  Pr31  1  0.83398666  0.48706233  0.37619059  1
  Pr3+  Pr32  1  0.67071383  0.32079706  0.37552402  1
  Pr3+  Pr33  1  0.17021384  0.84571706  0.62464326  1
  Pr3+  Pr34  1  0.50034376  0.84398689  0.12363287  1
  Pr3+  Pr35  1  0.33066585  0.01414350  0.12597864  1
  Pr3+  Pr36  1  0.00222431  0.67442417  0.12294184  1
  Pr3+  Pr37  1  0.50008850  0.82155774  0.37680307  1
  Pr3+  Pr38  1  0.49547270  0.15340522  0.37775335  1
  Pr3+  Pr39  1  0.83805684  0.84523367  0.12426605  1
  Pr3+  Pr40  1  0.16151202  0.15864453  0.37762165  1
  Pr3+  Pr41  1  0.49726230  0.48743369  0.37582451  1
  Pr3+  Pr42  1  1.00005254  0.32300751  0.87523306  1
  Pr3+  Pr43  1  0.66833156  0.65166797  0.87392663  1
  Pr3+  Pr44  1  0.83781384  0.84564444  0.62528050  1
  Pr3+  Pr45  1  0.83255640  0.81927001  0.87312670  1
  Pr3+  Pr46  1  0.33246026  0.65388331  0.37459289  1
  Pr3+  Pr47  1  -0.00156634  0.34715670  0.62713550  1
  Pr3+  Pr48  1  0.16446714  0.81972937  0.87479503  1
  Pr3+  Pr49  1  0.32712306  0.34759627  0.12081410  1
  Pr3+  Pr50  1  0.83363544  0.17983488  0.62584441  1
  Pr3+  Pr51  1  0.32905261  0.67817264  0.62625945  1
  Pr3+  Pr52  1  0.17236960  0.84461129  0.12587875  1
  Pr3+  Pr53  1  0.50296910  0.51137630  0.62867600  1
  Pr3+  Pr54  1  0.82930118  0.15340554  0.37548964  1
  Pr3+  Pr55  1  0.66681916  0.67809769  0.62654701  1
  Pr3+  Pr56  1  -0.00238923  0.01475668  0.62532449  1
  Pr3+  Pr57  1  0.67137851  0.65281316  0.37580981  1
  Pr3+  Pr58  1  0.50022891  0.18080072  0.12323728  1
  Pr3+  Pr59  1  0.83572732  0.18117395  0.12398152  1
  Pr3+  Pr60  1  0.33912623  0.99048030  0.87294860  1
  Pr3+  Pr61  1  0.82753313  0.15748684  0.87472183  1
  Pr3+  Pr62  1  0.33987390  0.65343014  0.87608781  1
  Pr3+  Pr63  1  0.50207550  0.84650371  0.62646999  1
  Pr3+  Pr64  1  0.16448977  0.48884170  0.87479058  1
  Pr3+  Pr65  1  0.66248883  0.34421453  0.62882665  1
  Pr3+  Pr66  1  0.83063639  0.81914261  0.37647911  1
  Pr3+  Pr67  1  0.66253365  0.34637090  0.12086880  1
  Pr3+  Pr68  1  0.66277101  0.01222215  0.12672697  1
  Pr3+  Pr69  1  0.66470142  0.98907507  0.87229277  1
  Pr3+  Pr70  1  0.83758782  0.50948143  0.12162684  1
  Pr3+  Pr71  1  -0.00200833  0.01312588  0.12478102  1
  Mn3.30+  Mn72  1  0.16820449  0.00119345  -0.00160377  1
  Mn3.30+  Mn73  1  0.16815484  0.00049971  0.50144191  1
  Mn3.30+  Mn74  1  0.16705740  0.33581665  -0.00191408  1
  Mn3.30+  Mn75  1  0.16587107  0.33356846  0.50233961  1
  Mn3.30+  Mn76  1  0.16942150  0.66548440  -0.00100968  1
  Mn3.30+  Mn77  1  0.16519059  0.66722054  0.50215171  1
  Mn3.30+  Mn78  1  0.49930421  0.00012424  -0.00069010  1
  Mn3.30+  Mn79  1  0.49920463  0.00082480  0.50084635  1
  Mn3.30+  Mn80  1  0.49662503  0.33438829  -0.00320700  1
  Mn3.30+  Mn81  1  0.50070330  0.33197425  0.50123434  1
  Mn3.30+  Mn82  1  0.49922543  0.66716327  -0.00115766  1
  Mn3.30+  Mn83  1  0.50023940  0.66617399  0.50086552  1
  Mn3.30+  Mn84  1  0.83274142  -0.00053368  -0.00089504  1
  Mn3.30+  Mn85  1  0.83270936  0.00021258  0.49955236  1
  Mn3.30+  Mn86  1  0.83052532  0.33428059  -0.00222457  1
  Mn3.30+  Mn87  1  0.83296046  0.33488097  0.50188276  1
  Mn3.30+  Mn88  1  0.83492432  0.66358330  -0.00420051  1
  Mn3.30+  Mn89  1  0.83652281  0.66483692  0.50331511  1
  Mn3.30+  Mn90  1  -0.00157059  0.16793434  0.25141974  1
  Mn3.30+  Mn91  1  0.00098771  0.16818036  0.74917241  1
  Mn3.30+  Mn92  1  0.00311434  0.49972173  0.24668047  1
  Mn3.30+  Mn93  1  -0.00262332  0.50289285  0.75205832  1
  Mn3.30+  Mn94  1  0.00234070  0.83180712  0.24966109  1
  Mn3.30+  Mn95  1  0.00156728  0.83101819  0.75023528  1
  Mn3.30+  Mn96  1  0.33149252  0.16832756  0.25185605  1
  Mn3.30+  Mn97  1  0.33349473  0.16568884  0.74685618  1
  Mn3.30+  Mn98  1  0.33247925  0.50134867  0.24807300  1
  Mn3.30+  Mn99  1  0.33453499  0.49894313  0.75189803  1
  Mn3.30+  Mn100  1  0.33224834  0.83207097  0.25252438  1
  Mn3.30+  Mn101  1  0.33461566  0.83565174  0.74940104  1
  Mn3.30+  Mn102  1  0.66500180  0.16511693  0.25114110  1
  Mn3.30+  Mn103  1  0.66357895  0.16610841  0.74919504  1
  Mn3.30+  Mn104  1  0.66727806  0.49969317  0.24904122  1
  Mn3.30+  Mn105  1  0.66920893  0.49787406  0.75239122  1
  Mn3.30+  Mn106  1  0.66795320  0.83324291  0.24962209  1
  Mn3.30+  Mn107  1  0.66523084  0.83291217  0.75157330  1
  Mn3.30+  Mn108  1  0.16617831  -0.00018411  0.25144992  1
  Mn3.30+  Mn109  1  0.16959240  0.00253623  0.74801655  1
  Mn3.30+  Mn110  1  0.16566582  0.33638724  0.24875349  1
  Mn3.30+  Mn111  1  0.16734696  0.33300145  0.75138936  1
  Mn3.30+  Mn112  1  0.16866596  0.66668630  0.24904362  1
  Mn3.30+  Mn113  1  0.16535789  0.66598007  0.74995790  1
  Mn3.30+  Mn114  1  0.50005567  -0.00060882  0.25276416  1
  Mn3.30+  Mn115  1  0.49875320  0.00170820  0.74708527  1
  Mn3.30+  Mn116  1  0.49908449  0.33393831  0.24958562  1
  Mn3.30+  Mn117  1  0.49873934  0.33268945  0.75185593  1
  Mn3.30+  Mn118  1  0.49922859  0.66669725  0.24909401  1
  Mn3.30+  Mn119  1  0.50002564  0.66686643  0.75196771  1
  Mn3.30+  Mn120  1  0.83231137  -0.00099326  0.25134132  1
  Mn3.30+  Mn121  1  0.83361080  0.00044539  0.74965929  1
  Mn3.30+  Mn122  1  0.83399725  0.33359511  0.24971100  1
  Mn3.30+  Mn123  1  0.83008290  0.33534519  0.75082798  1
  Mn3.30+  Mn124  1  0.83480499  0.66529955  0.24855871  1
  Mn3.30+  Mn125  1  0.83690785  0.66334336  0.75175727  1
  Mn3.30+  Mn126  1  -0.00068935  0.16749677  -0.00152521  1
  Mn3.30+  Mn127  1  0.00000619  0.16867082  0.50130352  1
  Mn3.30+  Mn128  1  0.00022638  0.50120132  -0.00272349  1
  Mn3.30+  Mn129  1  -0.00012056  0.50168365  0.50358824  1
  Mn3.30+  Mn130  1  0.00172201  0.83124096  -0.00119281  1
  Mn3.30+  Mn131  1  0.00252114  0.83162538  0.50109409  1
  Mn3.30+  Mn132  1  0.33356288  0.16752978  -0.00251059  1
  Mn3.30+  Mn133  1  0.33153333  0.16618477  0.50291702  1
  Mn3.30+  Mn134  1  0.33389488  0.50074916  -0.00070090  1
  Mn3.30+  Mn135  1  0.33310284  0.49923804  0.50086611  1
  Mn3.30+  Mn136  1  0.33463203  0.83324798  -0.00043287  1
  Mn3.30+  Mn137  1  0.33164085  0.83418575  0.49912566  1
  Mn3.30+  Mn138  1  0.66453154  0.16653113  -0.00100336  1
  Mn3.30+  Mn139  1  0.66331402  0.16495684  0.50045944  1
  Mn3.30+  Mn140  1  0.66672376  0.49785861  -0.00544105  1
  Mn3.30+  Mn141  1  0.66961725  0.49946118  0.50445206  1
  Mn3.30+  Mn142  1  0.66612552  0.83291219  -0.00218115  1
  Mn3.30+  Mn143  1  0.66714361  0.83364394  0.50067379  1
  O2-  O144  1  0.02254795  0.16000457  0.12560692  1
  O2-  O145  1  0.02565903  0.16237322  0.62628200  1
  O2-  O146  1  0.02472557  0.50229756  0.12154006  1
  O2-  O147  1  0.01835812  0.49310697  0.62917943  1
  O2-  O148  1  0.02775883  0.82582555  0.12449839  1
  O2-  O149  1  0.02585641  0.82623423  0.62824081  1
  O2-  O150  1  0.35635428  0.16246843  0.12776676  1
  O2-  O151  1  0.36109896  0.16392697  0.62210444  1
  O2-  O152  1  0.36147351  0.49278864  0.12345640  1
  O2-  O153  1  0.35921178  0.49413738  0.62710542  1
  O2-  O154  1  0.35727868  0.82799312  0.12844841  1
  O2-  O155  1  0.35892427  0.82412873  0.62386154  1
  O2-  O156  1  0.69176143  0.15944355  0.12715942  1
  O2-  O157  1  0.69036471  0.16610002  0.62343096  1
  O2-  O158  1  0.69289647  0.49432058  0.11932836  1
  O2-  O159  1  0.69748457  0.49225951  0.62814718  1
  O2-  O160  1  0.69449723  0.82684192  0.12281482  1
  O2-  O161  1  0.69267486  0.82723556  0.62590941  1
  O2-  O162  1  0.14934397  0.32698622  0.12201588  1
  O2-  O163  1  0.14336111  0.32802437  0.62828463  1
  O2-  O164  1  0.14559472  0.66479474  0.12232592  1
  O2-  O165  1  0.14269767  0.66736744  0.62748345  1
  O2-  O166  1  0.14199553  0.99316857  0.12707098  1
  O2-  O167  1  0.13936996  0.99083230  0.62430399  1
  O2-  O168  1  0.47298255  0.32932361  0.12413848  1
  O2-  O169  1  0.47653194  0.33064017  0.62404931  1
  O2-  O170  1  0.47345589  0.66157220  0.12488953  1
  O2-  O171  1  0.47391662  0.65927275  0.62785699  1
  O2-  O172  1  0.47475972  0.99246974  0.12825374  1
  O2-  O173  1  0.47246357  0.99066821  0.62230608  1
  O2-  O174  1  0.80695786  0.33096476  0.12328681  1
  O2-  O175  1  0.80568845  0.32688902  0.62574963  1
  O2-  O176  1  0.80744747  0.65832066  0.12033892  1
  O2-  O177  1  0.80869334  0.66125364  0.62779820  1
  O2-  O178  1  0.80699302  0.99301733  0.12499947  1
  O2-  O179  1  0.81393943  0.99427967  0.62411419  1
  O2-  O180  1  0.30542764  0.17498270  0.37604622  1
  O2-  O181  1  0.31746045  0.16486935  0.87336144  1
  O2-  O182  1  0.31508775  0.50397110  0.37344453  1
  O2-  O183  1  0.30777759  0.50855295  0.87592069  1
  O2-  O184  1  0.30285007  0.84014243  0.37604327  1
  O2-  O185  1  0.30810042  0.84255402  0.87255967  1
  O2-  O186  1  0.63851901  0.17622555  0.37450874  1
  O2-  O187  1  0.64805422  0.16782435  0.87478804  1
  O2-  O188  1  0.64166757  0.50568451  0.37828726  1
  O2-  O189  1  0.63591087  0.50761344  0.87409863  1
  O2-  O190  1  0.64520181  0.83463772  0.37522860  1
  O2-  O191  1  0.63906622  0.83945137  0.87549384  1
  O2-  O192  1  0.97441739  0.17012531  0.37527194  1
  O2-  O193  1  0.97278658  0.16995945  0.87324025  1
  O2-  O194  1  0.97730043  0.50601413  0.37587172  1
  O2-  O195  1  0.97248697  0.50676089  0.87412122  1
  O2-  O196  1  0.97392744  0.83683896  0.37314068  1
  O2-  O197  1  0.97559601  0.84369145  0.87435366  1
  O2-  O198  1  0.19060559  0.01150276  0.37580789  1
  O2-  O199  1  0.19398259  0.00362720  0.87234907  1
  O2-  O200  1  0.18766655  0.33218879  0.37537148  1
  O2-  O201  1  0.19312855  0.33997662  0.87524163  1
  O2-  O202  1  0.18900625  0.67143524  0.37564878  1
  O2-  O203  1  0.19577267  0.67215547  0.87492764  1
  O2-  O204  1  0.52666217  0.00529479  0.37492794  1
  O2-  O205  1  0.52143540  0.00657503  0.87491499  1
  O2-  O206  1  0.52751371  0.34034988  0.37538263  1
  O2-  O207  1  0.52451940  0.33664896  0.87601925  1
  O2-  O208  1  0.52803231  0.67157800  0.37406624  1
  O2-  O209  1  0.52509910  0.67732664  0.87418238  1
  O2-  O210  1  0.86132705  0.00507198  0.37593237  1
  O2-  O211  1  0.86046398  0.00740000  0.87447190  1
  O2-  O212  1  0.85137444  0.33848242  0.37688575  1
  O2-  O213  1  0.85577649  0.33135314  0.87404131  1
  O2-  O214  1  0.85942577  0.67123036  0.37692114  1
  O2-  O215  1  0.86355541  0.67512287  0.87451359  1
  O2-  O216  1  0.23973166  0.09385336  0.02282390  1
  O2-  O217  1  0.23468850  0.09770957  0.51922714  1
  O2-  O218  1  0.23771865  0.43311782  0.02118163  1
  O2-  O219  1  0.24499889  0.42094613  0.51823204  1
  O2-  O220  1  0.23657905  0.76509700  0.01585518  1
  O2-  O221  1  0.23929589  0.76087366  0.52166898  1
  O2-  O222  1  0.57222991  0.09244451  0.02426804  1
  O2-  O223  1  0.56631311  0.09960888  0.51766538  1
  O2-  O224  1  0.57045739  0.42709911  0.02167991  1
  O2-  O225  1  0.57404559  0.42851395  0.52286293  1
  O2-  O226  1  0.57439448  0.75998070  0.02383798  1
  O2-  O227  1  0.57150700  0.75870399  0.52150574  1
  O2-  O228  1  0.90397806  0.09305727  0.02138476  1
  O2-  O229  1  0.90455934  0.09577900  0.51974550  1
  O2-  O230  1  0.90189203  0.42696930  0.01440561  1
  O2-  O231  1  0.90290775  0.43070174  0.51953867  1
  O2-  O232  1  0.90557937  0.76015031  0.02091411  1
  O2-  O233  1  0.90221537  0.76285637  0.51873815  1
  O2-  O234  1  0.26210714  0.26260902  0.23060798  1
  O2-  O235  1  0.26086033  0.25801725  0.73204674  1
  O2-  O236  1  0.26715334  0.59767791  0.23233371  1
  O2-  O237  1  0.26516289  0.59663687  0.73353634  1
  O2-  O238  1  0.26335238  0.92826784  0.23031926  1
  O2-  O239  1  0.26287686  0.92929980  0.72597966  1
  O2-  O240  1  0.59367401  0.26170104  0.22748740  1
  O2-  O241  1  0.59308362  0.26101410  0.73261970  1
  O2-  O242  1  0.59744447  0.59370223  0.22848253  1
  O2-  O243  1  0.59816592  0.59349848  0.72887252  1
  O2-  O244  1  0.59621423  0.92315912  0.22826205  1
  O2-  O245  1  0.59124785  0.92815298  0.73203838  1
  O2-  O246  1  0.92299601  0.25696100  0.22916342  1
  O2-  O247  1  0.92457434  0.26201865  0.72946280  1
  O2-  O248  1  0.92843036  0.59453425  0.22923538  1
  O2-  O249  1  0.93056411  0.59777728  0.72827283  1
  O2-  O250  1  0.93189525  0.92532772  0.22811564  1
  O2-  O251  1  0.92915082  0.92780221  0.72984987  1
  O2-  O252  1  0.09478413  0.23529314  0.26388460  1
  O2-  O253  1  0.08690709  0.24512675  0.77185226  1
  O2-  O254  1  0.09237768  0.57643047  0.26634695  1
  O2-  O255  1  0.09591150  0.57288666  0.77181587  1
  O2-  O256  1  0.09609249  0.90385975  0.27248920  1
  O2-  O257  1  0.09663279  0.90616724  0.77019132  1
  O2-  O258  1  0.42730608  0.23912133  0.27172356  1
  O2-  O259  1  0.42444179  0.24200658  0.76272514  1
  O2-  O260  1  0.43061645  0.57156057  0.27047581  1
  O2-  O261  1  0.43123296  0.57060109  0.77216974  1
  O2-  O262  1  0.42638083  0.90411675  0.27365583  1
  O2-  O263  1  0.42940668  0.90387289  0.77032224  1
  O2-  O264  1  0.75819542  0.23664451  0.26952958  1
  O2-  O265  1  0.76145946  0.23622040  0.76521424  1
  O2-  O266  1  0.76244799  0.57135955  0.27050800  1
  O2-  O267  1  0.76243902  0.57070217  0.77558355  1
  O2-  O268  1  0.76577959  0.90336176  0.26881390  1
  O2-  O269  1  0.76017461  0.90489620  0.77161597  1
  O2-  O270  1  0.07088796  0.06967658  0.48095033  1
  O2-  O271  1  0.07052468  0.07034476  0.98407202  1
  O2-  O272  1  0.07183516  0.40699838  0.49098692  1
  O2-  O273  1  0.07200620  0.40896137  0.97468983  1
  O2-  O274  1  0.07154595  0.73947719  0.48013791  1
  O2-  O275  1  0.07214516  0.73793076  0.97784987  1
  O2-  O276  1  0.40330433  0.07338031  0.47560061  1
  O2-  O277  1  0.40292780  0.06804833  0.98822067  1
  O2-  O278  1  0.41067986  0.40582808  0.47925831  1
  O2-  O279  1  0.39998430  0.40197650  0.97967395  1
  O2-  O280  1  0.40340648  0.74138157  0.47731081  1
  O2-  O281  1  0.40493970  0.74025300  0.98070327  1
  O2-  O282  1  0.73663459  0.07392707  0.47611095  1
  O2-  O283  1  0.73771975  0.06975924  0.98016012  1
  O2-  O284  1  0.73751645  0.40518656  0.47980575  1
  O2-  O285  1  0.73286939  0.40043831  0.97857965  1
  O2-  O286  1  0.73987611  0.73650576  0.48142947  1
  O2-  O287  1  0.74078409  0.73630416  0.97680099  1
  O2-  O288  1  0.09388497  0.23855250  0.48406870  1
  O2-  O289  1  0.08938348  0.24294625  0.98254892  1
  O2-  O290  1  0.09195031  0.57650624  0.48246425  1
  O2-  O291  1  0.09816359  0.57453361  0.97956553  1
  O2-  O292  1  0.09889025  0.90455334  0.47831981  1
  O2-  O293  1  0.09625012  0.90638416  0.97970818  1
  O2-  O294  1  0.42523001  0.24147076  0.47594683  1
  O2-  O295  1  0.42666878  0.23784505  0.98717225  1
  O2-  O296  1  0.42996930  0.57346630  0.48077171  1
  O2-  O297  1  0.43166428  0.56876111  0.97789257  1
  O2-  O298  1  0.42666393  0.90500903  0.47668321  1
  O2-  O299  1  0.43009016  0.90425607  0.98127086  1
  O2-  O300  1  0.75990215  0.23751427  0.48001539  1
  O2-  O301  1  0.76056453  0.23604636  0.98526678  1
  O2-  O302  1  0.76235836  0.57285468  0.47843551  1
  O2-  O303  1  0.76231499  0.56912603  0.97468221  1
  O2-  O304  1  0.76477031  0.90430164  0.48134386  1
  O2-  O305  1  0.76125667  0.90498987  0.97730399  1
  O2-  O306  1  0.06842675  0.07149078  0.26965122  1
  O2-  O307  1  0.07036592  0.06946628  0.76633499  1
  O2-  O308  1  0.07309028  0.40767774  0.26408657  1
  O2-  O309  1  0.07030253  0.40860439  0.77125819  1
  O2-  O310  1  0.06960584  0.73791265  0.26700782  1
  O2-  O311  1  0.07357658  0.74026078  0.77616343  1
  O2-  O312  1  0.40098558  0.07402765  0.27243098  1
  O2-  O313  1  0.40233632  0.06885409  0.76363587  1
  O2-  O314  1  0.40588149  0.40568629  0.27068721  1
  O2-  O315  1  0.40449421  0.40424177  0.76945460  1
  O2-  O316  1  0.40604207  0.74179346  0.27614311  1
  O2-  O317  1  0.40325024  0.73829864  0.76757690  1
  O2-  O318  1  0.73394055  0.07132932  0.27363821  1
  O2-  O319  1  0.74022133  0.07261401  0.77045296  1
  O2-  O320  1  0.73706593  0.40596344  0.26820962  1
  O2-  O321  1  0.73374878  0.40076256  0.77308000  1
  O2-  O322  1  0.73947014  0.73723926  0.26906953  1
  O2-  O323  1  0.74018645  0.73632103  0.77149822  1
  O2-  O324  1  0.23697427  0.09642575  0.22950798  1
  O2-  O325  1  0.23707270  0.09552738  0.72547557  1
  O2-  O326  1  0.24252807  0.43003418  0.22706059  1
  O2-  O327  1  0.24167862  0.42606318  0.73263716  1
  O2-  O328  1  0.23892221  0.76238835  0.23157848  1
  O2-  O329  1  0.23851234  0.76298539  0.73127509  1
  O2-  O330  1  0.57035706  0.09624091  0.22885299  1
  O2-  O331  1  0.57032200  0.09504792  0.72932309  1
  O2-  O332  1  0.57179179  0.42889120  0.22839357  1
  O2-  O333  1  0.57306288  0.42711527  0.72816078  1
  O2-  O334  1  0.57192954  0.75968773  0.22841394  1
  O2-  O335  1  0.57375418  0.75869899  0.72655427  1
  O2-  O336  1  0.90263998  0.09297454  0.22947384  1
  O2-  O337  1  0.90656364  0.09623421  0.72871320  1
  O2-  O338  1  0.90455722  0.43175686  0.23350993  1
  O2-  O339  1  0.90337799  0.42666468  0.73181960  1
  O2-  O340  1  0.90559272  0.76021001  0.22785822  1
  O2-  O341  1  0.90263912  0.76414452  0.73272554  1
  O2-  O342  1  0.25944006  0.25871588  0.01772463  1
  O2-  O343  1  0.26264412  0.26123801  0.51931584  1
  O2-  O344  1  0.26799180  0.59919280  0.01825500  1
  O2-  O345  1  0.26209617  0.59785886  0.51634844  1
  O2-  O346  1  0.26302225  0.92828228  0.02138241  1
  O2-  O347  1  0.26406147  0.93136935  0.52188342  1
  O2-  O348  1  0.59108784  0.25943398  0.02219212  1
  O2-  O349  1  0.59588623  0.26407873  0.51782443  1
  O2-  O350  1  0.59692022  0.59518149  0.01971317  1
  O2-  O351  1  0.59915541  0.59149263  0.52374266  1
  O2-  O352  1  0.59388886  0.92955111  0.02091436  1
  O2-  O353  1  0.59020108  0.92278667  0.51710287  1
  O2-  O354  1  0.92207042  0.25885817  0.01656729  1
  O2-  O355  1  0.92401000  0.26244029  0.52453037  1
  O2-  O356  1  0.92685154  0.59325311  0.02227402  1
  O2-  O357  1  0.93062872  0.59853452  0.51945602  1
  O2-  O358  1  0.92786105  0.92679185  0.02147342  1
  O2-  O359  1  0.93279081  0.92660957  0.51958109  1
