# generated using pymatgen
data_Sr7Ca15Pr50Mn72O216
_symmetry_space_group_name_H-M   'P 1'
_cell_length_a   16.56038907
_cell_length_b   16.60575103
_cell_length_c   15.59134664
_cell_angle_alpha   89.99859463
_cell_angle_beta   89.99285443
_cell_angle_gamma   90.01072978
_symmetry_Int_Tables_number   1
_chemical_formula_structural   Sr7Ca15Pr50Mn72O216
_chemical_formula_sum   'Sr7 Ca15 Pr50 Mn72 O216'
_cell_volume   4287.58432429
_cell_formula_units_Z   1
loop_
 _symmetry_equiv_pos_site_id
 _symmetry_equiv_pos_as_xyz
  1  'x, y, z'
loop_
 _atom_type_symbol
 _atom_type_oxidation_number
  Sr2+  2.0
  Ca2+  2.0
  Pr3+  3.0
  Mn3.30+  3.3
  O2-  -2.0
loop_
 _atom_site_type_symbol
 _atom_site_label
 _atom_site_symmetry_multiplicity
 _atom_site_fract_x
 _atom_site_fract_y
 _atom_site_fract_z
 _atom_site_occupancy
  Sr2+  Sr0  1  0.66467713  0.34301537  0.12123518  1
  Sr2+  Sr1  1  0.50285899  0.84494367  0.12373479  1
  Sr2+  Sr2  1  -0.00123192  0.34183185  0.62642918  1
  Sr2+  Sr3  1  -0.00121343  0.67461606  0.62551526  1
  Sr2+  Sr4  1  1.00321999  0.31995875  0.87358767  1
  Sr2+  Sr5  1  0.49930002  0.17523557  0.62764125  1
  Sr2+  Sr6  1  0.33508486  0.99053001  0.87433433  1
  Ca2+  Ca7  1  0.17072609  0.84673710  0.62427189  1
  Ca2+  Ca8  1  0.00306280  0.01166555  0.62468334  1
  Ca2+  Ca9  1  0.83722762  0.51421582  0.62730498  1
  Ca2+  Ca10  1  0.16737492  0.17902144  0.62921628  1
  Ca2+  Ca11  1  0.66449311  0.67958293  0.62776749  1
  Ca2+  Ca12  1  0.66791446  0.65473235  0.87271590  1
  Ca2+  Ca13  1  0.16569579  0.81843724  0.37749806  1
  Ca2+  Ca14  1  0.33619366  0.98395782  0.37702856  1
  Ca2+  Ca15  1  0.16126329  0.15293281  0.86924777  1
  Ca2+  Ca16  1  0.49667009  0.82044522  0.87423637  1
  Ca2+  Ca17  1  -0.00561134  0.34802435  0.12283518  1
  Ca2+  Ca18  1  0.32576288  0.68596317  0.62531450  1
  Ca2+  Ca19  1  0.66209732  0.01239705  0.12511905  1
  Ca2+  Ca20  1  0.67125259  0.31755714  0.87517333  1
  Ca2+  Ca21  1  0.16782969  0.51406607  0.12323483  1
  Pr3+  Pr22  1  0.50507219  0.51286915  0.12424312  1
  Pr3+  Pr23  1  0.66856144  0.98794609  0.87454269  1
  Pr3+  Pr24  1  0.66297897  0.34557907  0.62880164  1
  Pr3+  Pr25  1  0.49363578  0.15066081  0.37553003  1
  Pr3+  Pr26  1  0.83675139  0.18189364  0.12435207  1
  Pr3+  Pr27  1  0.83982701  0.84512872  0.62493505  1
  Pr3+  Pr28  1  0.50195411  0.51470073  0.62594253  1
  Pr3+  Pr29  1  0.33253916  0.01136607  0.12507162  1
  Pr3+  Pr30  1  -0.00138711  0.01246983  0.12592640  1
  Pr3+  Pr31  1  1.00587644  0.99225381  0.87243022  1
  Pr3+  Pr32  1  0.83230951  0.48815836  0.37816413  1
  Pr3+  Pr33  1  0.49687006  0.48648566  0.37522778  1
  Pr3+  Pr34  1  0.17183033  0.84609206  0.12583014  1
  Pr3+  Pr35  1  0.16461349  0.15321064  0.37788842  1
  Pr3+  Pr36  1  0.49945267  0.84406988  0.62729474  1
  Pr3+  Pr37  1  0.83162289  0.15410423  0.37602154  1
  Pr3+  Pr38  1  0.66391053  0.01218589  0.62559724  1
  Pr3+  Pr39  1  0.16548884  0.82252398  0.87321471  1
  Pr3+  Pr40  1  0.66907781  0.98643328  0.37590966  1
  Pr3+  Pr41  1  0.83411734  0.84645375  0.12472875  1
  Pr3+  Pr42  1  0.83148499  0.81926431  0.37626971  1
  Pr3+  Pr43  1  0.16934304  0.51381430  0.62693048  1
  Pr3+  Pr44  1  0.66267927  0.67865574  0.12287762  1
  Pr3+  Pr45  1  0.33806324  0.65824297  0.87263453  1
  Pr3+  Pr46  1  0.66829111  0.65476913  0.37675671  1
  Pr3+  Pr47  1  1.00517361  0.98357416  0.37705303  1
  Pr3+  Pr48  1  0.50330772  0.17520945  0.12319520  1
  Pr3+  Pr49  1  0.82945944  0.81837723  0.87368701  1
  Pr3+  Pr50  1  0.33218840  0.32053888  0.87560499  1
  Pr3+  Pr51  1  0.82975402  0.48525382  0.87168827  1
  Pr3+  Pr52  1  0.32830012  0.34279781  0.62598306  1
  Pr3+  Pr53  1  0.32930180  0.34907961  0.12387371  1
  Pr3+  Pr54  1  1.00345100  0.65443030  0.37689768  1
  Pr3+  Pr55  1  0.33473148  0.65550361  0.37701965  1
  Pr3+  Pr56  1  0.16827244  0.17982312  0.12299654  1
  Pr3+  Pr57  1  0.16269764  0.48916947  0.37494718  1
  Pr3+  Pr58  1  0.16193257  0.48767013  0.87491711  1
  Pr3+  Pr59  1  -0.00162939  0.67892610  0.12418718  1
  Pr3+  Pr60  1  0.49947187  0.15565426  0.87530373  1
  Pr3+  Pr61  1  0.83301429  0.15612383  0.87353251  1
  Pr3+  Pr62  1  0.83784792  0.17696526  0.62519474  1
  Pr3+  Pr63  1  1.00250911  0.65306376  0.87268013  1
  Pr3+  Pr64  1  0.33525683  0.32094347  0.37442189  1
  Pr3+  Pr65  1  1.00240609  0.32052661  0.37527122  1
  Pr3+  Pr66  1  0.66850322  0.32017142  0.37431188  1
  Pr3+  Pr67  1  0.49643081  0.82146066  0.37627791  1
  Pr3+  Pr68  1  0.33203109  0.68062905  0.12409323  1
  Pr3+  Pr69  1  0.83532222  0.51050528  0.12331339  1
  Pr3+  Pr70  1  0.50002888  0.48767575  0.87557986  1
  Pr3+  Pr71  1  0.32698580  0.01471130  0.62520291  1
  Mn3.30+  Mn72  1  0.16731810  0.00138555  -0.00122443  1
  Mn3.30+  Mn73  1  0.16770997  -0.00209005  0.50013208  1
  Mn3.30+  Mn74  1  0.16314397  0.33382187  0.00174017  1
  Mn3.30+  Mn75  1  0.16612581  0.33319716  0.50082719  1
  Mn3.30+  Mn76  1  0.16715312  0.66650416  -0.00028766  1
  Mn3.30+  Mn77  1  0.16821955  0.66957458  0.50163977  1
  Mn3.30+  Mn78  1  0.50154167  -0.00198767  -0.00037344  1
  Mn3.30+  Mn79  1  0.49782717  -0.00105399  0.50099577  1
  Mn3.30+  Mn80  1  0.50103522  0.33290554  -0.00179844  1
  Mn3.30+  Mn81  1  0.49930172  0.33220187  0.50229430  1
  Mn3.30+  Mn82  1  0.50205843  0.66827173  -0.00388373  1
  Mn3.30+  Mn83  1  0.49901058  0.66738907  0.50414738  1
  Mn3.30+  Mn84  1  0.83283955  0.00034655  0.00076554  1
  Mn3.30+  Mn85  1  0.83608101  -0.00103026  0.50060117  1
  Mn3.30+  Mn86  1  0.83356565  0.33342814  -0.00130452  1
  Mn3.30+  Mn87  1  0.83299867  0.33414339  0.50178022  1
  Mn3.30+  Mn88  1  0.83145095  0.66575380  -0.00176811  1
  Mn3.30+  Mn89  1  0.83310202  0.66554019  0.50324330  1
  Mn3.30+  Mn90  1  0.00069585  0.16724097  0.25026999  1
  Mn3.30+  Mn91  1  0.00211615  0.16544131  0.74736097  1
  Mn3.30+  Mn92  1  0.00113119  0.49928966  0.24761597  1
  Mn3.30+  Mn93  1  -0.00239445  0.49874765  0.74824733  1
  Mn3.30+  Mn94  1  0.00239292  0.83243544  0.25088679  1
  Mn3.30+  Mn95  1  0.00147731  0.83400004  0.74756149  1
  Mn3.30+  Mn96  1  0.33253998  0.16538589  0.24984695  1
  Mn3.30+  Mn97  1  0.33029092  0.16667735  0.75156968  1
  Mn3.30+  Mn98  1  0.33143189  0.50129791  0.24849362  1
  Mn3.30+  Mn99  1  0.33392534  0.50172137  0.75033697  1
  Mn3.30+  Mn100  1  0.33297520  0.83477454  0.25202618  1
  Mn3.30+  Mn101  1  0.33348735  0.83416076  0.74969294  1
  Mn3.30+  Mn102  1  0.66574841  0.16497663  0.24963586  1
  Mn3.30+  Mn103  1  0.66669904  0.16701125  0.75075904  1
  Mn3.30+  Mn104  1  0.66707573  0.49913862  0.25007277  1
  Mn3.30+  Mn105  1  0.66749974  0.50205144  0.74919629  1
  Mn3.30+  Mn106  1  0.66568453  0.83413179  0.24956595  1
  Mn3.30+  Mn107  1  0.66621420  0.83039229  0.74991045  1
  Mn3.30+  Mn108  1  0.16877421  -0.00117782  0.25338351  1
  Mn3.30+  Mn109  1  0.16656124  0.00010207  0.74757049  1
  Mn3.30+  Mn110  1  0.16470437  0.33525794  0.24708243  1
  Mn3.30+  Mn111  1  0.16482681  0.33198953  0.75002012  1
  Mn3.30+  Mn112  1  0.16695000  0.66672949  0.24970958  1
  Mn3.30+  Mn113  1  0.16879767  0.66934020  0.74820953  1
  Mn3.30+  Mn114  1  0.50003114  -0.00169274  0.25022269  1
  Mn3.30+  Mn115  1  0.49888494  -0.00128103  0.75089141  1
  Mn3.30+  Mn116  1  0.50013219  0.33219003  0.24857107  1
  Mn3.30+  Mn117  1  0.49998747  0.33318624  0.75198667  1
  Mn3.30+  Mn118  1  0.50011212  0.66701243  0.25128910  1
  Mn3.30+  Mn119  1  0.50108606  0.66834273  0.74843605  1
  Mn3.30+  Mn120  1  0.83217928  -0.00004214  0.24924719  1
  Mn3.30+  Mn121  1  0.83648551  -0.00104557  0.74928579  1
  Mn3.30+  Mn122  1  0.83453649  0.33466529  0.24908731  1
  Mn3.30+  Mn123  1  0.83171652  0.33276040  0.75001149  1
  Mn3.30+  Mn124  1  0.83312113  0.66616154  0.24946713  1
  Mn3.30+  Mn125  1  0.83118312  0.66522327  0.74859267  1
  Mn3.30+  Mn126  1  0.00202379  0.16808735  -0.00036030  1
  Mn3.30+  Mn127  1  0.00105870  0.16485171  0.50178674  1
  Mn3.30+  Mn128  1  0.00089515  0.49848740  0.00117557  1
  Mn3.30+  Mn129  1  -0.00193873  0.49943197  0.50243036  1
  Mn3.30+  Mn130  1  -0.00018061  0.83452751  -0.00094377  1
  Mn3.30+  Mn131  1  0.00471508  0.83244516  0.50260364  1
  Mn3.30+  Mn132  1  0.33192010  0.16617470  -0.00175400  1
  Mn3.30+  Mn133  1  0.33050008  0.16636093  0.50095272  1
  Mn3.30+  Mn134  1  0.33197562  0.50182341  -0.00043375  1
  Mn3.30+  Mn135  1  0.33298592  0.50142815  0.50127296  1
  Mn3.30+  Mn136  1  0.33620951  0.83500393  -0.00114093  1
  Mn3.30+  Mn137  1  0.33045196  0.83418709  0.49969309  1
  Mn3.30+  Mn138  1  0.66798238  0.16507238  0.00031346  1
  Mn3.30+  Mn139  1  0.66495707  0.16667609  0.50032083  1
  Mn3.30+  Mn140  1  0.66744841  0.49958473  -0.00310547  1
  Mn3.30+  Mn141  1  0.66705014  0.50128904  0.50360423  1
  Mn3.30+  Mn142  1  0.66466608  0.83308680  -0.00283773  1
  Mn3.30+  Mn143  1  0.66678480  0.83134057  0.50341229  1
  O2-  O144  1  0.02537101  0.15877226  0.12772167  1
  O2-  O145  1  0.02493547  0.16014577  0.62181865  1
  O2-  O146  1  0.02585319  0.49447338  0.12564419  1
  O2-  O147  1  0.02433589  0.49826653  0.62520491  1
  O2-  O148  1  0.02671724  0.82804243  0.12477660  1
  O2-  O149  1  0.02784417  0.82684839  0.62463908  1
  O2-  O150  1  0.35829647  0.16151124  0.12476217  1
  O2-  O151  1  0.35080435  0.16633433  0.62569581  1
  O2-  O152  1  0.36116655  0.49679894  0.12474901  1
  O2-  O153  1  0.35871108  0.48918416  0.62754870  1
  O2-  O154  1  0.35278338  0.82958503  0.12614741  1
  O2-  O155  1  0.35621232  0.83087399  0.62466569  1
  O2-  O156  1  0.69248664  0.15704695  0.12447744  1
  O2-  O157  1  0.69214556  0.16100631  0.62389747  1
  O2-  O158  1  0.69054657  0.49892623  0.12283402  1
  O2-  O159  1  0.69516884  0.49007017  0.62527608  1
  O2-  O160  1  0.69170075  0.82473223  0.12232847  1
  O2-  O161  1  0.69571374  0.82635481  0.62525208  1
  O2-  O162  1  0.13566605  0.32449553  0.12519323  1
  O2-  O163  1  0.15004233  0.32798378  0.62426106  1
  O2-  O164  1  0.14188914  0.66192652  0.12298537  1
  O2-  O165  1  0.14738335  0.65968818  0.62504201  1
  O2-  O166  1  0.14231973  0.99321380  0.12753421  1
  O2-  O167  1  0.14333490  0.98927962  0.62225353  1
  O2-  O168  1  0.47394822  0.32695175  0.12233975  1
  O2-  O169  1  0.47305069  0.33163744  0.62715447  1
  O2-  O170  1  0.47661750  0.65995619  0.12428042  1
  O2-  O171  1  0.46856261  0.66123304  0.62448323  1
  O2-  O172  1  0.47641194  1.00119178  0.12548580  1
  O2-  O173  1  0.47373115  0.99409493  0.62621530  1
  O2-  O174  1  0.81346552  0.33149932  0.12398276  1
  O2-  O175  1  0.80562114  0.32264708  0.62473076  1
  O2-  O176  1  0.80723628  0.65997701  0.12370773  1
  O2-  O177  1  0.80689952  0.66144873  0.62576211  1
  O2-  O178  1  0.80493176  0.99343047  0.12689958  1
  O2-  O179  1  0.80745425  0.99367095  0.62504078  1
  O2-  O180  1  0.30737933  0.17459810  0.37393461  1
  O2-  O181  1  0.30378071  0.17189754  0.87669697  1
  O2-  O182  1  0.30744744  0.50597156  0.37330385  1
  O2-  O183  1  0.30634505  0.50862251  0.87407309  1
  O2-  O184  1  0.30798380  0.83803305  0.37490092  1
  O2-  O185  1  0.30951086  0.83160362  0.87431063  1
  O2-  O186  1  0.63865535  0.17257938  0.37699602  1
  O2-  O187  1  0.64447740  0.16915640  0.87559053  1
  O2-  O188  1  0.64007024  0.50652204  0.37870952  1
  O2-  O189  1  0.64126914  0.51136201  0.87280788  1
  O2-  O190  1  0.64165005  0.83830395  0.37889136  1
  O2-  O191  1  0.63953744  0.84261716  0.87342297  1
  O2-  O192  1  0.97603562  0.17125098  0.37434896  1
  O2-  O193  1  0.97785443  0.16072036  0.87525374  1
  O2-  O194  1  0.97696008  0.50520389  0.37461824  1
  O2-  O195  1  0.97652605  0.50487711  0.87431859  1
  O2-  O196  1  0.97466345  0.83571261  0.37535952  1
  O2-  O197  1  0.97366344  0.84279647  0.87510087  1
  O2-  O198  1  0.19601316  0.00935970  0.37510180  1
  O2-  O199  1  0.18434342  0.00720167  0.87568433  1
  O2-  O200  1  0.19199947  0.34180467  0.37272257  1
  O2-  O201  1  0.18945166  0.34171300  0.87701009  1
  O2-  O202  1  0.19110205  0.66977037  0.37672407  1
  O2-  O203  1  0.19300861  0.67309438  0.87440484  1
  O2-  O204  1  0.52514083  0.00249729  0.37608034  1
  O2-  O205  1  0.52487902  0.00754024  0.87405749  1
  O2-  O206  1  0.52381127  0.33867373  0.37597666  1
  O2-  O207  1  0.52806281  0.33925452  0.87542761  1
  O2-  O208  1  0.52442838  0.67219036  0.37925505  1
  O2-  O209  1  0.52550271  0.67393456  0.87176527  1
  O2-  O210  1  0.85989153  0.00487608  0.37422948  1
  O2-  O211  1  0.86157163  0.00542421  0.87378007  1
  O2-  O212  1  0.85818673  0.33891385  0.37564405  1
  O2-  O213  1  0.85407001  0.33548287  0.87508925  1
  O2-  O214  1  0.85851081  0.67144397  0.37397253  1
  O2-  O215  1  0.85922838  0.67132504  0.87576303  1
  O2-  O216  1  0.24101229  0.09207637  0.02483767  1
  O2-  O217  1  0.23509119  0.09797085  0.52192965  1
  O2-  O218  1  0.23644696  0.42862732  0.02214947  1
  O2-  O219  1  0.23756189  0.43010229  0.51955141  1
  O2-  O220  1  0.23845578  0.76153284  0.01961169  1
  O2-  O221  1  0.23728888  0.76484622  0.51913162  1
  O2-  O222  1  0.57292501  0.09353351  0.01687872  1
  O2-  O223  1  0.57352680  0.09160691  0.51789766  1
  O2-  O224  1  0.56916047  0.43104394  0.01641147  1
  O2-  O225  1  0.57188959  0.42947282  0.52162285  1
  O2-  O226  1  0.57509020  0.75794650  0.01936062  1
  O2-  O227  1  0.56933370  0.76164384  0.52055268  1
  O2-  O228  1  0.90591461  0.09517747  0.02253985  1
  O2-  O229  1  0.90328849  0.09406077  0.51690294  1
  O2-  O230  1  0.90431003  0.43041566  0.01684996  1
  O2-  O231  1  0.89984812  0.42944736  0.51792338  1
  O2-  O232  1  0.90478170  0.76091726  0.02077836  1
  O2-  O233  1  0.90283185  0.76254176  0.51664768  1
  O2-  O234  1  0.25961630  0.26429408  0.22797794  1
  O2-  O235  1  0.26343400  0.26490070  0.73656587  1
  O2-  O236  1  0.26351594  0.59713566  0.23100480  1
  O2-  O237  1  0.26465175  0.59581319  0.72878400  1
  O2-  O238  1  0.26179429  0.92823178  0.22799856  1
  O2-  O239  1  0.26259249  0.92974774  0.73256242  1
  O2-  O240  1  0.59319561  0.25746005  0.23087631  1
  O2-  O241  1  0.59318149  0.26213233  0.73275590  1
  O2-  O242  1  0.59584945  0.59398126  0.23134053  1
  O2-  O243  1  0.59350391  0.59378756  0.72385016  1
  O2-  O244  1  0.59895058  0.93142137  0.23407470  1
  O2-  O245  1  0.59779367  0.92512666  0.72727445  1
  O2-  O246  1  0.92881273  0.26308783  0.23055124  1
  O2-  O247  1  0.92445641  0.25434222  0.73196756  1
  O2-  O248  1  0.92904216  0.59369452  0.22803344  1
  O2-  O249  1  0.92568040  0.59429876  0.73647884  1
  O2-  O250  1  0.92932497  0.92625104  0.23021155  1
  O2-  O251  1  0.93018320  0.92792795  0.72588521  1
  O2-  O252  1  0.09654159  0.23893481  0.27257118  1
  O2-  O253  1  0.09590757  0.23618639  0.76593917  1
  O2-  O254  1  0.09308934  0.57294577  0.27133710  1
  O2-  O255  1  0.09692195  0.57532270  0.76909900  1
  O2-  O256  1  0.09791009  0.90455032  0.27283794  1
  O2-  O257  1  0.09484188  0.90734153  0.77254017  1
  O2-  O258  1  0.42612087  0.23740021  0.27004286  1
  O2-  O259  1  0.42570114  0.24211904  0.77533862  1
  O2-  O260  1  0.42892102  0.57305735  0.27167201  1
  O2-  O261  1  0.43006533  0.57250532  0.77172421  1
  O2-  O262  1  0.42964305  0.90492624  0.27006676  1
  O2-  O263  1  0.43120349  0.90245957  0.76733880  1
  O2-  O264  1  0.76131568  0.23899451  0.26963133  1
  O2-  O265  1  0.76141025  0.23710096  0.76855979  1
  O2-  O266  1  0.76145021  0.57225733  0.27120420  1
  O2-  O267  1  0.76164640  0.57118029  0.77008690  1
  O2-  O268  1  0.76237958  0.90402690  0.27174832  1
  O2-  O269  1  0.76350919  0.90542523  0.77022094  1
  O2-  O270  1  0.07443493  0.06970147  0.47670874  1
  O2-  O271  1  0.06937798  0.06860837  0.98779726  1
  O2-  O272  1  0.07315498  0.40613924  0.47841096  1
  O2-  O273  1  0.07323027  0.40774469  0.98020251  1
  O2-  O274  1  0.07169712  0.73746465  0.47869393  1
  O2-  O275  1  0.07136775  0.73967565  0.97846551  1
  O2-  O276  1  0.40200637  0.07261365  0.48036401  1
  O2-  O277  1  0.41089879  0.07488073  0.98265381  1
  O2-  O278  1  0.40484186  0.40613490  0.47867459  1
  O2-  O279  1  0.40255750  0.40751495  0.97903862  1
  O2-  O280  1  0.40406478  0.74128059  0.47831420  1
  O2-  O281  1  0.40524791  0.73664258  0.98337950  1
  O2-  O282  1  0.73780932  0.07358674  0.47953796  1
  O2-  O283  1  0.74251436  0.07268942  0.97524053  1
  O2-  O284  1  0.73706188  0.40450524  0.47835358  1
  O2-  O285  1  0.73680262  0.40709210  0.97565555  1
  O2-  O286  1  0.73983994  0.73995044  0.47747112  1
  O2-  O287  1  0.73693247  0.73862784  0.97720147  1
  O2-  O288  1  0.09359982  0.24129102  0.47718605  1
  O2-  O289  1  0.09931843  0.23230649  0.98115345  1
  O2-  O290  1  0.09565172  0.57293069  0.48166765  1
  O2-  O291  1  0.09310957  0.57389553  0.97759487  1
  O2-  O292  1  0.09714209  0.90478788  0.47354071  1
  O2-  O293  1  0.09544899  0.90628947  0.98077200  1
  O2-  O294  1  0.42568237  0.23864664  0.47834421  1
  O2-  O295  1  0.42474936  0.24027992  0.97715755  1
  O2-  O296  1  0.42886306  0.57150784  0.47907569  1
  O2-  O297  1  0.43026593  0.57404327  0.97767491  1
  O2-  O298  1  0.42938886  0.90284083  0.48248677  1
  O2-  O299  1  0.43111126  0.90501900  0.98107806  1
  O2-  O300  1  0.75963778  0.23883862  0.47703086  1
  O2-  O301  1  0.76319189  0.23593029  0.98446746  1
  O2-  O302  1  0.75861911  0.57407951  0.47662796  1
  O2-  O303  1  0.76361869  0.56915377  0.98101033  1
  O2-  O304  1  0.76347888  0.90631620  0.47968305  1
  O2-  O305  1  0.76198105  0.90370528  0.97804303  1
  O2-  O306  1  0.07308493  0.06983549  0.27142553  1
  O2-  O307  1  0.07126561  0.07008648  0.76405517  1
  O2-  O308  1  0.07186239  0.40630840  0.27362063  1
  O2-  O309  1  0.07673433  0.40875125  0.76700050  1
  O2-  O310  1  0.06982689  0.73619602  0.26679239  1
  O2-  O311  1  0.07170520  0.74173938  0.77457763  1
  O2-  O312  1  0.40505684  0.06892202  0.27183262  1
  O2-  O313  1  0.40695973  0.07855516  0.76699067  1
  O2-  O314  1  0.40328330  0.40603445  0.26857766  1
  O2-  O315  1  0.40594685  0.40671164  0.77482881  1
  O2-  O316  1  0.40479576  0.73948169  0.27093913  1
  O2-  O317  1  0.40544369  0.73933494  0.76677002  1
  O2-  O318  1  0.73864552  0.07401740  0.27600105  1
  O2-  O319  1  0.74277837  0.07085914  0.76931393  1
  O2-  O320  1  0.73959001  0.40772561  0.27302560  1
  O2-  O321  1  0.73392439  0.40387727  0.77147276  1
  O2-  O322  1  0.73805851  0.73900344  0.27042155  1
  O2-  O323  1  0.73816593  0.73883358  0.77397724  1
  O2-  O324  1  0.23799173  0.09560600  0.22841506  1
  O2-  O325  1  0.23714636  0.09311113  0.72732986  1
  O2-  O326  1  0.23540087  0.42942794  0.22545175  1
  O2-  O327  1  0.24000457  0.42895532  0.73178966  1
  O2-  O328  1  0.23965519  0.76025271  0.22938462  1
  O2-  O329  1  0.23608700  0.76537972  0.73187988  1
  O2-  O330  1  0.56791813  0.09515592  0.23428015  1
  O2-  O331  1  0.57717383  0.09006782  0.73311291  1
  O2-  O332  1  0.57009488  0.42993109  0.23352245  1
  O2-  O333  1  0.57087627  0.43008762  0.72958972  1
  O2-  O334  1  0.57423915  0.75871768  0.23446897  1
  O2-  O335  1  0.57149730  0.75960188  0.72571164  1
  O2-  O336  1  0.90422240  0.09433239  0.22916010  1
  O2-  O337  1  0.90492884  0.09369383  0.73022699  1
  O2-  O338  1  0.90458156  0.43156183  0.23312474  1
  O2-  O339  1  0.89868147  0.42686962  0.73218491  1
  O2-  O340  1  0.90407772  0.76024225  0.22814174  1
  O2-  O341  1  0.90220278  0.76285619  0.73415485  1
  O2-  O342  1  0.25993227  0.26424876  0.02251592  1
  O2-  O343  1  0.26355732  0.26581196  0.51291223  1
  O2-  O344  1  0.26430406  0.59649748  0.01898877  1
  O2-  O345  1  0.26347153  0.59687603  0.52000662  1
  O2-  O346  1  0.25968594  0.92778550  0.02021512  1
  O2-  O347  1  0.26466302  0.93173494  0.51839011  1
  O2-  O348  1  0.59096070  0.25354781  0.01834455  1
  O2-  O349  1  0.59681164  0.26351994  0.51869268  1
  O2-  O350  1  0.59380193  0.59321667  0.02016585  1
  O2-  O351  1  0.59507681  0.59534619  0.52418444  1
  O2-  O352  1  0.60018127  0.93160238  0.01738277  1
  O2-  O353  1  0.59669970  0.92561945  0.52267444  1
  O2-  O354  1  0.93024351  0.25886991  0.02099060  1
  O2-  O355  1  0.92348577  0.25874553  0.51660927  1
  O2-  O356  1  0.92966773  0.59334734  0.02074315  1
  O2-  O357  1  0.92504382  0.59420229  0.51358279  1
  O2-  O358  1  0.92593836  0.92812030  0.02411402  1
  O2-  O359  1  0.93316647  0.92636545  0.52021568  1
