# generated using pymatgen
data_Sr7Ca15Pr50Mn72O216
_symmetry_space_group_name_H-M   'P 1'
_cell_length_a   16.55756703
_cell_length_b   16.60543345
_cell_length_c   15.59459748
_cell_angle_alpha   90.00364021
_cell_angle_beta   89.99648468
_cell_angle_gamma   89.99999033
_symmetry_Int_Tables_number   1
_chemical_formula_structural   Sr7Ca15Pr50Mn72O216
_chemical_formula_sum   'Sr7 Ca15 Pr50 Mn72 O216'
_cell_volume   4287.66559080
_cell_formula_units_Z   1
loop_
 _symmetry_equiv_pos_site_id
 _symmetry_equiv_pos_as_xyz
  1  'x, y, z'
loop_
 _atom_type_symbol
 _atom_type_oxidation_number
  Sr2+  2.0
  Ca2+  2.0
  Pr3+  3.0
  Mn3.30+  3.3
  O2-  -2.0
loop_
 _atom_site_type_symbol
 _atom_site_label
 _atom_site_symmetry_multiplicity
 _atom_site_fract_x
 _atom_site_fract_y
 _atom_site_fract_z
 _atom_site_occupancy
  Sr2+  Sr0  1  0.33766181  0.65433065  0.87675969  1
  Sr2+  Sr1  1  0.33436014  0.32694631  0.87623894  1
  Sr2+  Sr2  1  0.16334368  0.82457541  0.37693079  1
  Sr2+  Sr3  1  1.00272231  0.32407076  0.37430917  1
  Sr2+  Sr4  1  0.83658579  0.84233464  0.12527108  1
  Sr2+  Sr5  1  1.00159240  0.98941618  0.37445401  1
  Sr2+  Sr6  1  1.00230770  0.65987141  0.37398854  1
  Ca2+  Ca7  1  0.49460112  0.48592921  0.87600273  1
  Ca2+  Ca8  1  0.17032560  0.51609432  0.12566508  1
  Ca2+  Ca9  1  0.33586576  0.98452939  0.87597350  1
  Ca2+  Ca10  1  -0.00021153  0.68143757  0.62299868  1
  Ca2+  Ca11  1  0.33210119  0.98316982  0.37352913  1
  Ca2+  Ca12  1  0.66363423  0.68100909  0.62528144  1
  Ca2+  Ca13  1  -0.00130169  0.00941935  0.12902164  1
  Ca2+  Ca14  1  0.67309040  0.31827567  0.37355002  1
  Ca2+  Ca15  1  0.16501794  0.18039601  0.12656487  1
  Ca2+  Ca16  1  0.66628892  0.68039714  0.12481802  1
  Ca2+  Ca17  1  -0.00332773  0.35015008  0.12694335  1
  Ca2+  Ca18  1  0.83732522  0.51408143  0.12666065  1
  Ca2+  Ca19  1  0.32871527  0.68000962  0.12429663  1
  Ca2+  Ca20  1  0.16807813  0.84567668  0.62207144  1
  Ca2+  Ca21  1  -0.00373426  0.34798722  0.62349423  1
  Pr3+  Pr22  1  0.50507814  0.51499515  0.62692034  1
  Pr3+  Pr23  1  0.66828326  0.65294206  0.87642304  1
  Pr3+  Pr24  1  0.16691012  0.81925529  0.87387733  1
  Pr3+  Pr25  1  0.83127252  0.15445486  0.87596971  1
  Pr3+  Pr26  1  0.67319498  0.65537524  0.37367616  1
  Pr3+  Pr27  1  0.66168720  0.01374050  0.62507292  1
  Pr3+  Pr28  1  0.16575523  0.48733264  0.87777507  1
  Pr3+  Pr29  1  0.83307058  0.15510567  0.37407045  1
  Pr3+  Pr30  1  0.83817926  0.18242156  0.62486060  1
  Pr3+  Pr31  1  0.00221397  0.00900132  0.62283342  1
  Pr3+  Pr32  1  0.83410920  0.82047159  0.37349985  1
  Pr3+  Pr33  1  0.50102736  0.84308817  0.12378959  1
  Pr3+  Pr34  1  0.33329337  0.65652832  0.37317907  1
  Pr3+  Pr35  1  0.32729429  0.01011225  0.62391439  1
  Pr3+  Pr36  1  0.49467861  0.81968671  0.87521525  1
  Pr3+  Pr37  1  0.49619196  0.15120735  0.37376275  1
  Pr3+  Pr38  1  0.49977829  0.48765359  0.37371224  1
  Pr3+  Pr39  1  0.49071833  0.15359693  0.87591093  1
  Pr3+  Pr40  1  0.66676364  0.32340835  0.87655983  1
  Pr3+  Pr41  1  0.50209447  0.84506241  0.62542488  1
  Pr3+  Pr42  1  0.83958758  0.17800793  0.12557482  1
  Pr3+  Pr43  1  1.00578199  0.32054691  0.87566500  1
  Pr3+  Pr44  1  0.50149717  0.18025864  0.12543666  1
  Pr3+  Pr45  1  0.33223895  0.32112165  0.37374936  1
  Pr3+  Pr46  1  0.67144217  0.98562978  0.37423442  1
  Pr3+  Pr47  1  0.83284538  0.48714847  0.87856185  1
  Pr3+  Pr48  1  0.16034937  0.15278973  0.37308493  1
  Pr3+  Pr49  1  0.15982338  0.49106726  0.37180969  1
  Pr3+  Pr50  1  -0.00051495  0.67684770  0.12615587  1
  Pr3+  Pr51  1  0.50160653  0.18081811  0.62396880  1
  Pr3+  Pr52  1  0.32870023  0.68106188  0.62632446  1
  Pr3+  Pr53  1  0.83577926  0.84347894  0.62549777  1
  Pr3+  Pr54  1  0.83924226  0.51430484  0.62511470  1
  Pr3+  Pr55  1  0.16689806  0.15439595  0.87690698  1
  Pr3+  Pr56  1  0.50257331  0.51502129  0.12259396  1
  Pr3+  Pr57  1  1.00295568  0.98635440  0.87606477  1
  Pr3+  Pr58  1  0.83225736  0.48500023  0.37216159  1
  Pr3+  Pr59  1  0.49632659  0.81986648  0.37417516  1
  Pr3+  Pr60  1  0.16508329  0.51023947  0.62437091  1
  Pr3+  Pr61  1  0.16763828  0.17964837  0.62338429  1
  Pr3+  Pr62  1  0.16835526  0.84266890  0.12731643  1
  Pr3+  Pr63  1  0.66443427  0.01123978  0.12483993  1
  Pr3+  Pr64  1  0.66872690  0.98626961  0.87571730  1
  Pr3+  Pr65  1  0.32585890  0.01375696  0.12571207  1
  Pr3+  Pr66  1  0.66557761  0.34689898  0.12725779  1
  Pr3+  Pr67  1  0.83106348  0.81867218  0.87629356  1
  Pr3+  Pr68  1  0.33135899  0.34698483  0.62465810  1
  Pr3+  Pr69  1  0.32758243  0.34777967  0.12477216  1
  Pr3+  Pr70  1  0.66438208  0.34733783  0.62265582  1
  Pr3+  Pr71  1  1.00397129  0.65344337  0.87576919  1
  Mn3.30+  Mn72  1  0.16674932  0.00021904  0.00048587  1
  Mn3.30+  Mn73  1  0.16676109  -0.00163594  0.49870121  1
  Mn3.30+  Mn74  1  0.16505492  0.33320300  0.00378503  1
  Mn3.30+  Mn75  1  0.16432376  0.33474745  0.50036479  1
  Mn3.30+  Mn76  1  0.16974397  0.66470139  -0.00001290  1
  Mn3.30+  Mn77  1  0.16461150  0.66812276  0.50183414  1
  Mn3.30+  Mn78  1  0.49653985  0.00020896  0.00038432  1
  Mn3.30+  Mn79  1  0.49753426  -0.00117816  0.49832997  1
  Mn3.30+  Mn80  1  0.49865617  0.33533599  0.00132561  1
  Mn3.30+  Mn81  1  0.50144374  0.33361475  0.49611891  1
  Mn3.30+  Mn82  1  0.49985157  0.66579261  0.00142084  1
  Mn3.30+  Mn83  1  0.50230588  0.66615867  0.49961241  1
  Mn3.30+  Mn84  1  0.83534087  -0.00067379  0.00126516  1
  Mn3.30+  Mn85  1  0.83276280  -0.00039660  0.50075569  1
  Mn3.30+  Mn86  1  0.83652285  0.33401669  0.00238422  1
  Mn3.30+  Mn87  1  0.83340783  0.33387122  0.49877763  1
  Mn3.30+  Mn88  1  0.83345489  0.66482872  0.00231097  1
  Mn3.30+  Mn89  1  0.83423278  0.66636351  0.50167289  1
  Mn3.30+  Mn90  1  0.00174385  0.16747397  0.24708236  1
  Mn3.30+  Mn91  1  0.00028834  0.16679599  0.75001960  1
  Mn3.30+  Mn92  1  0.00012489  0.50022360  0.24704371  1
  Mn3.30+  Mn93  1  -0.00041217  0.49988828  0.74977668  1
  Mn3.30+  Mn94  1  0.00122161  0.83416635  0.25003551  1
  Mn3.30+  Mn95  1  0.00128845  0.83190899  0.74843383  1
  Mn3.30+  Mn96  1  0.33009849  0.16586682  0.25006593  1
  Mn3.30+  Mn97  1  0.33314683  0.16609526  0.75016788  1
  Mn3.30+  Mn98  1  0.33131128  0.50187573  0.24912496  1
  Mn3.30+  Mn99  1  0.33578444  0.50074609  0.75048821  1
  Mn3.30+  Mn100  1  0.33310217  0.83237638  0.25034174  1
  Mn3.30+  Mn101  1  0.33220983  0.83409386  0.74979307  1
  Mn3.30+  Mn102  1  0.66718679  0.16713652  0.25008390  1
  Mn3.30+  Mn103  1  0.66506833  0.16801276  0.75102871  1
  Mn3.30+  Mn104  1  0.66825231  0.50093938  0.24775115  1
  Mn3.30+  Mn105  1  0.66702165  0.50117656  0.75123681  1
  Mn3.30+  Mn106  1  0.66645371  0.83197101  0.24736941  1
  Mn3.30+  Mn107  1  0.66616035  0.83134929  0.75034115  1
  Mn3.30+  Mn108  1  0.16441075  0.00052744  0.24826832  1
  Mn3.30+  Mn109  1  0.16887602  -0.00151900  0.75217673  1
  Mn3.30+  Mn110  1  0.16375644  0.33455701  0.24652621  1
  Mn3.30+  Mn111  1  0.16622216  0.33325638  0.74942909  1
  Mn3.30+  Mn112  1  0.16790525  0.66698087  0.24905169  1
  Mn3.30+  Mn113  1  0.16618700  0.66630554  0.74878376  1
  Mn3.30+  Mn114  1  0.49703458  -0.00120050  0.24985383  1
  Mn3.30+  Mn115  1  0.49710313  0.00025558  0.75050672  1
  Mn3.30+  Mn116  1  0.50068089  0.33368126  0.25175134  1
  Mn3.30+  Mn117  1  0.49945201  0.33523231  0.75013753  1
  Mn3.30+  Mn118  1  0.50117573  0.66609510  0.24777630  1
  Mn3.30+  Mn119  1  0.50083865  0.66579744  0.75000580  1
  Mn3.30+  Mn120  1  0.83532145  -0.00109451  0.24894767  1
  Mn3.30+  Mn121  1  0.83288976  -0.00018428  0.74975354  1
  Mn3.30+  Mn122  1  0.83476979  0.33325518  0.24883195  1
  Mn3.30+  Mn123  1  0.83476453  0.33458722  0.75089938  1
  Mn3.30+  Mn124  1  0.83430262  0.66495293  0.24809580  1
  Mn3.30+  Mn125  1  0.83370336  0.66597558  0.74905219  1
  Mn3.30+  Mn126  1  0.00166373  0.16561386  0.00255612  1
  Mn3.30+  Mn127  1  0.00009903  0.16864067  0.50010404  1
  Mn3.30+  Mn128  1  0.00021256  0.49874405  0.00398535  1
  Mn3.30+  Mn129  1  -0.00073874  0.50148258  0.49975853  1
  Mn3.30+  Mn130  1  0.00049672  0.83342406  -0.00005276  1
  Mn3.30+  Mn131  1  0.00183807  0.83250204  0.50227003  1
  Mn3.30+  Mn132  1  0.33051952  0.16758356  0.00146504  1
  Mn3.30+  Mn133  1  0.33254942  0.16440093  0.49744758  1
  Mn3.30+  Mn134  1  0.33390839  0.50176138  0.00158918  1
  Mn3.30+  Mn135  1  0.33352993  0.50116345  0.49906629  1
  Mn3.30+  Mn136  1  0.33315572  0.83275995  0.00075910  1
  Mn3.30+  Mn137  1  0.33222670  0.83329346  0.49873922  1
  Mn3.30+  Mn138  1  0.66561991  0.16728758  0.00015011  1
  Mn3.30+  Mn139  1  0.66673618  0.16767595  0.49874953  1
  Mn3.30+  Mn140  1  0.66694881  0.50128655  0.00168033  1
  Mn3.30+  Mn141  1  0.66845963  0.50106701  0.49964736  1
  Mn3.30+  Mn142  1  0.66622154  0.83195895  0.00129655  1
  Mn3.30+  Mn143  1  0.66659544  0.83155463  0.50071662  1
  O2-  O144  1  0.02438806  0.15277158  0.12243990  1
  O2-  O145  1  0.02386994  0.15770419  0.62690260  1
  O2-  O146  1  0.02737587  0.49660059  0.12370149  1
  O2-  O147  1  0.02087756  0.49095768  0.62621387  1
  O2-  O148  1  0.02376546  0.82551138  0.12118159  1
  O2-  O149  1  0.02492527  0.82874134  0.62802219  1
  O2-  O150  1  0.35882473  0.16134468  0.12700026  1
  O2-  O151  1  0.35942092  0.15768917  0.62142291  1
  O2-  O152  1  0.35947179  0.49378776  0.12713802  1
  O2-  O153  1  0.36065919  0.49542861  0.62217403  1
  O2-  O154  1  0.35713550  0.82813026  0.12507979  1
  O2-  O155  1  0.35873366  0.83041575  0.62268097  1
  O2-  O156  1  0.69239315  0.15951535  0.12437790  1
  O2-  O157  1  0.69156931  0.16134933  0.62643631  1
  O2-  O158  1  0.69578225  0.49185186  0.12497774  1
  O2-  O159  1  0.69533891  0.49257176  0.62655494  1
  O2-  O160  1  0.68618877  0.83023052  0.12397247  1
  O2-  O161  1  0.69115370  0.82778313  0.62763465  1
  O2-  O162  1  0.13808708  0.32409398  0.12464303  1
  O2-  O163  1  0.13929824  0.32791112  0.62456574  1
  O2-  O164  1  0.14389629  0.66429076  0.12229098  1
  O2-  O165  1  0.14090602  0.65643582  0.62706886  1
  O2-  O166  1  0.14036966  0.99002256  0.12211764  1
  O2-  O167  1  0.14636098  0.99594426  0.62806751  1
  O2-  O168  1  0.47389652  0.32837222  0.12855424  1
  O2-  O169  1  0.47583336  0.32834504  0.61871478  1
  O2-  O170  1  0.47129583  0.66177856  0.12553513  1
  O2-  O171  1  0.47396340  0.66167738  0.62338189  1
  O2-  O172  1  0.47089223  0.99360616  0.12545905  1
  O2-  O173  1  0.47268158  0.99458265  0.62484018  1
  O2-  O174  1  0.80714218  0.32415029  0.12437012  1
  O2-  O175  1  0.80695272  0.33031988  0.62416444  1
  O2-  O176  1  0.80848523  0.66037782  0.12330206  1
  O2-  O177  1  0.80446854  0.66107400  0.62624780  1
  O2-  O178  1  0.80812784  1.00073121  0.12432966  1
  O2-  O179  1  0.80478069  0.99358178  0.62612614  1
  O2-  O180  1  0.30428262  0.17414061  0.37397339  1
  O2-  O181  1  0.31023254  0.17306068  0.87668448  1
  O2-  O182  1  0.30583307  0.50756948  0.37445836  1
  O2-  O183  1  0.31020024  0.49995750  0.87663785  1
  O2-  O184  1  0.31432141  0.83391105  0.37632565  1
  O2-  O185  1  0.31094119  0.83866018  0.87596389  1
  O2-  O186  1  0.64102339  0.17173438  0.37351846  1
  O2-  O187  1  0.63705932  0.17463104  0.87552850  1
  O2-  O188  1  0.64204297  0.51049589  0.37255120  1
  O2-  O189  1  0.63791873  0.50556263  0.87603602  1
  O2-  O190  1  0.64138612  0.83739031  0.37285169  1
  O2-  O191  1  0.63991057  0.83862261  0.87525061  1
  O2-  O192  1  0.97699019  0.16996860  0.37596557  1
  O2-  O193  1  0.97473421  0.17311934  0.87426073  1
  O2-  O194  1  0.97699410  0.50467018  0.37342167  1
  O2-  O195  1  0.97630867  0.50522399  0.87621998  1
  O2-  O196  1  0.97781913  0.83428171  0.37846672  1
  O2-  O197  1  0.97471458  0.83817207  0.87396273  1
  O2-  O198  1  0.19058412  0.00637099  0.37345484  1
  O2-  O199  1  0.19558338  0.00704210  0.87643933  1
  O2-  O200  1  0.18973949  0.34221509  0.37469821  1
  O2-  O201  1  0.18482969  0.33847731  0.87660057  1
  O2-  O202  1  0.18938754  0.66601910  0.37655443  1
  O2-  O203  1  0.18804798  0.67018253  0.87362678  1
  O2-  O204  1  0.52761913  0.00316507  0.37338838  1
  O2-  O205  1  0.52532723  0.00685098  0.87549749  1
  O2-  O206  1  0.52902142  0.33961671  0.37390450  1
  O2-  O207  1  0.52298519  0.33879672  0.87841690  1
  O2-  O208  1  0.52913947  0.67172617  0.37488988  1
  O2-  O209  1  0.52519606  0.67401056  0.87577159  1
  O2-  O210  1  0.85092506  0.00570510  0.37550113  1
  O2-  O211  1  0.85739313  0.00542825  0.87453458  1
  O2-  O212  1  0.85424644  0.33623051  0.37337182  1
  O2-  O213  1  0.86179937  0.33848396  0.87891267  1
  O2-  O214  1  0.85181683  0.67157187  0.37588836  1
  O2-  O215  1  0.85943324  0.66916249  0.87476969  1
  O2-  O216  1  0.23643127  0.09636161  0.02356594  1
  O2-  O217  1  0.23870814  0.09487830  0.52074837  1
  O2-  O218  1  0.23687364  0.42882555  0.02208601  1
  O2-  O219  1  0.23928509  0.42536450  0.52251471  1
  O2-  O220  1  0.23760122  0.76285459  0.01600041  1
  O2-  O221  1  0.24064550  0.75899852  0.52391631  1
  O2-  O222  1  0.56856746  0.09356226  0.02176456  1
  O2-  O223  1  0.56906446  0.09349830  0.51948154  1
  O2-  O224  1  0.57621089  0.42756644  0.02448974  1
  O2-  O225  1  0.57424537  0.43228240  0.51992315  1
  O2-  O226  1  0.57062515  0.76130515  0.01794715  1
  O2-  O227  1  0.56990302  0.76291573  0.51867309  1
  O2-  O228  1  0.90271048  0.09818509  0.01373705  1
  O2-  O229  1  0.90446509  0.09393863  0.52125098  1
  O2-  O230  1  0.90203688  0.43072477  0.02082465  1
  O2-  O231  1  0.90132878  0.43054663  0.51501152  1
  O2-  O232  1  0.90785176  0.75777853  0.01538883  1
  O2-  O233  1  0.90215391  0.76218102  0.51912714  1
  O2-  O234  1  0.26220029  0.26623471  0.23337668  1
  O2-  O235  1  0.26121964  0.25877125  0.72503819  1
  O2-  O236  1  0.26553358  0.59812786  0.23209019  1
  O2-  O237  1  0.26111563  0.59229636  0.72795733  1
  O2-  O238  1  0.25921767  0.92824090  0.22971893  1
  O2-  O239  1  0.26265866  0.92878203  0.73194410  1
  O2-  O240  1  0.59492381  0.25864173  0.22709354  1
  O2-  O241  1  0.59464356  0.26305315  0.72917817  1
  O2-  O242  1  0.59624978  0.59611083  0.22586655  1
  O2-  O243  1  0.59818104  0.59697042  0.72806424  1
  O2-  O244  1  0.59249631  0.92870717  0.22842974  1
  O2-  O245  1  0.59322929  0.93042868  0.73004196  1
  O2-  O246  1  0.93001113  0.25925673  0.22497846  1
  O2-  O247  1  0.92810026  0.26395937  0.72869378  1
  O2-  O248  1  0.92805712  0.59292185  0.22791690  1
  O2-  O249  1  0.92943533  0.59642746  0.72901518  1
  O2-  O250  1  0.92644346  0.92832987  0.23250322  1
  O2-  O251  1  0.92954991  0.92701466  0.72903313  1
  O2-  O252  1  0.09733690  0.23798432  0.26797336  1
  O2-  O253  1  0.09593033  0.23715655  0.77036888  1
  O2-  O254  1  0.09623022  0.57246512  0.26401928  1
  O2-  O255  1  0.09494727  0.57002787  0.77090650  1
  O2-  O256  1  0.09482414  0.90625774  0.26295145  1
  O2-  O257  1  0.09525268  0.90731130  0.77370880  1
  O2-  O258  1  0.42758731  0.23773706  0.27218722  1
  O2-  O259  1  0.42932863  0.23377627  0.76349122  1
  O2-  O260  1  0.43086394  0.57203216  0.27176461  1
  O2-  O261  1  0.43385225  0.56946751  0.76675768  1
  O2-  O262  1  0.42923514  0.90310755  0.26772574  1
  O2-  O263  1  0.43118197  0.90445941  0.76772172  1
  O2-  O264  1  0.76514286  0.23702890  0.26757988  1
  O2-  O265  1  0.76251084  0.24077485  0.77132865  1
  O2-  O266  1  0.76149102  0.57210644  0.27143749  1
  O2-  O267  1  0.76233748  0.57030944  0.77314074  1
  O2-  O268  1  0.75944797  0.90717452  0.27066619  1
  O2-  O269  1  0.76020614  0.90507846  0.77187937  1
  O2-  O270  1  0.07498715  0.07445262  0.48550935  1
  O2-  O271  1  0.07352784  0.07292153  0.97354280  1
  O2-  O272  1  0.07460821  0.41072172  0.48206414  1
  O2-  O273  1  0.07128311  0.40621314  0.97913146  1
  O2-  O274  1  0.07278099  0.73858039  0.48804501  1
  O2-  O275  1  0.07356006  0.73892940  0.97898903  1
  O2-  O276  1  0.40231006  0.06968380  0.47453777  1
  O2-  O277  1  0.40259394  0.07053694  0.98008417  1
  O2-  O278  1  0.40493516  0.40654422  0.47618522  1
  O2-  O279  1  0.40590938  0.40636136  0.98856986  1
  O2-  O280  1  0.40687618  0.73682409  0.48020614  1
  O2-  O281  1  0.40947780  0.74222593  0.98177645  1
  O2-  O282  1  0.73551641  0.07240864  0.48086785  1
  O2-  O283  1  0.73600425  0.07348658  0.97796974  1
  O2-  O284  1  0.73688212  0.40309895  0.47792851  1
  O2-  O285  1  0.73811536  0.40559788  0.97840119  1
  O2-  O286  1  0.73934914  0.73993540  0.47946932  1
  O2-  O287  1  0.74136890  0.73908874  0.97751039  1
  O2-  O288  1  0.09904353  0.23804249  0.48311594  1
  O2-  O289  1  0.09362948  0.23811088  0.97758237  1
  O2-  O290  1  0.09769101  0.57013861  0.48554905  1
  O2-  O291  1  0.09470766  0.57298139  0.97902325  1
  O2-  O292  1  0.09251363  0.90902810  0.48936754  1
  O2-  O293  1  0.09649020  0.90472389  0.97580939  1
  O2-  O294  1  0.42629344  0.23556233  0.47664021  1
  O2-  O295  1  0.42949129  0.23500915  0.98627418  1
  O2-  O296  1  0.43112402  0.57304490  0.47754044  1
  O2-  O297  1  0.43479428  0.56867180  0.98292188  1
  O2-  O298  1  0.43113155  0.90286022  0.48180204  1
  O2-  O299  1  0.42913868  0.90499574  0.98159008  1
  O2-  O300  1  0.76498184  0.23654920  0.48290516  1
  O2-  O301  1  0.76238669  0.24041274  0.97839291  1
  O2-  O302  1  0.76308689  0.57006761  0.47899100  1
  O2-  O303  1  0.75942025  0.57273427  0.97606446  1
  O2-  O304  1  0.76067518  0.90418395  0.47974496  1
  O2-  O305  1  0.75938399  0.90730783  0.97820344  1
  O2-  O306  1  0.07390272  0.07535544  0.26906608  1
  O2-  O307  1  0.07387557  0.07059686  0.77083759  1
  O2-  O308  1  0.07349707  0.40898399  0.26764354  1
  O2-  O309  1  0.07195238  0.40773260  0.77107258  1
  O2-  O310  1  0.07595348  0.73901096  0.26039186  1
  O2-  O311  1  0.07207772  0.73928885  0.77255251  1
  O2-  O312  1  0.40395669  0.06937871  0.27234986  1
  O2-  O313  1  0.40299160  0.06980999  0.77207777  1
  O2-  O314  1  0.40352079  0.40705360  0.27263842  1
  O2-  O315  1  0.40708515  0.40458408  0.76168613  1
  O2-  O316  1  0.40940351  0.73813976  0.27278512  1
  O2-  O317  1  0.40673595  0.74034540  0.76508487  1
  O2-  O318  1  0.73679547  0.07193116  0.26916817  1
  O2-  O319  1  0.73537048  0.07373417  0.77202831  1
  O2-  O320  1  0.73580147  0.40403014  0.27019003  1
  O2-  O321  1  0.73871824  0.40502848  0.77363082  1
  O2-  O322  1  0.74165858  0.73994420  0.26870737  1
  O2-  O323  1  0.74075841  0.73780653  0.77468464  1
  O2-  O324  1  0.23624921  0.09548554  0.22657724  1
  O2-  O325  1  0.23884439  0.09570015  0.72907568  1
  O2-  O326  1  0.23692963  0.42896169  0.22764636  1
  O2-  O327  1  0.23981755  0.42679647  0.72948144  1
  O2-  O328  1  0.24136695  0.76044918  0.23119629  1
  O2-  O329  1  0.23709754  0.76158721  0.72833394  1
  O2-  O330  1  0.56922287  0.09250490  0.22879453  1
  O2-  O331  1  0.56813765  0.09482580  0.72858174  1
  O2-  O332  1  0.57181097  0.43028886  0.22884530  1
  O2-  O333  1  0.57658930  0.42838738  0.72707150  1
  O2-  O334  1  0.56994095  0.76136983  0.23055104  1
  O2-  O335  1  0.57023744  0.76222870  0.73159230  1
  O2-  O336  1  0.90334294  0.09643103  0.23472891  1
  O2-  O337  1  0.90439050  0.09485110  0.73020049  1
  O2-  O338  1  0.90220894  0.42928268  0.23101547  1
  O2-  O339  1  0.90202637  0.43128841  0.73470379  1
  O2-  O340  1  0.90869629  0.75740482  0.23400904  1
  O2-  O341  1  0.90160906  0.76231881  0.73284060  1
  O2-  O342  1  0.26039398  0.26211246  0.02169622  1
  O2-  O343  1  0.26284587  0.26122366  0.51998948  1
  O2-  O344  1  0.26402429  0.59522439  0.02064180  1
  O2-  O345  1  0.26225232  0.59485170  0.52095446  1
  O2-  O346  1  0.26013667  0.92664084  0.02265980  1
  O2-  O347  1  0.26200654  0.92836718  0.51645464  1
  O2-  O348  1  0.59494153  0.26164817  0.02247056  1
  O2-  O349  1  0.59544416  0.25914606  0.52119892  1
  O2-  O350  1  0.59732734  0.59703177  0.02360166  1
  O2-  O351  1  0.59702045  0.59710647  0.52222006  1
  O2-  O352  1  0.59205163  0.92967604  0.01978824  1
  O2-  O353  1  0.59610995  0.92713881  0.52097020  1
  O2-  O354  1  0.93092845  0.26163175  0.02252737  1
  O2-  O355  1  0.92680134  0.26195006  0.52409336  1
  O2-  O356  1  0.93011874  0.59451771  0.01762176  1
  O2-  O357  1  0.92728797  0.59512954  0.52454708  1
  O2-  O358  1  0.93291831  0.93081525  0.01647112  1
  O2-  O359  1  0.92511879  0.92535996  0.52437840  1
