# generated using pymatgen
data_Sr7Ca15Pr50Mn72O216
_symmetry_space_group_name_H-M   'P 1'
_cell_length_a   16.55847368
_cell_length_b   16.60464933
_cell_length_c   15.59317453
_cell_angle_alpha   90.00449120
_cell_angle_beta   89.99804174
_cell_angle_gamma   89.99502073
_symmetry_Int_Tables_number   1
_chemical_formula_structural   Sr7Ca15Pr50Mn72O216
_chemical_formula_sum   'Sr7 Ca15 Pr50 Mn72 O216'
_cell_volume   4287.30664457
_cell_formula_units_Z   1
loop_
 _symmetry_equiv_pos_site_id
 _symmetry_equiv_pos_as_xyz
  1  'x, y, z'
loop_
 _atom_type_symbol
 _atom_type_oxidation_number
  Sr2+  2.0
  Ca2+  2.0
  Pr3+  3.0
  Mn3.30+  3.3
  O2-  -2.0
loop_
 _atom_site_type_symbol
 _atom_site_label
 _atom_site_symmetry_multiplicity
 _atom_site_fract_x
 _atom_site_fract_y
 _atom_site_fract_z
 _atom_site_occupancy
  Sr2+  Sr0  1  0.66842858  0.33927777  0.62404112  1
  Sr2+  Sr1  1  0.33818632  0.98685255  0.87238237  1
  Sr2+  Sr2  1  0.66651701  0.00737541  0.62561401  1
  Sr2+  Sr3  1  0.66573539  0.98780263  0.87369763  1
  Sr2+  Sr4  1  1.00142953  0.65795592  0.87145165  1
  Sr2+  Sr5  1  0.33135100  0.34106188  0.12526683  1
  Sr2+  Sr6  1  0.16763796  0.84410689  0.62497401  1
  Ca2+  Ca7  1  -0.00386654  0.68189850  0.62346856  1
  Ca2+  Ca8  1  0.33137955  0.01049041  0.62561182  1
  Ca2+  Ca9  1  0.50486866  0.84794673  0.62647996  1
  Ca2+  Ca10  1  0.49744054  0.82069554  0.87076988  1
  Ca2+  Ca11  1  1.00360809  0.65252602  0.37931681  1
  Ca2+  Ca12  1  1.00408504  0.31629206  0.37749040  1
  Ca2+  Ca13  1  0.49715875  0.81946486  0.37876889  1
  Ca2+  Ca14  1  0.17215547  0.18329256  0.12713868  1
  Ca2+  Ca15  1  0.83897758  0.18409681  0.62360011  1
  Ca2+  Ca16  1  -0.00753143  0.34614624  0.62084047  1
  Ca2+  Ca17  1  0.33154759  0.68027994  0.12529743  1
  Ca2+  Ca18  1  0.16303623  0.15361259  0.37354724  1
  Ca2+  Ca19  1  0.50064055  0.17970838  0.12355687  1
  Ca2+  Ca20  1  0.66211250  0.68396854  0.62404168  1
  Ca2+  Ca21  1  0.83382412  0.48466896  0.37694399  1
  Pr3+  Pr22  1  0.50032154  0.84452206  0.12564299  1
  Pr3+  Pr23  1  0.66715135  0.98572414  0.37667995  1
  Pr3+  Pr24  1  0.00054550  0.01524678  0.12566721  1
  Pr3+  Pr25  1  0.83224372  0.82023757  0.37652634  1
  Pr3+  Pr26  1  0.16327071  0.81864928  0.37725206  1
  Pr3+  Pr27  1  0.16333426  0.51227852  0.62402490  1
  Pr3+  Pr28  1  0.66887164  0.65789484  0.87287462  1
  Pr3+  Pr29  1  0.49731447  0.15252420  0.87411248  1
  Pr3+  Pr30  1  0.16666273  0.82077622  0.87279099  1
  Pr3+  Pr31  1  0.49667235  0.48821513  0.87336190  1
  Pr3+  Pr32  1  0.50770122  0.51414207  0.62338675  1
  Pr3+  Pr33  1  0.82925185  0.82027263  0.87336203  1
  Pr3+  Pr34  1  0.66953787  0.32001733  0.87305680  1
  Pr3+  Pr35  1  0.50032457  0.51334192  0.12687458  1
  Pr3+  Pr36  1  0.83724233  0.51334015  0.62267935  1
  Pr3+  Pr37  1  0.33278486  0.68126689  0.62382177  1
  Pr3+  Pr38  1  0.67124821  0.65224299  0.37744707  1
  Pr3+  Pr39  1  1.00536399  0.98993631  0.37574213  1
  Pr3+  Pr40  1  0.49686597  0.15493035  0.37610782  1
  Pr3+  Pr41  1  0.66981924  0.32082451  0.37684143  1
  Pr3+  Pr42  1  0.66432833  0.67895600  0.12634350  1
  Pr3+  Pr43  1  -0.00578915  0.01474405  0.62435740  1
  Pr3+  Pr44  1  0.33558334  0.98664973  0.37739949  1
  Pr3+  Pr45  1  -0.00009924  0.34587624  0.12825781  1
  Pr3+  Pr46  1  0.16543762  0.15333875  0.87656129  1
  Pr3+  Pr47  1  0.16307422  0.48983067  0.87449277  1
  Pr3+  Pr48  1  0.83217707  0.15616663  0.37729105  1
  Pr3+  Pr49  1  0.33690901  0.65534709  0.37587873  1
  Pr3+  Pr50  1  0.17242471  0.51451327  0.12586707  1
  Pr3+  Pr51  1  0.16748425  0.17668343  0.62343646  1
  Pr3+  Pr52  1  0.83547529  0.18033115  0.12533857  1
  Pr3+  Pr53  1  0.66073964  0.01510944  0.12450561  1
  Pr3+  Pr54  1  1.00221172  0.32224661  0.87321040  1
  Pr3+  Pr55  1  0.50151222  0.17394388  0.62610983  1
  Pr3+  Pr56  1  0.83126373  0.48879313  0.87437876  1
  Pr3+  Pr57  1  0.83607347  0.84669331  0.12484588  1
  Pr3+  Pr58  1  0.33724001  0.65904840  0.87404738  1
  Pr3+  Pr59  1  0.17379803  0.84316485  0.12517346  1
  Pr3+  Pr60  1  0.33287428  0.31837097  0.37483773  1
  Pr3+  Pr61  1  0.83553850  0.84406442  0.62531380  1
  Pr3+  Pr62  1  0.32948349  0.01536814  0.12403400  1
  Pr3+  Pr63  1  0.49703238  0.48590844  0.37648623  1
  Pr3+  Pr64  1  1.00365134  0.98727171  0.87433466  1
  Pr3+  Pr65  1  0.66063098  0.34564423  0.12621964  1
  Pr3+  Pr66  1  0.33453093  0.31989495  0.87501642  1
  Pr3+  Pr67  1  0.82878199  0.15384345  0.87300406  1
  Pr3+  Pr68  1  -0.00142137  0.67871025  0.12632920  1
  Pr3+  Pr69  1  0.83563269  0.51198254  0.12761199  1
  Pr3+  Pr70  1  0.32917158  0.34467495  0.62427975  1
  Pr3+  Pr71  1  0.16069085  0.48568517  0.37560066  1
  Mn3.30+  Mn72  1  0.16819195  0.00005887  -0.00019141  1
  Mn3.30+  Mn73  1  0.16819792  0.00059024  0.50136215  1
  Mn3.30+  Mn74  1  0.16711695  0.33336349  0.00041989  1
  Mn3.30+  Mn75  1  0.16115744  0.33152425  0.50034599  1
  Mn3.30+  Mn76  1  0.16853094  0.66719801  -0.00016816  1
  Mn3.30+  Mn77  1  0.16482926  0.66645072  0.50124373  1
  Mn3.30+  Mn78  1  0.49820692  -0.00128912  -0.00029837  1
  Mn3.30+  Mn79  1  0.49934742  -0.00302164  0.50164212  1
  Mn3.30+  Mn80  1  0.49924032  0.33272717  0.00047736  1
  Mn3.30+  Mn81  1  0.49953372  0.33206953  0.50111626  1
  Mn3.30+  Mn82  1  0.49930341  0.66811998  0.00077088  1
  Mn3.30+  Mn83  1  0.50281212  0.66927953  0.49991684  1
  Mn3.30+  Mn84  1  0.83277663  0.00043925  0.00065375  1
  Mn3.30+  Mn85  1  0.83349031  0.00104975  0.50000995  1
  Mn3.30+  Mn86  1  0.83286774  0.33421297  0.00092430  1
  Mn3.30+  Mn87  1  0.83639180  0.33394961  0.49821075  1
  Mn3.30+  Mn88  1  0.83358620  0.66606371  0.00041463  1
  Mn3.30+  Mn89  1  0.83513396  0.66538215  0.49974119  1
  Mn3.30+  Mn90  1  0.00309271  0.16861386  0.24992713  1
  Mn3.30+  Mn91  1  -0.00157706  0.16884429  0.74923450  1
  Mn3.30+  Mn92  1  -0.00019621  0.49977409  0.25366055  1
  Mn3.30+  Mn93  1  -0.00129708  0.50087392  0.74791976  1
  Mn3.30+  Mn94  1  0.00175444  0.83260639  0.25098947  1
  Mn3.30+  Mn95  1  0.00033759  0.83304639  0.74840326  1
  Mn3.30+  Mn96  1  0.33051601  0.16648487  0.25017256  1
  Mn3.30+  Mn97  1  0.33279246  0.16407040  0.74838634  1
  Mn3.30+  Mn98  1  0.33188919  0.49993247  0.25033662  1
  Mn3.30+  Mn99  1  0.33338896  0.50107602  0.74803955  1
  Mn3.30+  Mn100  1  0.33532396  0.83238487  0.25216445  1
  Mn3.30+  Mn101  1  0.33653923  0.83515188  0.74720312  1
  Mn3.30+  Mn102  1  0.66483907  0.16676114  0.25073308  1
  Mn3.30+  Mn103  1  0.66790614  0.16481868  0.74675126  1
  Mn3.30+  Mn104  1  0.66823013  0.49949004  0.25256950  1
  Mn3.30+  Mn105  1  0.66676679  0.50084411  0.74766715  1
  Mn3.30+  Mn106  1  0.66582960  0.83259003  0.25168109  1
  Mn3.30+  Mn107  1  0.66358623  0.83253341  0.74903083  1
  Mn3.30+  Mn108  1  0.16815300  0.00142038  0.25033982  1
  Mn3.30+  Mn109  1  0.16830922  -0.00065805  0.74866222  1
  Mn3.30+  Mn110  1  0.16474469  0.33135682  0.25191189  1
  Mn3.30+  Mn111  1  0.16381495  0.33345163  0.74706441  1
  Mn3.30+  Mn112  1  0.16712962  0.66623748  0.25180492  1
  Mn3.30+  Mn113  1  0.16633356  0.66750081  0.74669609  1
  Mn3.30+  Mn114  1  0.49861066  0.00018938  0.25039039  1
  Mn3.30+  Mn115  1  0.49917065  -0.00373497  0.74835306  1
  Mn3.30+  Mn116  1  0.49853310  0.33165721  0.24961422  1
  Mn3.30+  Mn117  1  0.50020090  0.33298816  0.74902849  1
  Mn3.30+  Mn118  1  0.49949464  0.66805869  0.25159546  1
  Mn3.30+  Mn119  1  0.50273195  0.66939005  0.74820186  1
  Mn3.30+  Mn120  1  0.83358492  0.00086477  0.25000770  1
  Mn3.30+  Mn121  1  0.83250169  0.00104483  0.74934002  1
  Mn3.30+  Mn122  1  0.83425644  0.33403439  0.25275941  1
  Mn3.30+  Mn123  1  0.83499803  0.33384207  0.74732688  1
  Mn3.30+  Mn124  1  0.83579407  0.66498566  0.25345213  1
  Mn3.30+  Mn125  1  0.83275129  0.66641199  0.74676175  1
  Mn3.30+  Mn126  1  0.00116103  0.16835589  0.00137417  1
  Mn3.30+  Mn127  1  0.00026900  0.16881948  0.49904860  1
  Mn3.30+  Mn128  1  0.00086633  0.50073422  0.00070784  1
  Mn3.30+  Mn129  1  -0.00226253  0.49954493  0.49813300  1
  Mn3.30+  Mn130  1  0.00187659  0.83313684  0.00042215  1
  Mn3.30+  Mn131  1  0.00027780  0.83241781  0.50038683  1
  Mn3.30+  Mn132  1  0.33275617  0.16682058  0.00165600  1
  Mn3.30+  Mn133  1  0.33054530  0.16421098  0.49979799  1
  Mn3.30+  Mn134  1  0.33275576  0.50126750  0.00027306  1
  Mn3.30+  Mn135  1  0.33232470  0.49980987  0.50082122  1
  Mn3.30+  Mn136  1  0.33643837  0.83243724  -0.00099315  1
  Mn3.30+  Mn137  1  0.33558732  0.83503787  0.50183056  1
  Mn3.30+  Mn138  1  0.66523059  0.16671663  0.00016298  1
  Mn3.30+  Mn139  1  0.66732367  0.16502374  0.50272292  1
  Mn3.30+  Mn140  1  0.66541078  0.50081769  -0.00034694  1
  Mn3.30+  Mn141  1  0.66984139  0.49938728  0.50075153  1
  Mn3.30+  Mn142  1  0.66505234  0.83343372  -0.00082505  1
  Mn3.30+  Mn143  1  0.66383777  0.83162665  0.50016359  1
  O2-  O144  1  0.02951355  0.16317460  0.12474885  1
  O2-  O145  1  0.02454220  0.16069895  0.62420831  1
  O2-  O146  1  0.02706847  0.49325310  0.12769611  1
  O2-  O147  1  0.02150896  0.48845537  0.62332358  1
  O2-  O148  1  0.02833401  0.82651189  0.12764309  1
  O2-  O149  1  0.01675419  0.82956007  0.62426819  1
  O2-  O150  1  0.35858641  0.16309462  0.12708891  1
  O2-  O151  1  0.35676928  0.16245316  0.62449151  1
  O2-  O152  1  0.35747381  0.49461999  0.12723591  1
  O2-  O153  1  0.36192778  0.49260907  0.62481092  1
  O2-  O154  1  0.35608079  0.82602230  0.12753922  1
  O2-  O155  1  0.36283561  0.82679739  0.62292544  1
  O2-  O156  1  0.69157618  0.16372058  0.12678819  1
  O2-  O157  1  0.69424444  0.16380420  0.62397756  1
  O2-  O158  1  0.69093294  0.49447699  0.12805665  1
  O2-  O159  1  0.69251663  0.49381323  0.62454961  1
  O2-  O160  1  0.69268859  0.82751254  0.12736992  1
  O2-  O161  1  0.69244137  0.82892498  0.62233832  1
  O2-  O162  1  0.14265760  0.32846727  0.12765280  1
  O2-  O163  1  0.13546518  0.32438006  0.62443549  1
  O2-  O164  1  0.14244284  0.66465857  0.12802554  1
  O2-  O165  1  0.13902600  0.66115057  0.62393782  1
  O2-  O166  1  0.14299733  0.98869846  0.12509874  1
  O2-  O167  1  0.13899790  1.00070405  0.62657795  1
  O2-  O168  1  0.48167997  0.32763816  0.12512930  1
  O2-  O169  1  0.47350454  0.32600976  0.62445434  1
  O2-  O170  1  0.47371601  0.66003975  0.12841989  1
  O2-  O171  1  0.47543818  0.65764549  0.62357874  1
  O2-  O172  1  0.47313220  0.99082706  0.12660327  1
  O2-  O173  1  0.47373477  0.99418026  0.62312045  1
  O2-  O174  1  0.80518063  0.32844881  0.12669912  1
  O2-  O175  1  0.81684505  0.33007597  0.62457842  1
  O2-  O176  1  0.80847299  0.66036033  0.12803838  1
  O2-  O177  1  0.80456828  0.66136128  0.62326133  1
  O2-  O178  1  0.80640365  0.99518757  0.12657994  1
  O2-  O179  1  0.81621428  0.99119394  0.62369025  1
  O2-  O180  1  0.30546303  0.16992191  0.37540068  1
  O2-  O181  1  0.30960290  0.17106331  0.87345646  1
  O2-  O182  1  0.30670707  0.50688684  0.37570348  1
  O2-  O183  1  0.30740403  0.50941832  0.87195258  1
  O2-  O184  1  0.30695362  0.83816777  0.37664767  1
  O2-  O185  1  0.31062961  0.82986069  0.87247063  1
  O2-  O186  1  0.64185160  0.17146835  0.37608107  1
  O2-  O187  1  0.64316249  0.17195403  0.87349591  1
  O2-  O188  1  0.64089131  0.50426111  0.37523864  1
  O2-  O189  1  0.64058629  0.50876622  0.87224296  1
  O2-  O190  1  0.64000103  0.83765678  0.37333025  1
  O2-  O191  1  0.64137152  0.82903866  0.87689828  1
  O2-  O192  1  0.97510118  0.16791837  0.37380599  1
  O2-  O193  1  0.97241384  0.17336255  0.87700123  1
  O2-  O194  1  0.97414353  0.51145260  0.37445105  1
  O2-  O195  1  0.97596147  0.50281083  0.87444158  1
  O2-  O196  1  0.97602485  0.84271002  0.37354705  1
  O2-  O197  1  0.97436387  0.83904559  0.87492123  1
  O2-  O198  1  0.19082703  0.00763912  0.37435048  1
  O2-  O199  1  0.18741851  0.00597658  0.87454202  1
  O2-  O200  1  0.19097593  0.34036316  0.37673800  1
  O2-  O201  1  0.19076994  0.34148718  0.87079263  1
  O2-  O202  1  0.19230552  0.66865582  0.37627569  1
  O2-  O203  1  0.19196948  0.66951374  0.87104634  1
  O2-  O204  1  0.52477251  0.00977105  0.37351000  1
  O2-  O205  1  0.51757101  0.00753931  0.87639364  1
  O2-  O206  1  0.52400426  0.33615225  0.37625315  1
  O2-  O207  1  0.52501646  0.33928014  0.87470987  1
  O2-  O208  1  0.52762063  0.67318849  0.37526171  1
  O2-  O209  1  0.52535739  0.67257443  0.87334038  1
  O2-  O210  1  0.86019064  0.00652599  0.37296921  1
  O2-  O211  1  0.85916908  0.00559005  0.87676875  1
  O2-  O212  1  0.86137550  0.33647944  0.37312839  1
  O2-  O213  1  0.85784061  0.34008061  0.87485817  1
  O2-  O214  1  0.86268883  0.67553937  0.37465929  1
  O2-  O215  1  0.85110659  0.67110287  0.87369479  1
  O2-  O216  1  0.23659149  0.09532703  0.02178110  1
  O2-  O217  1  0.23816148  0.09393774  0.52121921  1
  O2-  O218  1  0.23601139  0.43170146  0.01506927  1
  O2-  O219  1  0.23434295  0.42446279  0.52252219  1
  O2-  O220  1  0.23875934  0.76310363  0.01507791  1
  O2-  O221  1  0.24257485  0.76005277  0.51728797  1
  O2-  O222  1  0.57022092  0.09410475  0.02122449  1
  O2-  O223  1  0.56879617  0.09345871  0.51809969  1
  O2-  O224  1  0.57080987  0.42978613  0.02014883  1
  O2-  O225  1  0.57008518  0.42936310  0.51591373  1
  O2-  O226  1  0.57402008  0.75920630  0.02604804  1
  O2-  O227  1  0.57076887  0.76266990  0.52160093  1
  O2-  O228  1  0.90791699  0.09671439  0.02288326  1
  O2-  O229  1  0.90523668  0.09852035  0.51953452  1
  O2-  O230  1  0.90354637  0.42726209  0.02154901  1
  O2-  O231  1  0.90266604  0.43134007  0.51592373  1
  O2-  O232  1  0.90682832  0.76083597  0.02119590  1
  O2-  O233  1  0.90086147  0.76241344  0.51719822  1
  O2-  O234  1  0.26047289  0.26151805  0.23667843  1
  O2-  O235  1  0.25926978  0.26107741  0.72878049  1
  O2-  O236  1  0.26240212  0.59698195  0.22884297  1
  O2-  O237  1  0.26116908  0.59323105  0.72496240  1
  O2-  O238  1  0.26419327  0.92831472  0.23124573  1
  O2-  O239  1  0.26347182  0.92818067  0.72981026  1
  O2-  O240  1  0.59693953  0.26293293  0.23466529  1
  O2-  O241  1  0.59151752  0.25654882  0.73261298  1
  O2-  O242  1  0.59489102  0.59445509  0.23098257  1
  O2-  O243  1  0.59672823  0.59633113  0.72734467  1
  O2-  O244  1  0.59511767  0.92973873  0.22951096  1
  O2-  O245  1  0.59351394  0.92490091  0.73322677  1
  O2-  O246  1  0.92613606  0.26005826  0.22607870  1
  O2-  O247  1  0.93304907  0.26577389  0.73350179  1
  O2-  O248  1  0.92866200  0.59302751  0.22582904  1
  O2-  O249  1  0.92739368  0.59488746  0.72520162  1
  O2-  O250  1  0.92828938  0.92824014  0.22732185  1
  O2-  O251  1  0.92816041  0.92960018  0.73307930  1
  O2-  O252  1  0.09466371  0.23761600  0.27208185  1
  O2-  O253  1  0.09511876  0.23802030  0.77319114  1
  O2-  O254  1  0.09779929  0.56866947  0.26681533  1
  O2-  O255  1  0.09614405  0.56929778  0.76447804  1
  O2-  O256  1  0.09771614  0.90565021  0.27161425  1
  O2-  O257  1  0.09417379  0.90907567  0.77181948  1
  O2-  O258  1  0.42460568  0.23843739  0.27315726  1
  O2-  O259  1  0.42478018  0.23923319  0.77055478  1
  O2-  O260  1  0.43003891  0.57290134  0.27297054  1
  O2-  O261  1  0.43060732  0.57422697  0.76951242  1
  O2-  O262  1  0.42977648  0.90387588  0.27249819  1
  O2-  O263  1  0.43102941  0.90189791  0.76896615  1
  O2-  O264  1  0.76289809  0.23913162  0.27172021  1
  O2-  O265  1  0.76111332  0.24248786  0.77070677  1
  O2-  O266  1  0.76436114  0.57096411  0.27270772  1
  O2-  O267  1  0.76162509  0.57190007  0.77035270  1
  O2-  O268  1  0.76085979  0.90431820  0.27144680  1
  O2-  O269  1  0.76185710  0.90218039  0.76708357  1
  O2-  O270  1  0.06868656  0.07094064  0.48382230  1
  O2-  O271  1  0.06954908  0.07303587  0.98013804  1
  O2-  O272  1  0.06942209  0.40476821  0.47575849  1
  O2-  O273  1  0.07086356  0.40584193  0.98092571  1
  O2-  O274  1  0.07244685  0.74017351  0.47774350  1
  O2-  O275  1  0.07558632  0.74088957  0.98176322  1
  O2-  O276  1  0.40626909  0.07340331  0.47818984  1
  O2-  O277  1  0.40518829  0.07239948  0.98525791  1
  O2-  O278  1  0.40317697  0.40527592  0.47932551  1
  O2-  O279  1  0.40510325  0.40795794  0.97605769  1
  O2-  O280  1  0.40442116  0.73667264  0.48129410  1
  O2-  O281  1  0.40525895  0.73708575  0.98207670  1
  O2-  O282  1  0.74050984  0.07283222  0.47574721  1
  O2-  O283  1  0.74006342  0.07568280  0.98378859  1
  O2-  O284  1  0.73990165  0.40471771  0.47861054  1
  O2-  O285  1  0.73588480  0.40677178  0.97929380  1
  O2-  O286  1  0.73945390  0.73915462  0.47639004  1
  O2-  O287  1  0.73736433  0.73848902  0.98303336  1
  O2-  O288  1  0.09790080  0.23371063  0.47923023  1
  O2-  O289  1  0.09217880  0.24101005  0.97585234  1
  O2-  O290  1  0.09482050  0.56751512  0.48349273  1
  O2-  O291  1  0.09876457  0.57119723  0.98488898  1
  O2-  O292  1  0.09604407  0.90841841  0.47872105  1
  O2-  O293  1  0.09564758  0.90566454  0.97869299  1
  O2-  O294  1  0.42307344  0.23773689  0.47981418  1
  O2-  O295  1  0.42709710  0.24034488  0.97756597  1
  O2-  O296  1  0.43154564  0.57427522  0.47894378  1
  O2-  O297  1  0.42896175  0.57198550  0.97934884  1
  O2-  O298  1  0.42795386  0.90593620  0.47374334  1
  O2-  O299  1  0.43257640  0.89900049  0.98398853  1
  O2-  O300  1  0.76135749  0.24200526  0.47821970  1
  O2-  O301  1  0.76323641  0.24042328  0.97944613  1
  O2-  O302  1  0.76581995  0.57179602  0.47613530  1
  O2-  O303  1  0.75984878  0.57147826  0.98161866  1
  O2-  O304  1  0.76008779  0.90465865  0.47806833  1
  O2-  O305  1  0.76205840  0.90098115  0.98334654  1
  O2-  O306  1  0.06962238  0.06904879  0.26562522  1
  O2-  O307  1  0.06949516  0.07434657  0.77083503  1
  O2-  O308  1  0.06819065  0.40294478  0.27277517  1
  O2-  O309  1  0.07250419  0.40760153  0.77171823  1
  O2-  O310  1  0.07185192  0.73560421  0.27363092  1
  O2-  O311  1  0.07797978  0.74456399  0.76855745  1
  O2-  O312  1  0.40231191  0.07144948  0.27081370  1
  O2-  O313  1  0.40936320  0.07538217  0.76524271  1
  O2-  O314  1  0.40570926  0.40617192  0.27396389  1
  O2-  O315  1  0.40346993  0.40636683  0.77070562  1
  O2-  O316  1  0.40547310  0.73862985  0.27255682  1
  O2-  O317  1  0.40533064  0.73560849  0.76532879  1
  O2-  O318  1  0.73732297  0.07238628  0.27054503  1
  O2-  O319  1  0.74269015  0.07464573  0.77067797  1
  O2-  O320  1  0.73716039  0.40251738  0.26946596  1
  O2-  O321  1  0.73901269  0.40783234  0.77295396  1
  O2-  O322  1  0.74033487  0.73690467  0.27155504  1
  O2-  O323  1  0.73818846  0.73975370  0.76891172  1
  O2-  O324  1  0.23822875  0.09408409  0.22487104  1
  O2-  O325  1  0.23562320  0.09650201  0.73321799  1
  O2-  O326  1  0.23310661  0.42935875  0.23491346  1
  O2-  O327  1  0.23682900  0.42589167  0.72586459  1
  O2-  O328  1  0.23656750  0.76365343  0.23616926  1
  O2-  O329  1  0.24426756  0.75880668  0.72985396  1
  O2-  O330  1  0.56855247  0.09558118  0.22758576  1
  O2-  O331  1  0.57063363  0.09312508  0.73273005  1
  O2-  O332  1  0.57082928  0.42861306  0.23150850  1
  O2-  O333  1  0.57016764  0.43111152  0.73274063  1
  O2-  O334  1  0.57370226  0.75882606  0.22666890  1
  O2-  O335  1  0.57144573  0.76104105  0.72681924  1
  O2-  O336  1  0.90703534  0.09662735  0.22781104  1
  O2-  O337  1  0.90521036  0.09856221  0.72995417  1
  O2-  O338  1  0.90543462  0.42692736  0.22711123  1
  O2-  O339  1  0.90154394  0.43231811  0.73425079  1
  O2-  O340  1  0.90499608  0.76081457  0.22802459  1
  O2-  O341  1  0.90184199  0.76141900  0.73315299  1
  O2-  O342  1  0.25910291  0.26152452  0.01189590  1
  O2-  O343  1  0.26005012  0.26098936  0.52118600  1
  O2-  O344  1  0.26321152  0.59696909  0.02162255  1
  O2-  O345  1  0.26116736  0.59290160  0.52219113  1
  O2-  O346  1  0.26380925  0.92527184  0.02057225  1
  O2-  O347  1  0.26587717  0.93100071  0.51732738  1
  O2-  O348  1  0.59797496  0.26293544  0.01559076  1
  O2-  O349  1  0.59039486  0.25552496  0.51795350  1
  O2-  O350  1  0.59394510  0.59475421  0.02132645  1
  O2-  O351  1  0.59794039  0.59627885  0.51913094  1
  O2-  O352  1  0.59428574  0.92688968  0.02383172  1
  O2-  O353  1  0.59538328  0.92810783  0.51272144  1
  O2-  O354  1  0.92946240  0.26171035  0.02272801  1
  O2-  O355  1  0.93063347  0.26287837  0.51637761  1
  O2-  O356  1  0.92822938  0.59165532  0.02343907  1
  O2-  O357  1  0.92924690  0.59575862  0.52472382  1
  O2-  O358  1  0.92968173  0.92779059  0.02234869  1
  O2-  O359  1  0.92828684  0.92864198  0.51665769  1
