# generated using pymatgen
data_Sr7Ca15Pr50Mn72O216
_symmetry_space_group_name_H-M   'P 1'
_cell_length_a   16.55456688
_cell_length_b   16.60207359
_cell_length_c   15.58944437
_cell_angle_alpha   90.00403940
_cell_angle_beta   90.00172574
_cell_angle_gamma   90.00325417
_symmetry_Int_Tables_number   1
_chemical_formula_structural   Sr7Ca15Pr50Mn72O216
_chemical_formula_sum   'Sr7 Ca15 Pr50 Mn72 O216'
_cell_volume   4284.60501704
_cell_formula_units_Z   1
loop_
 _symmetry_equiv_pos_site_id
 _symmetry_equiv_pos_as_xyz
  1  'x, y, z'
loop_
 _atom_type_symbol
 _atom_type_oxidation_number
  Sr2+  2.0
  Ca2+  2.0
  Pr3+  3.0
  Mn3.30+  3.3
  O2-  -2.0
loop_
 _atom_site_type_symbol
 _atom_site_label
 _atom_site_symmetry_multiplicity
 _atom_site_fract_x
 _atom_site_fract_y
 _atom_site_fract_z
 _atom_site_occupancy
  Sr2+  Sr0  1  0.66884460  0.32106165  0.37510921  1
  Sr2+  Sr1  1  0.00024091  0.67349166  0.62463845  1
  Sr2+  Sr2  1  0.33442467  0.32410025  0.87425059  1
  Sr2+  Sr3  1  0.83265956  0.15605589  0.87569745  1
  Sr2+  Sr4  1  0.49835987  0.84291008  0.12539187  1
  Sr2+  Sr5  1  0.33093301  0.01069772  0.12293613  1
  Sr2+  Sr6  1  1.00113522  0.32130155  0.37520267  1
  Ca2+  Ca7  1  0.16992590  0.51370884  0.62367913  1
  Ca2+  Ca8  1  0.83706679  0.84811946  0.12340205  1
  Ca2+  Ca9  1  0.49952699  0.51185550  0.62444230  1
  Ca2+  Ca10  1  0.83734923  0.51245102  0.12689702  1
  Ca2+  Ca11  1  0.32923605  0.35219737  0.62444733  1
  Ca2+  Ca12  1  0.33683567  0.98625375  0.87605335  1
  Ca2+  Ca13  1  0.49737033  0.15130572  0.37476385  1
  Ca2+  Ca14  1  0.82946869  0.81870664  0.87570740  1
  Ca2+  Ca15  1  0.17294310  0.51716441  0.12598746  1
  Ca2+  Ca16  1  0.83157877  0.15306213  0.37474016  1
  Ca2+  Ca17  1  -0.00399021  0.01430970  0.62504393  1
  Ca2+  Ca18  1  0.50327884  0.84756977  0.62477604  1
  Ca2+  Ca19  1  0.32919731  0.68115081  0.12613144  1
  Ca2+  Ca20  1  0.33601632  0.65126093  0.37319242  1
  Ca2+  Ca21  1  0.17141005  0.17995705  0.12563927  1
  Pr3+  Pr22  1  0.33681267  0.98962343  0.37484846  1
  Pr3+  Pr23  1  0.16470210  0.48728189  0.37553744  1
  Pr3+  Pr24  1  0.83600470  0.17746048  0.12612119  1
  Pr3+  Pr25  1  0.66874227  0.65659249  0.87603694  1
  Pr3+  Pr26  1  0.66329926  0.01074382  0.12484132  1
  Pr3+  Pr27  1  0.83686564  0.17763690  0.62404805  1
  Pr3+  Pr28  1  0.33925683  0.31762057  0.37632452  1
  Pr3+  Pr29  1  0.66752319  0.99134811  0.37487002  1
  Pr3+  Pr30  1  0.50243676  0.18066107  0.62320816  1
  Pr3+  Pr31  1  0.16523110  0.15359900  0.87571548  1
  Pr3+  Pr32  1  0.83023477  0.82132973  0.37361485  1
  Pr3+  Pr33  1  0.50115272  0.17562272  0.12681174  1
  Pr3+  Pr34  1  1.00161564  0.98982148  0.37697845  1
  Pr3+  Pr35  1  0.32768571  0.34516741  0.12559115  1
  Pr3+  Pr36  1  0.67269966  0.98397444  0.87480947  1
  Pr3+  Pr37  1  0.83909830  0.84675900  0.62614212  1
  Pr3+  Pr38  1  0.33300181  0.01143146  0.62746418  1
  Pr3+  Pr39  1  0.17206604  0.84497832  0.12431367  1
  Pr3+  Pr40  1  0.16526688  0.82076027  0.37429539  1
  Pr3+  Pr41  1  0.83184573  0.48888718  0.87586827  1
  Pr3+  Pr42  1  1.00044720  0.98620346  0.87327560  1
  Pr3+  Pr43  1  0.17006591  0.18166959  0.62443050  1
  Pr3+  Pr44  1  -0.00316331  0.68023568  0.12559524  1
  Pr3+  Pr45  1  0.49539194  0.48809823  0.37566553  1
  Pr3+  Pr46  1  1.00347497  0.65418862  0.37519051  1
  Pr3+  Pr47  1  0.66708760  0.65388224  0.37290256  1
  Pr3+  Pr48  1  0.49442189  0.81856292  0.37569778  1
  Pr3+  Pr49  1  0.16642083  0.82196034  0.87571368  1
  Pr3+  Pr50  1  -0.00155462  0.34609651  0.62380278  1
  Pr3+  Pr51  1  0.66824129  0.32049141  0.87462137  1
  Pr3+  Pr52  1  0.49485165  0.48656170  0.87434306  1
  Pr3+  Pr53  1  0.49406704  0.15159584  0.87461406  1
  Pr3+  Pr54  1  0.66468764  0.34454843  0.12519830  1
  Pr3+  Pr55  1  0.66266489  0.34901407  0.62406364  1
  Pr3+  Pr56  1  0.83623175  0.51252951  0.62342429  1
  Pr3+  Pr57  1  0.65986844  0.68048855  0.62386785  1
  Pr3+  Pr58  1  0.33029442  0.67666148  0.62401232  1
  Pr3+  Pr59  1  0.66559216  0.68063873  0.12564784  1
  Pr3+  Pr60  1  1.00501779  0.31942222  0.87468757  1
  Pr3+  Pr61  1  0.16314776  0.15478961  0.37410422  1
  Pr3+  Pr62  1  0.66316150  0.01286996  0.62511180  1
  Pr3+  Pr63  1  1.00162443  0.65536116  0.87495021  1
  Pr3+  Pr64  1  0.49641126  0.82264486  0.87465459  1
  Pr3+  Pr65  1  0.83107033  0.48692682  0.37370149  1
  Pr3+  Pr66  1  0.16434589  0.48763606  0.87485600  1
  Pr3+  Pr67  1  0.33608945  0.65384536  0.87707214  1
  Pr3+  Pr68  1  -0.00018337  0.34697455  0.12627735  1
  Pr3+  Pr69  1  -0.00079300  0.01121995  0.12474158  1
  Pr3+  Pr70  1  0.16618886  0.84472309  0.62558854  1
  Pr3+  Pr71  1  0.50047796  0.51242803  0.12465978  1
  Mn3.30+  Mn72  1  0.16836955  0.00061122  -0.00196412  1
  Mn3.30+  Mn73  1  0.16632763  0.00049574  0.50291363  1
  Mn3.30+  Mn74  1  0.16714338  0.33292690  0.00133610  1
  Mn3.30+  Mn75  1  0.16919940  0.33511409  0.50090513  1
  Mn3.30+  Mn76  1  0.16757404  0.66566932  0.00148277  1
  Mn3.30+  Mn77  1  0.16873346  0.66610112  0.49963315  1
  Mn3.30+  Mn78  1  0.49892546  -0.00076810  -0.00020734  1
  Mn3.30+  Mn79  1  0.50014975  -0.00026055  0.50036060  1
  Mn3.30+  Mn80  1  0.49846566  0.33217355  0.00059935  1
  Mn3.30+  Mn81  1  0.49866840  0.33374295  0.50058737  1
  Mn3.30+  Mn82  1  0.49952410  0.66779773  0.00177098  1
  Mn3.30+  Mn83  1  0.49695341  0.66533588  0.50022258  1
  Mn3.30+  Mn84  1  0.83324495  -0.00202396  -0.00017126  1
  Mn3.30+  Mn85  1  0.83422132  0.00078211  0.49999015  1
  Mn3.30+  Mn86  1  0.83422946  0.33435969  0.00138674  1
  Mn3.30+  Mn87  1  0.83208301  0.33121735  0.49832270  1
  Mn3.30+  Mn88  1  0.83407392  0.66764218  0.00170281  1
  Mn3.30+  Mn89  1  0.83212773  0.66683055  0.49915995  1
  Mn3.30+  Mn90  1  0.00113406  0.16663367  0.24993496  1
  Mn3.30+  Mn91  1  0.00076781  0.16472707  0.74916884  1
  Mn3.30+  Mn92  1  0.00193301  0.50003579  0.24799094  1
  Mn3.30+  Mn93  1  0.00034554  0.50003123  0.74921928  1
  Mn3.30+  Mn94  1  -0.00078704  0.83430346  0.24938848  1
  Mn3.30+  Mn95  1  -0.00195823  0.83250983  0.75055190  1
  Mn3.30+  Mn96  1  0.33287196  0.16549721  0.24975233  1
  Mn3.30+  Mn97  1  0.33358202  0.16817016  0.74997458  1
  Mn3.30+  Mn98  1  0.33102213  0.50160506  0.24964331  1
  Mn3.30+  Mn99  1  0.33308487  0.49984492  0.74721001  1
  Mn3.30+  Mn100  1  0.33257671  0.83200173  0.25029804  1
  Mn3.30+  Mn101  1  0.33486646  0.83393196  0.74850647  1
  Mn3.30+  Mn102  1  0.66802651  0.16650222  0.25263699  1
  Mn3.30+  Mn103  1  0.66662336  0.16698292  0.74952778  1
  Mn3.30+  Mn104  1  0.66758923  0.49904260  0.24767057  1
  Mn3.30+  Mn105  1  0.66444391  0.50169340  0.75025358  1
  Mn3.30+  Mn106  1  0.66651473  0.83423605  0.24941668  1
  Mn3.30+  Mn107  1  0.66688268  0.83258984  0.74900424  1
  Mn3.30+  Mn108  1  0.16780644  0.00098385  0.24945206  1
  Mn3.30+  Mn109  1  0.16653436  0.00002830  0.74946982  1
  Mn3.30+  Mn110  1  0.16711851  0.33325333  0.24994912  1
  Mn3.30+  Mn111  1  0.16954069  0.33505184  0.74847928  1
  Mn3.30+  Mn112  1  0.16939220  0.66572882  0.25018965  1
  Mn3.30+  Mn113  1  0.16724596  0.66610815  0.74910304  1
  Mn3.30+  Mn114  1  0.49959396  0.00027704  0.24972478  1
  Mn3.30+  Mn115  1  0.49959761  -0.00155187  0.75015114  1
  Mn3.30+  Mn116  1  0.49928485  0.33123808  0.25163044  1
  Mn3.30+  Mn117  1  0.49747685  0.33486317  0.74701875  1
  Mn3.30+  Mn118  1  0.49683496  0.66635369  0.24879562  1
  Mn3.30+  Mn119  1  0.49924719  0.66669325  0.74863342  1
  Mn3.30+  Mn120  1  0.83359080  -0.00013404  0.24972048  1
  Mn3.30+  Mn121  1  0.83410108  -0.00087667  0.75054418  1
  Mn3.30+  Mn122  1  0.83344614  0.33231457  0.25019163  1
  Mn3.30+  Mn123  1  0.83283782  0.33296291  0.75000113  1
  Mn3.30+  Mn124  1  0.83416377  0.66651719  0.24806787  1
  Mn3.30+  Mn125  1  0.83224421  0.66765191  0.75037233  1
  Mn3.30+  Mn126  1  0.00225494  0.16578347  0.00138677  1
  Mn3.30+  Mn127  1  -0.00024710  0.16590439  0.49946960  1
  Mn3.30+  Mn128  1  0.00072243  0.50063815  0.00290531  1
  Mn3.30+  Mn129  1  0.00130665  0.49946287  0.49989016  1
  Mn3.30+  Mn130  1  -0.00246846  0.83309259  -0.00091276  1
  Mn3.30+  Mn131  1  -0.00052875  0.83342313  0.50131680  1
  Mn3.30+  Mn132  1  0.33173028  0.16648423  -0.00070969  1
  Mn3.30+  Mn133  1  0.33496168  0.16704905  0.50131534  1
  Mn3.30+  Mn134  1  0.33150835  0.50066970  0.00214878  1
  Mn3.30+  Mn135  1  0.33239411  0.50054909  0.50084636  1
  Mn3.30+  Mn136  1  0.33295462  0.83393678  -0.00027621  1
  Mn3.30+  Mn137  1  0.33446188  0.83236031  0.50147073  1
  Mn3.30+  Mn138  1  0.66683951  0.16598467  -0.00054695  1
  Mn3.30+  Mn139  1  0.66751546  0.16718186  0.49768452  1
  Mn3.30+  Mn140  1  0.66764358  0.50053726  0.00132575  1
  Mn3.30+  Mn141  1  0.66439080  0.50068257  0.49995305  1
  Mn3.30+  Mn142  1  0.66873016  0.83314754  0.00140766  1
  Mn3.30+  Mn143  1  0.66495197  0.83389322  0.49965167  1
  O2-  O144  1  0.02911718  0.15851201  0.12420304  1
  O2-  O145  1  0.02544146  0.16106206  0.62612548  1
  O2-  O146  1  0.03023682  0.49609911  0.12594725  1
  O2-  O147  1  0.02462841  0.49488873  0.62535142  1
  O2-  O148  1  0.02763053  0.82965607  0.12475684  1
  O2-  O149  1  0.02285047  0.82726005  0.62616664  1
  O2-  O150  1  0.35725307  0.16673844  0.12547267  1
  O2-  O151  1  0.35967170  0.15767662  0.62586469  1
  O2-  O152  1  0.35805405  0.49194362  0.12545238  1
  O2-  O153  1  0.35863008  0.49802152  0.62469196  1
  O2-  O154  1  0.34850441  0.82701606  0.12590786  1
  O2-  O155  1  0.36169274  0.82521363  0.62425855  1
  O2-  O156  1  0.69102337  0.15997757  0.12590736  1
  O2-  O157  1  0.69191609  0.16173340  0.62492547  1
  O2-  O158  1  0.69525795  0.49275995  0.12348481  1
  O2-  O159  1  0.69276887  0.49810321  0.62662523  1
  O2-  O160  1  0.69460644  0.82920055  0.12634559  1
  O2-  O161  1  0.69400606  0.82756320  0.62319867  1
  O2-  O162  1  0.14351507  0.32375729  0.12447945  1
  O2-  O163  1  0.14124559  0.32821088  0.62422319  1
  O2-  O164  1  0.14063408  0.66434085  0.12525229  1
  O2-  O165  1  0.14950714  0.66206034  0.62482282  1
  O2-  O166  1  0.14247780  0.99134611  0.12207533  1
  O2-  O167  1  0.13784388  0.99334823  0.62596158  1
  O2-  O168  1  0.47324921  0.32529731  0.12835031  1
  O2-  O169  1  0.47156404  0.32634709  0.62368828  1
  O2-  O170  1  0.47221346  0.66080723  0.12571413  1
  O2-  O171  1  0.47383138  0.65652335  0.62495282  1
  O2-  O172  1  0.48200815  1.00201309  0.12407051  1
  O2-  O173  1  0.47724297  0.99399915  0.62573113  1
  O2-  O174  1  0.80819909  0.32505542  0.12540164  1
  O2-  O175  1  0.80779493  0.32714042  0.62390116  1
  O2-  O176  1  0.80881673  0.65642785  0.12507618  1
  O2-  O177  1  0.80507398  0.65946139  0.62209183  1
  O2-  O178  1  0.80799003  0.99342630  0.12348557  1
  O2-  O179  1  0.80696045  0.99333799  0.62508643  1
  O2-  O180  1  0.30709262  0.16912482  0.37770885  1
  O2-  O181  1  0.30837470  0.17235333  0.87200773  1
  O2-  O182  1  0.30785010  0.50582076  0.37390165  1
  O2-  O183  1  0.30895742  0.50518577  0.87680138  1
  O2-  O184  1  0.30813309  0.84258235  0.37797690  1
  O2-  O185  1  0.31064213  0.83800890  0.87220995  1
  O2-  O186  1  0.64010000  0.16414153  0.37602316  1
  O2-  O187  1  0.64003257  0.17252320  0.87306655  1
  O2-  O188  1  0.64029584  0.50539008  0.37238506  1
  O2-  O189  1  0.63865246  0.50690340  0.87632225  1
  O2-  O190  1  0.63977253  0.83938387  0.37501933  1
  O2-  O191  1  0.64116398  0.83488139  0.87498112  1
  O2-  O192  1  0.97522095  0.16492567  0.37435526  1
  O2-  O193  1  0.98154970  0.17222607  0.87484919  1
  O2-  O194  1  0.97607186  0.50546664  0.37302611  1
  O2-  O195  1  0.97601775  0.50435395  0.87585809  1
  O2-  O196  1  0.97450680  0.83964701  0.37481493  1
  O2-  O197  1  0.97086631  0.83790580  0.87475312  1
  O2-  O198  1  0.19243845  0.00637555  0.37919866  1
  O2-  O199  1  0.19445506  0.00518281  0.87281288  1
  O2-  O200  1  0.19422747  0.33930620  0.37753510  1
  O2-  O201  1  0.18506374  0.34042151  0.87454819  1
  O2-  O202  1  0.19372110  0.67327566  0.37530857  1
  O2-  O203  1  0.19172248  0.67222913  0.87506840  1
  O2-  O204  1  0.52247075  0.00447481  0.37611899  1
  O2-  O205  1  0.52710056  0.00354690  0.87438776  1
  O2-  O206  1  0.51954087  0.34216538  0.37517601  1
  O2-  O207  1  0.52433359  0.33936149  0.87271656  1
  O2-  O208  1  0.52377350  0.66952139  0.37371613  1
  O2-  O209  1  0.52458324  0.67339930  0.87516079  1
  O2-  O210  1  0.85829490  0.00586517  0.37581154  1
  O2-  O211  1  0.85736764  0.00386413  0.87572588  1
  O2-  O212  1  0.85293411  0.34125948  0.37426722  1
  O2-  O213  1  0.85995421  0.34082558  0.87668304  1
  O2-  O214  1  0.85856170  0.67308647  0.37365827  1
  O2-  O215  1  0.85735896  0.67267229  0.87856597  1
  O2-  O216  1  0.23492918  0.09953022  0.01631352  1
  O2-  O217  1  0.23876177  0.09450015  0.52329608  1
  O2-  O218  1  0.23579240  0.42924852  0.02108883  1
  O2-  O219  1  0.23703306  0.43254974  0.51958528  1
  O2-  O220  1  0.23430643  0.76147752  0.01484938  1
  O2-  O221  1  0.23860770  0.76264705  0.52148340  1
  O2-  O222  1  0.57121267  0.09466588  0.01800069  1
  O2-  O223  1  0.57407765  0.09415486  0.52200165  1
  O2-  O224  1  0.57350069  0.42665551  0.02137487  1
  O2-  O225  1  0.57152095  0.42969000  0.52231353  1
  O2-  O226  1  0.57618784  0.75875842  0.01947084  1
  O2-  O227  1  0.56758242  0.76120131  0.52017436  1
  O2-  O228  1  0.90752050  0.09252445  0.02218676  1
  O2-  O229  1  0.90443226  0.09265424  0.52144484  1
  O2-  O230  1  0.90486475  0.42888355  0.02368371  1
  O2-  O231  1  0.90560986  0.42508040  0.51982333  1
  O2-  O232  1  0.90602881  0.76088409  0.02581250  1
  O2-  O233  1  0.90000906  0.76154299  0.51605402  1
  O2-  O234  1  0.26524318  0.26438233  0.23616971  1
  O2-  O235  1  0.26166579  0.26309264  0.72514424  1
  O2-  O236  1  0.26358222  0.59732105  0.22845120  1
  O2-  O237  1  0.26556501  0.59622270  0.73484652  1
  O2-  O238  1  0.25824874  0.92685240  0.23445557  1
  O2-  O239  1  0.25890801  0.92554341  0.72567250  1
  O2-  O240  1  0.59582654  0.25860394  0.22779432  1
  O2-  O241  1  0.59331339  0.26466625  0.72818855  1
  O2-  O242  1  0.59543420  0.59221978  0.22698440  1
  O2-  O243  1  0.59599485  0.59790548  0.73266960  1
  O2-  O244  1  0.59701897  0.92825392  0.23341538  1
  O2-  O245  1  0.59910831  0.92824816  0.73283102  1
  O2-  O246  1  0.92930654  0.25875037  0.22570821  1
  O2-  O247  1  0.93023924  0.25931802  0.72980504  1
  O2-  O248  1  0.93194257  0.59600708  0.23225496  1
  O2-  O249  1  0.92340220  0.59095783  0.73351844  1
  O2-  O250  1  0.92985219  0.92915404  0.23185499  1
  O2-  O251  1  0.92951746  0.92934865  0.72836386  1
  O2-  O252  1  0.09536930  0.23693677  0.26949439  1
  O2-  O253  1  0.09682478  0.23895331  0.76759199  1
  O2-  O254  1  0.09610531  0.57509371  0.27346754  1
  O2-  O255  1  0.09232918  0.57428188  0.77228995  1
  O2-  O256  1  0.09359499  0.90563994  0.27119572  1
  O2-  O257  1  0.09424747  0.90545007  0.77252514  1
  O2-  O258  1  0.42880998  0.23593721  0.27292270  1
  O2-  O259  1  0.43177847  0.23524068  0.76670815  1
  O2-  O260  1  0.42968150  0.56755237  0.26718089  1
  O2-  O261  1  0.42739686  0.57378929  0.77353986  1
  O2-  O262  1  0.42561600  0.90593662  0.27131267  1
  O2-  O263  1  0.42827049  0.90409064  0.76824874  1
  O2-  O264  1  0.76390502  0.23328666  0.26748974  1
  O2-  O265  1  0.75867880  0.24190995  0.76871561  1
  O2-  O266  1  0.75979200  0.57320508  0.27234905  1
  O2-  O267  1  0.76045261  0.57248055  0.77237552  1
  O2-  O268  1  0.75966044  0.90735228  0.27353965  1
  O2-  O269  1  0.76421786  0.90266195  0.77047410  1
  O2-  O270  1  0.07400359  0.07364737  0.47894360  1
  O2-  O271  1  0.07227645  0.06989938  0.97728987  1
  O2-  O272  1  0.07499458  0.40689948  0.48162461  1
  O2-  O273  1  0.07039300  0.40429997  0.98131114  1
  O2-  O274  1  0.07472102  0.74088921  0.47792757  1
  O2-  O275  1  0.07046087  0.73913208  0.97931885  1
  O2-  O276  1  0.40301364  0.06943877  0.48453638  1
  O2-  O277  1  0.40491560  0.07280368  0.97672977  1
  O2-  O278  1  0.40291920  0.40700012  0.47880803  1
  O2-  O279  1  0.40854368  0.40785225  0.98438593  1
  O2-  O280  1  0.40372565  0.73538897  0.47700911  1
  O2-  O281  1  0.40680340  0.74234359  0.97832784  1
  O2-  O282  1  0.73725832  0.06977492  0.48373983  1
  O2-  O283  1  0.73704136  0.06927343  0.98322045  1
  O2-  O284  1  0.74028592  0.40833806  0.48490402  1
  O2-  O285  1  0.73744108  0.40727726  0.97706783  1
  O2-  O286  1  0.73588397  0.73860061  0.47728309  1
  O2-  O287  1  0.73755298  0.73636425  0.98390307  1
  O2-  O288  1  0.09905215  0.23781677  0.48405309  1
  O2-  O289  1  0.09472056  0.23980831  0.97823860  1
  O2-  O290  1  0.09404811  0.57577262  0.47770107  1
  O2-  O291  1  0.09554426  0.57421602  0.97757112  1
  O2-  O292  1  0.09624183  0.90698555  0.47927566  1
  O2-  O293  1  0.09211602  0.90521298  0.97639470  1
  O2-  O294  1  0.42986611  0.23485814  0.47838357  1
  O2-  O295  1  0.43002792  0.23516329  0.98283176  1
  O2-  O296  1  0.42807320  0.57017450  0.47971055  1
  O2-  O297  1  0.42913984  0.57239091  0.97979841  1
  O2-  O298  1  0.42657977  0.90471455  0.47934247  1
  O2-  O299  1  0.42968052  0.90734796  0.98076876  1
  O2-  O300  1  0.76488127  0.23412638  0.48195870  1
  O2-  O301  1  0.75785261  0.24195472  0.98279725  1
  O2-  O302  1  0.76037385  0.57314464  0.47680214  1
  O2-  O303  1  0.76014187  0.57366021  0.97660915  1
  O2-  O304  1  0.76320605  0.90634185  0.47858845  1
  O2-  O305  1  0.76178312  0.90367872  0.97655434  1
  O2-  O306  1  0.07185149  0.07019039  0.27056764  1
  O2-  O307  1  0.07363599  0.07319972  0.77277514  1
  O2-  O308  1  0.07462890  0.40672700  0.26811325  1
  O2-  O309  1  0.07029888  0.40480262  0.76923168  1
  O2-  O310  1  0.07072416  0.73917455  0.27058955  1
  O2-  O311  1  0.07356094  0.74195926  0.77285072  1
  O2-  O312  1  0.40387113  0.07301593  0.26953416  1
  O2-  O313  1  0.40410922  0.07012360  0.77078912  1
  O2-  O314  1  0.40240511  0.40549159  0.26968050  1
  O2-  O315  1  0.40746218  0.40925733  0.76836299  1
  O2-  O316  1  0.40384273  0.74055902  0.27346155  1
  O2-  O317  1  0.40522430  0.73759539  0.77113802  1
  O2-  O318  1  0.73820337  0.07074252  0.26733131  1
  O2-  O319  1  0.73731727  0.06785453  0.76629538  1
  O2-  O320  1  0.73939624  0.40779625  0.26695759  1
  O2-  O321  1  0.73631044  0.40814915  0.77116862  1
  O2-  O322  1  0.73822609  0.74000520  0.27056319  1
  O2-  O323  1  0.73414923  0.73627777  0.76676569  1
  O2-  O324  1  0.23551000  0.09872065  0.23357576  1
  O2-  O325  1  0.23848323  0.09524901  0.72751355  1
  O2-  O326  1  0.23813002  0.43098344  0.22906098  1
  O2-  O327  1  0.23509820  0.43300899  0.73170303  1
  O2-  O328  1  0.23398121  0.76383363  0.23449079  1
  O2-  O329  1  0.24033027  0.76246320  0.72978641  1
  O2-  O330  1  0.57532058  0.09348314  0.23071916  1
  O2-  O331  1  0.57131099  0.09572070  0.72906194  1
  O2-  O332  1  0.57226177  0.42633719  0.22682578  1
  O2-  O333  1  0.57146654  0.42998377  0.72782131  1
  O2-  O334  1  0.57523300  0.75816337  0.23285914  1
  O2-  O335  1  0.56929525  0.76202961  0.72693141  1
  O2-  O336  1  0.90805467  0.09265526  0.22614773  1
  O2-  O337  1  0.90520995  0.09355270  0.73038280  1
  O2-  O338  1  0.90760194  0.42830647  0.22830737  1
  O2-  O339  1  0.90423149  0.42661718  0.72863306  1
  O2-  O340  1  0.90549221  0.76363008  0.22813041  1
  O2-  O341  1  0.90240078  0.76046516  0.73112251  1
  O2-  O342  1  0.26234539  0.26309632  0.01800233  1
  O2-  O343  1  0.26476397  0.26334603  0.52170175  1
  O2-  O344  1  0.26401096  0.59840642  0.01935608  1
  O2-  O345  1  0.26294424  0.59492323  0.51834672  1
  O2-  O346  1  0.25663595  0.92466339  0.01599601  1
  O2-  O347  1  0.26028884  0.92813184  0.52417118  1
  O2-  O348  1  0.59341519  0.26116042  0.02011447  1
  O2-  O349  1  0.59563522  0.26134089  0.52283189  1
  O2-  O350  1  0.59533069  0.59305089  0.02309441  1
  O2-  O351  1  0.59532933  0.59794296  0.51568643  1
  O2-  O352  1  0.59856718  0.92896290  0.01523761  1
  O2-  O353  1  0.59675064  0.92881950  0.51831459  1
  O2-  O354  1  0.93000474  0.25989200  0.02145500  1
  O2-  O355  1  0.92826888  0.25933409  0.52280854  1
  O2-  O356  1  0.93057993  0.59696182  0.01771937  1
  O2-  O357  1  0.92331033  0.59125898  0.51601792  1
  O2-  O358  1  0.93022768  0.92917139  0.01924317  1
  O2-  O359  1  0.92813956  0.92894834  0.52081937  1
