# generated using pymatgen
data_Sr7Ca15Pr50Mn72O216
_symmetry_space_group_name_H-M   'P 1'
_cell_length_a   16.56087277
_cell_length_b   16.60654270
_cell_length_c   15.59407708
_cell_angle_alpha   90.00555688
_cell_angle_beta   89.99920743
_cell_angle_gamma   89.99794385
_symmetry_Int_Tables_number   1
_chemical_formula_structural   Sr7Ca15Pr50Mn72O216
_chemical_formula_sum   'Sr7 Ca15 Pr50 Mn72 O216'
_cell_volume   4288.66497844
_cell_formula_units_Z   1
loop_
 _symmetry_equiv_pos_site_id
 _symmetry_equiv_pos_as_xyz
  1  'x, y, z'
loop_
 _atom_type_symbol
 _atom_type_oxidation_number
  Sr2+  2.0
  Ca2+  2.0
  Pr3+  3.0
  Mn3.30+  3.3
  O2-  -2.0
loop_
 _atom_site_type_symbol
 _atom_site_label
 _atom_site_symmetry_multiplicity
 _atom_site_fract_x
 _atom_site_fract_y
 _atom_site_fract_z
 _atom_site_occupancy
  Sr2+  Sr0  1  0.66767837  0.99148729  0.37520126  1
  Sr2+  Sr1  1  0.50083302  0.17407716  0.62465350  1
  Sr2+  Sr2  1  0.50151608  0.84111067  0.62408634  1
  Sr2+  Sr3  1  0.49623940  0.48941272  0.37594863  1
  Sr2+  Sr4  1  1.00636892  0.65415923  0.87304254  1
  Sr2+  Sr5  1  0.33761162  0.65863841  0.37680805  1
  Sr2+  Sr6  1  0.32959854  0.32465894  0.87353007  1
  Ca2+  Ca7  1  0.66086073  0.01745119  0.12647647  1
  Ca2+  Ca8  1  0.17064080  0.84702890  0.62769237  1
  Ca2+  Ca9  1  1.00786121  0.98314855  0.87247654  1
  Ca2+  Ca10  1  0.33813417  0.32035272  0.37650321  1
  Ca2+  Ca11  1  0.50201325  0.18022313  0.12546405  1
  Ca2+  Ca12  1  -0.00509129  0.35026333  0.62472140  1
  Ca2+  Ca13  1  0.34224486  0.98285043  0.37627254  1
  Ca2+  Ca14  1  0.16036964  0.81869781  0.87189240  1
  Ca2+  Ca15  1  0.00009604  0.01121501  0.62614151  1
  Ca2+  Ca16  1  0.82671951  0.14954773  0.37560286  1
  Ca2+  Ca17  1  0.49622281  0.81941425  0.87331045  1
  Ca2+  Ca18  1  0.84018227  0.51836322  0.62489371  1
  Ca2+  Ca19  1  -0.00182479  0.68297921  0.62856081  1
  Ca2+  Ca20  1  0.49658295  0.82133927  0.37682268  1
  Ca2+  Ca21  1  0.16150278  0.48621268  0.87258623  1
  Pr3+  Pr22  1  0.83279155  0.48842237  0.87129957  1
  Pr3+  Pr23  1  0.66237781  0.34480596  0.62430545  1
  Pr3+  Pr24  1  0.16990506  0.51227856  0.12316112  1
  Pr3+  Pr25  1  0.83903523  0.84806027  0.62615872  1
  Pr3+  Pr26  1  0.66908201  0.31695209  0.37546614  1
  Pr3+  Pr27  1  0.83492161  0.84796816  0.12403594  1
  Pr3+  Pr28  1  0.32900587  0.68286707  0.62331740  1
  Pr3+  Pr29  1  0.49629095  0.48639062  0.87387606  1
  Pr3+  Pr30  1  0.66531037  0.66005837  0.37796769  1
  Pr3+  Pr31  1  0.66304998  0.01179552  0.62418810  1
  Pr3+  Pr32  1  1.00426249  0.65497765  0.37792740  1
  Pr3+  Pr33  1  0.82699957  0.48949294  0.37850490  1
  Pr3+  Pr34  1  0.50488706  0.84694928  0.12551945  1
  Pr3+  Pr35  1  0.16719233  0.17673772  0.62405618  1
  Pr3+  Pr36  1  0.66352753  0.67969861  0.12451149  1
  Pr3+  Pr37  1  0.33056926  0.01027915  0.62365105  1
  Pr3+  Pr38  1  0.66934644  0.65570180  0.87283837  1
  Pr3+  Pr39  1  0.49483719  0.15288268  0.37448819  1
  Pr3+  Pr40  1  0.82979919  0.82321946  0.37679305  1
  Pr3+  Pr41  1  0.16151337  0.15270144  0.87440242  1
  Pr3+  Pr42  1  0.66592185  0.67883272  0.62577434  1
  Pr3+  Pr43  1  0.33136701  0.01390956  0.12649702  1
  Pr3+  Pr44  1  0.33205338  0.67880432  0.12654385  1
  Pr3+  Pr45  1  0.66974932  0.31925850  0.87458176  1
  Pr3+  Pr46  1  0.33566060  0.98462386  0.87460940  1
  Pr3+  Pr47  1  0.33238564  0.34389707  0.12579905  1
  Pr3+  Pr48  1  0.83324250  0.17826197  0.12858166  1
  Pr3+  Pr49  1  0.49504902  0.15445282  0.87569934  1
  Pr3+  Pr50  1  -0.00324423  0.34682661  0.12639600  1
  Pr3+  Pr51  1  0.83601733  0.82084560  0.87365006  1
  Pr3+  Pr52  1  0.16904428  0.15277537  0.37557937  1
  Pr3+  Pr53  1  1.00110549  0.31858296  0.37833496  1
  Pr3+  Pr54  1  0.16902119  0.17953435  0.12581948  1
  Pr3+  Pr55  1  0.33214506  0.65579160  0.87292310  1
  Pr3+  Pr56  1  0.83277277  0.15390509  0.87453487  1
  Pr3+  Pr57  1  0.49990090  0.51105006  0.62465452  1
  Pr3+  Pr58  1  0.83616646  0.51401989  0.12513168  1
  Pr3+  Pr59  1  0.16781948  0.82171884  0.37696006  1
  Pr3+  Pr60  1  -0.00204797  0.01293560  0.12401510  1
  Pr3+  Pr61  1  0.83805820  0.17844443  0.62174619  1
  Pr3+  Pr62  1  1.00565126  0.32524552  0.87124796  1
  Pr3+  Pr63  1  0.16672436  0.51270295  0.62685396  1
  Pr3+  Pr64  1  0.99958549  0.98948251  0.37703954  1
  Pr3+  Pr65  1  0.16625716  0.48757721  0.37688029  1
  Pr3+  Pr66  1  0.17116207  0.84543089  0.12323751  1
  Pr3+  Pr67  1  0.33100901  0.34370383  0.62348908  1
  Pr3+  Pr68  1  0.50100192  0.51251580  0.12482498  1
  Pr3+  Pr69  1  0.66768909  0.98779271  0.87485253  1
  Pr3+  Pr70  1  -0.00197633  0.68137403  0.12331503  1
  Pr3+  Pr71  1  0.66135088  0.34507872  0.12574180  1
  Mn3.30+  Mn72  1  0.16602802  -0.00117102  -0.00102190  1
  Mn3.30+  Mn73  1  0.16746020  -0.00198388  0.49941906  1
  Mn3.30+  Mn74  1  0.16562166  0.33359833  -0.00063136  1
  Mn3.30+  Mn75  1  0.16545126  0.33264642  0.49994260  1
  Mn3.30+  Mn76  1  0.16635968  0.66658688  -0.00163815  1
  Mn3.30+  Mn77  1  0.16542713  0.66783591  0.50199255  1
  Mn3.30+  Mn78  1  0.50101168  -0.00018794  0.00099075  1
  Mn3.30+  Mn79  1  0.49928915  -0.00249592  0.49871144  1
  Mn3.30+  Mn80  1  0.49900027  0.33185159  -0.00032356  1
  Mn3.30+  Mn81  1  0.49859152  0.33255351  0.49927642  1
  Mn3.30+  Mn82  1  0.49957294  0.66807927  -0.00277765  1
  Mn3.30+  Mn83  1  0.49897934  0.66779551  0.50133143  1
  Mn3.30+  Mn84  1  0.83351983  0.00052968  -0.00097889  1
  Mn3.30+  Mn85  1  0.83423495  0.00123393  0.50114717  1
  Mn3.30+  Mn86  1  0.83361169  0.33343194  -0.00008745  1
  Mn3.30+  Mn87  1  0.83406129  0.33424104  0.50134380  1
  Mn3.30+  Mn88  1  0.83415410  0.66703055  -0.00209627  1
  Mn3.30+  Mn89  1  0.83710525  0.66796338  0.50271397  1
  Mn3.30+  Mn90  1  -0.00136260  0.16590001  0.25315610  1
  Mn3.30+  Mn91  1  -0.00066561  0.16577022  0.74796442  1
  Mn3.30+  Mn92  1  -0.00067376  0.50029995  0.25225583  1
  Mn3.30+  Mn93  1  -0.00056534  0.50089335  0.74674126  1
  Mn3.30+  Mn94  1  0.00021315  0.83479298  0.25094992  1
  Mn3.30+  Mn95  1  0.00466718  0.83492192  0.74788922  1
  Mn3.30+  Mn96  1  0.33550995  0.16674580  0.25022216  1
  Mn3.30+  Mn97  1  0.33145497  0.16621061  0.75024133  1
  Mn3.30+  Mn98  1  0.33427923  0.49888435  0.25154988  1
  Mn3.30+  Mn99  1  0.33082288  0.49989794  0.75041708  1
  Mn3.30+  Mn100  1  0.33709236  0.83429536  0.25068131  1
  Mn3.30+  Mn101  1  0.33093410  0.83379644  0.75100405  1
  Mn3.30+  Mn102  1  0.66458022  0.16495651  0.24908625  1
  Mn3.30+  Mn103  1  0.66696480  0.16573961  0.75056333  1
  Mn3.30+  Mn104  1  0.66579764  0.50106055  0.25190599  1
  Mn3.30+  Mn105  1  0.66842290  0.49930711  0.74777383  1
  Mn3.30+  Mn106  1  0.66564219  0.83621365  0.25054686  1
  Mn3.30+  Mn107  1  0.66647803  0.83351092  0.75158184  1
  Mn3.30+  Mn108  1  0.16903342  -0.00094395  0.25262574  1
  Mn3.30+  Mn109  1  0.16404973  -0.00212143  0.74890993  1
  Mn3.30+  Mn110  1  0.16770629  0.33278511  0.25334789  1
  Mn3.30+  Mn111  1  0.16364015  0.33340885  0.74664237  1
  Mn3.30+  Mn112  1  0.16727016  0.66617686  0.25131498  1
  Mn3.30+  Mn113  1  0.16419641  0.66844342  0.74837288  1
  Mn3.30+  Mn114  1  0.50018463  -0.00007773  0.24980874  1
  Mn3.30+  Mn115  1  0.49965801  -0.00294128  0.75031783  1
  Mn3.30+  Mn116  1  0.49844736  0.33271718  0.25093479  1
  Mn3.30+  Mn117  1  0.49892039  0.33153764  0.74955933  1
  Mn3.30+  Mn118  1  0.49913427  0.66796474  0.25056384  1
  Mn3.30+  Mn119  1  0.49955392  0.66768043  0.75078042  1
  Mn3.30+  Mn120  1  0.83006097  0.00111506  0.24856123  1
  Mn3.30+  Mn121  1  0.83793603  0.00024877  0.75208696  1
  Mn3.30+  Mn122  1  0.83177395  0.33283608  0.25228389  1
  Mn3.30+  Mn123  1  0.83570044  0.33450665  0.74691307  1
  Mn3.30+  Mn124  1  0.83350954  0.66831877  0.25057289  1
  Mn3.30+  Mn125  1  0.83739726  0.66664891  0.74906649  1
  Mn3.30+  Mn126  1  -0.00104698  0.16674479  -0.00020884  1
  Mn3.30+  Mn127  1  -0.00078043  0.16483896  0.49945283  1
  Mn3.30+  Mn128  1  0.00193991  0.50032426  -0.00081401  1
  Mn3.30+  Mn129  1  -0.00283057  0.50058930  0.50173052  1
  Mn3.30+  Mn130  1  0.00310526  0.83506861  -0.00173620  1
  Mn3.30+  Mn131  1  0.00208392  0.83471103  0.50321532  1
  Mn3.30+  Mn132  1  0.33330990  0.16673917  -0.00023610  1
  Mn3.30+  Mn133  1  0.33377954  0.16630926  0.49947537  1
  Mn3.30+  Mn134  1  0.33176650  0.49927949  -0.00237630  1
  Mn3.30+  Mn135  1  0.33329397  0.49982493  0.49966378  1
  Mn3.30+  Mn136  1  0.33431045  0.83251608  -0.00219435  1
  Mn3.30+  Mn137  1  0.33415576  0.83554923  0.50067309  1
  Mn3.30+  Mn138  1  0.66447317  0.16547488  0.00125772  1
  Mn3.30+  Mn139  1  0.66763723  0.16540017  0.49957456  1
  Mn3.30+  Mn140  1  0.66697864  0.49995606  -0.00123517  1
  Mn3.30+  Mn141  1  0.66748018  0.50044154  0.50175685  1
  Mn3.30+  Mn142  1  0.66598816  0.83502784  -0.00157610  1
  Mn3.30+  Mn143  1  0.66640816  0.83454026  0.49995555  1
  O2-  O144  1  0.02542693  0.16131587  0.12879345  1
  O2-  O145  1  0.02440044  0.15576940  0.62303705  1
  O2-  O146  1  0.02513494  0.49428231  0.12809299  1
  O2-  O147  1  0.02439568  0.49255426  0.62229544  1
  O2-  O148  1  0.02566712  0.83040061  0.12619583  1
  O2-  O149  1  0.02840250  0.82770945  0.62376697  1
  O2-  O150  1  0.35846161  0.16113644  0.12500441  1
  O2-  O151  1  0.35140681  0.15931538  0.62533699  1
  O2-  O152  1  0.35677491  0.49294950  0.12365762  1
  O2-  O153  1  0.35566329  0.49347836  0.62580998  1
  O2-  O154  1  0.35998284  0.82764426  0.12291319  1
  O2-  O155  1  0.35260954  0.83278637  0.62684006  1
  O2-  O156  1  0.69043530  0.16538124  0.12435445  1
  O2-  O157  1  0.69226992  0.16154708  0.62759128  1
  O2-  O158  1  0.69218823  0.49462452  0.12534997  1
  O2-  O159  1  0.69626551  0.49261458  0.62520752  1
  O2-  O160  1  0.69269970  0.82504395  0.12292943  1
  O2-  O161  1  0.69382731  0.82856524  0.62759371  1
  O2-  O162  1  0.13997924  0.32737545  0.12984185  1
  O2-  O163  1  0.13716467  0.32507124  0.62150156  1
  O2-  O164  1  0.14137860  0.66000167  0.12674247  1
  O2-  O165  1  0.13898952  0.65884520  0.62364608  1
  O2-  O166  1  0.14188744  0.99407457  0.12679314  1
  O2-  O167  1  0.14196246  0.99472627  0.62346474  1
  O2-  O168  1  0.47692948  0.32886162  0.12546794  1
  O2-  O169  1  0.47627239  0.33174802  0.62591848  1
  O2-  O170  1  0.47699704  0.66139540  0.12118041  1
  O2-  O171  1  0.47510526  0.66036108  0.62844250  1
  O2-  O172  1  0.47300633  0.99168024  0.12413275  1
  O2-  O173  1  0.47537566  0.99613115  0.62545794  1
  O2-  O174  1  0.80623257  0.32794181  0.12831036  1
  O2-  O175  1  0.80467295  0.32379001  0.62434550  1
  O2-  O176  1  0.80806892  0.66193908  0.12229628  1
  O2-  O177  1  0.80970189  0.66580487  0.62619177  1
  O2-  O178  1  0.80492239  0.99451287  0.12131306  1
  O2-  O179  1  0.80822592  0.99602588  0.62838304  1
  O2-  O180  1  0.31087245  0.17624904  0.37450509  1
  O2-  O181  1  0.30642283  0.16765690  0.87483447  1
  O2-  O182  1  0.30919898  0.50489962  0.37590046  1
  O2-  O183  1  0.30473410  0.50637451  0.87343500  1
  O2-  O184  1  0.31068292  0.83736486  0.37447072  1
  O2-  O185  1  0.30329140  0.83704643  0.87559962  1
  O2-  O186  1  0.64063807  0.16983225  0.37276345  1
  O2-  O187  1  0.64064809  0.17125301  0.87584290  1
  O2-  O188  1  0.64718055  0.51031487  0.37774628  1
  O2-  O189  1  0.64060818  0.50589561  0.87233853  1
  O2-  O190  1  0.64227396  0.83311139  0.37419221  1
  O2-  O191  1  0.63861829  0.84045168  0.87580503  1
  O2-  O192  1  0.97010049  0.17042413  0.37484415  1
  O2-  O193  1  0.97499142  0.17904781  0.87361638  1
  O2-  O194  1  0.97079060  0.50786405  0.37686977  1
  O2-  O195  1  0.97655279  0.49644828  0.87245828  1
  O2-  O196  1  0.97339209  0.84048562  0.37564909  1
  O2-  O197  1  0.97848641  0.84024316  0.87465398  1
  O2-  O198  1  0.19824875  0.00446499  0.37286702  1
  O2-  O199  1  0.19205494  0.00787654  0.87599510  1
  O2-  O200  1  0.19463848  0.33923927  0.37581292  1
  O2-  O201  1  0.17915943  0.33878672  0.87159846  1
  O2-  O202  1  0.18687322  0.67163568  0.37605925  1
  O2-  O203  1  0.19003761  0.67472113  0.87411166  1
  O2-  O204  1  0.52002379  0.00730067  0.37261701  1
  O2-  O205  1  0.52458830  0.00815403  0.87772422  1
  O2-  O206  1  0.52444221  0.33442950  0.37436734  1
  O2-  O207  1  0.52569734  0.33876040  0.87362708  1
  O2-  O208  1  0.52106456  0.67196869  0.37603759  1
  O2-  O209  1  0.52544332  0.67149142  0.87430445  1
  O2-  O210  1  0.85560956  0.00241642  0.37519502  1
  O2-  O211  1  0.86517761  0.00678273  0.87591728  1
  O2-  O212  1  0.85868899  0.34363427  0.37563805  1
  O2-  O213  1  0.86068310  0.33977897  0.87178184  1
  O2-  O214  1  0.86045368  0.67455661  0.37752522  1
  O2-  O215  1  0.85627798  0.67059677  0.87450593  1
  O2-  O216  1  0.23638634  0.09353736  0.02154930  1
  O2-  O217  1  0.23736578  0.09396698  0.51821266  1
  O2-  O218  1  0.23877845  0.42436454  0.02145305  1
  O2-  O219  1  0.23666686  0.42751565  0.52146532  1
  O2-  O220  1  0.24132246  0.75830959  0.02458125  1
  O2-  O221  1  0.23820143  0.76274499  0.51952176  1
  O2-  O222  1  0.56817448  0.09741065  0.01992092  1
  O2-  O223  1  0.57439690  0.09010603  0.51673807  1
  O2-  O224  1  0.57313724  0.42852848  0.01938217  1
  O2-  O225  1  0.57305548  0.42682567  0.52208611  1
  O2-  O226  1  0.57378326  0.76114699  0.02075009  1
  O2-  O227  1  0.58050473  0.75493501  0.51956592  1
  O2-  O228  1  0.90368748  0.09651042  0.02288701  1
  O2-  O229  1  0.90612624  0.09400759  0.51823662  1
  O2-  O230  1  0.90412103  0.42837069  0.02130097  1
  O2-  O231  1  0.89963339  0.43353126  0.51889742  1
  O2-  O232  1  0.90703185  0.76283077  0.01924222  1
  O2-  O233  1  0.90549889  0.76579538  0.51958667  1
  O2-  O234  1  0.26054641  0.25859709  0.22720187  1
  O2-  O235  1  0.25610498  0.25976362  0.72732789  1
  O2-  O236  1  0.25953226  0.59091157  0.22721008  1
  O2-  O237  1  0.26060232  0.59681143  0.72852930  1
  O2-  O238  1  0.26198735  0.92518018  0.22618074  1
  O2-  O239  1  0.26369407  0.93145186  0.73334816  1
  O2-  O240  1  0.59756176  0.26404695  0.23304412  1
  O2-  O241  1  0.59648911  0.26328830  0.73384636  1
  O2-  O242  1  0.59408202  0.59603305  0.23019807  1
  O2-  O243  1  0.59543701  0.59132723  0.72819390  1
  O2-  O244  1  0.59595046  0.92880571  0.22510030  1
  O2-  O245  1  0.59859108  0.92847110  0.73362570  1
  O2-  O246  1  0.92689449  0.26260142  0.23042906  1
  O2-  O247  1  0.92856882  0.26327104  0.72525318  1
  O2-  O248  1  0.92815965  0.59651431  0.22917331  1
  O2-  O249  1  0.93065706  0.59510883  0.72912479  1
  O2-  O250  1  0.92824531  0.92867315  0.22923743  1
  O2-  O251  1  0.93051277  0.92880870  0.72705561  1
  O2-  O252  1  0.09536965  0.23921570  0.27436690  1
  O2-  O253  1  0.09346008  0.23647013  0.76779747  1
  O2-  O254  1  0.09360764  0.57110898  0.27239898  1
  O2-  O255  1  0.09891242  0.56693995  0.76635432  1
  O2-  O256  1  0.09694847  0.90675842  0.27231210  1
  O2-  O257  1  0.09825870  0.90394643  0.77037685  1
  O2-  O258  1  0.43032325  0.23654912  0.26700161  1
  O2-  O259  1  0.42741500  0.23896078  0.76892377  1
  O2-  O260  1  0.42694522  0.56980968  0.26008259  1
  O2-  O261  1  0.42794389  0.57320555  0.77133644  1
  O2-  O262  1  0.43274499  0.90183683  0.26744167  1
  O2-  O263  1  0.42705289  0.90535244  0.77498708  1
  O2-  O264  1  0.76231189  0.23872112  0.27252602  1
  O2-  O265  1  0.76276814  0.23966273  0.77213565  1
  O2-  O266  1  0.76355635  0.57513810  0.26925309  1
  O2-  O267  1  0.75876961  0.57340565  0.77080270  1
  O2-  O268  1  0.76429686  0.90205887  0.26589157  1
  O2-  O269  1  0.76515200  0.90709084  0.77307681  1
  O2-  O270  1  0.07697293  0.07200300  0.47412810  1
  O2-  O271  1  0.06862624  0.07153408  0.98031804  1
  O2-  O272  1  0.07134476  0.40678321  0.47582915  1
  O2-  O273  1  0.06781320  0.40193122  0.98700823  1
  O2-  O274  1  0.07301184  0.74175749  0.47671919  1
  O2-  O275  1  0.07401112  0.73659438  0.98805776  1
  O2-  O276  1  0.40434160  0.07201331  0.48000945  1
  O2-  O277  1  0.40372161  0.06971484  0.97985626  1
  O2-  O278  1  0.40096728  0.40228189  0.48474462  1
  O2-  O279  1  0.40774848  0.40772911  0.98104195  1
  O2-  O280  1  0.40562337  0.74193576  0.48971996  1
  O2-  O281  1  0.40263111  0.73701444  0.97896646  1
  O2-  O282  1  0.74057064  0.07313992  0.48683278  1
  O2-  O283  1  0.74071269  0.07319367  0.97624859  1
  O2-  O284  1  0.73687959  0.40450528  0.47869623  1
  O2-  O285  1  0.73955016  0.40568182  0.97836695  1
  O2-  O286  1  0.74180891  0.74041628  0.48043989  1
  O2-  O287  1  0.73732559  0.74067056  0.97745455  1
  O2-  O288  1  0.09384323  0.23695588  0.47605137  1
  O2-  O289  1  0.09439081  0.23752261  0.98241325  1
  O2-  O290  1  0.09349006  0.57081777  0.47868804  1
  O2-  O291  1  0.09925250  0.56694333  0.98298201  1
  O2-  O292  1  0.09392558  0.90756487  0.47391840  1
  O2-  O293  1  0.09951089  0.90323740  0.98259963  1
  O2-  O294  1  0.42783435  0.23767294  0.48231440  1
  O2-  O295  1  0.42814978  0.23770170  0.98130459  1
  O2-  O296  1  0.42670858  0.57114242  0.48944612  1
  O2-  O297  1  0.42747655  0.57203062  0.97807535  1
  O2-  O298  1  0.42918008  0.90546572  0.47884699  1
  O2-  O299  1  0.43037165  0.90303868  0.97754537  1
  O2-  O300  1  0.76347017  0.23838443  0.47767063  1
  O2-  O301  1  0.76241098  0.23929955  0.97949547  1
  O2-  O302  1  0.76092115  0.57685809  0.48144251  1
  O2-  O303  1  0.76062327  0.57133759  0.97828140  1
  O2-  O304  1  0.76508603  0.90405048  0.48577146  1
  O2-  O305  1  0.76291439  0.90522259  0.97557940  1
  O2-  O306  1  0.07325590  0.07138744  0.27255721  1
  O2-  O307  1  0.07171503  0.07189860  0.77299985  1
  O2-  O308  1  0.07066066  0.40496026  0.27412854  1
  O2-  O309  1  0.06844661  0.40406956  0.76208423  1
  O2-  O310  1  0.07098284  0.74018332  0.26962113  1
  O2-  O311  1  0.07330024  0.73947306  0.76634654  1
  O2-  O312  1  0.40136613  0.06924770  0.26956702  1
  O2-  O313  1  0.40581406  0.07112103  0.77057167  1
  O2-  O314  1  0.40040349  0.40021937  0.26597976  1
  O2-  O315  1  0.40899771  0.40824245  0.76771699  1
  O2-  O316  1  0.40650862  0.73893581  0.26241825  1
  O2-  O317  1  0.40195128  0.73843356  0.76770906  1
  O2-  O318  1  0.73939967  0.07470152  0.26389426  1
  O2-  O319  1  0.74165747  0.07154437  0.77336078  1
  O2-  O320  1  0.73842189  0.40546514  0.27191425  1
  O2-  O321  1  0.73832923  0.40502910  0.77199834  1
  O2-  O322  1  0.73868933  0.73882007  0.27068778  1
  O2-  O323  1  0.74065840  0.74113311  0.77148952  1
  O2-  O324  1  0.23747384  0.09504303  0.22915647  1
  O2-  O325  1  0.23531344  0.09264781  0.72983121  1
  O2-  O326  1  0.23713886  0.42748546  0.22937546  1
  O2-  O327  1  0.23814567  0.42378226  0.72625756  1
  O2-  O328  1  0.24046102  0.76100791  0.23018048  1
  O2-  O329  1  0.23897036  0.76009415  0.72634303  1
  O2-  O330  1  0.56679601  0.09729604  0.22992103  1
  O2-  O331  1  0.57511428  0.08948108  0.73377482  1
  O2-  O332  1  0.57040852  0.42649798  0.22821321  1
  O2-  O333  1  0.57373120  0.42743555  0.72909844  1
  O2-  O334  1  0.57601501  0.76095889  0.22756076  1
  O2-  O335  1  0.57689510  0.75468072  0.73164807  1
  O2-  O336  1  0.90583387  0.09120530  0.22689690  1
  O2-  O337  1  0.90244065  0.09942829  0.73280469  1
  O2-  O338  1  0.90398004  0.42893511  0.22936104  1
  O2-  O339  1  0.90034723  0.43209683  0.72889896  1
  O2-  O340  1  0.90382909  0.76163911  0.22813532  1
  O2-  O341  1  0.90732533  0.76639365  0.73307596  1
  O2-  O342  1  0.25797897  0.25976916  0.02198283  1
  O2-  O343  1  0.25876043  0.25855092  0.52202628  1
  O2-  O344  1  0.26160475  0.59503673  0.02073225  1
  O2-  O345  1  0.25761882  0.59311006  0.52301824  1
  O2-  O346  1  0.26428072  0.92795710  0.02139818  1
  O2-  O347  1  0.26148254  0.92842509  0.51849133  1
  O2-  O348  1  0.59697912  0.26440960  0.01663183  1
  O2-  O349  1  0.59867278  0.26179478  0.51579066  1
  O2-  O350  1  0.59518601  0.59429735  0.01893607  1
  O2-  O351  1  0.59507717  0.59220140  0.52357732  1
  O2-  O352  1  0.59779171  0.93071755  0.02227659  1
  O2-  O353  1  0.59716599  0.92663068  0.51992117  1
  O2-  O354  1  0.92720106  0.26127128  0.02365606  1
  O2-  O355  1  0.92861059  0.26587140  0.52100350  1
  O2-  O356  1  0.92920335  0.59180904  0.02228451  1
  O2-  O357  1  0.93153895  0.60056415  0.52005973  1
  O2-  O358  1  0.92632326  0.92848216  0.02310441  1
  O2-  O359  1  0.93065912  0.93005856  0.52137437  1
