# generated using pymatgen
data_Sr7Ca15Pr50Mn72O216
_symmetry_space_group_name_H-M   'P 1'
_cell_length_a   16.55882741
_cell_length_b   16.60291732
_cell_length_c   15.59389171
_cell_angle_alpha   89.99923515
_cell_angle_beta   90.00623881
_cell_angle_gamma   89.98167740
_symmetry_Int_Tables_number   1
_chemical_formula_structural   Sr7Ca15Pr50Mn72O216
_chemical_formula_sum   'Sr7 Ca15 Pr50 Mn72 O216'
_cell_volume   4287.14797579
_cell_formula_units_Z   1
loop_
 _symmetry_equiv_pos_site_id
 _symmetry_equiv_pos_as_xyz
  1  'x, y, z'
loop_
 _atom_type_symbol
 _atom_type_oxidation_number
  Sr2+  2.0
  Ca2+  2.0
  Pr3+  3.0
  Mn3.30+  3.3
  O2-  -2.0
loop_
 _atom_site_type_symbol
 _atom_site_label
 _atom_site_symmetry_multiplicity
 _atom_site_fract_x
 _atom_site_fract_y
 _atom_site_fract_z
 _atom_site_occupancy
  Sr2+  Sr0  1  0.83448908  0.82488097  0.87386477  1
  Sr2+  Sr1  1  0.50080762  0.50590206  0.62826778  1
  Sr2+  Sr2  1  0.66452792  0.34531540  0.62526139  1
  Sr2+  Sr3  1  0.50246234  0.83988263  0.12504042  1
  Sr2+  Sr4  1  0.16925670  0.51116194  0.12254461  1
  Sr2+  Sr5  1  0.66482449  0.65892339  0.37282455  1
  Sr2+  Sr6  1  0.66760491  0.67573906  0.12527715  1
  Ca2+  Ca7  1  0.49863815  0.81702593  0.37522920  1
  Ca2+  Ca8  1  0.83362173  0.51561869  0.12404898  1
  Ca2+  Ca9  1  -0.00158856  0.68107484  0.62691020  1
  Ca2+  Ca10  1  0.33645593  0.32064909  0.37596324  1
  Ca2+  Ca11  1  0.50476415  0.84558093  0.62397537  1
  Ca2+  Ca12  1  0.16587560  0.15313332  0.37580841  1
  Ca2+  Ca13  1  0.49631377  0.81856055  0.87485961  1
  Ca2+  Ca14  1  0.16171859  0.48137352  0.87524954  1
  Ca2+  Ca15  1  0.33069270  0.34777863  0.62490039  1
  Ca2+  Ca16  1  1.00398555  0.98425754  0.87312416  1
  Ca2+  Ca17  1  0.82790419  0.15224594  0.37580698  1
  Ca2+  Ca18  1  1.00404194  0.32122174  0.87642724  1
  Ca2+  Ca19  1  0.49871493  0.48612080  0.87387937  1
  Ca2+  Ca20  1  0.66338420  0.34933081  0.12454097  1
  Ca2+  Ca21  1  0.16982649  0.84756903  0.62550928  1
  Pr3+  Pr22  1  0.50340276  0.51235892  0.12212540  1
  Pr3+  Pr23  1  0.17122700  0.84505105  0.12485562  1
  Pr3+  Pr24  1  0.49737986  0.15615266  0.37607000  1
  Pr3+  Pr25  1  0.83608510  0.18027624  0.12637032  1
  Pr3+  Pr26  1  0.16853294  0.17963977  0.12773511  1
  Pr3+  Pr27  1  0.16544074  0.48700922  0.37449715  1
  Pr3+  Pr28  1  -0.00468533  0.35078590  0.12358790  1
  Pr3+  Pr29  1  0.33756232  0.65112934  0.87473459  1
  Pr3+  Pr30  1  0.33698108  0.98516181  0.87399518  1
  Pr3+  Pr31  1  0.33071797  0.68001622  0.12465546  1
  Pr3+  Pr32  1  -0.00070177  0.01202852  0.62716276  1
  Pr3+  Pr33  1  0.67053037  0.32119778  0.37522705  1
  Pr3+  Pr34  1  0.50418997  0.18063532  0.12562113  1
  Pr3+  Pr35  1  -0.00307634  0.01179672  0.12347550  1
  Pr3+  Pr36  1  0.66409696  0.00889107  0.12346439  1
  Pr3+  Pr37  1  0.83179924  0.48958369  0.87762063  1
  Pr3+  Pr38  1  0.16227677  0.82113423  0.87162844  1
  Pr3+  Pr39  1  0.83580587  0.18102359  0.62406290  1
  Pr3+  Pr40  1  0.49886888  0.48737290  0.37488327  1
  Pr3+  Pr41  1  1.00227897  0.98806431  0.37620485  1
  Pr3+  Pr42  1  0.50119903  0.18112119  0.62420441  1
  Pr3+  Pr43  1  0.17076648  0.18233067  0.62260871  1
  Pr3+  Pr44  1  1.00232764  0.31794543  0.37450166  1
  Pr3+  Pr45  1  0.33080442  0.01108243  0.62388634  1
  Pr3+  Pr46  1  0.83519942  0.84424736  0.62596136  1
  Pr3+  Pr47  1  1.00241862  0.65325637  0.37759427  1
  Pr3+  Pr48  1  0.83384182  0.84303892  0.12392674  1
  Pr3+  Pr49  1  0.16474358  0.81939606  0.37845253  1
  Pr3+  Pr50  1  0.66052420  0.67867813  0.62510923  1
  Pr3+  Pr51  1  0.33130879  0.01141560  0.12582480  1
  Pr3+  Pr52  1  0.16015196  0.15342485  0.87476573  1
  Pr3+  Pr53  1  0.83578350  0.51505770  0.62628750  1
  Pr3+  Pr54  1  0.33254510  0.68103009  0.62567988  1
  Pr3+  Pr55  1  0.83362837  0.15632858  0.87459553  1
  Pr3+  Pr56  1  -0.00348349  0.34565413  0.62647363  1
  Pr3+  Pr57  1  0.17213123  0.51034008  0.62735364  1
  Pr3+  Pr58  1  0.33724807  0.98486856  0.37617238  1
  Pr3+  Pr59  1  0.66614891  0.32507253  0.87426494  1
  Pr3+  Pr60  1  0.33830062  0.65504859  0.37559739  1
  Pr3+  Pr61  1  1.00491703  0.65188898  0.87235585  1
  Pr3+  Pr62  1  0.49604461  0.15650229  0.87398459  1
  Pr3+  Pr63  1  0.82728760  0.49092343  0.37246861  1
  Pr3+  Pr64  1  0.32915452  0.34758991  0.12602789  1
  Pr3+  Pr65  1  0.66951854  0.98695321  0.37483931  1
  Pr3+  Pr66  1  0.66263112  0.01167335  0.62606864  1
  Pr3+  Pr67  1  0.66741045  0.65724697  0.87659309  1
  Pr3+  Pr68  1  -0.00282173  0.67691981  0.12348585  1
  Pr3+  Pr69  1  0.82993401  0.81956194  0.37615634  1
  Pr3+  Pr70  1  0.33335580  0.32393577  0.87421952  1
  Pr3+  Pr71  1  0.66748606  0.98595526  0.87455383  1
  Mn3.30+  Mn72  1  0.16529541  -0.00015731  -0.00069203  1
  Mn3.30+  Mn73  1  0.16717995  0.00030133  0.49964361  1
  Mn3.30+  Mn74  1  0.16468759  0.33355580  0.00010805  1
  Mn3.30+  Mn75  1  0.16868504  0.33246713  0.49768182  1
  Mn3.30+  Mn76  1  0.16731600  0.66454073  -0.00237386  1
  Mn3.30+  Mn77  1  0.16669660  0.66699364  0.50403748  1
  Mn3.30+  Mn78  1  0.49932626  -0.00136432  -0.00038854  1
  Mn3.30+  Mn79  1  0.49974623  -0.00282044  0.49967954  1
  Mn3.30+  Mn80  1  0.49989717  0.33418699  0.00015744  1
  Mn3.30+  Mn81  1  0.49854058  0.33433677  0.49982833  1
  Mn3.30+  Mn82  1  0.50074148  0.66650559  -0.00208894  1
  Mn3.30+  Mn83  1  0.49954511  0.66578446  0.50132195  1
  Mn3.30+  Mn84  1  0.83388993  -0.00015248  -0.00247236  1
  Mn3.30+  Mn85  1  0.83322054  0.00145817  0.50088386  1
  Mn3.30+  Mn86  1  0.83276454  0.33555984  0.00103205  1
  Mn3.30+  Mn87  1  0.83381425  0.33442611  0.49918094  1
  Mn3.30+  Mn88  1  0.83470995  0.66760341  -0.00140384  1
  Mn3.30+  Mn89  1  0.83392168  0.66698753  0.50217561  1
  Mn3.30+  Mn90  1  -0.00039643  0.16595601  0.25252392  1
  Mn3.30+  Mn91  1  0.00084579  0.16713644  0.75064673  1
  Mn3.30+  Mn92  1  -0.00210589  0.50083954  0.24938391  1
  Mn3.30+  Mn93  1  0.00300534  0.49880087  0.75064890  1
  Mn3.30+  Mn94  1  0.00093117  0.83262320  0.25069599  1
  Mn3.30+  Mn95  1  0.00170324  0.83270192  0.74803090  1
  Mn3.30+  Mn96  1  0.33317591  0.16734647  0.25233642  1
  Mn3.30+  Mn97  1  0.33089528  0.16798992  0.74877646  1
  Mn3.30+  Mn98  1  0.33290910  0.49933182  0.25044134  1
  Mn3.30+  Mn99  1  0.33347677  0.49856394  0.75128102  1
  Mn3.30+  Mn100  1  0.33536567  0.83299472  0.25126216  1
  Mn3.30+  Mn101  1  0.33466230  0.83335013  0.74801624  1
  Mn3.30+  Mn102  1  0.66838805  0.16770753  0.24919919  1
  Mn3.30+  Mn103  1  0.66549339  0.16778460  0.75087024  1
  Mn3.30+  Mn104  1  0.66649526  0.49973947  0.24703391  1
  Mn3.30+  Mn105  1  0.66566747  0.50083250  0.75194495  1
  Mn3.30+  Mn106  1  0.66523489  0.83252609  0.25012293  1
  Mn3.30+  Mn107  1  0.66368532  0.83266510  0.75056001  1
  Mn3.30+  Mn108  1  0.16651558  0.00052842  0.25234930  1
  Mn3.30+  Mn109  1  0.16643314  -0.00059312  0.74878037  1
  Mn3.30+  Mn110  1  0.16725915  0.33243729  0.25256642  1
  Mn3.30+  Mn111  1  0.16568418  0.33369021  0.75009257  1
  Mn3.30+  Mn112  1  0.16689518  0.66559865  0.25041516  1
  Mn3.30+  Mn113  1  0.16720600  0.66612963  0.74799676  1
  Mn3.30+  Mn114  1  0.50062883  -0.00127694  0.25052961  1
  Mn3.30+  Mn115  1  0.49825379  -0.00262793  0.74936829  1
  Mn3.30+  Mn116  1  0.50007293  0.33330388  0.24954879  1
  Mn3.30+  Mn117  1  0.49843042  0.33492653  0.74982136  1
  Mn3.30+  Mn118  1  0.50086218  0.66666353  0.25004651  1
  Mn3.30+  Mn119  1  0.49936010  0.66657713  0.75026836  1
  Mn3.30+  Mn120  1  0.83347513  0.00105417  0.25062068  1
  Mn3.30+  Mn121  1  0.83374237  0.00017535  0.75133363  1
  Mn3.30+  Mn122  1  0.83192292  0.33481401  0.24789741  1
  Mn3.30+  Mn123  1  0.83523561  0.33514284  0.75266179  1
  Mn3.30+  Mn124  1  0.83355038  0.66629569  0.24868080  1
  Mn3.30+  Mn125  1  0.83487585  0.66806174  0.75049950  1
  Mn3.30+  Mn126  1  -0.00002196  0.16727384  0.00011063  1
  Mn3.30+  Mn127  1  0.00032525  0.16599254  0.49804647  1
  Mn3.30+  Mn128  1  0.00063835  0.49994530  -0.00072049  1
  Mn3.30+  Mn129  1  0.00034104  0.50022757  0.50119303  1
  Mn3.30+  Mn130  1  0.00156948  0.83348133  -0.00200817  1
  Mn3.30+  Mn131  1  0.00105086  0.83233255  0.50344730  1
  Mn3.30+  Mn132  1  0.33199142  0.16681349  0.00075465  1
  Mn3.30+  Mn133  1  0.33215498  0.16908428  0.49807340  1
  Mn3.30+  Mn134  1  0.33308267  0.49931899  -0.00281759  1
  Mn3.30+  Mn135  1  0.33372519  0.49789317  0.50128078  1
  Mn3.30+  Mn136  1  0.33452850  0.83275358  -0.00200750  1
  Mn3.30+  Mn137  1  0.33564768  0.83307037  0.50257279  1
  Mn3.30+  Mn138  1  0.66682029  0.16862650  -0.00000682  1
  Mn3.30+  Mn139  1  0.66690848  0.16698086  0.49965705  1
  Mn3.30+  Mn140  1  0.66630058  0.49994750  0.00044778  1
  Mn3.30+  Mn141  1  0.66575451  0.50091649  0.50025947  1
  Mn3.30+  Mn142  1  0.66493592  0.83220860  -0.00159477  1
  Mn3.30+  Mn143  1  0.66449263  0.83261515  0.49999289  1
  O2-  O144  1  0.02478083  0.15933390  0.12758336  1
  O2-  O145  1  0.02562512  0.16164383  0.62508984  1
  O2-  O146  1  0.02113160  0.49881233  0.12515224  1
  O2-  O147  1  0.02849804  0.49009172  0.62643860  1
  O2-  O148  1  0.02777979  0.82617654  0.12358821  1
  O2-  O149  1  0.02754129  0.82797552  0.62408941  1
  O2-  O150  1  0.35951572  0.15879091  0.12736943  1
  O2-  O151  1  0.35797772  0.15832595  0.62341609  1
  O2-  O152  1  0.35842254  0.49521146  0.12294182  1
  O2-  O153  1  0.35090945  0.49254864  0.62580003  1
  O2-  O154  1  0.35088262  0.83040538  0.12407661  1
  O2-  O155  1  0.36358135  0.83064252  0.62522368  1
  O2-  O156  1  0.69381123  0.15655691  0.12374467  1
  O2-  O157  1  0.69186999  0.16080673  0.62538317  1
  O2-  O158  1  0.69087499  0.49323154  0.12331670  1
  O2-  O159  1  0.69033464  0.50020947  0.62840722  1
  O2-  O160  1  0.68911009  0.83709498  0.12429744  1
  O2-  O161  1  0.69108714  0.82947058  0.62483232  1
  O2-  O162  1  0.14073068  0.32728958  0.12865770  1
  O2-  O163  1  0.13989572  0.32995135  0.62280541  1
  O2-  O164  1  0.14229240  0.66644410  0.12228137  1
  O2-  O165  1  0.13896805  0.65555074  0.62524458  1
  O2-  O166  1  0.14164369  0.99342706  0.12727892  1
  O2-  O167  1  0.14384157  0.99589254  0.62329251  1
  O2-  O168  1  0.47270400  0.32825606  0.12547399  1
  O2-  O169  1  0.47404438  0.32901025  0.62671146  1
  O2-  O170  1  0.47435978  0.66011562  0.12290134  1
  O2-  O171  1  0.47590602  0.65893853  0.62730882  1
  O2-  O172  1  0.47489368  0.99690941  0.12588741  1
  O2-  O173  1  0.47383162  0.99149974  0.62414063  1
  O2-  O174  1  0.80395206  0.32424091  0.12475538  1
  O2-  O175  1  0.81498800  0.32858400  0.62669962  1
  O2-  O176  1  0.81888659  0.66501800  0.12205215  1
  O2-  O177  1  0.80657776  0.66348082  0.62656332  1
  O2-  O178  1  0.80921387  0.99372904  0.12283208  1
  O2-  O179  1  0.80713870  0.99490572  0.62557031  1
  O2-  O180  1  0.30764898  0.17460226  0.37483760  1
  O2-  O181  1  0.30495432  0.17390573  0.87416309  1
  O2-  O182  1  0.30799348  0.50942079  0.37665542  1
  O2-  O183  1  0.30421194  0.50308672  0.87474523  1
  O2-  O184  1  0.30822559  0.83440571  0.37795190  1
  O2-  O185  1  0.30575563  0.83733284  0.87277452  1
  O2-  O186  1  0.64123546  0.17227189  0.37395421  1
  O2-  O187  1  0.63947130  0.17540947  0.87653759  1
  O2-  O188  1  0.64518280  0.50165682  0.37164941  1
  O2-  O189  1  0.64213469  0.50764763  0.87646378  1
  O2-  O190  1  0.64259134  0.83956525  0.37657966  1
  O2-  O191  1  0.63901593  0.83800604  0.87377501  1
  O2-  O192  1  0.96996614  0.17082011  0.37365443  1
  O2-  O193  1  0.97754908  0.17665509  0.87443128  1
  O2-  O194  1  0.97204892  0.50625723  0.37508342  1
  O2-  O195  1  0.97495788  0.50514896  0.87389132  1
  O2-  O196  1  0.97404190  0.83909671  0.37842970  1
  O2-  O197  1  0.98402325  0.83934687  0.87327363  1
  O2-  O198  1  0.19198154  0.00514688  0.37613727  1
  O2-  O199  1  0.19249168  0.00606188  0.87315077  1
  O2-  O200  1  0.19396144  0.34085085  0.37418630  1
  O2-  O201  1  0.18903779  0.33269380  0.87493060  1
  O2-  O202  1  0.19294222  0.67181269  0.37975351  1
  O2-  O203  1  0.19340643  0.67626542  0.87273476  1
  O2-  O204  1  0.52665727  0.01035474  0.37510644  1
  O2-  O205  1  0.52373205  0.01051414  0.87428295  1
  O2-  O206  1  0.52602048  0.33592359  0.37167904  1
  O2-  O207  1  0.52135213  0.33184814  0.87624672  1
  O2-  O208  1  0.51428938  0.66941142  0.37616069  1
  O2-  O209  1  0.52302376  0.67555760  0.87329316  1
  O2-  O210  1  0.85889927  0.00624076  0.37768239  1
  O2-  O211  1  0.86172907  0.00727188  0.87441235  1
  O2-  O212  1  0.85953032  0.34461044  0.37260385  1
  O2-  O213  1  0.86286212  0.34081604  0.87675886  1
  O2-  O214  1  0.85820636  0.67062058  0.37746143  1
  O2-  O215  1  0.86024322  0.66857191  0.87341432  1
  O2-  O216  1  0.23662833  0.09472545  0.02135732  1
  O2-  O217  1  0.24024483  0.09512316  0.52016704  1
  O2-  O218  1  0.24149451  0.42343903  0.01761794  1
  O2-  O219  1  0.23492889  0.43053891  0.51584813  1
  O2-  O220  1  0.23831175  0.76214452  0.01855136  1
  O2-  O221  1  0.23747977  0.76261264  0.52450129  1
  O2-  O222  1  0.57265525  0.09591116  0.02004978  1
  O2-  O223  1  0.57012450  0.09299473  0.52215211  1
  O2-  O224  1  0.57019339  0.42579743  0.01738169  1
  O2-  O225  1  0.57173335  0.42709770  0.51138990  1
  O2-  O226  1  0.57450508  0.75880378  0.01435316  1
  O2-  O227  1  0.57175869  0.76020722  0.52172288  1
  O2-  O228  1  0.90544775  0.09643504  0.02014245  1
  O2-  O229  1  0.90493083  0.09289179  0.52484545  1
  O2-  O230  1  0.90074584  0.42982663  0.02307465  1
  O2-  O231  1  0.90660052  0.42953029  0.52197879  1
  O2-  O232  1  0.90968029  0.76139530  0.02046261  1
  O2-  O233  1  0.90381635  0.76306664  0.51892710  1
  O2-  O234  1  0.26252618  0.25813046  0.22644728  1
  O2-  O235  1  0.26084940  0.26372393  0.72661268  1
  O2-  O236  1  0.26329386  0.59705081  0.23256028  1
  O2-  O237  1  0.26277420  0.59539098  0.72955008  1
  O2-  O238  1  0.26183078  0.92804661  0.23265738  1
  O2-  O239  1  0.26588549  0.92984997  0.73154335  1
  O2-  O240  1  0.59797854  0.26133322  0.22712506  1
  O2-  O241  1  0.58940581  0.25733210  0.73166537  1
  O2-  O242  1  0.58970928  0.58938383  0.22986744  1
  O2-  O243  1  0.59771486  0.59825149  0.73602820  1
  O2-  O244  1  0.59734608  0.93199291  0.23424478  1
  O2-  O245  1  0.59539397  0.92969426  0.73223931  1
  O2-  O246  1  0.92821159  0.26407698  0.22843721  1
  O2-  O247  1  0.92796468  0.25908011  0.72893189  1
  O2-  O248  1  0.93194107  0.59758059  0.23470553  1
  O2-  O249  1  0.93150008  0.59336891  0.72825604  1
  O2-  O250  1  0.92897256  0.92708342  0.22949551  1
  O2-  O251  1  0.92717993  0.92518999  0.72714140  1
  O2-  O252  1  0.09457143  0.23627205  0.27367934  1
  O2-  O253  1  0.09864954  0.23461255  0.76451664  1
  O2-  O254  1  0.09401905  0.57352170  0.27318138  1
  O2-  O255  1  0.09631314  0.56698145  0.77292868  1
  O2-  O256  1  0.09481766  0.90314616  0.27197038  1
  O2-  O257  1  0.09644764  0.90578237  0.76570093  1
  O2-  O258  1  0.43132781  0.23609465  0.26718015  1
  O2-  O259  1  0.42430433  0.23777615  0.77009957  1
  O2-  O260  1  0.42687962  0.57006924  0.26842885  1
  O2-  O261  1  0.42700701  0.57166587  0.77411986  1
  O2-  O262  1  0.42750193  0.90524592  0.27468905  1
  O2-  O263  1  0.42776097  0.90544029  0.77509540  1
  O2-  O264  1  0.76354743  0.23771808  0.27290271  1
  O2-  O265  1  0.76309363  0.24372043  0.77229773  1
  O2-  O266  1  0.76338570  0.57315493  0.26377476  1
  O2-  O267  1  0.76349304  0.57362069  0.77103431  1
  O2-  O268  1  0.76351236  0.90751398  0.27098190  1
  O2-  O269  1  0.75690455  0.90874020  0.76779083  1
  O2-  O270  1  0.06836282  0.07133983  0.48155248  1
  O2-  O271  1  0.07080079  0.06782934  0.97949095  1
  O2-  O272  1  0.07227898  0.40256780  0.47704576  1
  O2-  O273  1  0.06795908  0.40193536  0.98374672  1
  O2-  O274  1  0.07353568  0.73909020  0.47818930  1
  O2-  O275  1  0.07274240  0.73758755  0.97782611  1
  O2-  O276  1  0.40525362  0.07154319  0.47904406  1
  O2-  O277  1  0.40370081  0.07235246  0.97973100  1
  O2-  O278  1  0.40598975  0.40567671  0.47548945  1
  O2-  O279  1  0.40330902  0.40307286  0.98146955  1
  O2-  O280  1  0.40182300  0.73590516  0.48583240  1
  O2-  O281  1  0.40301468  0.73599649  0.98264057  1
  O2-  O282  1  0.73683624  0.07145902  0.48169115  1
  O2-  O283  1  0.73857603  0.07531707  0.97625766  1
  O2-  O284  1  0.74078575  0.40706840  0.47950612  1
  O2-  O285  1  0.73912808  0.40667512  0.97542801  1
  O2-  O286  1  0.74082576  0.74160842  0.48296554  1
  O2-  O287  1  0.74139368  0.74112637  0.98123081  1
  O2-  O288  1  0.09779049  0.23743177  0.47752857  1
  O2-  O289  1  0.09635052  0.23428370  0.98579958  1
  O2-  O290  1  0.09422666  0.57037965  0.47820822  1
  O2-  O291  1  0.09751585  0.57275947  0.97495916  1
  O2-  O292  1  0.09311329  0.90664557  0.47799613  1
  O2-  O293  1  0.09857679  0.90241037  0.98337683  1
  O2-  O294  1  0.42885853  0.23656115  0.48213133  1
  O2-  O295  1  0.42709906  0.23819163  0.98118436  1
  O2-  O296  1  0.42560243  0.57140795  0.47989873  1
  O2-  O297  1  0.42870584  0.56960743  0.97668023  1
  O2-  O298  1  0.43029793  0.90549919  0.47443145  1
  O2-  O299  1  0.42486030  0.90463665  0.97596784  1
  O2-  O300  1  0.76288013  0.23949471  0.47930410  1
  O2-  O301  1  0.76182496  0.24045735  0.97661169  1
  O2-  O302  1  0.76536813  0.57075867  0.48518995  1
  O2-  O303  1  0.76053959  0.57561188  0.97954263  1
  O2-  O304  1  0.76286473  0.90670960  0.48008594  1
  O2-  O305  1  0.75752472  0.90940639  0.98022586  1
  O2-  O306  1  0.07034338  0.06875121  0.26947928  1
  O2-  O307  1  0.06897979  0.07120706  0.77056538  1
  O2-  O308  1  0.06791607  0.40695024  0.27078281  1
  O2-  O309  1  0.06836680  0.39924210  0.76901620  1
  O2-  O310  1  0.07236140  0.73804669  0.27277358  1
  O2-  O311  1  0.07356241  0.73814520  0.76965207  1
  O2-  O312  1  0.40477088  0.07211262  0.27217533  1
  O2-  O313  1  0.40370592  0.07175345  0.76935118  1
  O2-  O314  1  0.40372218  0.40436685  0.27131121  1
  O2-  O315  1  0.40452856  0.40522772  0.77142672  1
  O2-  O316  1  0.40266969  0.73611317  0.26415993  1
  O2-  O317  1  0.40129579  0.73641615  0.76752801  1
  O2-  O318  1  0.73701233  0.07176624  0.26862632  1
  O2-  O319  1  0.73876301  0.07545609  0.77277764  1
  O2-  O320  1  0.73815307  0.40531285  0.27106821  1
  O2-  O321  1  0.74219467  0.40942915  0.77462276  1
  O2-  O322  1  0.74571888  0.74408778  0.26688170  1
  O2-  O323  1  0.73480249  0.73890172  0.76747165  1
  O2-  O324  1  0.24091507  0.09350573  0.22873336  1
  O2-  O325  1  0.23724939  0.09647194  0.72884324  1
  O2-  O326  1  0.24089072  0.42796511  0.23207736  1
  O2-  O327  1  0.23609880  0.42712296  0.73421919  1
  O2-  O328  1  0.23747248  0.76158896  0.23261208  1
  O2-  O329  1  0.23988699  0.76417869  0.72501796  1
  O2-  O330  1  0.57248691  0.09565825  0.22884407  1
  O2-  O331  1  0.56824552  0.09143055  0.72815715  1
  O2-  O332  1  0.56833804  0.42774938  0.23054309  1
  O2-  O333  1  0.57519462  0.42467146  0.74072184  1
  O2-  O334  1  0.57302303  0.75757083  0.23723730  1
  O2-  O335  1  0.57118032  0.76128777  0.72583657  1
  O2-  O336  1  0.90574387  0.09286875  0.22712488  1
  O2-  O337  1  0.90525735  0.09626159  0.72867716  1
  O2-  O338  1  0.90202788  0.43006612  0.22630310  1
  O2-  O339  1  0.90570157  0.42925595  0.72950094  1
  O2-  O340  1  0.90750889  0.76222083  0.23091166  1
  O2-  O341  1  0.90637184  0.76107000  0.72887769  1
  O2-  O342  1  0.26101417  0.26009356  0.02272497  1
  O2-  O343  1  0.26130458  0.26327486  0.52416966  1
  O2-  O344  1  0.26544268  0.59763826  0.01650498  1
  O2-  O345  1  0.26089297  0.59537826  0.52232078  1
  O2-  O346  1  0.26113622  0.93012644  0.01855661  1
  O2-  O347  1  0.26590586  0.92834679  0.51683765  1
  O2-  O348  1  0.59530749  0.26182353  0.02295641  1
  O2-  O349  1  0.59165418  0.25825426  0.51717239  1
  O2-  O350  1  0.59230731  0.59207916  0.01801623  1
  O2-  O351  1  0.59479584  0.59546646  0.51659093  1
  O2-  O352  1  0.59503646  0.93130522  0.01459624  1
  O2-  O353  1  0.59806564  0.93021802  0.51854521  1
  O2-  O354  1  0.92530491  0.26215679  0.02412513  1
  O2-  O355  1  0.93042574  0.26169581  0.51808907  1
  O2-  O356  1  0.93196976  0.59690941  0.01349145  1
  O2-  O357  1  0.92900831  0.59731243  0.52420891  1
  O2-  O358  1  0.92783307  0.92463097  0.02203147  1
  O2-  O359  1  0.92794236  0.92806338  0.52288394  1
