# generated using pymatgen
data_Sr7Ca15Pr50Mn72O216
_symmetry_space_group_name_H-M   'P 1'
_cell_length_a   16.55521354
_cell_length_b   16.60354790
_cell_length_c   15.59118631
_cell_angle_alpha   90.00085689
_cell_angle_beta   89.99364118
_cell_angle_gamma   89.99389923
_symmetry_Int_Tables_number   1
_chemical_formula_structural   Sr7Ca15Pr50Mn72O216
_chemical_formula_sum   'Sr7 Ca15 Pr50 Mn72 O216'
_cell_volume   4285.63166789
_cell_formula_units_Z   1
loop_
 _symmetry_equiv_pos_site_id
 _symmetry_equiv_pos_as_xyz
  1  'x, y, z'
loop_
 _atom_type_symbol
 _atom_type_oxidation_number
  Sr2+  2.0
  Ca2+  2.0
  Pr3+  3.0
  Mn3.30+  3.3
  O2-  -2.0
loop_
 _atom_site_type_symbol
 _atom_site_label
 _atom_site_symmetry_multiplicity
 _atom_site_fract_x
 _atom_site_fract_y
 _atom_site_fract_z
 _atom_site_occupancy
  Sr2+  Sr0  1  0.83185448  0.82374122  0.87377450  1
  Sr2+  Sr1  1  0.16728527  0.17623862  0.12394738  1
  Sr2+  Sr2  1  0.66539497  0.34270017  0.12391982  1
  Sr2+  Sr3  1  0.16510674  0.15903979  0.37405200  1
  Sr2+  Sr4  1  0.66712153  0.67708320  0.12420235  1
  Sr2+  Sr5  1  -0.00027557  0.01028105  0.62471424  1
  Sr2+  Sr6  1  0.16537349  0.82435087  0.37516596  1
  Ca2+  Ca7  1  0.49717258  0.48447134  0.37582360  1
  Ca2+  Ca8  1  0.49880658  0.81765116  0.87527013  1
  Ca2+  Ca9  1  0.82713737  0.48537529  0.87430045  1
  Ca2+  Ca10  1  0.83643920  0.84622589  0.12409511  1
  Ca2+  Ca11  1  0.33006883  0.34821087  0.62489281  1
  Ca2+  Ca12  1  0.66525471  0.68039678  0.62678797  1
  Ca2+  Ca13  1  0.67227009  0.32170502  0.87386958  1
  Ca2+  Ca14  1  0.16071746  0.81811694  0.87425022  1
  Ca2+  Ca15  1  0.16848752  0.51302324  0.12446143  1
  Ca2+  Ca16  1  1.00526777  0.31835038  0.37569710  1
  Ca2+  Ca17  1  0.32747923  0.01388468  0.62434969  1
  Ca2+  Ca18  1  0.66507619  0.34856772  0.62716428  1
  Ca2+  Ca19  1  0.83411031  0.51349045  0.62598873  1
  Ca2+  Ca20  1  0.16314954  0.15221294  0.87412700  1
  Ca2+  Ca21  1  0.82973252  0.81912196  0.37621666  1
  Pr3+  Pr22  1  -0.00323243  0.67756883  0.62393441  1
  Pr3+  Pr23  1  0.33629692  0.32077709  0.37751927  1
  Pr3+  Pr24  1  0.83481895  0.84465755  0.62539639  1
  Pr3+  Pr25  1  0.33541387  0.98562659  0.87464941  1
  Pr3+  Pr26  1  -0.00480934  0.68116738  0.12520985  1
  Pr3+  Pr27  1  0.33392255  0.98840878  0.37505495  1
  Pr3+  Pr28  1  0.16243076  0.48812721  0.87488294  1
  Pr3+  Pr29  1  0.33066102  0.67660954  0.12419247  1
  Pr3+  Pr30  1  0.66983963  0.65392876  0.37626471  1
  Pr3+  Pr31  1  0.99976180  0.65432283  0.87438536  1
  Pr3+  Pr32  1  0.83371494  0.51271378  0.12402666  1
  Pr3+  Pr33  1  0.33036704  0.67961177  0.62583288  1
  Pr3+  Pr34  1  0.49616735  0.81962814  0.37528335  1
  Pr3+  Pr35  1  1.00482634  0.98729177  0.37588477  1
  Pr3+  Pr36  1  0.50192683  0.84635526  0.62727780  1
  Pr3+  Pr37  1  1.00198250  0.31977412  0.87348865  1
  Pr3+  Pr38  1  1.00187776  0.65669025  0.37504293  1
  Pr3+  Pr39  1  0.66580622  0.32281185  0.37647467  1
  Pr3+  Pr40  1  0.16893330  0.84557656  0.12383425  1
  Pr3+  Pr41  1  0.16974699  0.51213750  0.62531432  1
  Pr3+  Pr42  1  1.00507998  0.98520896  0.87388019  1
  Pr3+  Pr43  1  0.83249256  0.48817394  0.37617162  1
  Pr3+  Pr44  1  0.67100085  0.98525620  0.37684138  1
  Pr3+  Pr45  1  0.32758849  0.34753175  0.12451399  1
  Pr3+  Pr46  1  0.50093544  0.48687073  0.87540136  1
  Pr3+  Pr47  1  0.50292615  0.17926761  0.12475521  1
  Pr3+  Pr48  1  0.17128234  0.17990816  0.62559569  1
  Pr3+  Pr49  1  0.66535510  0.01141680  0.62673993  1
  Pr3+  Pr50  1  -0.00266913  0.34580123  0.12638807  1
  Pr3+  Pr51  1  0.66737460  0.00876887  0.12378753  1
  Pr3+  Pr52  1  0.33509557  0.65488777  0.87473077  1
  Pr3+  Pr53  1  0.33043357  0.01264538  0.12469074  1
  Pr3+  Pr54  1  0.33781118  0.64999654  0.37559219  1
  Pr3+  Pr55  1  0.50154912  0.18199678  0.62597760  1
  Pr3+  Pr56  1  -0.00498993  0.34689070  0.62342525  1
  Pr3+  Pr57  1  0.50049349  0.15655043  0.87524645  1
  Pr3+  Pr58  1  0.50521182  0.84427884  0.12338310  1
  Pr3+  Pr59  1  0.83367612  0.15600580  0.37528664  1
  Pr3+  Pr60  1  0.17062183  0.84970911  0.62583500  1
  Pr3+  Pr61  1  0.50626672  0.51188202  0.12583308  1
  Pr3+  Pr62  1  0.49555395  0.15494775  0.37554580  1
  Pr3+  Pr63  1  0.33466057  0.31941872  0.87245254  1
  Pr3+  Pr64  1  0.16183337  0.48562095  0.37492867  1
  Pr3+  Pr65  1  0.50533503  0.51269999  0.62514249  1
  Pr3+  Pr66  1  0.67013794  0.98558802  0.87354069  1
  Pr3+  Pr67  1  0.67259063  0.65376146  0.87385295  1
  Pr3+  Pr68  1  0.83758033  0.18007501  0.62532976  1
  Pr3+  Pr69  1  -0.00276637  0.01301343  0.12477731  1
  Pr3+  Pr70  1  0.82929863  0.15547062  0.87454271  1
  Pr3+  Pr71  1  0.83738835  0.18143798  0.12438452  1
  Mn3.30+  Mn72  1  0.16702631  -0.00026490  -0.00226606  1
  Mn3.30+  Mn73  1  0.16731807  0.00220583  0.50068177  1
  Mn3.30+  Mn74  1  0.16590528  0.33261803  -0.00056871  1
  Mn3.30+  Mn75  1  0.16613784  0.33356145  0.50143785  1
  Mn3.30+  Mn76  1  0.16540995  0.66596853  0.00065744  1
  Mn3.30+  Mn77  1  0.16699521  0.66738793  0.49869767  1
  Mn3.30+  Mn78  1  0.50011484  -0.00164561  -0.00208367  1
  Mn3.30+  Mn79  1  0.49878405  0.00043239  0.50267154  1
  Mn3.30+  Mn80  1  0.50071766  0.33266650  -0.00208671  1
  Mn3.30+  Mn81  1  0.50033753  0.33546755  0.50378695  1
  Mn3.30+  Mn82  1  0.50151203  0.66675478  -0.00179103  1
  Mn3.30+  Mn83  1  0.50209525  0.66523010  0.50148225  1
  Mn3.30+  Mn84  1  0.83375377  -0.00113923  -0.00006192  1
  Mn3.30+  Mn85  1  0.83462498  -0.00071901  0.49938555  1
  Mn3.30+  Mn86  1  0.83215677  0.33622871  -0.00154567  1
  Mn3.30+  Mn87  1  0.83278463  0.33509817  0.50016675  1
  Mn3.30+  Mn88  1  0.83339185  0.66801474  -0.00049083  1
  Mn3.30+  Mn89  1  0.83142197  0.66623208  0.50180670  1
  Mn3.30+  Mn90  1  0.00083658  0.16871549  0.25058962  1
  Mn3.30+  Mn91  1  0.00186627  0.16621305  0.74988483  1
  Mn3.30+  Mn92  1  0.00170912  0.50033329  0.24919994  1
  Mn3.30+  Mn93  1  -0.00462673  0.49955361  0.75049453  1
  Mn3.30+  Mn94  1  -0.00254193  0.83384776  0.25053227  1
  Mn3.30+  Mn95  1  0.00118020  0.83204033  0.74999778  1
  Mn3.30+  Mn96  1  0.33234087  0.16729676  0.24964606  1
  Mn3.30+  Mn97  1  0.33269492  0.16549333  0.75010981  1
  Mn3.30+  Mn98  1  0.33321022  0.49886416  0.25005010  1
  Mn3.30+  Mn99  1  0.33436645  0.49889119  0.74979394  1
  Mn3.30+  Mn100  1  0.33397468  0.83160617  0.24935707  1
  Mn3.30+  Mn101  1  0.33306515  0.83366475  0.75264606  1
  Mn3.30+  Mn102  1  0.66643769  0.16608198  0.25101406  1
  Mn3.30+  Mn103  1  0.66690485  0.17023621  0.74870702  1
  Mn3.30+  Mn104  1  0.66519188  0.49947772  0.25247171  1
  Mn3.30+  Mn105  1  0.66989825  0.49944622  0.74754223  1
  Mn3.30+  Mn106  1  0.66934843  0.83251366  0.24986696  1
  Mn3.30+  Mn107  1  0.66505712  0.83116719  0.75035273  1
  Mn3.30+  Mn108  1  0.16598946  0.00044166  0.25001050  1
  Mn3.30+  Mn109  1  0.16885266  0.00103287  0.75090709  1
  Mn3.30+  Mn110  1  0.16509642  0.33391712  0.24878268  1
  Mn3.30+  Mn111  1  0.16730528  0.33282461  0.74975816  1
  Mn3.30+  Mn112  1  0.16658710  0.66564255  0.24936709  1
  Mn3.30+  Mn113  1  0.16581413  0.66790533  0.75060467  1
  Mn3.30+  Mn114  1  0.50132073  -0.00074243  0.25020138  1
  Mn3.30+  Mn115  1  0.49776945  0.00006308  0.75016654  1
  Mn3.30+  Mn116  1  0.49894244  0.33414593  0.25026068  1
  Mn3.30+  Mn117  1  0.50219738  0.33418308  0.74957175  1
  Mn3.30+  Mn118  1  0.50111029  0.66475794  0.25073900  1
  Mn3.30+  Mn119  1  0.50200828  0.66718450  0.75028488  1
  Mn3.30+  Mn120  1  0.83369263  -0.00219688  0.25110012  1
  Mn3.30+  Mn121  1  0.83446015  0.00027174  0.74947553  1
  Mn3.30+  Mn122  1  0.83418160  0.33466445  0.25230783  1
  Mn3.30+  Mn123  1  0.83049669  0.33683034  0.74873802  1
  Mn3.30+  Mn124  1  0.83345448  0.66956064  0.25040306  1
  Mn3.30+  Mn125  1  0.83156809  0.66437205  0.74821254  1
  Mn3.30+  Mn126  1  0.00115284  0.16710987  -0.00153245  1
  Mn3.30+  Mn127  1  0.00161807  0.16812293  0.50051222  1
  Mn3.30+  Mn128  1  -0.00091803  0.49995043  -0.00057883  1
  Mn3.30+  Mn129  1  -0.00160408  0.49944933  0.50013364  1
  Mn3.30+  Mn130  1  0.00012045  0.83285044  -0.00074083  1
  Mn3.30+  Mn131  1  -0.00125704  0.83309543  0.49933136  1
  Mn3.30+  Mn132  1  0.33133143  0.16628818  -0.00249616  1
  Mn3.30+  Mn133  1  0.33319437  0.16644975  0.50258370  1
  Mn3.30+  Mn134  1  0.33213519  0.49972168  -0.00032603  1
  Mn3.30+  Mn135  1  0.33504224  0.49805180  0.50094134  1
  Mn3.30+  Mn136  1  0.33368020  0.83173671  -0.00248889  1
  Mn3.30+  Mn137  1  0.33342645  0.83391477  0.50068424  1
  Mn3.30+  Mn138  1  0.66698395  0.16765703  -0.00064961  1
  Mn3.30+  Mn139  1  0.66653959  0.16802143  0.50137389  1
  Mn3.30+  Mn140  1  0.66820305  0.49838992  -0.00119497  1
  Mn3.30+  Mn141  1  0.66708513  0.50017447  0.50207462  1
  Mn3.30+  Mn142  1  0.66797523  0.83210742  0.00000175  1
  Mn3.30+  Mn143  1  0.66650353  0.83146987  0.50075121  1
  O2-  O144  1  0.01714644  0.16224342  0.12382722  1
  O2-  O145  1  0.02559372  0.16727783  0.62687380  1
  O2-  O146  1  0.02719390  0.49314533  0.12622906  1
  O2-  O147  1  0.02622545  0.49564639  0.62495935  1
  O2-  O148  1  0.02538707  0.83034109  0.12385980  1
  O2-  O149  1  0.02557244  0.82641838  0.62547792  1
  O2-  O150  1  0.35881786  0.16187001  0.12292047  1
  O2-  O151  1  0.35918397  0.15658901  0.62761418  1
  O2-  O152  1  0.36131458  0.49531691  0.12498630  1
  O2-  O153  1  0.35942366  0.49577162  0.62757944  1
  O2-  O154  1  0.36121995  0.82596769  0.12430656  1
  O2-  O155  1  0.35864797  0.82665458  0.62714753  1
  O2-  O156  1  0.69301839  0.15880052  0.12572033  1
  O2-  O157  1  0.69399012  0.15835603  0.62413012  1
  O2-  O158  1  0.68903389  0.49650676  0.12594533  1
  O2-  O159  1  0.69446998  0.49046913  0.62434595  1
  O2-  O160  1  0.69257224  0.83616384  0.12745698  1
  O2-  O161  1  0.69012761  0.83034951  0.62374813  1
  O2-  O162  1  0.14091604  0.32970294  0.12146398  1
  O2-  O163  1  0.13976807  0.32958861  0.62683625  1
  O2-  O164  1  0.14040582  0.65830717  0.12426709  1
  O2-  O165  1  0.14238591  0.65988970  0.62365691  1
  O2-  O166  1  0.14298844  0.99376245  0.12225465  1
  O2-  O167  1  0.14845203  0.99674651  0.62642163  1
  O2-  O168  1  0.47293968  0.32778402  0.12107245  1
  O2-  O169  1  0.47204880  0.33025207  0.62694261  1
  O2-  O170  1  0.47538562  0.66015908  0.12388998  1
  O2-  O171  1  0.47366104  0.66048546  0.62518953  1
  O2-  O172  1  0.47455026  0.99242985  0.12170825  1
  O2-  O173  1  0.47021564  0.99326352  0.62628611  1
  O2-  O174  1  0.81487734  0.33026208  0.12552314  1
  O2-  O175  1  0.80610838  0.32443916  0.62377443  1
  O2-  O176  1  0.81547530  0.65894539  0.12572217  1
  O2-  O177  1  0.80638276  0.65805492  0.62406019  1
  O2-  O178  1  0.81059129  0.99442373  0.12723690  1
  O2-  O179  1  0.81003770  0.99592522  0.62457404  1
  O2-  O180  1  0.31616839  0.17270835  0.37602780  1
  O2-  O181  1  0.30570183  0.17290042  0.87343652  1
  O2-  O182  1  0.30659288  0.50235982  0.37454319  1
  O2-  O183  1  0.30666625  0.50601185  0.87348342  1
  O2-  O184  1  0.31562090  0.83917174  0.37377737  1
  O2-  O185  1  0.30230186  0.83775398  0.87470438  1
  O2-  O186  1  0.63952683  0.17189463  0.37785874  1
  O2-  O187  1  0.64434385  0.17397412  0.87255850  1
  O2-  O188  1  0.63924580  0.50621714  0.37788873  1
  O2-  O189  1  0.64319925  0.50773962  0.87254499  1
  O2-  O190  1  0.63898977  0.83860488  0.37680026  1
  O2-  O191  1  0.64107951  0.83841631  0.87260867  1
  O2-  O192  1  0.97698419  0.17275037  0.37511065  1
  O2-  O193  1  0.97329015  0.17141322  0.87396704  1
  O2-  O194  1  0.97595319  0.50891299  0.37495613  1
  O2-  O195  1  0.97091203  0.50573707  0.87271740  1
  O2-  O196  1  0.97317523  0.83870650  0.37491133  1
  O2-  O197  1  0.98147250  0.83610923  0.87481650  1
  O2-  O198  1  0.18979192  0.00167381  0.37603128  1
  O2-  O199  1  0.19206267  0.00756629  0.87498723  1
  O2-  O200  1  0.19257834  0.33877095  0.37679192  1
  O2-  O201  1  0.19175962  0.34260996  0.87429014  1
  O2-  O202  1  0.19297865  0.66938954  0.37546682  1
  O2-  O203  1  0.19069424  0.67192879  0.87638384  1
  O2-  O204  1  0.52686012  0.00632487  0.37798587  1
  O2-  O205  1  0.52799040  0.00929902  0.87485473  1
  O2-  O206  1  0.52137978  0.33605255  0.37940481  1
  O2-  O207  1  0.52855690  0.33666395  0.87374000  1
  O2-  O208  1  0.52550858  0.67381870  0.37768452  1
  O2-  O209  1  0.52701554  0.67152314  0.87353940  1
  O2-  O210  1  0.86047557  0.00828499  0.37499485  1
  O2-  O211  1  0.85854398  0.00666097  0.87286176  1
  O2-  O212  1  0.86260706  0.33997139  0.37623757  1
  O2-  O213  1  0.85877867  0.33893335  0.87378242  1
  O2-  O214  1  0.85813794  0.67340493  0.37501672  1
  O2-  O215  1  0.85680387  0.67142042  0.87442232  1
  O2-  O216  1  0.24320412  0.08964357  0.01895678  1
  O2-  O217  1  0.23931641  0.09610901  0.51945802  1
  O2-  O218  1  0.23741704  0.42950733  0.02071580  1
  O2-  O219  1  0.23471498  0.42909515  0.51942296  1
  O2-  O220  1  0.23798758  0.75766724  0.02387973  1
  O2-  O221  1  0.23931314  0.76052420  0.52305523  1
  O2-  O222  1  0.57184297  0.09172891  0.02100707  1
  O2-  O223  1  0.57028441  0.09366541  0.52398325  1
  O2-  O224  1  0.56824662  0.42882685  0.01595370  1
  O2-  O225  1  0.57184465  0.42905720  0.52058384  1
  O2-  O226  1  0.57115696  0.76200544  0.01850032  1
  O2-  O227  1  0.56822346  0.76421917  0.51904622  1
  O2-  O228  1  0.90327105  0.09485870  0.01954726  1
  O2-  O229  1  0.90525730  0.09859035  0.51614695  1
  O2-  O230  1  0.90644079  0.42782361  0.02255983  1
  O2-  O231  1  0.90233527  0.42926629  0.52262293  1
  O2-  O232  1  0.90619721  0.76157951  0.02197289  1
  O2-  O233  1  0.90365540  0.75796126  0.52369310  1
  O2-  O234  1  0.26246685  0.26452909  0.23303921  1
  O2-  O235  1  0.26490293  0.26168300  0.72743353  1
  O2-  O236  1  0.26569759  0.59438228  0.23238996  1
  O2-  O237  1  0.25997702  0.59557448  0.73039927  1
  O2-  O238  1  0.26199024  0.92498752  0.22885277  1
  O2-  O239  1  0.26516044  0.93007221  0.73006481  1
  O2-  O240  1  0.59104364  0.25777182  0.23300045  1
  O2-  O241  1  0.59460074  0.26087568  0.72443454  1
  O2-  O242  1  0.59242134  0.59352660  0.23247161  1
  O2-  O243  1  0.59842898  0.59371021  0.72743325  1
  O2-  O244  1  0.59636686  0.92856837  0.23095957  1
  O2-  O245  1  0.59151291  0.92932044  0.72862555  1
  O2-  O246  1  0.92565985  0.25969872  0.22969609  1
  O2-  O247  1  0.92819114  0.26384466  0.73097396  1
  O2-  O248  1  0.92971471  0.59456523  0.23105775  1
  O2-  O249  1  0.92951114  0.59560777  0.72989845  1
  O2-  O250  1  0.92960106  0.93047914  0.23119033  1
  O2-  O251  1  0.92548958  0.92314510  0.73353674  1
  O2-  O252  1  0.09139122  0.24266490  0.26539855  1
  O2-  O253  1  0.09563867  0.23804668  0.77207567  1
  O2-  O254  1  0.09421830  0.57340224  0.27283919  1
  O2-  O255  1  0.09317253  0.57163298  0.77016677  1
  O2-  O256  1  0.09049633  0.90674573  0.26674902  1
  O2-  O257  1  0.09903609  0.90576778  0.76867311  1
  O2-  O258  1  0.42832297  0.23819819  0.26817165  1
  O2-  O259  1  0.42859001  0.23694095  0.77076401  1
  O2-  O260  1  0.42754234  0.56839778  0.27249178  1
  O2-  O261  1  0.42922304  0.57289043  0.77150115  1
  O2-  O262  1  0.42978754  0.90634285  0.26921543  1
  O2-  O263  1  0.42731011  0.90199834  0.77559439  1
  O2-  O264  1  0.75930423  0.23943934  0.27159661  1
  O2-  O265  1  0.76464485  0.23794395  0.76769469  1
  O2-  O266  1  0.76219354  0.57349701  0.27105529  1
  O2-  O267  1  0.76231473  0.57078673  0.77317403  1
  O2-  O268  1  0.76079133  0.90618725  0.27673146  1
  O2-  O269  1  0.75518168  0.90819992  0.76495223  1
  O2-  O270  1  0.07163765  0.07283313  0.48166580  1
  O2-  O271  1  0.06943490  0.06932270  0.98220129  1
  O2-  O272  1  0.06986001  0.40533132  0.47964248  1
  O2-  O273  1  0.07081827  0.40505455  0.97706990  1
  O2-  O274  1  0.06833776  0.73839985  0.48216950  1
  O2-  O275  1  0.06977930  0.73594969  0.98380799  1
  O2-  O276  1  0.40734836  0.07171287  0.47698578  1
  O2-  O277  1  0.40763378  0.07097303  0.97859258  1
  O2-  O278  1  0.40385835  0.40472840  0.48192453  1
  O2-  O279  1  0.40456579  0.40428396  0.97715859  1
  O2-  O280  1  0.40494386  0.73687771  0.48143320  1
  O2-  O281  1  0.40291519  0.73733356  0.97961183  1
  O2-  O282  1  0.73993137  0.07165383  0.47956287  1
  O2-  O283  1  0.73794294  0.07326952  0.97874908  1
  O2-  O284  1  0.73915865  0.40721106  0.47483517  1
  O2-  O285  1  0.73816858  0.40479998  0.97895520  1
  O2-  O286  1  0.73680197  0.73812765  0.48131725  1
  O2-  O287  1  0.73771103  0.73757290  0.98115587  1
  O2-  O288  1  0.09490229  0.24038079  0.48587073  1
  O2-  O289  1  0.09430854  0.23915502  0.97517502  1
  O2-  O290  1  0.09540160  0.57216043  0.48024034  1
  O2-  O291  1  0.09244419  0.57310006  0.97603806  1
  O2-  O292  1  0.09232839  0.90905617  0.48481147  1
  O2-  O293  1  0.09769017  0.90342125  0.97875716  1
  O2-  O294  1  0.42964745  0.23758553  0.48411556  1
  O2-  O295  1  0.42684834  0.23857961  0.97711889  1
  O2-  O296  1  0.43099570  0.57129125  0.47876740  1
  O2-  O297  1  0.42700784  0.57218490  0.97802785  1
  O2-  O298  1  0.42950399  0.90607679  0.47966544  1
  O2-  O299  1  0.42984968  0.90512577  0.97569661  1
  O2-  O300  1  0.76199857  0.24113214  0.47622732  1
  O2-  O301  1  0.76463776  0.23912474  0.98366801  1
  O2-  O302  1  0.76077577  0.57327041  0.47576960  1
  O2-  O303  1  0.76273666  0.57141207  0.98130500  1
  O2-  O304  1  0.75888220  0.90413907  0.47999047  1
  O2-  O305  1  0.75800285  0.91043179  0.98043086  1
  O2-  O306  1  0.06815005  0.07223259  0.26523890  1
  O2-  O307  1  0.07261518  0.07109099  0.77062072  1
  O2-  O308  1  0.07075943  0.40565670  0.27299829  1
  O2-  O309  1  0.06905419  0.40679144  0.77021972  1
  O2-  O310  1  0.06778772  0.73819655  0.26551134  1
  O2-  O311  1  0.07045212  0.73580406  0.76747530  1
  O2-  O312  1  0.40793169  0.07118800  0.26920345  1
  O2-  O313  1  0.40712951  0.07324386  0.77586881  1
  O2-  O314  1  0.39992562  0.40204894  0.26734117  1
  O2-  O315  1  0.40850890  0.40621334  0.77456968  1
  O2-  O316  1  0.40597228  0.73605294  0.27013669  1
  O2-  O317  1  0.40129902  0.73748096  0.76853328  1
  O2-  O318  1  0.73907219  0.07106789  0.27183359  1
  O2-  O319  1  0.73783366  0.07386033  0.76987443  1
  O2-  O320  1  0.74020723  0.40754358  0.27486974  1
  O2-  O321  1  0.73618612  0.40337084  0.77096559  1
  O2-  O322  1  0.73655280  0.73943369  0.27200650  1
  O2-  O323  1  0.73727130  0.73627987  0.76543159  1
  O2-  O324  1  0.24492096  0.09064220  0.23157389  1
  O2-  O325  1  0.23831194  0.09594114  0.73125707  1
  O2-  O326  1  0.23643546  0.43006675  0.22799454  1
  O2-  O327  1  0.23702016  0.42918745  0.73132825  1
  O2-  O328  1  0.23890907  0.75786660  0.22581743  1
  O2-  O329  1  0.23893016  0.76227818  0.72766963  1
  O2-  O330  1  0.57232883  0.09283955  0.22896459  1
  O2-  O331  1  0.57321724  0.09616415  0.72875335  1
  O2-  O332  1  0.56848950  0.42641502  0.23397724  1
  O2-  O333  1  0.57166560  0.43225077  0.73184608  1
  O2-  O334  1  0.57039790  0.76524924  0.23339433  1
  O2-  O335  1  0.57039020  0.76170463  0.72897764  1
  O2-  O336  1  0.90356699  0.09546804  0.23144528  1
  O2-  O337  1  0.90515532  0.09851680  0.73226353  1
  O2-  O338  1  0.90651942  0.43099712  0.22965465  1
  O2-  O339  1  0.90370249  0.42714221  0.72391116  1
  O2-  O340  1  0.90493493  0.76301712  0.22676012  1
  O2-  O341  1  0.90398548  0.75637593  0.72593885  1
  O2-  O342  1  0.26270811  0.26574518  0.01599572  1
  O2-  O343  1  0.26183944  0.26322919  0.52290445  1
  O2-  O344  1  0.26133373  0.59568682  0.01763149  1
  O2-  O345  1  0.26436755  0.59296940  0.51982814  1
  O2-  O346  1  0.26403504  0.92585479  0.02138237  1
  O2-  O347  1  0.26209609  0.92880138  0.51877479  1
  O2-  O348  1  0.58969195  0.25495401  0.01990483  1
  O2-  O349  1  0.59432963  0.26374467  0.52278871  1
  O2-  O350  1  0.59285821  0.59037536  0.01587775  1
  O2-  O351  1  0.59727132  0.59634172  0.52446071  1
  O2-  O352  1  0.59429306  0.92784976  0.01977361  1
  O2-  O353  1  0.59377168  0.92915805  0.52224673  1
  O2-  O354  1  0.92824830  0.26364909  0.01742634  1
  O2-  O355  1  0.92601826  0.26081126  0.52160412  1
  O2-  O356  1  0.92873301  0.59505159  0.02008658  1
  O2-  O357  1  0.92901628  0.59529797  0.51655543  1
  O2-  O358  1  0.93187545  0.92957334  0.01551980  1
  O2-  O359  1  0.92453493  0.92455135  0.51888949  1
