# generated using pymatgen
data_Sr7Ca15Pr50Mn72O216
_symmetry_space_group_name_H-M   'P 1'
_cell_length_a   16.55836876
_cell_length_b   16.60516522
_cell_length_c   15.59428053
_cell_angle_alpha   90.00409044
_cell_angle_beta   90.00291797
_cell_angle_gamma   89.99675100
_symmetry_Int_Tables_number   1
_chemical_formula_structural   Sr7Ca15Pr50Mn72O216
_chemical_formula_sum   'Sr7 Ca15 Pr50 Mn72 O216'
_cell_volume   4287.71679075
_cell_formula_units_Z   1
loop_
 _symmetry_equiv_pos_site_id
 _symmetry_equiv_pos_as_xyz
  1  'x, y, z'
loop_
 _atom_type_symbol
 _atom_type_oxidation_number
  Sr2+  2.0
  Ca2+  2.0
  Pr3+  3.0
  Mn3.30+  3.3
  O2-  -2.0
loop_
 _atom_site_type_symbol
 _atom_site_label
 _atom_site_symmetry_multiplicity
 _atom_site_fract_x
 _atom_site_fract_y
 _atom_site_fract_z
 _atom_site_occupancy
  Sr2+  Sr0  1  0.33002858  0.34248565  0.12422984  1
  Sr2+  Sr1  1  0.33227833  0.67430968  0.12470132  1
  Sr2+  Sr2  1  0.83115296  0.49006274  0.87571441  1
  Sr2+  Sr3  1  0.83747396  0.51174465  0.12321398  1
  Sr2+  Sr4  1  1.00149609  0.98876395  0.37622407  1
  Sr2+  Sr5  1  0.49585544  0.48693601  0.87505462  1
  Sr2+  Sr6  1  0.83130007  0.15922057  0.87552680  1
  Ca2+  Ca7  1  1.00302268  0.31903545  0.37434859  1
  Ca2+  Ca8  1  0.16353255  0.81908817  0.37412146  1
  Ca2+  Ca9  1  0.49546261  0.15096520  0.37560881  1
  Ca2+  Ca10  1  -0.00360382  0.01518393  0.62313301  1
  Ca2+  Ca11  1  -0.00286275  0.34759871  0.12516273  1
  Ca2+  Ca12  1  0.32859655  0.68142819  0.62569769  1
  Ca2+  Ca13  1  -0.00429273  0.34694910  0.62468073  1
  Ca2+  Ca14  1  0.83324728  0.82012035  0.37369296  1
  Ca2+  Ca15  1  -0.00265739  0.67927766  0.12532718  1
  Ca2+  Ca16  1  0.32971032  0.01416540  0.12582526  1
  Ca2+  Ca17  1  0.83425249  0.15334390  0.37524197  1
  Ca2+  Ca18  1  0.50416868  0.18175669  0.62382626  1
  Ca2+  Ca19  1  0.16334327  0.48308469  0.87665152  1
  Ca2+  Ca20  1  0.49495450  0.81812554  0.87481680  1
  Ca2+  Ca21  1  0.33421413  0.32185610  0.87523028  1
  Pr3+  Pr22  1  0.49607124  0.15992987  0.87408107  1
  Pr3+  Pr23  1  0.16267023  0.15488885  0.37468059  1
  Pr3+  Pr24  1  0.83972741  0.85041724  0.62275070  1
  Pr3+  Pr25  1  0.66543155  0.67943499  0.62715715  1
  Pr3+  Pr26  1  0.66693308  0.65347110  0.87463674  1
  Pr3+  Pr27  1  0.16151951  0.48603496  0.37388110  1
  Pr3+  Pr28  1  0.17166202  0.84524737  0.12747179  1
  Pr3+  Pr29  1  0.17011278  0.84653011  0.62291978  1
  Pr3+  Pr30  1  0.67179092  0.31600413  0.37466456  1
  Pr3+  Pr31  1  0.33561200  0.31783205  0.37386491  1
  Pr3+  Pr32  1  0.50198268  0.84618058  0.12344079  1
  Pr3+  Pr33  1  0.49962829  0.18009344  0.12700294  1
  Pr3+  Pr34  1  0.49854217  0.82226788  0.37592374  1
  Pr3+  Pr35  1  0.67284835  0.65538874  0.37539104  1
  Pr3+  Pr36  1  0.66402000  0.34708967  0.12482033  1
  Pr3+  Pr37  1  0.67298370  0.98595417  0.37468231  1
  Pr3+  Pr38  1  0.83833673  0.84213597  0.12708859  1
  Pr3+  Pr39  1  0.66566152  0.01337002  0.12578150  1
  Pr3+  Pr40  1  0.83774264  0.51108609  0.62587704  1
  Pr3+  Pr41  1  0.83826059  0.18139895  0.12672685  1
  Pr3+  Pr42  1  0.33261865  0.01469903  0.62476949  1
  Pr3+  Pr43  1  0.33300971  0.65583614  0.37523647  1
  Pr3+  Pr44  1  0.83887754  0.17966601  0.62352177  1
  Pr3+  Pr45  1  0.50133651  0.84585927  0.62658059  1
  Pr3+  Pr46  1  0.33510264  0.98738932  0.37402081  1
  Pr3+  Pr47  1  0.67106353  0.32175513  0.87555213  1
  Pr3+  Pr48  1  0.33170346  0.34314001  0.62548151  1
  Pr3+  Pr49  1  0.16970107  0.51330492  0.62534212  1
  Pr3+  Pr50  1  0.66385278  0.34394933  0.62542594  1
  Pr3+  Pr51  1  0.16446321  0.81932985  0.87522353  1
  Pr3+  Pr52  1  0.83251945  0.48648087  0.37433718  1
  Pr3+  Pr53  1  0.16421444  0.17876145  0.62298897  1
  Pr3+  Pr54  1  0.49677369  0.48799639  0.37515986  1
  Pr3+  Pr55  1  0.66959126  0.99067900  0.87508531  1
  Pr3+  Pr56  1  0.66414331  0.67772512  0.12253874  1
  Pr3+  Pr57  1  0.50066904  0.51259488  0.12339723  1
  Pr3+  Pr58  1  -0.00248012  0.67944660  0.62530149  1
  Pr3+  Pr59  1  1.00567978  0.64790619  0.87652206  1
  Pr3+  Pr60  1  0.33879528  0.98581112  0.87627912  1
  Pr3+  Pr61  1  0.16972987  0.17955019  0.12673828  1
  Pr3+  Pr62  1  0.83249385  0.82179044  0.87500315  1
  Pr3+  Pr63  1  0.16539654  0.15727254  0.87527354  1
  Pr3+  Pr64  1  0.16825712  0.51148250  0.12427064  1
  Pr3+  Pr65  1  1.00303731  0.98955340  0.87405084  1
  Pr3+  Pr66  1  0.33570309  0.65221032  0.87472985  1
  Pr3+  Pr67  1  1.00080388  0.32346586  0.87615971  1
  Pr3+  Pr68  1  0.66347899  0.01659015  0.62415273  1
  Pr3+  Pr69  1  0.50004912  0.51330871  0.62683370  1
  Pr3+  Pr70  1  -0.00189747  0.01209202  0.12701098  1
  Pr3+  Pr71  1  1.00129945  0.65839434  0.37324814  1
  Mn3.30+  Mn72  1  0.16912353  -0.00021131  0.00026233  1
  Mn3.30+  Mn73  1  0.16496314  -0.00031617  0.50062521  1
  Mn3.30+  Mn74  1  0.16680325  0.33376604  -0.00073493  1
  Mn3.30+  Mn75  1  0.16291100  0.33354820  0.50085842  1
  Mn3.30+  Mn76  1  0.16618060  0.66492418  0.00127700  1
  Mn3.30+  Mn77  1  0.16699231  0.66785513  0.50028726  1
  Mn3.30+  Mn78  1  0.49902009  0.00065079  0.00072933  1
  Mn3.30+  Mn79  1  0.50127529  0.00246088  0.49943411  1
  Mn3.30+  Mn80  1  0.49717036  0.33415448  -0.00018460  1
  Mn3.30+  Mn81  1  0.50026430  0.33077543  0.49863977  1
  Mn3.30+  Mn82  1  0.49790942  0.66764102  -0.00158400  1
  Mn3.30+  Mn83  1  0.49937347  0.66756685  0.50160587  1
  Mn3.30+  Mn84  1  0.83394458  0.00032487  0.00035913  1
  Mn3.30+  Mn85  1  0.83498325  0.00100045  0.49774566  1
  Mn3.30+  Mn86  1  0.83474553  0.33493265  0.00161551  1
  Mn3.30+  Mn87  1  0.83602710  0.33118656  0.49782246  1
  Mn3.30+  Mn88  1  0.83532380  0.66664246  0.00005268  1
  Mn3.30+  Mn89  1  0.83436615  0.66819489  0.50034638  1
  Mn3.30+  Mn90  1  -0.00052451  0.16849318  0.25163762  1
  Mn3.30+  Mn91  1  -0.00083966  0.16692544  0.74971980  1
  Mn3.30+  Mn92  1  -0.00138000  0.49939588  0.24902850  1
  Mn3.30+  Mn93  1  0.00256434  0.49691519  0.74986924  1
  Mn3.30+  Mn94  1  0.00251926  0.83254185  0.25167219  1
  Mn3.30+  Mn95  1  0.00093981  0.83463286  0.74918040  1
  Mn3.30+  Mn96  1  0.33348073  0.16454653  0.25067483  1
  Mn3.30+  Mn97  1  0.33366876  0.16857239  0.74831742  1
  Mn3.30+  Mn98  1  0.33158591  0.49914950  0.24989787  1
  Mn3.30+  Mn99  1  0.33127739  0.49849050  0.75091190  1
  Mn3.30+  Mn100  1  0.33270045  0.83336775  0.24990692  1
  Mn3.30+  Mn101  1  0.33423529  0.83243796  0.74987968  1
  Mn3.30+  Mn102  1  0.66719121  0.16549207  0.25196818  1
  Mn3.30+  Mn103  1  0.66541658  0.16791634  0.74864635  1
  Mn3.30+  Mn104  1  0.66722919  0.50047493  0.25028767  1
  Mn3.30+  Mn105  1  0.66627769  0.49915304  0.75026833  1
  Mn3.30+  Mn106  1  0.66870330  0.83269377  0.24977653  1
  Mn3.30+  Mn107  1  0.66579820  0.83539613  0.75157109  1
  Mn3.30+  Mn108  1  0.16715179  -0.00130643  0.25091066  1
  Mn3.30+  Mn109  1  0.16684506  0.00067318  0.74867026  1
  Mn3.30+  Mn110  1  0.16320611  0.33335653  0.24985383  1
  Mn3.30+  Mn111  1  0.16575633  0.33411769  0.74966685  1
  Mn3.30+  Mn112  1  0.16542407  0.66732663  0.24948181  1
  Mn3.30+  Mn113  1  0.16822422  0.66516093  0.74983526  1
  Mn3.30+  Mn114  1  0.49941822  0.00095293  0.24953827  1
  Mn3.30+  Mn115  1  0.50051476  0.00134333  0.75070786  1
  Mn3.30+  Mn116  1  0.50011615  0.33288368  0.25140511  1
  Mn3.30+  Mn117  1  0.49770425  0.33264624  0.74986913  1
  Mn3.30+  Mn118  1  0.50064468  0.66776147  0.25072160  1
  Mn3.30+  Mn119  1  0.49661234  0.66761199  0.74910405  1
  Mn3.30+  Mn120  1  0.83427177  -0.00073009  0.25196949  1
  Mn3.30+  Mn121  1  0.83462370  0.00218553  0.74963106  1
  Mn3.30+  Mn122  1  0.83703214  0.33250061  0.25183684  1
  Mn3.30+  Mn123  1  0.83411321  0.33344735  0.74892276  1
  Mn3.30+  Mn124  1  0.83562554  0.66719751  0.24889324  1
  Mn3.30+  Mn125  1  0.83413897  0.66699690  0.75090182  1
  Mn3.30+  Mn126  1  0.00020848  0.16757307  0.00061075  1
  Mn3.30+  Mn127  1  -0.00140378  0.16751245  0.49870289  1
  Mn3.30+  Mn128  1  0.00124077  0.49804343  0.00068487  1
  Mn3.30+  Mn129  1  0.00019455  0.49845089  0.49950546  1
  Mn3.30+  Mn130  1  0.00165632  0.83181821  0.00077767  1
  Mn3.30+  Mn131  1  0.00191056  0.83538980  0.49831157  1
  Mn3.30+  Mn132  1  0.33214371  0.16679124  -0.00021868  1
  Mn3.30+  Mn133  1  0.33552094  0.16649574  0.50084582  1
  Mn3.30+  Mn134  1  0.33078234  0.49726626  -0.00159274  1
  Mn3.30+  Mn135  1  0.33216167  0.50023843  0.50048534  1
  Mn3.30+  Mn136  1  0.33449213  0.83276675  0.00103610  1
  Mn3.30+  Mn137  1  0.33232537  0.83293836  0.49946065  1
  Mn3.30+  Mn138  1  0.66635696  0.16768525  0.00181908  1
  Mn3.30+  Mn139  1  0.66582012  0.16577541  0.49741290  1
  Mn3.30+  Mn140  1  0.66673918  0.50032689  -0.00050341  1
  Mn3.30+  Mn141  1  0.66650768  0.49926425  0.50047986  1
  Mn3.30+  Mn142  1  0.66564714  0.83446241  -0.00239835  1
  Mn3.30+  Mn143  1  0.66931790  0.83371885  0.50113273  1
  O2-  O144  1  0.02600949  0.15926098  0.12495892  1
  O2-  O145  1  0.02152273  0.15876917  0.62510002  1
  O2-  O146  1  0.02566880  0.49100293  0.12538774  1
  O2-  O147  1  0.02548321  0.49360122  0.62387419  1
  O2-  O148  1  0.02684439  0.82618744  0.12605067  1
  O2-  O149  1  0.02685430  0.82566875  0.62628136  1
  O2-  O150  1  0.35588425  0.16035518  0.12533020  1
  O2-  O151  1  0.36269699  0.16253570  0.62319705  1
  O2-  O152  1  0.35660642  0.49671266  0.12710498  1
  O2-  O153  1  0.35776092  0.49058331  0.62310552  1
  O2-  O154  1  0.35953411  0.82738690  0.12433811  1
  O2-  O155  1  0.35833207  0.82811297  0.62332171  1
  O2-  O156  1  0.69316361  0.16186278  0.12717122  1
  O2-  O157  1  0.69322385  0.16466734  0.62107018  1
  O2-  O158  1  0.68558836  0.49691494  0.12594120  1
  O2-  O159  1  0.69251474  0.49349116  0.62441602  1
  O2-  O160  1  0.69306023  0.82702494  0.12158369  1
  O2-  O161  1  0.69472933  0.82825815  0.62675005  1
  O2-  O162  1  0.14003145  0.32663981  0.12630176  1
  O2-  O163  1  0.13727469  0.32723176  0.62349176  1
  O2-  O164  1  0.13922205  0.65958244  0.12432798  1
  O2-  O165  1  0.14021337  0.66103829  0.62565048  1
  O2-  O166  1  0.14168362  0.99349152  0.12440957  1
  O2-  O167  1  0.13955612  0.99428791  0.62509314  1
  O2-  O168  1  0.47993206  0.32870653  0.12664468  1
  O2-  O169  1  0.47593225  0.32686466  0.62088464  1
  O2-  O170  1  0.48238578  0.66207758  0.12539886  1
  O2-  O171  1  0.47108875  0.66208773  0.62433634  1
  O2-  O172  1  0.47201284  0.99282480  0.12559255  1
  O2-  O173  1  0.47554430  0.99168642  0.62659978  1
  O2-  O174  1  0.80781344  0.32856522  0.12918409  1
  O2-  O175  1  0.80764911  0.32816545  0.62190667  1
  O2-  O176  1  0.80875242  0.67056996  0.12435014  1
  O2-  O177  1  0.81047896  0.66097114  0.62627132  1
  O2-  O178  1  0.81015977  0.99111892  0.12596073  1
  O2-  O179  1  0.80831061  0.99668166  0.62364036  1
  O2-  O180  1  0.30745823  0.16920048  0.37759857  1
  O2-  O181  1  0.30942450  0.17303616  0.87371992  1
  O2-  O182  1  0.30773469  0.50679408  0.37702173  1
  O2-  O183  1  0.30503589  0.50670089  0.87214305  1
  O2-  O184  1  0.30699002  0.84019250  0.37626636  1
  O2-  O185  1  0.30770208  0.83948175  0.87627123  1
  O2-  O186  1  0.63749966  0.16964134  0.37453487  1
  O2-  O187  1  0.64162673  0.17267743  0.87727854  1
  O2-  O188  1  0.64108150  0.50737291  0.37629939  1
  O2-  O189  1  0.64617172  0.50348091  0.87367203  1
  O2-  O190  1  0.64212841  0.83723639  0.37711041  1
  O2-  O191  1  0.63682817  0.84438968  0.87432358  1
  O2-  O192  1  0.97523183  0.17493805  0.37435676  1
  O2-  O193  1  0.97992470  0.17327024  0.87530090  1
  O2-  O194  1  0.97465064  0.51190915  0.37549533  1
  O2-  O195  1  0.98025536  0.50145058  0.87497113  1
  O2-  O196  1  0.97498941  0.83191319  0.37596623  1
  O2-  O197  1  0.97624531  0.84217481  0.87276191  1
  O2-  O198  1  0.19230782  0.00798989  0.37715938  1
  O2-  O199  1  0.19395377  0.00652084  0.87412028  1
  O2-  O200  1  0.19191045  0.33701356  0.37717767  1
  O2-  O201  1  0.19235246  0.33615619  0.87217819  1
  O2-  O202  1  0.18991402  0.67191869  0.37628883  1
  O2-  O203  1  0.19203105  0.67348010  0.87412764  1
  O2-  O204  1  0.52788424  0.00394858  0.37337033  1
  O2-  O205  1  0.52680080  0.01248616  0.87440243  1
  O2-  O206  1  0.52777963  0.34241329  0.37566733  1
  O2-  O207  1  0.52577976  0.32961054  0.87697078  1
  O2-  O208  1  0.52899445  0.67316308  0.37683231  1
  O2-  O209  1  0.52279749  0.67206378  0.87289045  1
  O2-  O210  1  0.85198207  0.00824492  0.37371346  1
  O2-  O211  1  0.85841228  0.00222199  0.87614412  1
  O2-  O212  1  0.86146378  0.34017449  0.37512106  1
  O2-  O213  1  0.85515300  0.33335800  0.87363536  1
  O2-  O214  1  0.85577906  0.67196546  0.37581442  1
  O2-  O215  1  0.86032284  0.67316501  0.87367613  1
  O2-  O216  1  0.23694058  0.09481353  0.01837402  1
  O2-  O217  1  0.23995894  0.09424476  0.52315479  1
  O2-  O218  1  0.23531571  0.42768999  0.01916735  1
  O2-  O219  1  0.23578187  0.42623134  0.52032258  1
  O2-  O220  1  0.23523023  0.76285109  0.01702068  1
  O2-  O221  1  0.23786255  0.76064810  0.52040792  1
  O2-  O222  1  0.57145621  0.09554870  0.02354076  1
  O2-  O223  1  0.57084764  0.09545525  0.52361649  1
  O2-  O224  1  0.57061148  0.42636735  0.02090309  1
  O2-  O225  1  0.57101451  0.42900524  0.52123646  1
  O2-  O226  1  0.57462141  0.76170831  0.02020863  1
  O2-  O227  1  0.57146200  0.76128044  0.52340937  1
  O2-  O228  1  0.90685452  0.09239769  0.02340785  1
  O2-  O229  1  0.90360350  0.09603433  0.51659031  1
  O2-  O230  1  0.90842298  0.42528619  0.01602185  1
  O2-  O231  1  0.90225804  0.43144325  0.51728349  1
  O2-  O232  1  0.90333311  0.76384567  0.01548177  1
  O2-  O233  1  0.90751175  0.76175168  0.52280111  1
  O2-  O234  1  0.25854289  0.25835244  0.23555221  1
  O2-  O235  1  0.25608840  0.26008216  0.72417144  1
  O2-  O236  1  0.25681355  0.59278792  0.23433827  1
  O2-  O237  1  0.26241207  0.59537591  0.72604844  1
  O2-  O238  1  0.26400131  0.92920564  0.22870705  1
  O2-  O239  1  0.26377553  0.92797106  0.72920773  1
  O2-  O240  1  0.59831827  0.26094651  0.23103744  1
  O2-  O241  1  0.59509500  0.26190425  0.73142064  1
  O2-  O242  1  0.59440643  0.59617776  0.23125273  1
  O2-  O243  1  0.59145322  0.59399931  0.72855834  1
  O2-  O244  1  0.59498398  0.92702031  0.22894030  1
  O2-  O245  1  0.59671295  0.92971169  0.72803051  1
  O2-  O246  1  0.92883347  0.26162121  0.22496641  1
  O2-  O247  1  0.92772591  0.26132717  0.72842306  1
  O2-  O248  1  0.93041864  0.59908513  0.23150901  1
  O2-  O249  1  0.93200684  0.59109785  0.73089450  1
  O2-  O250  1  0.93090277  0.92470043  0.22858650  1
  O2-  O251  1  0.93043693  0.92935535  0.72803460  1
  O2-  O252  1  0.09567294  0.23741089  0.26937209  1
  O2-  O253  1  0.09455622  0.23916102  0.76947828  1
  O2-  O254  1  0.09356109  0.57170613  0.27055335  1
  O2-  O255  1  0.09853124  0.57039842  0.76980973  1
  O2-  O256  1  0.09956512  0.90227439  0.26764649  1
  O2-  O257  1  0.09569201  0.90505202  0.77147000  1
  O2-  O258  1  0.42943432  0.23813975  0.27080323  1
  O2-  O259  1  0.42652998  0.23897962  0.76775668  1
  O2-  O260  1  0.42857491  0.57470654  0.27102515  1
  O2-  O261  1  0.42368394  0.57089996  0.76697975  1
  O2-  O262  1  0.43018992  0.90553197  0.27173872  1
  O2-  O263  1  0.43123799  0.90567950  0.77174722  1
  O2-  O264  1  0.76455235  0.23662102  0.27276625  1
  O2-  O265  1  0.75820099  0.24155096  0.76551458  1
  O2-  O266  1  0.76118107  0.57367384  0.27162523  1
  O2-  O267  1  0.75651373  0.57667525  0.76612513  1
  O2-  O268  1  0.76194061  0.90254638  0.27053443  1
  O2-  O269  1  0.76234016  0.90687254  0.77028901  1
  O2-  O270  1  0.07566795  0.07661806  0.48114787  1
  O2-  O271  1  0.07332120  0.07163531  0.97986043  1
  O2-  O272  1  0.06998911  0.40721793  0.47455709  1
  O2-  O273  1  0.07237002  0.40366791  0.98000981  1
  O2-  O274  1  0.06951459  0.73575516  0.48454546  1
  O2-  O275  1  0.07225738  0.73866139  0.97648868  1
  O2-  O276  1  0.40318030  0.06944187  0.48108596  1
  O2-  O277  1  0.40534309  0.07444594  0.97743542  1
  O2-  O278  1  0.40540372  0.40434831  0.47839958  1
  O2-  O279  1  0.40278908  0.40275509  0.97974817  1
  O2-  O280  1  0.40793199  0.74014355  0.47547164  1
  O2-  O281  1  0.40456066  0.73921072  0.97868551  1
  O2-  O282  1  0.73281221  0.06899911  0.48317135  1
  O2-  O283  1  0.73489768  0.07126520  0.98511075  1
  O2-  O284  1  0.73958625  0.40242897  0.47822261  1
  O2-  O285  1  0.73646723  0.40483859  0.98536337  1
  O2-  O286  1  0.73632467  0.73654306  0.48487815  1
  O2-  O287  1  0.73640869  0.74215262  0.97497585  1
  O2-  O288  1  0.09583117  0.23739068  0.48201652  1
  O2-  O289  1  0.09530045  0.24027052  0.97917214  1
  O2-  O290  1  0.09558711  0.57235561  0.48071897  1
  O2-  O291  1  0.09615108  0.56938369  0.97862650  1
  O2-  O292  1  0.09962035  0.90028230  0.48182109  1
  O2-  O293  1  0.09680248  0.90608729  0.97942797  1
  O2-  O294  1  0.42797017  0.23916188  0.47389826  1
  O2-  O295  1  0.42878221  0.23666325  0.98559790  1
  O2-  O296  1  0.42954005  0.57349131  0.47870522  1
  O2-  O297  1  0.42254681  0.57253687  0.98341870  1
  O2-  O298  1  0.42948596  0.90649606  0.47993960  1
  O2-  O299  1  0.43082820  0.90503458  0.97710024  1
  O2-  O300  1  0.76239774  0.23535112  0.47597465  1
  O2-  O301  1  0.75726274  0.24186353  0.98532957  1
  O2-  O302  1  0.76093019  0.57111948  0.48093247  1
  O2-  O303  1  0.75750675  0.57951368  0.98227495  1
  O2-  O304  1  0.76570337  0.90409146  0.47953122  1
  O2-  O305  1  0.76060361  0.90590975  0.97811826  1
  O2-  O306  1  0.07364983  0.07394808  0.26721198  1
  O2-  O307  1  0.07409537  0.07472109  0.77249443  1
  O2-  O308  1  0.07127889  0.40577639  0.27454918  1
  O2-  O309  1  0.07180138  0.40360749  0.77005912  1
  O2-  O310  1  0.07221356  0.73824237  0.27013123  1
  O2-  O311  1  0.07038444  0.73709137  0.77092679  1
  O2-  O312  1  0.40582896  0.07097862  0.27126489  1
  O2-  O313  1  0.40481881  0.07093618  0.77038033  1
  O2-  O314  1  0.40560572  0.40692404  0.27445142  1
  O2-  O315  1  0.40063148  0.40160976  0.76593063  1
  O2-  O316  1  0.40800595  0.74062079  0.27490705  1
  O2-  O317  1  0.40290009  0.73918549  0.76984126  1
  O2-  O318  1  0.73362868  0.06954497  0.26575266  1
  O2-  O319  1  0.73384271  0.07158375  0.76559682  1
  O2-  O320  1  0.73885380  0.40396126  0.27163575  1
  O2-  O321  1  0.73721109  0.40340290  0.76575229  1
  O2-  O322  1  0.73720756  0.73648391  0.26710754  1
  O2-  O323  1  0.73556691  0.74305602  0.77350283  1
  O2-  O324  1  0.23687316  0.09376885  0.23223658  1
  O2-  O325  1  0.24019715  0.09564758  0.72707524  1
  O2-  O326  1  0.23287763  0.42747702  0.23440289  1
  O2-  O327  1  0.23814065  0.42639900  0.72436569  1
  O2-  O328  1  0.23774528  0.76069052  0.23199897  1
  O2-  O329  1  0.23475539  0.76280041  0.73204715  1
  O2-  O330  1  0.57117561  0.09250660  0.22527500  1
  O2-  O331  1  0.57031619  0.09684705  0.72730199  1
  O2-  O332  1  0.57068874  0.42916676  0.23096476  1
  O2-  O333  1  0.57076845  0.42578429  0.72766280  1
  O2-  O334  1  0.57276917  0.76259583  0.22969601  1
  O2-  O335  1  0.57411550  0.76146011  0.72699926  1
  O2-  O336  1  0.90719857  0.09416056  0.22835481  1
  O2-  O337  1  0.90443313  0.09534540  0.73108048  1
  O2-  O338  1  0.90457912  0.43083166  0.23628495  1
  O2-  O339  1  0.90452151  0.42641002  0.72927151  1
  O2-  O340  1  0.90588503  0.76218690  0.23282774  1
  O2-  O341  1  0.90554618  0.76388311  0.72945545  1
  O2-  O342  1  0.25614999  0.25641077  0.01902001  1
  O2-  O343  1  0.26181632  0.25971741  0.52021655  1
  O2-  O344  1  0.25762217  0.59230286  0.01786979  1
  O2-  O345  1  0.26109163  0.59636523  0.52143244  1
  O2-  O346  1  0.26406965  0.92862759  0.02104175  1
  O2-  O347  1  0.26215482  0.92985583  0.52230171  1
  O2-  O348  1  0.59398995  0.26047035  0.02247224  1
  O2-  O349  1  0.59852917  0.26383472  0.51636805  1
  O2-  O350  1  0.59234591  0.59397392  0.01649068  1
  O2-  O351  1  0.59314952  0.59616913  0.52357931  1
  O2-  O352  1  0.59589133  0.92865137  0.02223897  1
  O2-  O353  1  0.59634445  0.92766453  0.52073405  1
  O2-  O354  1  0.92705245  0.26058128  0.02169264  1
  O2-  O355  1  0.92808117  0.26182881  0.52405888  1
  O2-  O356  1  0.93421562  0.59570520  0.01622582  1
  O2-  O357  1  0.92840135  0.59431562  0.52148815  1
  O2-  O358  1  0.93059902  0.92626808  0.02017839  1
  O2-  O359  1  0.93115171  0.92790489  0.52280411  1
