# generated using pymatgen
data_Sr7Ca15Pr50Mn72O216
_symmetry_space_group_name_H-M   'P 1'
_cell_length_a   16.55754530
_cell_length_b   16.60432721
_cell_length_c   15.59481748
_cell_angle_alpha   89.99910045
_cell_angle_beta   89.99434492
_cell_angle_gamma   90.00149778
_symmetry_Int_Tables_number   1
_chemical_formula_structural   Sr7Ca15Pr50Mn72O216
_chemical_formula_sum   'Sr7 Ca15 Pr50 Mn72 O216'
_cell_volume   4287.43480201
_cell_formula_units_Z   1
loop_
 _symmetry_equiv_pos_site_id
 _symmetry_equiv_pos_as_xyz
  1  'x, y, z'
loop_
 _atom_type_symbol
 _atom_type_oxidation_number
  Sr2+  2.0
  Ca2+  2.0
  Pr3+  3.0
  Mn3.30+  3.3
  O2-  -2.0
loop_
 _atom_site_type_symbol
 _atom_site_label
 _atom_site_symmetry_multiplicity
 _atom_site_fract_x
 _atom_site_fract_y
 _atom_site_fract_z
 _atom_site_occupancy
  Sr2+  Sr0  1  0.16642631  0.17762121  0.12485677  1
  Sr2+  Sr1  1  0.66726066  0.66266360  0.87566270  1
  Sr2+  Sr2  1  0.50179028  0.84053961  0.62862874  1
  Sr2+  Sr3  1  0.33081956  0.32508808  0.37405712  1
  Sr2+  Sr4  1  0.83181864  0.82062033  0.87496677  1
  Sr2+  Sr5  1  -0.00240640  0.00780614  0.62509927  1
  Sr2+  Sr6  1  0.33790566  0.65893598  0.87734880  1
  Ca2+  Ca7  1  0.83696342  0.51723851  0.12710914  1
  Ca2+  Ca8  1  0.67113456  0.31863279  0.37375314  1
  Ca2+  Ca9  1  0.49770526  0.81709858  0.87595880  1
  Ca2+  Ca10  1  0.66844579  0.67811201  0.12266838  1
  Ca2+  Ca11  1  1.00339609  0.98667240  0.37414228  1
  Ca2+  Ca12  1  0.16338942  0.48558988  0.37126083  1
  Ca2+  Ca13  1  0.34022081  0.98055853  0.87720669  1
  Ca2+  Ca14  1  1.00201693  0.65339569  0.87772107  1
  Ca2+  Ca15  1  0.66316084  0.01439406  0.12359894  1
  Ca2+  Ca16  1  1.00479350  0.64729264  0.37275233  1
  Ca2+  Ca17  1  0.82846944  0.15068905  0.87528037  1
  Ca2+  Ca18  1  0.17047447  0.51617229  0.12853647  1
  Ca2+  Ca19  1  0.66517847  0.68180343  0.62750866  1
  Ca2+  Ca20  1  0.32938814  0.68072920  0.12383448  1
  Ca2+  Ca21  1  0.83081237  0.48312212  0.37225187  1
  Pr3+  Pr22  1  0.50322020  0.84391056  0.12242039  1
  Pr3+  Pr23  1  0.17131607  0.84306339  0.12409455  1
  Pr3+  Pr24  1  -0.00241957  0.01132891  0.12407759  1
  Pr3+  Pr25  1  0.32722223  0.34751681  0.12649102  1
  Pr3+  Pr26  1  1.00261434  0.32225460  0.37449857  1
  Pr3+  Pr27  1  0.16123692  0.15274526  0.37346837  1
  Pr3+  Pr28  1  0.33467064  0.98992998  0.37290723  1
  Pr3+  Pr29  1  0.49875538  0.48573046  0.37386830  1
  Pr3+  Pr30  1  0.50244740  0.51645473  0.12730735  1
  Pr3+  Pr31  1  0.83508536  0.82227648  0.37524284  1
  Pr3+  Pr32  1  0.33629965  0.65366194  0.37314411  1
  Pr3+  Pr33  1  0.16728189  0.17947652  0.62570399  1
  Pr3+  Pr34  1  0.66932194  0.98665426  0.37283964  1
  Pr3+  Pr35  1  0.16321849  0.49264063  0.87765555  1
  Pr3+  Pr36  1  0.83574802  0.17920855  0.12259169  1
  Pr3+  Pr37  1  0.33164893  0.68202266  0.62537313  1
  Pr3+  Pr38  1  1.00138701  0.32068914  0.87526915  1
  Pr3+  Pr39  1  0.49822620  0.49457938  0.87636952  1
  Pr3+  Pr40  1  0.83257764  0.84267242  0.12261979  1
  Pr3+  Pr41  1  0.67141297  0.32122595  0.87603644  1
  Pr3+  Pr42  1  0.50288768  0.17990875  0.12448101  1
  Pr3+  Pr43  1  0.49794168  0.82129541  0.37532179  1
  Pr3+  Pr44  1  0.83714033  0.17882984  0.62711540  1
  Pr3+  Pr45  1  -0.00434298  0.34711058  0.62393729  1
  Pr3+  Pr46  1  0.50274859  0.17892431  0.62555790  1
  Pr3+  Pr47  1  0.66248266  0.01003366  0.62643080  1
  Pr3+  Pr48  1  0.83069907  0.15366015  0.37440241  1
  Pr3+  Pr49  1  0.15882354  0.81901602  0.37389310  1
  Pr3+  Pr50  1  -0.00201500  0.67642696  0.12550481  1
  Pr3+  Pr51  1  0.83170300  0.49628759  0.87835450  1
  Pr3+  Pr52  1  0.50530110  0.51569894  0.62327143  1
  Pr3+  Pr53  1  0.33119620  0.34708604  0.62358099  1
  Pr3+  Pr54  1  0.49498935  0.15078963  0.87589754  1
  Pr3+  Pr55  1  0.83321145  0.84372345  0.62764360  1
  Pr3+  Pr56  1  0.83561050  0.51413359  0.62205869  1
  Pr3+  Pr57  1  0.32933534  0.01377398  0.12283947  1
  Pr3+  Pr58  1  0.49793066  0.15645110  0.37364302  1
  Pr3+  Pr59  1  0.99869734  0.98628218  0.87471545  1
  Pr3+  Pr60  1  -0.00258899  0.67849612  0.62380649  1
  Pr3+  Pr61  1  0.67250111  0.65368978  0.37445509  1
  Pr3+  Pr62  1  0.16871455  0.51312113  0.62126580  1
  Pr3+  Pr63  1  0.32995947  0.01193181  0.62700428  1
  Pr3+  Pr64  1  0.16507405  0.15277424  0.87696868  1
  Pr3+  Pr65  1  0.16380090  0.81577684  0.87562845  1
  Pr3+  Pr66  1  0.67005230  0.98440733  0.87707508  1
  Pr3+  Pr67  1  -0.00437557  0.35022205  0.12571064  1
  Pr3+  Pr68  1  0.66402845  0.34660345  0.62273753  1
  Pr3+  Pr69  1  0.17074876  0.84700930  0.62585454  1
  Pr3+  Pr70  1  0.66484666  0.34808941  0.12722514  1
  Pr3+  Pr71  1  0.33570309  0.32458839  0.87582019  1
  Mn3.30+  Mn72  1  0.16878945  -0.00154895  -0.00276537  1
  Mn3.30+  Mn73  1  0.16425021  0.00024431  0.50045643  1
  Mn3.30+  Mn74  1  0.16591517  0.33562943  0.00154785  1
  Mn3.30+  Mn75  1  0.16546614  0.33399327  0.49838089  1
  Mn3.30+  Mn76  1  0.16783775  0.66399164  0.00180283  1
  Mn3.30+  Mn77  1  0.16498428  0.66513567  0.49688895  1
  Mn3.30+  Mn78  1  0.50000146  -0.00182991  0.00000921  1
  Mn3.30+  Mn79  1  0.49972923  -0.00042554  0.50051778  1
  Mn3.30+  Mn80  1  0.50015158  0.33574703  0.00059995  1
  Mn3.30+  Mn81  1  0.50077440  0.33323465  0.49782360  1
  Mn3.30+  Mn82  1  0.49988798  0.66772314  0.00252233  1
  Mn3.30+  Mn83  1  0.50329803  0.66743324  0.49911920  1
  Mn3.30+  Mn84  1  0.83049898  0.00004065  0.00127610  1
  Mn3.30+  Mn85  1  0.83444172  -0.00125254  0.49897619  1
  Mn3.30+  Mn86  1  0.83304602  0.33603417  -0.00010888  1
  Mn3.30+  Mn87  1  0.83123736  0.33396259  0.49773083  1
  Mn3.30+  Mn88  1  0.83304067  0.66640225  0.00179961  1
  Mn3.30+  Mn89  1  0.83515609  0.66543708  0.49715179  1
  Mn3.30+  Mn90  1  -0.00142958  0.16631929  0.24848890  1
  Mn3.30+  Mn91  1  -0.00169341  0.16516768  0.75220754  1
  Mn3.30+  Mn92  1  -0.00002046  0.50096641  0.25066923  1
  Mn3.30+  Mn93  1  -0.00053968  0.50155505  0.75000369  1
  Mn3.30+  Mn94  1  0.00013610  0.83240408  0.24943694  1
  Mn3.30+  Mn95  1  0.00042046  0.83065506  0.75147786  1
  Mn3.30+  Mn96  1  0.33192412  0.16817269  0.25013136  1
  Mn3.30+  Mn97  1  0.33355584  0.16638717  0.75131279  1
  Mn3.30+  Mn98  1  0.33125434  0.50161226  0.24988406  1
  Mn3.30+  Mn99  1  0.33348326  0.50234179  0.74943635  1
  Mn3.30+  Mn100  1  0.33253658  0.83245278  0.24972672  1
  Mn3.30+  Mn101  1  0.33571016  0.83414209  0.75256047  1
  Mn3.30+  Mn102  1  0.66719803  0.16684228  0.24886030  1
  Mn3.30+  Mn103  1  0.66742931  0.16637921  0.75186939  1
  Mn3.30+  Mn104  1  0.67080456  0.50103606  0.25000038  1
  Mn3.30+  Mn105  1  0.66707943  0.50290977  0.75002450  1
  Mn3.30+  Mn106  1  0.66690783  0.83207992  0.24857738  1
  Mn3.30+  Mn107  1  0.66532442  0.83166926  0.75138392  1
  Mn3.30+  Mn108  1  0.16542266  -0.00088815  0.24904332  1
  Mn3.30+  Mn109  1  0.16819565  -0.00064766  0.75315805  1
  Mn3.30+  Mn110  1  0.16475635  0.33491711  0.24892689  1
  Mn3.30+  Mn111  1  0.16628572  0.33505010  0.75054959  1
  Mn3.30+  Mn112  1  0.16655296  0.66364399  0.25043738  1
  Mn3.30+  Mn113  1  0.16599592  0.66508912  0.75075630  1
  Mn3.30+  Mn114  1  0.50159643  0.00028072  0.24793739  1
  Mn3.30+  Mn115  1  0.49820254  -0.00298894  0.75223485  1
  Mn3.30+  Mn116  1  0.50003246  0.33408320  0.25053563  1
  Mn3.30+  Mn117  1  0.50098011  0.33508105  0.75066198  1
  Mn3.30+  Mn118  1  0.50173671  0.66784970  0.24866910  1
  Mn3.30+  Mn119  1  0.50185459  0.66761512  0.75099553  1
  Mn3.30+  Mn120  1  0.83338509  -0.00098337  0.24861818  1
  Mn3.30+  Mn121  1  0.83179221  0.00008819  0.75121202  1
  Mn3.30+  Mn122  1  0.83163043  0.33568899  0.24980825  1
  Mn3.30+  Mn123  1  0.83270043  0.33475039  0.75159912  1
  Mn3.30+  Mn124  1  0.83559064  0.66451229  0.25198960  1
  Mn3.30+  Mn125  1  0.83263741  0.66673943  0.74988589  1
  Mn3.30+  Mn126  1  -0.00177180  0.16668712  -0.00174696  1
  Mn3.30+  Mn127  1  -0.00149025  0.16448216  0.50034589  1
  Mn3.30+  Mn128  1  -0.00045559  0.50214456  0.00265573  1
  Mn3.30+  Mn129  1  0.00026553  0.50020032  0.49544237  1
  Mn3.30+  Mn130  1  0.00110952  0.83049865  -0.00069017  1
  Mn3.30+  Mn131  1  -0.00033949  0.83287100  0.49947197  1
  Mn3.30+  Mn132  1  0.33274553  0.16702982  -0.00084860  1
  Mn3.30+  Mn133  1  0.33266352  0.16741577  0.49939811  1
  Mn3.30+  Mn134  1  0.33108769  0.50314487  0.00278378  1
  Mn3.30+  Mn135  1  0.33374250  0.50057129  0.49762379  1
  Mn3.30+  Mn136  1  0.33599241  0.83184221  -0.00020994  1
  Mn3.30+  Mn137  1  0.33204755  0.83483368  0.49885668  1
  Mn3.30+  Mn138  1  0.66715737  0.16615386  -0.00003550  1
  Mn3.30+  Mn139  1  0.66740410  0.16679316  0.49924179  1
  Mn3.30+  Mn140  1  0.66741352  0.50395993  0.00313791  1
  Mn3.30+  Mn141  1  0.66991848  0.49990477  0.49722736  1
  Mn3.30+  Mn142  1  0.66615648  0.83205923  0.00149322  1
  Mn3.30+  Mn143  1  0.66642106  0.83202317  0.49966895  1
  O2-  O144  1  0.01781296  0.16019209  0.12242706  1
  O2-  O145  1  0.02332171  0.16398013  0.62898979  1
  O2-  O146  1  0.02748289  0.49687314  0.12640012  1
  O2-  O147  1  0.02437719  0.49482832  0.62162480  1
  O2-  O148  1  0.02735571  0.82632727  0.12266338  1
  O2-  O149  1  0.02694342  0.82638303  0.62733163  1
  O2-  O150  1  0.35772691  0.16264839  0.12396623  1
  O2-  O151  1  0.35825286  0.16041333  0.62715357  1
  O2-  O152  1  0.35881471  0.49255505  0.12686093  1
  O2-  O153  1  0.35955504  0.49515681  0.62113354  1
  O2-  O154  1  0.35759897  0.82785333  0.12706863  1
  O2-  O155  1  0.35012203  0.83127699  0.62503665  1
  O2-  O156  1  0.69181022  0.16151368  0.12482026  1
  O2-  O157  1  0.69287370  0.15950083  0.62686034  1
  O2-  O158  1  0.69570865  0.49254553  0.12818686  1
  O2-  O159  1  0.69299674  0.49124780  0.62076200  1
  O2-  O160  1  0.68958399  0.82459564  0.12745013  1
  O2-  O161  1  0.68873910  0.83092308  0.62130096  1
  O2-  O162  1  0.13962645  0.32920994  0.12397652  1
  O2-  O163  1  0.14034282  0.32826620  0.62534313  1
  O2-  O164  1  0.14173677  0.66387409  0.12704441  1
  O2-  O165  1  0.14163674  0.66155183  0.62118622  1
  O2-  O166  1  0.14239125  0.99294582  0.12149945  1
  O2-  O167  1  0.14757830  0.99606487  0.62825501  1
  O2-  O168  1  0.47317589  0.32844643  0.12505996  1
  O2-  O169  1  0.47575919  0.32802869  0.62541364  1
  O2-  O170  1  0.47199046  0.66399574  0.12853430  1
  O2-  O171  1  0.47571122  0.66262718  0.62151763  1
  O2-  O172  1  0.47203558  0.99375670  0.12427695  1
  O2-  O173  1  0.47376760  0.99760185  0.62752745  1
  O2-  O174  1  0.80715951  0.32489015  0.12425711  1
  O2-  O175  1  0.80752321  0.32688370  0.62605397  1
  O2-  O176  1  0.81077980  0.66228280  0.12954817  1
  O2-  O177  1  0.80813080  0.66049685  0.62006749  1
  O2-  O178  1  0.80536779  0.99301278  0.12571744  1
  O2-  O179  1  0.80703815  0.99448015  0.62583253  1
  O2-  O180  1  0.30690220  0.16664543  0.37471038  1
  O2-  O181  1  0.30836993  0.17745781  0.87408417  1
  O2-  O182  1  0.30725352  0.50679549  0.37467023  1
  O2-  O183  1  0.30830529  0.50320073  0.87709946  1
  O2-  O184  1  0.30444429  0.84175230  0.37336435  1
  O2-  O185  1  0.30783516  0.83596030  0.87538837  1
  O2-  O186  1  0.64191010  0.17174342  0.37308047  1
  O2-  O187  1  0.63860108  0.17400387  0.87526034  1
  O2-  O188  1  0.64088795  0.50808812  0.37388337  1
  O2-  O189  1  0.64227895  0.50538621  0.87762546  1
  O2-  O190  1  0.64209307  0.83914090  0.37299844  1
  O2-  O191  1  0.64166948  0.83798578  0.87949715  1
  O2-  O192  1  0.97404217  0.17432416  0.37301156  1
  O2-  O193  1  0.97168000  0.17221901  0.87541201  1
  O2-  O194  1  0.97307126  0.50129903  0.37415659  1
  O2-  O195  1  0.97657812  0.50686035  0.87650541  1
  O2-  O196  1  0.97841798  0.84373746  0.37337733  1
  O2-  O197  1  0.98111839  0.83839158  0.87637827  1
  O2-  O198  1  0.19019203  0.00419843  0.37477538  1
  O2-  O199  1  0.19743723  0.00496368  0.87542723  1
  O2-  O200  1  0.18145002  0.33801435  0.37468514  1
  O2-  O201  1  0.19195539  0.34430545  0.87555254  1
  O2-  O202  1  0.19389558  0.67441707  0.37479563  1
  O2-  O203  1  0.18816997  0.66505582  0.87676956  1
  O2-  O204  1  0.52546188  0.00809920  0.37260451  1
  O2-  O205  1  0.52724850  0.00651303  0.87646017  1
  O2-  O206  1  0.52808148  0.33681386  0.37340753  1
  O2-  O207  1  0.52611751  0.34406205  0.87565633  1
  O2-  O208  1  0.52670612  0.67211984  0.37417727  1
  O2-  O209  1  0.51669861  0.66252779  0.87673303  1
  O2-  O210  1  0.86093424  0.00459924  0.37204611  1
  O2-  O211  1  0.85479623  0.00465487  0.87653214  1
  O2-  O212  1  0.85903432  0.33610733  0.37339298  1
  O2-  O213  1  0.85901752  0.34805629  0.87580144  1
  O2-  O214  1  0.86460246  0.67666842  0.37547286  1
  O2-  O215  1  0.85797237  0.66242006  0.87454429  1
  O2-  O216  1  0.23961742  0.09364830  0.01708456  1
  O2-  O217  1  0.23754087  0.09568336  0.52044381  1
  O2-  O218  1  0.23658873  0.43089328  0.02284576  1
  O2-  O219  1  0.24144193  0.42594513  0.52098798  1
  O2-  O220  1  0.23726738  0.76155384  0.01636639  1
  O2-  O221  1  0.23649101  0.76193629  0.51908600  1
  O2-  O222  1  0.56747058  0.09582986  0.01839480  1
  O2-  O223  1  0.57195813  0.09461749  0.52084235  1
  O2-  O224  1  0.57289643  0.42999006  0.02344962  1
  O2-  O225  1  0.57259851  0.42884589  0.51906427  1
  O2-  O226  1  0.57213618  0.76043396  0.01943603  1
  O2-  O227  1  0.57298289  0.76246923  0.51297913  1
  O2-  O228  1  0.90423321  0.09052073  0.02083996  1
  O2-  O229  1  0.90249241  0.09750929  0.51762394  1
  O2-  O230  1  0.90460982  0.43075323  0.02352236  1
  O2-  O231  1  0.90396165  0.42541560  0.52088376  1
  O2-  O232  1  0.90769018  0.75842115  0.02276039  1
  O2-  O233  1  0.90616882  0.76124586  0.52230179  1
  O2-  O234  1  0.25963920  0.26320651  0.23164782  1
  O2-  O235  1  0.26103975  0.26330153  0.72913615  1
  O2-  O236  1  0.26628906  0.59983118  0.23175325  1
  O2-  O237  1  0.26050825  0.59426817  0.72495033  1
  O2-  O238  1  0.26259279  0.92748080  0.22822514  1
  O2-  O239  1  0.26143999  0.92731237  0.73049976  1
  O2-  O240  1  0.59243903  0.26123406  0.22631482  1
  O2-  O241  1  0.59640431  0.26125155  0.72959283  1
  O2-  O242  1  0.59871838  0.59649345  0.22890952  1
  O2-  O243  1  0.59488924  0.59343834  0.72516898  1
  O2-  O244  1  0.59415580  0.93116391  0.22839828  1
  O2-  O245  1  0.59531887  0.93071536  0.73372318  1
  O2-  O246  1  0.92640824  0.26244970  0.22821621  1
  O2-  O247  1  0.92670884  0.26427736  0.73104778  1
  O2-  O248  1  0.93207638  0.59562723  0.23133650  1
  O2-  O249  1  0.92762438  0.59266351  0.72612913  1
  O2-  O250  1  0.92541061  0.92655291  0.22374736  1
  O2-  O251  1  0.92385354  0.92421350  0.73514001  1
  O2-  O252  1  0.09188763  0.23880765  0.27058827  1
  O2-  O253  1  0.09522269  0.23928349  0.77250116  1
  O2-  O254  1  0.09850206  0.56940165  0.27120762  1
  O2-  O255  1  0.09819868  0.56857155  0.76361902  1
  O2-  O256  1  0.09627984  0.90278680  0.26465304  1
  O2-  O257  1  0.09675446  0.90499115  0.77115612  1
  O2-  O258  1  0.42934904  0.23779173  0.26754474  1
  O2-  O259  1  0.42919651  0.23986459  0.77068197  1
  O2-  O260  1  0.43176028  0.57334107  0.27144742  1
  O2-  O261  1  0.43124609  0.56996326  0.76300069  1
  O2-  O262  1  0.42825248  0.90746816  0.27118160  1
  O2-  O263  1  0.42919442  0.90433578  0.77438325  1
  O2-  O264  1  0.76348010  0.23706422  0.26733578  1
  O2-  O265  1  0.76354618  0.24010313  0.77386665  1
  O2-  O266  1  0.76454991  0.57182933  0.27641506  1
  O2-  O267  1  0.76467934  0.56915373  0.76418466  1
  O2-  O268  1  0.76299890  0.90519427  0.27097537  1
  O2-  O269  1  0.75769856  0.90780095  0.76745888  1
  O2-  O270  1  0.07175556  0.07118988  0.47726768  1
  O2-  O271  1  0.07290371  0.07000896  0.97755370  1
  O2-  O272  1  0.06759930  0.40299716  0.48390902  1
  O2-  O273  1  0.06972453  0.40586836  0.97916957  1
  O2-  O274  1  0.07009685  0.73502034  0.47718216  1
  O2-  O275  1  0.07346041  0.73652484  0.97970822  1
  O2-  O276  1  0.40488912  0.07270820  0.47999492  1
  O2-  O277  1  0.40539779  0.06926453  0.97924479  1
  O2-  O278  1  0.40844092  0.40804143  0.48045277  1
  O2-  O279  1  0.40377845  0.40749222  0.98076935  1
  O2-  O280  1  0.40411925  0.74072336  0.47900807  1
  O2-  O281  1  0.40776481  0.74133835  0.98528695  1
  O2-  O282  1  0.73846596  0.07098551  0.47826296  1
  O2-  O283  1  0.73601413  0.07334313  0.98020001  1
  O2-  O284  1  0.73536528  0.40038600  0.47998949  1
  O2-  O285  1  0.73762262  0.40634493  0.98014850  1
  O2-  O286  1  0.74245951  0.73994527  0.47617356  1
  O2-  O287  1  0.74204462  0.74106970  0.98793598  1
  O2-  O288  1  0.09291501  0.23553094  0.48174428  1
  O2-  O289  1  0.09412231  0.24122423  0.97556575  1
  O2-  O290  1  0.09992145  0.56725948  0.47921814  1
  O2-  O291  1  0.09501622  0.57122720  0.98350228  1
  O2-  O292  1  0.09568478  0.90198711  0.48547737  1
  O2-  O293  1  0.09619571  0.90457700  0.97838775  1
  O2-  O294  1  0.42949754  0.23673042  0.48312866  1
  O2-  O295  1  0.42870382  0.23960972  0.97888107  1
  O2-  O296  1  0.42991001  0.57299386  0.47769559  1
  O2-  O297  1  0.43065438  0.56889436  0.98758928  1
  O2-  O298  1  0.42565262  0.90901203  0.47537383  1
  O2-  O299  1  0.43193925  0.90265537  0.98158216  1
  O2-  O300  1  0.76361948  0.23617172  0.48230684  1
  O2-  O301  1  0.76334271  0.24025414  0.97734595  1
  O2-  O302  1  0.76553801  0.56886167  0.47518854  1
  O2-  O303  1  0.76218888  0.57222077  0.98480746  1
  O2-  O304  1  0.75956314  0.90504863  0.47823800  1
  O2-  O305  1  0.75933675  0.90715529  0.98339326  1
  O2-  O306  1  0.07064558  0.07072378  0.26861913  1
  O2-  O307  1  0.07547629  0.07119574  0.77661032  1
  O2-  O308  1  0.06622216  0.40313535  0.26612309  1
  O2-  O309  1  0.07039146  0.40587188  0.76990549  1
  O2-  O310  1  0.07200484  0.73523965  0.27137378  1
  O2-  O311  1  0.07265031  0.73456011  0.77107227  1
  O2-  O312  1  0.40679459  0.07242400  0.26858506  1
  O2-  O313  1  0.40495585  0.06980070  0.77341655  1
  O2-  O314  1  0.40825606  0.40847895  0.26876767  1
  O2-  O315  1  0.40479173  0.40714296  0.76923149  1
  O2-  O316  1  0.40557570  0.74262146  0.27563549  1
  O2-  O317  1  0.40558699  0.73895267  0.76108499  1
  O2-  O318  1  0.74110025  0.07190491  0.27226070  1
  O2-  O319  1  0.73509272  0.07113702  0.77026552  1
  O2-  O320  1  0.73518439  0.40083717  0.27023561  1
  O2-  O321  1  0.73748587  0.40564383  0.76949773  1
  O2-  O322  1  0.74411637  0.73853525  0.27365536  1
  O2-  O323  1  0.74278414  0.73995121  0.76144147  1
  O2-  O324  1  0.24046281  0.09112845  0.23246281  1
  O2-  O325  1  0.23758862  0.09612662  0.73036275  1
  O2-  O326  1  0.23735302  0.42740725  0.22910719  1
  O2-  O327  1  0.23943966  0.42873326  0.72724413  1
  O2-  O328  1  0.23556651  0.76270807  0.23280814  1
  O2-  O329  1  0.23689883  0.76057627  0.73226248  1
  O2-  O330  1  0.56993985  0.09649710  0.22984964  1
  O2-  O331  1  0.56946486  0.09404953  0.73061263  1
  O2-  O332  1  0.57202729  0.42958111  0.22961615  1
  O2-  O333  1  0.57302447  0.42912225  0.72827238  1
  O2-  O334  1  0.56840057  0.76369562  0.23350895  1
  O2-  O335  1  0.57435060  0.75804170  0.73711959  1
  O2-  O336  1  0.90346273  0.09388345  0.22757938  1
  O2-  O337  1  0.90243210  0.09351497  0.73300461  1
  O2-  O338  1  0.90327789  0.42816470  0.22653925  1
  O2-  O339  1  0.90470783  0.42801099  0.72725217  1
  O2-  O340  1  0.90626774  0.76217012  0.22851157  1
  O2-  O341  1  0.90672784  0.75697555  0.72610411  1
  O2-  O342  1  0.26227872  0.26701423  0.01593492  1
  O2-  O343  1  0.25958911  0.25964753  0.52254787  1
  O2-  O344  1  0.26256426  0.59549641  0.02406472  1
  O2-  O345  1  0.26351330  0.59630721  0.52015580  1
  O2-  O346  1  0.26265143  0.92518851  0.02190211  1
  O2-  O347  1  0.26065712  0.93048322  0.51913015  1
  O2-  O348  1  0.59593544  0.26221134  0.02082373  1
  O2-  O349  1  0.59424079  0.25894298  0.52250510  1
  O2-  O350  1  0.59372672  0.59406260  0.02680831  1
  O2-  O351  1  0.59949462  0.59482183  0.52044198  1
  O2-  O352  1  0.59498380  0.92920186  0.02388219  1
  O2-  O353  1  0.59588821  0.93077158  0.51484945  1
  O2-  O354  1  0.92686252  0.26508286  0.01887067  1
  O2-  O355  1  0.92675722  0.26143588  0.52064178  1
  O2-  O356  1  0.92896491  0.59448509  0.02067895  1
  O2-  O357  1  0.92972699  0.59338707  0.52064544  1
  O2-  O358  1  0.92828724  0.92614046  0.01945503  1
  O2-  O359  1  0.92189991  0.92284156  0.52044083  1
