# generated using pymatgen
data_Sr7Ca15Pr50Mn72O216
_symmetry_space_group_name_H-M   'P 1'
_cell_length_a   16.55450399
_cell_length_b   16.60389485
_cell_length_c   15.59057076
_cell_angle_alpha   89.99980963
_cell_angle_beta   90.00342031
_cell_angle_gamma   90.00946663
_symmetry_Int_Tables_number   1
_chemical_formula_structural   Sr7Ca15Pr50Mn72O216
_chemical_formula_sum   'Sr7 Ca15 Pr50 Mn72 O216'
_cell_volume   4285.36832414
_cell_formula_units_Z   1
loop_
 _symmetry_equiv_pos_site_id
 _symmetry_equiv_pos_as_xyz
  1  'x, y, z'
loop_
 _atom_type_symbol
 _atom_type_oxidation_number
  Sr2+  2.0
  Ca2+  2.0
  Pr3+  3.0
  Mn3.30+  3.3
  O2-  -2.0
loop_
 _atom_site_type_symbol
 _atom_site_label
 _atom_site_symmetry_multiplicity
 _atom_site_fract_x
 _atom_site_fract_y
 _atom_site_fract_z
 _atom_site_occupancy
  Sr2+  Sr0  1  -0.00236551  0.67428037  0.62652598  1
  Sr2+  Sr1  1  0.16493424  0.15705103  0.87413404  1
  Sr2+  Sr2  1  -0.00390196  0.01001154  0.62534806  1
  Sr2+  Sr3  1  0.50371550  0.84219189  0.12592499  1
  Sr2+  Sr4  1  0.34004369  0.65363695  0.37552972  1
  Sr2+  Sr5  1  0.83417870  0.49093950  0.87384067  1
  Sr2+  Sr6  1  0.66081756  0.01059701  0.12612939  1
  Ca2+  Ca7  1  0.16091823  0.81588457  0.87456472  1
  Ca2+  Ca8  1  0.50274042  0.18270128  0.62608014  1
  Ca2+  Ca9  1  0.49494331  0.48796137  0.37867029  1
  Ca2+  Ca10  1  0.67161157  0.98140374  0.37383790  1
  Ca2+  Ca11  1  1.00323806  0.65280827  0.87391694  1
  Ca2+  Ca12  1  0.49630918  0.15289149  0.87484177  1
  Ca2+  Ca13  1  0.33287953  0.34862135  0.62498289  1
  Ca2+  Ca14  1  0.83885381  0.18341458  0.62502661  1
  Ca2+  Ca15  1  0.50339052  0.51646031  0.62303961  1
  Ca2+  Ca16  1  0.66637550  0.67839569  0.62599907  1
  Ca2+  Ca17  1  -0.00462305  0.34555480  0.62721643  1
  Ca2+  Ca18  1  0.66260379  0.68291445  0.12442898  1
  Ca2+  Ca19  1  0.50401360  0.17924233  0.12340557  1
  Ca2+  Ca20  1  0.82847354  0.81871109  0.37683066  1
  Ca2+  Ca21  1  0.17199484  0.51552090  0.12446061  1
  Pr3+  Pr22  1  0.83819600  0.84354992  0.62364790  1
  Pr3+  Pr23  1  0.50407723  0.84307178  0.62446285  1
  Pr3+  Pr24  1  1.00040354  0.65433501  0.37608098  1
  Pr3+  Pr25  1  0.16158241  0.48896341  0.87561392  1
  Pr3+  Pr26  1  -0.00436752  0.01240551  0.12480711  1
  Pr3+  Pr27  1  0.33474221  0.65369237  0.87494302  1
  Pr3+  Pr28  1  -0.00180508  0.34622946  0.12382369  1
  Pr3+  Pr29  1  0.83676920  0.51193724  0.62562231  1
  Pr3+  Pr30  1  0.50530837  0.51415564  0.12587350  1
  Pr3+  Pr31  1  0.66288146  0.34766690  0.62485147  1
  Pr3+  Pr32  1  1.00281559  0.32014815  0.37768938  1
  Pr3+  Pr33  1  0.33492877  0.98927711  0.87395702  1
  Pr3+  Pr34  1  0.33051904  0.67961660  0.12531714  1
  Pr3+  Pr35  1  0.50045468  0.82097063  0.37392588  1
  Pr3+  Pr36  1  0.83287442  0.51312942  0.12447353  1
  Pr3+  Pr37  1  0.66847992  0.65649087  0.37433925  1
  Pr3+  Pr38  1  0.16743217  0.51098152  0.62557636  1
  Pr3+  Pr39  1  0.33530604  0.01374222  0.12578762  1
  Pr3+  Pr40  1  0.83212207  0.17876527  0.12511263  1
  Pr3+  Pr41  1  0.00006042  0.67745083  0.12337884  1
  Pr3+  Pr42  1  0.16706585  0.48886925  0.37478383  1
  Pr3+  Pr43  1  1.00628790  0.98501381  0.87340046  1
  Pr3+  Pr44  1  0.82587947  0.15163301  0.37727163  1
  Pr3+  Pr45  1  0.16759540  0.84500090  0.62637583  1
  Pr3+  Pr46  1  0.49890035  0.15426046  0.37637960  1
  Pr3+  Pr47  1  0.83275534  0.82081976  0.87425975  1
  Pr3+  Pr48  1  0.16428922  0.15413388  0.37647465  1
  Pr3+  Pr49  1  0.17067632  0.17877392  0.12459713  1
  Pr3+  Pr50  1  0.33102585  0.01396069  0.62440462  1
  Pr3+  Pr51  1  0.67077397  0.65380414  0.87576342  1
  Pr3+  Pr52  1  0.33798351  0.32548834  0.37724399  1
  Pr3+  Pr53  1  0.49685168  0.48686780  0.87228709  1
  Pr3+  Pr54  1  0.83014130  0.15513769  0.87252056  1
  Pr3+  Pr55  1  0.33694653  0.98732036  0.37613729  1
  Pr3+  Pr56  1  0.66859694  0.32009472  0.87317528  1
  Pr3+  Pr57  1  0.83279717  0.84498452  0.12630155  1
  Pr3+  Pr58  1  1.00017263  0.98441152  0.37655400  1
  Pr3+  Pr59  1  0.33044562  0.67718533  0.62463487  1
  Pr3+  Pr60  1  0.66486061  0.01487769  0.62302328  1
  Pr3+  Pr61  1  0.33184280  0.34712167  0.12409862  1
  Pr3+  Pr62  1  0.17245244  0.84670309  0.12376669  1
  Pr3+  Pr63  1  0.83012248  0.48828054  0.37624582  1
  Pr3+  Pr64  1  0.66528301  0.32242042  0.37678808  1
  Pr3+  Pr65  1  0.16506578  0.81813111  0.37549484  1
  Pr3+  Pr66  1  0.33673662  0.31749045  0.87239861  1
  Pr3+  Pr67  1  0.66705480  0.98900707  0.87491469  1
  Pr3+  Pr68  1  0.66129111  0.34180445  0.12495856  1
  Pr3+  Pr69  1  0.16944354  0.18267038  0.62639070  1
  Pr3+  Pr70  1  0.49879033  0.82102968  0.87577805  1
  Pr3+  Pr71  1  1.00249190  0.32041147  0.87180835  1
  Mn3.30+  Mn72  1  0.16673823  0.00012637  -0.00101033  1
  Mn3.30+  Mn73  1  0.16578406  0.00024704  0.50118738  1
  Mn3.30+  Mn74  1  0.16688302  0.33420193  0.00033532  1
  Mn3.30+  Mn75  1  0.16732968  0.33454623  0.50231729  1
  Mn3.30+  Mn76  1  0.16569648  0.66646038  -0.00041105  1
  Mn3.30+  Mn77  1  0.16716163  0.66542054  0.49983062  1
  Mn3.30+  Mn78  1  0.50055720  0.00139020  -0.00040148  1
  Mn3.30+  Mn79  1  0.50267860  0.00121871  0.50015875  1
  Mn3.30+  Mn80  1  0.49904137  0.33070763  -0.00149579  1
  Mn3.30+  Mn81  1  0.49892133  0.33584059  0.50389620  1
  Mn3.30+  Mn82  1  0.50159728  0.66600001  -0.00055274  1
  Mn3.30+  Mn83  1  0.50223204  0.66530627  0.50199477  1
  Mn3.30+  Mn84  1  0.83310918  0.00031482  0.00008698  1
  Mn3.30+  Mn85  1  0.83128909  -0.00124570  0.49944048  1
  Mn3.30+  Mn86  1  0.83203192  0.33386932  -0.00073470  1
  Mn3.30+  Mn87  1  0.83392040  0.33222399  0.50128862  1
  Mn3.30+  Mn88  1  0.83349060  0.66686455  0.00058791  1
  Mn3.30+  Mn89  1  0.83178522  0.66694903  0.50007958  1
  Mn3.30+  Mn90  1  -0.00116326  0.16640484  0.25108852  1
  Mn3.30+  Mn91  1  -0.00139907  0.16644859  0.74721096  1
  Mn3.30+  Mn92  1  0.00106794  0.49986777  0.24817027  1
  Mn3.30+  Mn93  1  -0.00077136  0.49940855  0.75092234  1
  Mn3.30+  Mn94  1  -0.00065306  0.83192476  0.25028198  1
  Mn3.30+  Mn95  1  0.00128011  0.83033196  0.75066862  1
  Mn3.30+  Mn96  1  0.33569170  0.16854218  0.25034782  1
  Mn3.30+  Mn97  1  0.33638983  0.16769376  0.74807748  1
  Mn3.30+  Mn98  1  0.33524753  0.50069646  0.24961368  1
  Mn3.30+  Mn99  1  0.33367658  0.49869553  0.74809457  1
  Mn3.30+  Mn100  1  0.33510858  0.83351528  0.24965518  1
  Mn3.30+  Mn101  1  0.33249172  0.83336807  0.75165807  1
  Mn3.30+  Mn102  1  0.66378550  0.16494698  0.25089742  1
  Mn3.30+  Mn103  1  0.66508535  0.16730596  0.74746352  1
  Mn3.30+  Mn104  1  0.66425326  0.50051255  0.25146044  1
  Mn3.30+  Mn105  1  0.66522787  0.50144981  0.74804551  1
  Mn3.30+  Mn106  1  0.66756144  0.83317720  0.25130461  1
  Mn3.30+  Mn107  1  0.66787800  0.83281180  0.74870776  1
  Mn3.30+  Mn108  1  0.16636846  -0.00009122  0.25075633  1
  Mn3.30+  Mn109  1  0.16627305  0.00050395  0.74986192  1
  Mn3.30+  Mn110  1  0.16778828  0.33491599  0.24988051  1
  Mn3.30+  Mn111  1  0.16701773  0.33409128  0.74793915  1
  Mn3.30+  Mn112  1  0.16768098  0.66465026  0.25047077  1
  Mn3.30+  Mn113  1  0.16494344  0.66728006  0.75060436  1
  Mn3.30+  Mn114  1  0.50333758  0.00038596  0.25144634  1
  Mn3.30+  Mn115  1  0.50043803  0.00263807  0.74795968  1
  Mn3.30+  Mn116  1  0.49920643  0.33375938  0.25080065  1
  Mn3.30+  Mn117  1  0.49888864  0.33279103  0.74681305  1
  Mn3.30+  Mn118  1  0.50214673  0.66548701  0.25011825  1
  Mn3.30+  Mn119  1  0.50167515  0.66545520  0.74865528  1
  Mn3.30+  Mn120  1  0.83018972  -0.00165660  0.25064741  1
  Mn3.30+  Mn121  1  0.83437371  0.00107858  0.74910302  1
  Mn3.30+  Mn122  1  0.83227207  0.33329310  0.25061695  1
  Mn3.30+  Mn123  1  0.83359384  0.33306490  0.74884849  1
  Mn3.30+  Mn124  1  0.83181732  0.66796986  0.24840611  1
  Mn3.30+  Mn125  1  0.83378754  0.66561550  0.75105634  1
  Mn3.30+  Mn126  1  -0.00000686  0.16652304  -0.00012147  1
  Mn3.30+  Mn127  1  -0.00309979  0.16613364  0.50218208  1
  Mn3.30+  Mn128  1  0.00127370  0.50121537  0.00104416  1
  Mn3.30+  Mn129  1  -0.00086421  0.49798527  0.50007169  1
  Mn3.30+  Mn130  1  0.00265927  0.83115161  -0.00005608  1
  Mn3.30+  Mn131  1  -0.00209037  0.83117191  0.49900532  1
  Mn3.30+  Mn132  1  0.33640028  0.16636734  -0.00037221  1
  Mn3.30+  Mn133  1  0.33468487  0.17012064  0.50229648  1
  Mn3.30+  Mn134  1  0.33224557  0.49998387  -0.00009917  1
  Mn3.30+  Mn135  1  0.33676333  0.49973955  0.50258483  1
  Mn3.30+  Mn136  1  0.33209955  0.83428886  -0.00228557  1
  Mn3.30+  Mn137  1  0.33516104  0.83281165  0.50054514  1
  Mn3.30+  Mn138  1  0.66227183  0.16556098  -0.00203634  1
  Mn3.30+  Mn139  1  0.66602978  0.16704878  0.50281386  1
  Mn3.30+  Mn140  1  0.66649084  0.49942530  -0.00005573  1
  Mn3.30+  Mn141  1  0.66284777  0.50244957  0.50046458  1
  Mn3.30+  Mn142  1  0.66602952  0.83348117  -0.00011337  1
  Mn3.30+  Mn143  1  0.66933966  0.83252037  0.50073940  1
  O2-  O144  1  0.02607819  0.16009981  0.12717176  1
  O2-  O145  1  0.02595490  0.16178079  0.62326152  1
  O2-  O146  1  0.02953400  0.49391450  0.12643977  1
  O2-  O147  1  0.02263441  0.49340772  0.62470534  1
  O2-  O148  1  0.02962315  0.82685347  0.12532595  1
  O2-  O149  1  0.02330010  0.82943401  0.62569954  1
  O2-  O150  1  0.36164338  0.16205809  0.12492330  1
  O2-  O151  1  0.36208060  0.15940029  0.62385925  1
  O2-  O152  1  0.36098285  0.49541592  0.12355440  1
  O2-  O153  1  0.35974843  0.49642383  0.62738351  1
  O2-  O154  1  0.35177226  0.82922823  0.12337072  1
  O2-  O155  1  0.35888097  0.82715441  0.62709566  1
  O2-  O156  1  0.68841112  0.16901279  0.12558231  1
  O2-  O157  1  0.69654049  0.16240325  0.62416947  1
  O2-  O158  1  0.69021848  0.48883416  0.12673379  1
  O2-  O159  1  0.69379532  0.49426329  0.62435532  1
  O2-  O160  1  0.68875441  0.82897555  0.12486169  1
  O2-  O161  1  0.69376084  0.82598239  0.62651592  1
  O2-  O162  1  0.14169169  0.32484017  0.12559659  1
  O2-  O163  1  0.13809848  0.33075691  0.62311669  1
  O2-  O164  1  0.14437331  0.66197199  0.12644983  1
  O2-  O165  1  0.14768378  0.66086121  0.62440788  1
  O2-  O166  1  0.14017505  0.99469449  0.12669486  1
  O2-  O167  1  0.14613366  0.99312583  0.62459881  1
  O2-  O168  1  0.47604267  0.32458100  0.12237607  1
  O2-  O169  1  0.47276294  0.32405717  0.62637815  1
  O2-  O170  1  0.47447843  0.66166231  0.12143209  1
  O2-  O171  1  0.47430238  0.66505424  0.62701235  1
  O2-  O172  1  0.47756071  0.99486796  0.12770856  1
  O2-  O173  1  0.47420118  0.98954038  0.62396505  1
  O2-  O174  1  0.80642622  0.32772076  0.12489899  1
  O2-  O175  1  0.80766070  0.32985059  0.62252426  1
  O2-  O176  1  0.80488122  0.66150363  0.12536351  1
  O2-  O177  1  0.80867213  0.66048642  0.62531128  1
  O2-  O178  1  0.81232557  0.99411803  0.12577917  1
  O2-  O179  1  0.80854335  0.98944858  0.62414458  1
  O2-  O180  1  0.30704537  0.17544982  0.37760669  1
  O2-  O181  1  0.31334833  0.16888486  0.87378903  1
  O2-  O182  1  0.31156093  0.49649559  0.37495465  1
  O2-  O183  1  0.30694228  0.50462963  0.87459572  1
  O2-  O184  1  0.30927644  0.83887100  0.37491201  1
  O2-  O185  1  0.30426571  0.83991483  0.87431561  1
  O2-  O186  1  0.64207036  0.17510428  0.37800899  1
  O2-  O187  1  0.63885354  0.17206424  0.87128802  1
  O2-  O188  1  0.63654663  0.50839473  0.37537326  1
  O2-  O189  1  0.64020889  0.50579987  0.87328971  1
  O2-  O190  1  0.64413275  0.83496088  0.37719937  1
  O2-  O191  1  0.64321094  0.83961071  0.87206089  1
  O2-  O192  1  0.97200533  0.17329939  0.37553362  1
  O2-  O193  1  0.97505585  0.17234972  0.87375425  1
  O2-  O194  1  0.97450243  0.50477878  0.37194539  1
  O2-  O195  1  0.98337210  0.50604023  0.87744300  1
  O2-  O196  1  0.97190879  0.83636706  0.37207200  1
  O2-  O197  1  0.97598218  0.83910113  0.87637153  1
  O2-  O198  1  0.19210531  0.00544699  0.37569132  1
  O2-  O199  1  0.19062207  0.00508328  0.87329932  1
  O2-  O200  1  0.19318003  0.33919840  0.37562579  1
  O2-  O201  1  0.19160732  0.33979376  0.87543523  1
  O2-  O202  1  0.18895636  0.66953483  0.37511170  1
  O2-  O203  1  0.19150633  0.66916919  0.87439970  1
  O2-  O204  1  0.52831200  0.00756522  0.37841735  1
  O2-  O205  1  0.52365200  0.00790625  0.87005241  1
  O2-  O206  1  0.52206908  0.34373453  0.37929868  1
  O2-  O207  1  0.52541387  0.34191250  0.87175691  1
  O2-  O208  1  0.52438312  0.67293018  0.37776987  1
  O2-  O209  1  0.52539302  0.66981651  0.87392638  1
  O2-  O210  1  0.85805685  0.00657834  0.37443434  1
  O2-  O211  1  0.86050641  0.00723559  0.87530725  1
  O2-  O212  1  0.85852929  0.33915915  0.37585851  1
  O2-  O213  1  0.85783279  0.33326443  0.87658620  1
  O2-  O214  1  0.85729804  0.67015859  0.37154800  1
  O2-  O215  1  0.86066755  0.67259343  0.87777084  1
  O2-  O216  1  0.24136633  0.09489025  0.02340295  1
  O2-  O217  1  0.24003653  0.09816047  0.52033948  1
  O2-  O218  1  0.23851235  0.42957379  0.02261671  1
  O2-  O219  1  0.23660532  0.43004986  0.51855712  1
  O2-  O220  1  0.23728457  0.75983074  0.01987312  1
  O2-  O221  1  0.23861892  0.76066714  0.51970182  1
  O2-  O222  1  0.56847463  0.09801928  0.01730719  1
  O2-  O223  1  0.57014315  0.09707413  0.52437500  1
  O2-  O224  1  0.56892833  0.42673534  0.01893242  1
  O2-  O225  1  0.57136221  0.42910211  0.52551214  1
  O2-  O226  1  0.57311250  0.75886708  0.01214253  1
  O2-  O227  1  0.57199736  0.76345935  0.51765567  1
  O2-  O228  1  0.90469579  0.09527341  0.02126731  1
  O2-  O229  1  0.89872470  0.09801101  0.51671304  1
  O2-  O230  1  0.90813515  0.42729460  0.02387081  1
  O2-  O231  1  0.90215608  0.42807518  0.51667650  1
  O2-  O232  1  0.90581891  0.76135012  0.02327222  1
  O2-  O233  1  0.90436158  0.76038490  0.51729036  1
  O2-  O234  1  0.26190141  0.26182497  0.22811082  1
  O2-  O235  1  0.26352927  0.26234161  0.72862395  1
  O2-  O236  1  0.26504838  0.59349841  0.23016143  1
  O2-  O237  1  0.26175909  0.59460548  0.73107155  1
  O2-  O238  1  0.26087588  0.92929543  0.23038911  1
  O2-  O239  1  0.26282160  0.92756819  0.72816361  1
  O2-  O240  1  0.59564392  0.26439903  0.23742681  1
  O2-  O241  1  0.59721090  0.26452098  0.72964016  1
  O2-  O242  1  0.59750563  0.59538226  0.22590693  1
  O2-  O243  1  0.59644181  0.59736931  0.73030205  1
  O2-  O244  1  0.59477618  0.92702384  0.23961818  1
  O2-  O245  1  0.59526140  0.92922814  0.72866698  1
  O2-  O246  1  0.92872328  0.26031719  0.22840911  1
  O2-  O247  1  0.93009890  0.26227243  0.73142097  1
  O2-  O248  1  0.92718529  0.59344517  0.22773293  1
  O2-  O249  1  0.92333669  0.58877594  0.73203851  1
  O2-  O250  1  0.93074962  0.92655277  0.22905940  1
  O2-  O251  1  0.92631511  0.92444945  0.73507546  1
  O2-  O252  1  0.09480821  0.23818538  0.27210669  1
  O2-  O253  1  0.09320122  0.24035236  0.76571840  1
  O2-  O254  1  0.09253450  0.57281930  0.27269126  1
  O2-  O255  1  0.09673430  0.57017145  0.76482647  1
  O2-  O256  1  0.09421704  0.90314528  0.27235872  1
  O2-  O257  1  0.09525058  0.90182233  0.76981705  1
  O2-  O258  1  0.42774505  0.24127365  0.27506677  1
  O2-  O259  1  0.42941035  0.23807475  0.77302804  1
  O2-  O260  1  0.43341415  0.56738410  0.26616419  1
  O2-  O261  1  0.42488249  0.57289955  0.77248029  1
  O2-  O262  1  0.42688662  0.90963073  0.27394749  1
  O2-  O263  1  0.42754991  0.90492931  0.77154044  1
  O2-  O264  1  0.75970442  0.23758092  0.27005880  1
  O2-  O265  1  0.75955530  0.23983862  0.77107931  1
  O2-  O266  1  0.76036216  0.57067564  0.27051213  1
  O2-  O267  1  0.75815775  0.57533844  0.76948129  1
  O2-  O268  1  0.76515514  0.90143219  0.26841198  1
  O2-  O269  1  0.76141867  0.90701236  0.77143755  1
  O2-  O270  1  0.07043299  0.07392091  0.47645447  1
  O2-  O271  1  0.06982950  0.06789609  0.98395269  1
  O2-  O272  1  0.07427551  0.40685899  0.47553606  1
  O2-  O273  1  0.07106856  0.40484132  0.97988478  1
  O2-  O274  1  0.07174709  0.74008102  0.47716995  1
  O2-  O275  1  0.06834617  0.73314590  0.98208674  1
  O2-  O276  1  0.40444927  0.07321116  0.47850076  1
  O2-  O277  1  0.40232448  0.06867868  0.98314905  1
  O2-  O278  1  0.40335559  0.40432405  0.48471386  1
  O2-  O279  1  0.40442433  0.40260397  0.97900029  1
  O2-  O280  1  0.40956622  0.74132848  0.48404706  1
  O2-  O281  1  0.40581420  0.73885295  0.97789336  1
  O2-  O282  1  0.73577714  0.06701320  0.47894796  1
  O2-  O283  1  0.73666245  0.07594742  0.97698643  1
  O2-  O284  1  0.73698850  0.40765811  0.47861693  1
  O2-  O285  1  0.73609680  0.40384214  0.98175983  1
  O2-  O286  1  0.73841070  0.73703529  0.48038828  1
  O2-  O287  1  0.74224061  0.74157734  0.97768277  1
  O2-  O288  1  0.09629450  0.23865389  0.47862545  1
  O2-  O289  1  0.09046979  0.24066465  0.98313164  1
  O2-  O290  1  0.09360073  0.57186325  0.48014917  1
  O2-  O291  1  0.09758854  0.57163940  0.98399803  1
  O2-  O292  1  0.09227553  0.90249369  0.47865245  1
  O2-  O293  1  0.09674196  0.90095940  0.97941875  1
  O2-  O294  1  0.42771661  0.24134935  0.47693901  1
  O2-  O295  1  0.42833750  0.23874340  0.97506540  1
  O2-  O296  1  0.43186153  0.57057364  0.48450430  1
  O2-  O297  1  0.42844947  0.57117159  0.97843348  1
  O2-  O298  1  0.42979066  0.90742760  0.47856772  1
  O2-  O299  1  0.42628312  0.90812622  0.97570535  1
  O2-  O300  1  0.76057097  0.24126279  0.47807149  1
  O2-  O301  1  0.75867143  0.23715463  0.97958744  1
  O2-  O302  1  0.75999444  0.57204292  0.47776953  1
  O2-  O303  1  0.75994409  0.57445944  0.98232416  1
  O2-  O304  1  0.76391230  0.90106363  0.48157346  1
  O2-  O305  1  0.76248722  0.90658040  0.97950876  1
  O2-  O306  1  0.07091463  0.07118012  0.27207767  1
  O2-  O307  1  0.06908123  0.07115955  0.76787443  1
  O2-  O308  1  0.07178104  0.40456759  0.27169920  1
  O2-  O309  1  0.07270874  0.40752910  0.77204410  1
  O2-  O310  1  0.07057504  0.73869217  0.27118886  1
  O2-  O311  1  0.07182808  0.73622067  0.77127877  1
  O2-  O312  1  0.40481089  0.07259428  0.27328504  1
  O2-  O313  1  0.40263503  0.06871878  0.76511360  1
  O2-  O314  1  0.40213111  0.40213303  0.26327282  1
  O2-  O315  1  0.40476753  0.40516905  0.77270822  1
  O2-  O316  1  0.40937783  0.74109615  0.26558137  1
  O2-  O317  1  0.40505084  0.73957684  0.77237193  1
  O2-  O318  1  0.73562595  0.07320428  0.27235442  1
  O2-  O319  1  0.73652645  0.07219223  0.77001117  1
  O2-  O320  1  0.73673670  0.40793442  0.27365314  1
  O2-  O321  1  0.73502842  0.40478415  0.76595062  1
  O2-  O322  1  0.73985599  0.73917771  0.26911769  1
  O2-  O323  1  0.74110888  0.74006549  0.77389241  1
  O2-  O324  1  0.23990121  0.09627096  0.23056540  1
  O2-  O325  1  0.24144092  0.09585308  0.72631195  1
  O2-  O326  1  0.23887111  0.43028461  0.22827165  1
  O2-  O327  1  0.23730296  0.43007982  0.73049296  1
  O2-  O328  1  0.23818470  0.76121626  0.23151560  1
  O2-  O329  1  0.23994460  0.75994712  0.72791414  1
  O2-  O330  1  0.56660021  0.10059213  0.23364644  1
  O2-  O331  1  0.57349215  0.09521745  0.72264378  1
  O2-  O332  1  0.57157164  0.42598660  0.22787109  1
  O2-  O333  1  0.56909574  0.43025143  0.72737498  1
  O2-  O334  1  0.57482201  0.75972867  0.23726675  1
  O2-  O335  1  0.57114601  0.76462501  0.73366829  1
  O2-  O336  1  0.90317644  0.09439226  0.23000869  1
  O2-  O337  1  0.89989723  0.09832950  0.73141875  1
  O2-  O338  1  0.90623251  0.42835299  0.22784089  1
  O2-  O339  1  0.90522485  0.42594177  0.73121527  1
  O2-  O340  1  0.90889039  0.75924904  0.22319927  1
  O2-  O341  1  0.90298017  0.76186659  0.73358879  1
  O2-  O342  1  0.26239329  0.26038954  0.01947988  1
  O2-  O343  1  0.26171265  0.26380534  0.52432434  1
  O2-  O344  1  0.26372217  0.59866220  0.01723452  1
  O2-  O345  1  0.26304827  0.59076013  0.52080549  1
  O2-  O346  1  0.26099557  0.93094505  0.02161270  1
  O2-  O347  1  0.26265316  0.92663239  0.51940880  1
  O2-  O348  1  0.59664856  0.26428580  0.01473648  1
  O2-  O349  1  0.59417974  0.26576691  0.51803988  1
  O2-  O350  1  0.59513758  0.59358899  0.02117438  1
  O2-  O351  1  0.59853058  0.59933012  0.52191475  1
  O2-  O352  1  0.59336979  0.92923416  0.00986125  1
  O2-  O353  1  0.59651627  0.92568178  0.52288943  1
  O2-  O354  1  0.92561119  0.26013658  0.02232791  1
  O2-  O355  1  0.93160278  0.26437947  0.51876359  1
  O2-  O356  1  0.92597736  0.59226818  0.02526678  1
  O2-  O357  1  0.92356397  0.59165417  0.51474993  1
  O2-  O358  1  0.93149503  0.92519044  0.02050561  1
  O2-  O359  1  0.92652106  0.92658580  0.51508470  1
