# generated using pymatgen
data_Sr7Ca15Pr50Mn72O216
_symmetry_space_group_name_H-M   'P 1'
_cell_length_a   16.55598328
_cell_length_b   16.60179669
_cell_length_c   15.59066528
_cell_angle_alpha   89.99703897
_cell_angle_beta   89.99403850
_cell_angle_gamma   90.00609620
_symmetry_Int_Tables_number   1
_chemical_formula_structural   Sr7Ca15Pr50Mn72O216
_chemical_formula_sum   'Sr7 Ca15 Pr50 Mn72 O216'
_cell_volume   4285.23568205
_cell_formula_units_Z   1
loop_
 _symmetry_equiv_pos_site_id
 _symmetry_equiv_pos_as_xyz
  1  'x, y, z'
loop_
 _atom_type_symbol
 _atom_type_oxidation_number
  Sr2+  2.0
  Ca2+  2.0
  Pr3+  3.0
  Mn3.30+  3.3
  O2-  -2.0
loop_
 _atom_site_type_symbol
 _atom_site_label
 _atom_site_symmetry_multiplicity
 _atom_site_fract_x
 _atom_site_fract_y
 _atom_site_fract_z
 _atom_site_occupancy
  Sr2+  Sr0  1  0.66751383  0.32449075  0.87530691  1
  Sr2+  Sr1  1  1.00078131  0.98888280  0.37338897  1
  Sr2+  Sr2  1  0.66465861  0.32482477  0.37500066  1
  Sr2+  Sr3  1  0.16662700  0.15696178  0.87585814  1
  Sr2+  Sr4  1  0.67011766  0.98732245  0.37522540  1
  Sr2+  Sr5  1  0.49822419  0.82548749  0.37471563  1
  Sr2+  Sr6  1  0.33688689  0.65709732  0.37704543  1
  Ca2+  Ca7  1  0.33381091  0.98600995  0.87353349  1
  Ca2+  Ca8  1  0.33826744  0.98381024  0.37671135  1
  Ca2+  Ca9  1  0.50450538  0.18160595  0.12613974  1
  Ca2+  Ca10  1  0.17126952  0.51570620  0.12468099  1
  Ca2+  Ca11  1  0.83139055  0.81951798  0.87351193  1
  Ca2+  Ca12  1  0.33368215  0.65387117  0.87329119  1
  Ca2+  Ca13  1  0.49801614  0.48996589  0.37465884  1
  Ca2+  Ca14  1  0.32964297  0.68247650  0.62526789  1
  Ca2+  Ca15  1  0.82972099  0.82130351  0.37635245  1
  Ca2+  Ca16  1  1.00490064  0.31822164  0.37410962  1
  Ca2+  Ca17  1  0.82939556  0.48499628  0.87473636  1
  Ca2+  Ca18  1  0.32871736  0.01219191  0.62450440  1
  Ca2+  Ca19  1  -0.00208659  0.68401110  0.62602560  1
  Ca2+  Ca20  1  0.16625250  0.81957328  0.87415959  1
  Ca2+  Ca21  1  -0.00186311  0.01456810  0.12540184  1
  Pr3+  Pr22  1  0.83148695  0.48871230  0.37504213  1
  Pr3+  Pr23  1  0.16843183  0.84660881  0.12322684  1
  Pr3+  Pr24  1  1.00080974  0.32147466  0.87563811  1
  Pr3+  Pr25  1  0.83825061  0.84535560  0.62606933  1
  Pr3+  Pr26  1  0.33814055  0.32358369  0.37485804  1
  Pr3+  Pr27  1  0.67105295  0.98610886  0.87496543  1
  Pr3+  Pr28  1  0.49632864  0.48669172  0.87494774  1
  Pr3+  Pr29  1  0.82910118  0.15617664  0.87532724  1
  Pr3+  Pr30  1  0.49787925  0.84471560  0.62350673  1
  Pr3+  Pr31  1  0.66280643  0.34523109  0.12625656  1
  Pr3+  Pr32  1  0.17035626  0.51770140  0.62555365  1
  Pr3+  Pr33  1  0.49604842  0.15083216  0.37354631  1
  Pr3+  Pr34  1  0.16472136  0.15251135  0.37430753  1
  Pr3+  Pr35  1  -0.00044876  0.01244355  0.62430534  1
  Pr3+  Pr36  1  1.00328668  0.65932864  0.37661972  1
  Pr3+  Pr37  1  0.83013941  0.15323386  0.37443574  1
  Pr3+  Pr38  1  0.66350415  0.68017984  0.12420529  1
  Pr3+  Pr39  1  0.83552517  0.17843000  0.12675828  1
  Pr3+  Pr40  1  0.00065429  0.67842802  0.12398737  1
  Pr3+  Pr41  1  0.66393230  0.34628062  0.62403940  1
  Pr3+  Pr42  1  0.50054116  0.17714571  0.62408132  1
  Pr3+  Pr43  1  0.32896931  0.34635998  0.62545986  1
  Pr3+  Pr44  1  0.83874979  0.84802822  0.12355360  1
  Pr3+  Pr45  1  0.66808080  0.65993044  0.37611800  1
  Pr3+  Pr46  1  0.50136248  0.84402059  0.12625794  1
  Pr3+  Pr47  1  0.83473930  0.51197332  0.12340095  1
  Pr3+  Pr48  1  0.16562067  0.49012115  0.87690376  1
  Pr3+  Pr49  1  0.66423512  0.68058393  0.62599531  1
  Pr3+  Pr50  1  0.49413437  0.15123892  0.87663478  1
  Pr3+  Pr51  1  0.83462508  0.17913533  0.62314972  1
  Pr3+  Pr52  1  -0.00195760  0.34624408  0.12554180  1
  Pr3+  Pr53  1  1.00222947  0.65615598  0.87340570  1
  Pr3+  Pr54  1  0.17085393  0.84695030  0.62631062  1
  Pr3+  Pr55  1  0.16611190  0.82243133  0.37540132  1
  Pr3+  Pr56  1  0.33303277  0.01104546  0.12643886  1
  Pr3+  Pr57  1  1.00678270  0.98599401  0.87676686  1
  Pr3+  Pr58  1  0.66342686  0.01137589  0.62354879  1
  Pr3+  Pr59  1  0.32903445  0.34824923  0.12464383  1
  Pr3+  Pr60  1  0.17033107  0.17741864  0.62500895  1
  Pr3+  Pr61  1  0.16220909  0.48756835  0.37362653  1
  Pr3+  Pr62  1  0.66076886  0.01487514  0.12656581  1
  Pr3+  Pr63  1  0.33706623  0.31922934  0.87537653  1
  Pr3+  Pr64  1  0.83809562  0.51489392  0.62667895  1
  Pr3+  Pr65  1  0.32948846  0.67797398  0.12398700  1
  Pr3+  Pr66  1  0.50235596  0.51271106  0.12703221  1
  Pr3+  Pr67  1  0.50120486  0.51385760  0.62308563  1
  Pr3+  Pr68  1  0.67213044  0.65230712  0.87391509  1
  Pr3+  Pr69  1  0.49417673  0.81849023  0.87474691  1
  Pr3+  Pr70  1  0.16652382  0.17646462  0.12526436  1
  Pr3+  Pr71  1  -0.00216795  0.34496548  0.62435485  1
  Mn3.30+  Mn72  1  0.16755312  -0.00045730  -0.00073860  1
  Mn3.30+  Mn73  1  0.16914221  -0.00072509  0.49871375  1
  Mn3.30+  Mn74  1  0.16637068  0.33410918  0.00095536  1
  Mn3.30+  Mn75  1  0.16554611  0.33399642  0.49868901  1
  Mn3.30+  Mn76  1  0.16765138  0.66723939  -0.00282337  1
  Mn3.30+  Mn77  1  0.16773502  0.66834216  0.50199567  1
  Mn3.30+  Mn78  1  0.49913130  -0.00103411  -0.00083304  1
  Mn3.30+  Mn79  1  0.49615041  -0.00120522  0.50036599  1
  Mn3.30+  Mn80  1  0.49962880  0.33146360  0.00147702  1
  Mn3.30+  Mn81  1  0.49878259  0.33442053  0.49902570  1
  Mn3.30+  Mn82  1  0.49831274  0.66568720  -0.00213658  1
  Mn3.30+  Mn83  1  0.49761223  0.66758290  0.50041354  1
  Mn3.30+  Mn84  1  0.83523392  -0.00027256  -0.00044623  1
  Mn3.30+  Mn85  1  0.83313232  -0.00203056  0.49909757  1
  Mn3.30+  Mn86  1  0.83189238  0.33435409  0.00045515  1
  Mn3.30+  Mn87  1  0.83450173  0.33413430  0.49762084  1
  Mn3.30+  Mn88  1  0.83364779  0.66729366  -0.00169941  1
  Mn3.30+  Mn89  1  0.83603269  0.66857541  0.50097522  1
  Mn3.30+  Mn90  1  0.00018251  0.16649564  0.25063577  1
  Mn3.30+  Mn91  1  0.00035488  0.16620275  0.75033476  1
  Mn3.30+  Mn92  1  0.00100664  0.50051096  0.24919198  1
  Mn3.30+  Mn93  1  -0.00035304  0.50153215  0.75099157  1
  Mn3.30+  Mn94  1  -0.00124035  0.83503229  0.25038933  1
  Mn3.30+  Mn95  1  0.00173555  0.83290603  0.75191287  1
  Mn3.30+  Mn96  1  0.33480157  0.16619447  0.24853795  1
  Mn3.30+  Mn97  1  0.33287918  0.16264176  0.75059566  1
  Mn3.30+  Mn98  1  0.33307247  0.50133005  0.25103502  1
  Mn3.30+  Mn99  1  0.33256329  0.50313651  0.74956286  1
  Mn3.30+  Mn100  1  0.33383008  0.83346756  0.24993281  1
  Mn3.30+  Mn101  1  0.33143383  0.83319762  0.75206872  1
  Mn3.30+  Mn102  1  0.66526053  0.16726421  0.25087776  1
  Mn3.30+  Mn103  1  0.66524009  0.16685348  0.75051522  1
  Mn3.30+  Mn104  1  0.66613577  0.50127514  0.25244391  1
  Mn3.30+  Mn105  1  0.66832380  0.49994610  0.74934198  1
  Mn3.30+  Mn106  1  0.66948473  0.83367126  0.25047568  1
  Mn3.30+  Mn107  1  0.66678014  0.83330725  0.75080205  1
  Mn3.30+  Mn108  1  0.16657079  -0.00082114  0.24940308  1
  Mn3.30+  Mn109  1  0.16966531  -0.00087361  0.75298726  1
  Mn3.30+  Mn110  1  0.16618424  0.33442168  0.24974219  1
  Mn3.30+  Mn111  1  0.16584787  0.33408456  0.75083567  1
  Mn3.30+  Mn112  1  0.16757434  0.66603560  0.24993132  1
  Mn3.30+  Mn113  1  0.16775749  0.66945276  0.75072622  1
  Mn3.30+  Mn114  1  0.49851559  -0.00041344  0.25092021  1
  Mn3.30+  Mn115  1  0.49700186  -0.00136086  0.74959731  1
  Mn3.30+  Mn116  1  0.49887719  0.33344971  0.25035215  1
  Mn3.30+  Mn117  1  0.49917907  0.33236973  0.74944520  1
  Mn3.30+  Mn118  1  0.49883209  0.66669133  0.25181626  1
  Mn3.30+  Mn119  1  0.49681857  0.66659942  0.74954083  1
  Mn3.30+  Mn120  1  0.83359221  -0.00158442  0.24944702  1
  Mn3.30+  Mn121  1  0.83471477  -0.00066578  0.75129435  1
  Mn3.30+  Mn122  1  0.83418694  0.33362260  0.25245442  1
  Mn3.30+  Mn123  1  0.83218377  0.33468401  0.74965163  1
  Mn3.30+  Mn124  1  0.83437961  0.66837571  0.24995053  1
  Mn3.30+  Mn125  1  0.83566275  0.66767626  0.75108813  1
  Mn3.30+  Mn126  1  -0.00057947  0.16542419  0.00062054  1
  Mn3.30+  Mn127  1  0.00102401  0.16725950  0.49821389  1
  Mn3.30+  Mn128  1  -0.00010714  0.50096713  -0.00043076  1
  Mn3.30+  Mn129  1  0.00060965  0.50119074  0.50020683  1
  Mn3.30+  Mn130  1  0.00090358  0.83398377  -0.00167308  1
  Mn3.30+  Mn131  1  -0.00014042  0.83353130  0.49972025  1
  Mn3.30+  Mn132  1  0.33479090  0.16410315  0.00190851  1
  Mn3.30+  Mn133  1  0.33301111  0.16450948  0.49912979  1
  Mn3.30+  Mn134  1  0.33208136  0.50162910  -0.00036409  1
  Mn3.30+  Mn135  1  0.33377039  0.50205019  0.49938763  1
  Mn3.30+  Mn136  1  0.33199914  0.83303194  -0.00360646  1
  Mn3.30+  Mn137  1  0.33342925  0.83409326  0.50160799  1
  Mn3.30+  Mn138  1  0.66448146  0.16727550  -0.00020650  1
  Mn3.30+  Mn139  1  0.66600412  0.16677026  0.49870063  1
  Mn3.30+  Mn140  1  0.66785634  0.49973714  -0.00052779  1
  Mn3.30+  Mn141  1  0.66675641  0.50158296  0.49889433  1
  Mn3.30+  Mn142  1  0.66831700  0.83335669  -0.00161389  1
  Mn3.30+  Mn143  1  0.66818601  0.83337600  0.49975395  1
  O2-  O144  1  0.02190174  0.16293224  0.12599819  1
  O2-  O145  1  0.02514271  0.16273826  0.62450324  1
  O2-  O146  1  0.02896754  0.49427458  0.12477384  1
  O2-  O147  1  0.02750489  0.49027778  0.62635680  1
  O2-  O148  1  0.02513991  0.82585495  0.12330918  1
  O2-  O149  1  0.02561539  0.83121954  0.62796125  1
  O2-  O150  1  0.36393652  0.15795855  0.12515568  1
  O2-  O151  1  0.35715517  0.15965212  0.62520822  1
  O2-  O152  1  0.35805788  0.49763246  0.12560109  1
  O2-  O153  1  0.35743985  0.49261597  0.62614384  1
  O2-  O154  1  0.35715921  0.82586012  0.12092240  1
  O2-  O155  1  0.35531837  0.82538383  0.62885086  1
  O2-  O156  1  0.69077717  0.16299128  0.12462033  1
  O2-  O157  1  0.68959266  0.16083730  0.62470991  1
  O2-  O158  1  0.69008914  0.49645668  0.12682625  1
  O2-  O159  1  0.69259674  0.49648752  0.62395905  1
  O2-  O160  1  0.69334986  0.82822948  0.12249318  1
  O2-  O161  1  0.69323024  0.82996071  0.62760713  1
  O2-  O162  1  0.14126449  0.32554998  0.12471613  1
  O2-  O163  1  0.14210476  0.32762579  0.62380999  1
  O2-  O164  1  0.14457620  0.66168752  0.12248931  1
  O2-  O165  1  0.13972529  0.66396277  0.62648206  1
  O2-  O166  1  0.13967285  0.99462192  0.12450463  1
  O2-  O167  1  0.14240251  0.99595531  0.62617454  1
  O2-  O168  1  0.47423286  0.32860670  0.12553368  1
  O2-  O169  1  0.47293509  0.32627688  0.62428526  1
  O2-  O170  1  0.47502479  0.66074455  0.12235371  1
  O2-  O171  1  0.47270053  0.66043703  0.62662636  1
  O2-  O172  1  0.47775108  0.99182666  0.12375010  1
  O2-  O173  1  0.47211341  0.99474373  0.62620143  1
  O2-  O174  1  0.80756745  0.32825152  0.12820342  1
  O2-  O175  1  0.80839726  0.32805267  0.62320136  1
  O2-  O176  1  0.80706319  0.65931298  0.12194215  1
  O2-  O177  1  0.80832910  0.66148075  0.62667922  1
  O2-  O178  1  0.80536168  0.99504821  0.12205349  1
  O2-  O179  1  0.80857376  0.99371789  0.62628775  1
  O2-  O180  1  0.30715301  0.17755803  0.37345380  1
  O2-  O181  1  0.31527958  0.17345456  0.87618846  1
  O2-  O182  1  0.30699019  0.49841491  0.37525892  1
  O2-  O183  1  0.30952102  0.50541547  0.87280556  1
  O2-  O184  1  0.30999171  0.83950187  0.37506863  1
  O2-  O185  1  0.30726256  0.84314482  0.87513587  1
  O2-  O186  1  0.64172844  0.16811685  0.37602563  1
  O2-  O187  1  0.63962405  0.16799296  0.87484335  1
  O2-  O188  1  0.64100380  0.50978867  0.37587242  1
  O2-  O189  1  0.64074158  0.50405297  0.87367023  1
  O2-  O190  1  0.64928934  0.82822500  0.37618466  1
  O2-  O191  1  0.63918931  0.83844657  0.87396907  1
  O2-  O192  1  0.97486493  0.17290561  0.37474803  1
  O2-  O193  1  0.97334236  0.17228139  0.87476360  1
  O2-  O194  1  0.97401378  0.51247311  0.37423355  1
  O2-  O195  1  0.97091600  0.50794052  0.87473397  1
  O2-  O196  1  0.97363904  0.83212963  0.37222831  1
  O2-  O197  1  0.97221197  0.84016943  0.87627436  1
  O2-  O198  1  0.19537384  0.00393781  0.37306259  1
  O2-  O199  1  0.19340495  0.00583572  0.87617101  1
  O2-  O200  1  0.19411660  0.33994326  0.37434990  1
  O2-  O201  1  0.19277780  0.34043985  0.87741655  1
  O2-  O202  1  0.18597423  0.67305411  0.37653229  1
  O2-  O203  1  0.19254316  0.67105905  0.87409755  1
  O2-  O204  1  0.51992660  0.00305171  0.37536713  1
  O2-  O205  1  0.52710220  0.00367362  0.87493711  1
  O2-  O206  1  0.51518731  0.34299242  0.37565969  1
  O2-  O207  1  0.51712364  0.33841989  0.87493746  1
  O2-  O208  1  0.52406544  0.67117910  0.37734842  1
  O2-  O209  1  0.52761396  0.66982555  0.87373621  1
  O2-  O210  1  0.85192923  0.00666306  0.37598522  1
  O2-  O211  1  0.86128609  0.01092893  0.87526695  1
  O2-  O212  1  0.86327592  0.34146280  0.37473610  1
  O2-  O213  1  0.85684981  0.33805382  0.87373468  1
  O2-  O214  1  0.85920185  0.67460135  0.37575497  1
  O2-  O215  1  0.85880863  0.67577559  0.87568802  1
  O2-  O216  1  0.24098989  0.09293998  0.02564927  1
  O2-  O217  1  0.23640413  0.09728365  0.51692777  1
  O2-  O218  1  0.23723043  0.42877742  0.02155965  1
  O2-  O219  1  0.23653603  0.42955703  0.52095218  1
  O2-  O220  1  0.23897569  0.76036168  0.02093024  1
  O2-  O221  1  0.23703404  0.76479216  0.51753330  1
  O2-  O222  1  0.57096372  0.09599777  0.02108148  1
  O2-  O223  1  0.56888888  0.09131072  0.52062128  1
  O2-  O224  1  0.57155827  0.42711217  0.02055037  1
  O2-  O225  1  0.57292542  0.42519113  0.52264422  1
  O2-  O226  1  0.56972101  0.75979746  0.01956782  1
  O2-  O227  1  0.57570284  0.75961906  0.52483397  1
  O2-  O228  1  0.90189937  0.09683715  0.01912726  1
  O2-  O229  1  0.90654092  0.09322542  0.52003954  1
  O2-  O230  1  0.90833903  0.42762299  0.02304216  1
  O2-  O231  1  0.90537193  0.42956275  0.52149038  1
  O2-  O232  1  0.90625589  0.75946997  0.02186674  1
  O2-  O233  1  0.90576566  0.76089852  0.52244869  1
  O2-  O234  1  0.26335219  0.25975978  0.22630211  1
  O2-  O235  1  0.26138840  0.25938826  0.73124798  1
  O2-  O236  1  0.26224055  0.59441796  0.23124413  1
  O2-  O237  1  0.26119096  0.59618470  0.72715817  1
  O2-  O238  1  0.25912751  0.92577800  0.22594463  1
  O2-  O239  1  0.26193686  0.92846746  0.72696574  1
  O2-  O240  1  0.59403741  0.26212867  0.23183365  1
  O2-  O241  1  0.59294385  0.25938560  0.72651131  1
  O2-  O242  1  0.59433978  0.59528147  0.22918580  1
  O2-  O243  1  0.59507858  0.59421209  0.72939149  1
  O2-  O244  1  0.59563891  0.92519723  0.22943235  1
  O2-  O245  1  0.59448769  0.92807194  0.72904400  1
  O2-  O246  1  0.92701104  0.26141862  0.22793573  1
  O2-  O247  1  0.92551902  0.26246334  0.72926033  1
  O2-  O248  1  0.92724321  0.59415678  0.22699332  1
  O2-  O249  1  0.93210367  0.59507791  0.72710894  1
  O2-  O250  1  0.92869145  0.92808362  0.22454690  1
  O2-  O251  1  0.93105684  0.92840431  0.73017264  1
  O2-  O252  1  0.09756825  0.23919449  0.26840761  1
  O2-  O253  1  0.08948301  0.24199085  0.76827648  1
  O2-  O254  1  0.09245096  0.57392797  0.27096530  1
  O2-  O255  1  0.09691900  0.57280053  0.77141217  1
  O2-  O256  1  0.09641548  0.90225660  0.26763398  1
  O2-  O257  1  0.09680925  0.90495831  0.77278012  1
  O2-  O258  1  0.42808077  0.23901581  0.27211528  1
  O2-  O259  1  0.42754114  0.23617380  0.76795361  1
  O2-  O260  1  0.43079937  0.56670010  0.26710084  1
  O2-  O261  1  0.43122256  0.56859601  0.76826631  1
  O2-  O262  1  0.42547292  0.90515014  0.26096916  1
  O2-  O263  1  0.43061624  0.90146068  0.76809708  1
  O2-  O264  1  0.76398504  0.23785316  0.26892173  1
  O2-  O265  1  0.76347247  0.23722983  0.76546137  1
  O2-  O266  1  0.76319915  0.57504275  0.27131848  1
  O2-  O267  1  0.76458647  0.57223051  0.77144908  1
  O2-  O268  1  0.76649853  0.90065642  0.26553520  1
  O2-  O269  1  0.76360272  0.90631279  0.77306470  1
  O2-  O270  1  0.07580754  0.07339221  0.48189117  1
  O2-  O271  1  0.07227067  0.07112744  0.98255398  1
  O2-  O272  1  0.06992810  0.40569279  0.47675875  1
  O2-  O273  1  0.06990173  0.40839727  0.97702317  1
  O2-  O274  1  0.07282521  0.74131099  0.48031651  1
  O2-  O275  1  0.07021483  0.73744085  0.98102659  1
  O2-  O276  1  0.40343115  0.07377451  0.47606897  1
  O2-  O277  1  0.40427730  0.06787576  0.97804098  1
  O2-  O278  1  0.40020698  0.40218820  0.48720300  1
  O2-  O279  1  0.40243319  0.40515454  0.98179771  1
  O2-  O280  1  0.40690857  0.74052022  0.48760425  1
  O2-  O281  1  0.40412804  0.73520893  0.97648262  1
  O2-  O282  1  0.74153559  0.07310594  0.48574824  1
  O2-  O283  1  0.73678263  0.07167545  0.97947683  1
  O2-  O284  1  0.74229632  0.40854573  0.48100080  1
  O2-  O285  1  0.74017018  0.40610431  0.98701045  1
  O2-  O286  1  0.73829766  0.73584129  0.48641627  1
  O2-  O287  1  0.73552039  0.73708593  0.98083566  1
  O2-  O288  1  0.09709544  0.23869629  0.47975177  1
  O2-  O289  1  0.09003265  0.24265274  0.98274963  1
  O2-  O290  1  0.09585130  0.57159672  0.48114347  1
  O2-  O291  1  0.09243541  0.57463309  0.97637149  1
  O2-  O292  1  0.09743533  0.90474802  0.48221891  1
  O2-  O293  1  0.09717506  0.90363654  0.97737900  1
  O2-  O294  1  0.42822620  0.23687898  0.48024032  1
  O2-  O295  1  0.42721416  0.23801818  0.98022423  1
  O2-  O296  1  0.43113693  0.56581015  0.48291652  1
  O2-  O297  1  0.43201423  0.56893476  0.98173118  1
  O2-  O298  1  0.42711782  0.90506628  0.48676119  1
  O2-  O299  1  0.43070734  0.90068202  0.98298078  1
  O2-  O300  1  0.76567455  0.23959941  0.48180467  1
  O2-  O301  1  0.76136214  0.23539966  0.98329205  1
  O2-  O302  1  0.76441422  0.57490706  0.47966997  1
  O2-  O303  1  0.76320139  0.57196897  0.97713403  1
  O2-  O304  1  0.76462942  0.90160156  0.48496816  1
  O2-  O305  1  0.76562812  0.90559839  0.97598884  1
  O2-  O306  1  0.07785388  0.07577896  0.26895984  1
  O2-  O307  1  0.07108922  0.06862259  0.76695293  1
  O2-  O308  1  0.06894133  0.40603985  0.27290565  1
  O2-  O309  1  0.07058369  0.40847328  0.77365920  1
  O2-  O310  1  0.07180866  0.73917035  0.26730208  1
  O2-  O311  1  0.07131876  0.73914392  0.77190635  1
  O2-  O312  1  0.40201271  0.07187401  0.27257700  1
  O2-  O313  1  0.40630017  0.07052131  0.77432137  1
  O2-  O314  1  0.40009223  0.40276419  0.26280966  1
  O2-  O315  1  0.40303058  0.40441669  0.76894975  1
  O2-  O316  1  0.40555780  0.73826724  0.26140204  1
  O2-  O317  1  0.40411418  0.73842937  0.77514473  1
  O2-  O318  1  0.73974068  0.07282969  0.26445533  1
  O2-  O319  1  0.73808867  0.07217504  0.76979559  1
  O2-  O320  1  0.74246124  0.40949089  0.26953459  1
  O2-  O321  1  0.73927676  0.40523551  0.76318199  1
  O2-  O322  1  0.73800258  0.73584856  0.26475189  1
  O2-  O323  1  0.73550211  0.73740044  0.76807627  1
  O2-  O324  1  0.24015630  0.09490090  0.22730906  1
  O2-  O325  1  0.23838049  0.09477176  0.72951486  1
  O2-  O326  1  0.23620833  0.42909381  0.22788927  1
  O2-  O327  1  0.23834829  0.42998290  0.73004600  1
  O2-  O328  1  0.23892127  0.76186379  0.22981330  1
  O2-  O329  1  0.23658473  0.76321662  0.73162097  1
  O2-  O330  1  0.56971419  0.09482100  0.23010094  1
  O2-  O331  1  0.57007225  0.09227199  0.72887427  1
  O2-  O332  1  0.57203523  0.42537718  0.22913940  1
  O2-  O333  1  0.57138706  0.42687179  0.72794314  1
  O2-  O334  1  0.57613152  0.75980560  0.22731918  1
  O2-  O335  1  0.56934870  0.76010518  0.72877903  1
  O2-  O336  1  0.90315067  0.09441486  0.23322350  1
  O2-  O337  1  0.90518550  0.09490430  0.72746296  1
  O2-  O338  1  0.90632880  0.42956382  0.22759729  1
  O2-  O339  1  0.90660248  0.42657100  0.72740917  1
  O2-  O340  1  0.90702154  0.75899157  0.22446837  1
  O2-  O341  1  0.90548232  0.76204309  0.73148681  1
  O2-  O342  1  0.26210794  0.25845257  0.02119435  1
  O2-  O343  1  0.26209305  0.26078368  0.52134797  1
  O2-  O344  1  0.26194306  0.59433604  0.01697927  1
  O2-  O345  1  0.26147003  0.59512076  0.52308763  1
  O2-  O346  1  0.26031502  0.92748296  0.02426587  1
  O2-  O347  1  0.26085768  0.92832454  0.52309894  1
  O2-  O348  1  0.59530941  0.26147212  0.02087656  1
  O2-  O349  1  0.59154679  0.26015427  0.52121314  1
  O2-  O350  1  0.59542913  0.59427215  0.01918770  1
  O2-  O351  1  0.59455566  0.59547852  0.52246168  1
  O2-  O352  1  0.59718412  0.92801229  0.01945479  1
  O2-  O353  1  0.59331032  0.92537290  0.52215238  1
  O2-  O354  1  0.92546649  0.26280587  0.02001438  1
  O2-  O355  1  0.92713494  0.26136938  0.52218035  1
  O2-  O356  1  0.92886350  0.59384579  0.02229534  1
  O2-  O357  1  0.93009391  0.59586846  0.52285558  1
  O2-  O358  1  0.93102130  0.93029345  0.02189673  1
  O2-  O359  1  0.92818259  0.92694769  0.52262399  1
