# generated using pymatgen
data_Sr7Ca15Pr50Mn72O216
_symmetry_space_group_name_H-M   'P 1'
_cell_length_a   16.55957448
_cell_length_b   16.60558805
_cell_length_c   15.59144661
_cell_angle_alpha   89.99841188
_cell_angle_beta   89.99363794
_cell_angle_gamma   89.99956448
_symmetry_Int_Tables_number   1
_chemical_formula_structural   Sr7Ca15Pr50Mn72O216
_chemical_formula_sum   'Sr7 Ca15 Pr50 Mn72 O216'
_cell_volume   4287.35891164
_cell_formula_units_Z   1
loop_
 _symmetry_equiv_pos_site_id
 _symmetry_equiv_pos_as_xyz
  1  'x, y, z'
loop_
 _atom_type_symbol
 _atom_type_oxidation_number
  Sr2+  2.0
  Ca2+  2.0
  Pr3+  3.0
  Mn3.30+  3.3
  O2-  -2.0
loop_
 _atom_site_type_symbol
 _atom_site_label
 _atom_site_symmetry_multiplicity
 _atom_site_fract_x
 _atom_site_fract_y
 _atom_site_fract_z
 _atom_site_occupancy
  Sr2+  Sr0  1  0.83327279  0.82393671  0.87605110  1
  Sr2+  Sr1  1  0.16622238  0.17621197  0.12636546  1
  Sr2+  Sr2  1  0.33087281  0.34346933  0.12552211  1
  Sr2+  Sr3  1  0.66460873  0.67809488  0.62630098  1
  Sr2+  Sr4  1  1.00070482  0.98935836  0.87826483  1
  Sr2+  Sr5  1  0.83074533  0.49073734  0.87649073  1
  Sr2+  Sr6  1  0.33495756  0.00798597  0.62346117  1
  Ca2+  Ca7  1  0.16116235  0.48406987  0.87863248  1
  Ca2+  Ca8  1  0.49760557  0.48562674  0.37190747  1
  Ca2+  Ca9  1  0.50748067  0.85258067  0.62418943  1
  Ca2+  Ca10  1  -0.00594538  0.01699562  0.12472239  1
  Ca2+  Ca11  1  -0.00279251  0.34557130  0.12526189  1
  Ca2+  Ca12  1  -0.00447440  0.67841054  0.12500807  1
  Ca2+  Ca13  1  0.66300509  0.35048076  0.12781351  1
  Ca2+  Ca14  1  0.16427935  0.48448524  0.37169958  1
  Ca2+  Ca15  1  0.16342507  0.15291790  0.37135682  1
  Ca2+  Ca16  1  0.66589201  0.67848635  0.12368754  1
  Ca2+  Ca17  1  0.66936177  0.31985111  0.37104613  1
  Ca2+  Ca18  1  0.82888438  0.81737176  0.37418412  1
  Ca2+  Ca19  1  0.84073864  0.18426697  0.12602423  1
  Ca2+  Ca20  1  0.66295852  0.01260905  0.62453045  1
  Ca2+  Ca21  1  0.50406801  0.51530620  0.12782286  1
  Pr3+  Pr22  1  0.83339046  0.84674945  0.62411239  1
  Pr3+  Pr23  1  0.16053954  0.82122406  0.87469738  1
  Pr3+  Pr24  1  0.83761573  0.84458538  0.12636597  1
  Pr3+  Pr25  1  0.49725433  0.82087340  0.37610776  1
  Pr3+  Pr26  1  0.16524678  0.82118634  0.37549366  1
  Pr3+  Pr27  1  1.00188400  0.98819420  0.37195638  1
  Pr3+  Pr28  1  0.17203990  0.17668715  0.62381599  1
  Pr3+  Pr29  1  -0.00296035  0.34659752  0.62445506  1
  Pr3+  Pr30  1  0.82960746  0.15543904  0.37262246  1
  Pr3+  Pr31  1  0.33224555  0.67385420  0.12541214  1
  Pr3+  Pr32  1  0.49936328  0.48960176  0.87657206  1
  Pr3+  Pr33  1  0.33480241  0.98973013  0.37369462  1
  Pr3+  Pr34  1  0.33365203  0.32147157  0.87773109  1
  Pr3+  Pr35  1  0.50146395  0.15728844  0.37265870  1
  Pr3+  Pr36  1  0.83453106  0.51415168  0.62498169  1
  Pr3+  Pr37  1  0.83174894  0.15441332  0.87776345  1
  Pr3+  Pr38  1  0.50446672  0.17677666  0.62358947  1
  Pr3+  Pr39  1  0.66725269  0.01389883  0.12491295  1
  Pr3+  Pr40  1  0.33175843  0.68059273  0.62412647  1
  Pr3+  Pr41  1  0.82806343  0.48403478  0.37343937  1
  Pr3+  Pr42  1  0.16325422  0.15350116  0.87834985  1
  Pr3+  Pr43  1  -0.00507471  0.67932274  0.62424601  1
  Pr3+  Pr44  1  0.50388956  0.18455170  0.12631440  1
  Pr3+  Pr45  1  0.67345377  0.98430744  0.37572161  1
  Pr3+  Pr46  1  0.83424999  0.17794004  0.62481119  1
  Pr3+  Pr47  1  0.50490516  0.84457433  0.12560965  1
  Pr3+  Pr48  1  0.50278682  0.51299658  0.62307056  1
  Pr3+  Pr49  1  0.67285130  0.98604041  0.87424657  1
  Pr3+  Pr50  1  0.33318668  0.32206236  0.37206959  1
  Pr3+  Pr51  1  0.33042075  0.01192323  0.12589163  1
  Pr3+  Pr52  1  1.00170847  0.65212738  0.87781608  1
  Pr3+  Pr53  1  -0.00229068  0.01306332  0.62552699  1
  Pr3+  Pr54  1  0.16789559  0.50708310  0.12638573  1
  Pr3+  Pr55  1  1.00109537  0.32304959  0.87886516  1
  Pr3+  Pr56  1  0.33196971  0.34437495  0.62396932  1
  Pr3+  Pr57  1  1.00195733  0.65130788  0.37209077  1
  Pr3+  Pr58  1  0.16534653  0.84339023  0.12585620  1
  Pr3+  Pr59  1  0.83636788  0.51342446  0.12491378  1
  Pr3+  Pr60  1  0.33825742  0.64951982  0.37397165  1
  Pr3+  Pr61  1  0.67200751  0.65369045  0.87693216  1
  Pr3+  Pr62  1  0.67256899  0.32352767  0.87780818  1
  Pr3+  Pr63  1  0.16901263  0.84702795  0.62380580  1
  Pr3+  Pr64  1  0.66365966  0.34575167  0.62198892  1
  Pr3+  Pr65  1  0.16999913  0.51169302  0.62356849  1
  Pr3+  Pr66  1  0.49772173  0.82077045  0.87355471  1
  Pr3+  Pr67  1  0.49890680  0.15541302  0.87731323  1
  Pr3+  Pr68  1  0.33509496  0.98859068  0.87608564  1
  Pr3+  Pr69  1  0.33354269  0.65286819  0.87562905  1
  Pr3+  Pr70  1  1.00471134  0.31890358  0.37173946  1
  Pr3+  Pr71  1  0.66900112  0.65426960  0.37335031  1
  Mn3.30+  Mn72  1  0.16422900  -0.00096773  0.00327465  1
  Mn3.30+  Mn73  1  0.16682984  0.00128442  0.49775987  1
  Mn3.30+  Mn74  1  0.16537916  0.33342702  0.00227606  1
  Mn3.30+  Mn75  1  0.16614747  0.33240896  0.49816587  1
  Mn3.30+  Mn76  1  0.16438968  0.66398163  0.00222566  1
  Mn3.30+  Mn77  1  0.16615345  0.66435458  0.49806605  1
  Mn3.30+  Mn78  1  0.50150604  0.00073244  0.00087444  1
  Mn3.30+  Mn79  1  0.50324744  0.00075604  0.49954729  1
  Mn3.30+  Mn80  1  0.50272019  0.33764482  0.00336085  1
  Mn3.30+  Mn81  1  0.50032153  0.33383996  0.49581334  1
  Mn3.30+  Mn82  1  0.50184135  0.66584352  0.00110117  1
  Mn3.30+  Mn83  1  0.50085666  0.66697962  0.50003790  1
  Mn3.30+  Mn84  1  0.83477902  0.00065381  0.00181113  1
  Mn3.30+  Mn85  1  0.83253234  -0.00064354  0.50005679  1
  Mn3.30+  Mn86  1  0.83319987  0.33431283  0.00436498  1
  Mn3.30+  Mn87  1  0.83197855  0.33256200  0.49824585  1
  Mn3.30+  Mn88  1  0.83325159  0.66735577  0.00207332  1
  Mn3.30+  Mn89  1  0.83209722  0.66780020  0.49811691  1
  Mn3.30+  Mn90  1  -0.00128001  0.16739567  0.24764272  1
  Mn3.30+  Mn91  1  0.00118022  0.16700216  0.75061773  1
  Mn3.30+  Mn92  1  -0.00002824  0.49831463  0.24911486  1
  Mn3.30+  Mn93  1  0.00146336  0.49962692  0.75118706  1
  Mn3.30+  Mn94  1  -0.00210181  0.83226155  0.25049920  1
  Mn3.30+  Mn95  1  -0.00080422  0.83331680  0.75047133  1
  Mn3.30+  Mn96  1  0.33154221  0.16740218  0.25090415  1
  Mn3.30+  Mn97  1  0.33474806  0.16550902  0.74958867  1
  Mn3.30+  Mn98  1  0.33511821  0.49807493  0.24948835  1
  Mn3.30+  Mn99  1  0.33144078  0.49920313  0.75188513  1
  Mn3.30+  Mn100  1  0.33362906  0.83121890  0.24943630  1
  Mn3.30+  Mn101  1  0.33377536  0.83402969  0.74923479  1
  Mn3.30+  Mn102  1  0.66967185  0.17029588  0.24713296  1
  Mn3.30+  Mn103  1  0.66687456  0.16677321  0.75052579  1
  Mn3.30+  Mn104  1  0.66408873  0.49920885  0.24979338  1
  Mn3.30+  Mn105  1  0.66632118  0.50002496  0.74949711  1
  Mn3.30+  Mn106  1  0.66895955  0.83140026  0.25013399  1
  Mn3.30+  Mn107  1  0.66471376  0.83423395  0.74819998  1
  Mn3.30+  Mn108  1  0.16412757  0.00036561  0.24898577  1
  Mn3.30+  Mn109  1  0.16691950  -0.00031914  0.75028122  1
  Mn3.30+  Mn110  1  0.16538855  0.33226333  0.24922092  1
  Mn3.30+  Mn111  1  0.16619621  0.33350546  0.75067760  1
  Mn3.30+  Mn112  1  0.16525515  0.66389933  0.25017954  1
  Mn3.30+  Mn113  1  0.16549130  0.66455007  0.74969493  1
  Mn3.30+  Mn114  1  0.50228972  0.00097885  0.24995207  1
  Mn3.30+  Mn115  1  0.50267382  0.00058871  0.74962179  1
  Mn3.30+  Mn116  1  0.50276939  0.33773186  0.24990990  1
  Mn3.30+  Mn117  1  0.50047909  0.33335683  0.75082155  1
  Mn3.30+  Mn118  1  0.50289954  0.66452337  0.24893619  1
  Mn3.30+  Mn119  1  0.50005533  0.66827081  0.74962251  1
  Mn3.30+  Mn120  1  0.83549528  0.00053799  0.24928874  1
  Mn3.30+  Mn121  1  0.83162867  -0.00008160  0.74916942  1
  Mn3.30+  Mn122  1  0.83204939  0.33297417  0.24719217  1
  Mn3.30+  Mn123  1  0.83327188  0.33428330  0.75049886  1
  Mn3.30+  Mn124  1  0.83336772  0.66713839  0.24958188  1
  Mn3.30+  Mn125  1  0.83233962  0.66832954  0.75070122  1
  Mn3.30+  Mn126  1  -0.00198070  0.16760345  0.00370211  1
  Mn3.30+  Mn127  1  0.00178872  0.16649237  0.49849300  1
  Mn3.30+  Mn128  1  0.00031791  0.49881247  0.00177030  1
  Mn3.30+  Mn129  1  0.00081250  0.49903411  0.49781998  1
  Mn3.30+  Mn130  1  -0.00082164  0.83231892  0.00200391  1
  Mn3.30+  Mn131  1  -0.00224879  0.83308603  0.49718349  1
  Mn3.30+  Mn132  1  0.33279125  0.16737981  0.00173806  1
  Mn3.30+  Mn133  1  0.33373395  0.16585360  0.49772239  1
  Mn3.30+  Mn134  1  0.33267343  0.49890223  0.00080624  1
  Mn3.30+  Mn135  1  0.33403297  0.49854687  0.49750644  1
  Mn3.30+  Mn136  1  0.33267893  0.83171052  0.00062016  1
  Mn3.30+  Mn137  1  0.33522081  0.83374179  0.50086926  1
  Mn3.30+  Mn138  1  0.66924848  0.16999234  0.00392991  1
  Mn3.30+  Mn139  1  0.66747670  0.16662945  0.49845804  1
  Mn3.30+  Mn140  1  0.66586402  0.50053780  0.00454844  1
  Mn3.30+  Mn141  1  0.66423817  0.49913933  0.49609962  1
  Mn3.30+  Mn142  1  0.66763139  0.83230375  0.00104779  1
  Mn3.30+  Mn143  1  0.66588595  0.83313282  0.50084731  1
  O2-  O144  1  0.01914680  0.16035769  0.12562714  1
  O2-  O145  1  0.02767914  0.16149777  0.62300956  1
  O2-  O146  1  0.02441963  0.49168084  0.12679480  1
  O2-  O147  1  0.02567517  0.49541159  0.62482308  1
  O2-  O148  1  0.02376142  0.82193192  0.12740140  1
  O2-  O149  1  0.02567798  0.82678794  0.62191514  1
  O2-  O150  1  0.35873958  0.16075086  0.12595843  1
  O2-  O151  1  0.36018671  0.16508742  0.62313871  1
  O2-  O152  1  0.35963820  0.50188911  0.12448808  1
  O2-  O153  1  0.35959165  0.49328006  0.62507373  1
  O2-  O154  1  0.36084137  0.82513943  0.12495906  1
  O2-  O155  1  0.36127126  0.82799879  0.62426716  1
  O2-  O156  1  0.69804434  0.15891809  0.12550202  1
  O2-  O157  1  0.69012423  0.15951163  0.62629926  1
  O2-  O158  1  0.69295329  0.49365452  0.12786914  1
  O2-  O159  1  0.69011042  0.49317409  0.62073033  1
  O2-  O160  1  0.69171927  0.82677189  0.12752762  1
  O2-  O161  1  0.69088999  0.83063546  0.62374324  1
  O2-  O162  1  0.14103848  0.33337476  0.12606360  1
  O2-  O163  1  0.14140796  0.32471605  0.62382729  1
  O2-  O164  1  0.13834799  0.65615679  0.12775291  1
  O2-  O165  1  0.13849672  0.65783219  0.62335325  1
  O2-  O166  1  0.13867021  0.99129331  0.12682106  1
  O2-  O167  1  0.14241726  0.99661114  0.62233665  1
  O2-  O168  1  0.47848745  0.32901359  0.12555526  1
  O2-  O169  1  0.47563288  0.32584819  0.62098198  1
  O2-  O170  1  0.47531544  0.66287923  0.12407926  1
  O2-  O171  1  0.47405120  0.65853054  0.62533764  1
  O2-  O172  1  0.47518857  0.99371676  0.12492046  1
  O2-  O173  1  0.48321633  1.00162231  0.62333266  1
  O2-  O174  1  0.80516376  0.32871159  0.12654893  1
  O2-  O175  1  0.80839405  0.32712870  0.62343299  1
  O2-  O176  1  0.80811727  0.66205387  0.12763469  1
  O2-  O177  1  0.81601041  0.66162939  0.62264028  1
  O2-  O178  1  0.80863705  0.99155321  0.12633331  1
  O2-  O179  1  0.80633021  0.99635505  0.62334716  1
  O2-  O180  1  0.30671620  0.17228708  0.37483709  1
  O2-  O181  1  0.30992800  0.17081323  0.87609548  1
  O2-  O182  1  0.30602966  0.50388290  0.37547892  1
  O2-  O183  1  0.30317059  0.50601659  0.87426830  1
  O2-  O184  1  0.31006241  0.83842799  0.37421742  1
  O2-  O185  1  0.30558072  0.83911460  0.87640995  1
  O2-  O186  1  0.64520679  0.17349780  0.37089400  1
  O2-  O187  1  0.64218787  0.17622667  0.87700134  1
  O2-  O188  1  0.63883367  0.50919283  0.37354504  1
  O2-  O189  1  0.64433849  0.50394523  0.87793817  1
  O2-  O190  1  0.64081576  0.83786008  0.37505177  1
  O2-  O191  1  0.64118986  0.83998546  0.87383718  1
  O2-  O192  1  0.97300408  0.17124059  0.37440625  1
  O2-  O193  1  0.97557822  0.17379464  0.87768764  1
  O2-  O194  1  0.97254904  0.50356719  0.37276187  1
  O2-  O195  1  0.97961229  0.50320373  0.87547046  1
  O2-  O196  1  0.97075419  0.84155470  0.37478472  1
  O2-  O197  1  0.98394518  0.83338032  0.87600215  1
  O2-  O198  1  0.18991186  0.00242839  0.37344833  1
  O2-  O199  1  0.18983657  0.00205305  0.87793481  1
  O2-  O200  1  0.18943557  0.34105728  0.37622842  1
  O2-  O201  1  0.18989309  0.33894617  0.87369593  1
  O2-  O202  1  0.19477541  0.67483476  0.37421974  1
  O2-  O203  1  0.19118576  0.67566104  0.87450549  1
  O2-  O204  1  0.52912073  0.00678396  0.37308208  1
  O2-  O205  1  0.52860623  0.00689034  0.87825035  1
  O2-  O206  1  0.52777071  0.33836393  0.37342519  1
  O2-  O207  1  0.52856080  0.34103525  0.87984033  1
  O2-  O208  1  0.52521378  0.67489112  0.37440937  1
  O2-  O209  1  0.52639768  0.67219737  0.87563534  1
  O2-  O210  1  0.85915855  0.00846068  0.37481593  1
  O2-  O211  1  0.85132096  0.00561040  0.87601702  1
  O2-  O212  1  0.85942756  0.33607409  0.37456250  1
  O2-  O213  1  0.85603564  0.33505431  0.87574572  1
  O2-  O214  1  0.85774223  0.67046858  0.37405642  1
  O2-  O215  1  0.85632355  0.66758079  0.87611968  1
  O2-  O216  1  0.24205952  0.08777429  0.01877224  1
  O2-  O217  1  0.24022639  0.09525470  0.51703909  1
  O2-  O218  1  0.23775996  0.42767040  0.01836784  1
  O2-  O219  1  0.23980025  0.42579642  0.52288081  1
  O2-  O220  1  0.23705047  0.75748925  0.02333802  1
  O2-  O221  1  0.23678994  0.75840027  0.52168428  1
  O2-  O222  1  0.57376095  0.09892632  0.02248286  1
  O2-  O223  1  0.57099398  0.09824608  0.51381341  1
  O2-  O224  1  0.56762380  0.43557150  0.01982945  1
  O2-  O225  1  0.57105462  0.42668048  0.52191104  1
  O2-  O226  1  0.56765625  0.76439859  0.01663821  1
  O2-  O227  1  0.56735182  0.76823803  0.51729269  1
  O2-  O228  1  0.90136729  0.09734470  0.01778019  1
  O2-  O229  1  0.90688064  0.09506601  0.52226960  1
  O2-  O230  1  0.90398752  0.42774266  0.02096176  1
  O2-  O231  1  0.90208470  0.42795843  0.52010644  1
  O2-  O232  1  0.90505722  0.76068621  0.02030822  1
  O2-  O233  1  0.90630155  0.76183460  0.52050331  1
  O2-  O234  1  0.26063934  0.26048106  0.23619867  1
  O2-  O235  1  0.26225378  0.26018750  0.73029099  1
  O2-  O236  1  0.26223707  0.59249883  0.23010884  1
  O2-  O237  1  0.26123694  0.59467408  0.72665346  1
  O2-  O238  1  0.26064301  0.92401239  0.22897490  1
  O2-  O239  1  0.25980425  0.92495429  0.73179821  1
  O2-  O240  1  0.59524022  0.26269171  0.22740656  1
  O2-  O241  1  0.59710299  0.26061166  0.72862425  1
  O2-  O242  1  0.59896986  0.59961734  0.22998478  1
  O2-  O243  1  0.58974551  0.59079482  0.73408385  1
  O2-  O244  1  0.59783551  0.92739265  0.22943780  1
  O2-  O245  1  0.59769518  0.93348236  0.73232742  1
  O2-  O246  1  0.93093523  0.26561248  0.23170028  1
  O2-  O247  1  0.92784531  0.26050518  0.72899667  1
  O2-  O248  1  0.92946125  0.59513543  0.22969852  1
  O2-  O249  1  0.93087274  0.59312726  0.73125381  1
  O2-  O250  1  0.93028032  0.93085942  0.22792787  1
  O2-  O251  1  0.92611034  0.92627227  0.72685487  1
  O2-  O252  1  0.09347086  0.23823144  0.27306885  1
  O2-  O253  1  0.09527554  0.23811760  0.77136842  1
  O2-  O254  1  0.09585832  0.57086991  0.27367063  1
  O2-  O255  1  0.09752790  0.56931654  0.77179930  1
  O2-  O256  1  0.09427131  0.90321650  0.27148944  1
  O2-  O257  1  0.09586194  0.90196975  0.76336701  1
  O2-  O258  1  0.42945057  0.24079197  0.26913542  1
  O2-  O259  1  0.42901937  0.24063453  0.77266246  1
  O2-  O260  1  0.42872649  0.57320834  0.27259076  1
  O2-  O261  1  0.42403122  0.57200143  0.77196331  1
  O2-  O262  1  0.42702877  0.90631025  0.27038703  1
  O2-  O263  1  0.42834820  0.91019015  0.77335557  1
  O2-  O264  1  0.76397144  0.23839721  0.26971061  1
  O2-  O265  1  0.76150508  0.23745677  0.76910160  1
  O2-  O266  1  0.76205959  0.57075160  0.27105124  1
  O2-  O267  1  0.75788113  0.57407249  0.76400395  1
  O2-  O268  1  0.76390439  0.90405992  0.27145703  1
  O2-  O269  1  0.75885445  0.90644116  0.76638232  1
  O2-  O270  1  0.06880406  0.06984754  0.48058988  1
  O2-  O271  1  0.07557402  0.07661496  0.98247104  1
  O2-  O272  1  0.06717730  0.40249029  0.48363830  1
  O2-  O273  1  0.07150009  0.40536770  0.98133162  1
  O2-  O274  1  0.06975641  0.73855577  0.47698794  1
  O2-  O275  1  0.07317390  0.73705085  0.98043994  1
  O2-  O276  1  0.40829337  0.07473606  0.47407423  1
  O2-  O277  1  0.40783077  0.07270196  0.98051875  1
  O2-  O278  1  0.40264779  0.40289658  0.48100533  1
  O2-  O279  1  0.40532021  0.40873010  0.97480963  1
  O2-  O280  1  0.40431588  0.73631288  0.47891438  1
  O2-  O281  1  0.40445728  0.73826467  0.97825722  1
  O2-  O282  1  0.74015073  0.07300144  0.47690792  1
  O2-  O283  1  0.73614903  0.07311800  0.98061829  1
  O2-  O284  1  0.73490150  0.40379744  0.47696140  1
  O2-  O285  1  0.73629766  0.40498183  0.98453556  1
  O2-  O286  1  0.73599624  0.73833329  0.48010773  1
  O2-  O287  1  0.73594780  0.73899090  0.98209607  1
  O2-  O288  1  0.09640905  0.23579653  0.47693468  1
  O2-  O289  1  0.09255003  0.24123404  0.97802117  1
  O2-  O290  1  0.09723768  0.57018922  0.47606463  1
  O2-  O291  1  0.09602854  0.57085892  0.97905015  1
  O2-  O292  1  0.09213956  0.90383884  0.47885675  1
  O2-  O293  1  0.09801084  0.90059703  0.98597299  1
  O2-  O294  1  0.42782486  0.23950402  0.47538965  1
  O2-  O295  1  0.43010703  0.24175229  0.98168648  1
  O2-  O296  1  0.42768420  0.56942267  0.47840702  1
  O2-  O297  1  0.42572296  0.57529473  0.97583226  1
  O2-  O298  1  0.42873982  0.91062676  0.47745943  1
  O2-  O299  1  0.42695711  0.90627346  0.97841333  1
  O2-  O300  1  0.76384152  0.23580334  0.48450429  1
  O2-  O301  1  0.76216897  0.24008327  0.97800684  1
  O2-  O302  1  0.76065947  0.57046215  0.47928243  1
  O2-  O303  1  0.75916151  0.57363591  0.98541167  1
  O2-  O304  1  0.76297923  0.90210362  0.47805429  1
  O2-  O305  1  0.75896997  0.90875018  0.98462670  1
  O2-  O306  1  0.06980959  0.07262080  0.26926249  1
  O2-  O307  1  0.07457324  0.07359755  0.76826901  1
  O2-  O308  1  0.07092471  0.40493611  0.26991871  1
  O2-  O309  1  0.06806879  0.40247184  0.76581989  1
  O2-  O310  1  0.07321770  0.73995538  0.27506451  1
  O2-  O311  1  0.07130618  0.73462195  0.76806654  1
  O2-  O312  1  0.40692897  0.07453864  0.27068793  1
  O2-  O313  1  0.40859311  0.07338791  0.77402886  1
  O2-  O314  1  0.40510828  0.40568581  0.27208360  1
  O2-  O315  1  0.40349008  0.40672063  0.77207964  1
  O2-  O316  1  0.40542305  0.73707847  0.27005955  1
  O2-  O317  1  0.40233399  0.73889555  0.77216675  1
  O2-  O318  1  0.73854464  0.06972711  0.26984264  1
  O2-  O319  1  0.73861104  0.07580715  0.77275485  1
  O2-  O320  1  0.73716307  0.40576012  0.27365516  1
  O2-  O321  1  0.73583644  0.40310507  0.76451266  1
  O2-  O322  1  0.73758366  0.73824895  0.27081807  1
  O2-  O323  1  0.73451204  0.74059314  0.76850564  1
  O2-  O324  1  0.24300677  0.08727842  0.23071427  1
  O2-  O325  1  0.23864609  0.09521889  0.73456505  1
  O2-  O326  1  0.23801509  0.42732876  0.23240709  1
  O2-  O327  1  0.23979683  0.42601101  0.72557925  1
  O2-  O328  1  0.23800477  0.75739353  0.22785209  1
  O2-  O329  1  0.23584263  0.75841421  0.72644984  1
  O2-  O330  1  0.57536575  0.09811714  0.22722540  1
  O2-  O331  1  0.56985005  0.09966092  0.73610319  1
  O2-  O332  1  0.56923177  0.43296301  0.22917859  1
  O2-  O333  1  0.57031892  0.42724246  0.72945313  1
  O2-  O334  1  0.56833205  0.76404440  0.23337600  1
  O2-  O335  1  0.56699263  0.76907585  0.73228791  1
  O2-  O336  1  0.90190397  0.09883101  0.23227388  1
  O2-  O337  1  0.90670128  0.09449072  0.72971771  1
  O2-  O338  1  0.89980587  0.42972900  0.23269302  1
  O2-  O339  1  0.90626995  0.42800647  0.72645977  1
  O2-  O340  1  0.90434512  0.76191598  0.23219704  1
  O2-  O341  1  0.90712891  0.76138414  0.72812132  1
  O2-  O342  1  0.25939376  0.26000043  0.01248485  1
  O2-  O343  1  0.26271458  0.26050807  0.52069775  1
  O2-  O344  1  0.26063234  0.59370520  0.02086851  1
  O2-  O345  1  0.26379983  0.59304073  0.52165320  1
  O2-  O346  1  0.26188054  0.92512060  0.02323712  1
  O2-  O347  1  0.25757869  0.92397865  0.51576855  1
  O2-  O348  1  0.59819180  0.26405817  0.02348779  1
  O2-  O349  1  0.59362963  0.25931091  0.52003265  1
  O2-  O350  1  0.59712677  0.59865251  0.01786099  1
  O2-  O351  1  0.59188138  0.59412521  0.51841538  1
  O2-  O352  1  0.59484736  0.92851514  0.02180796  1
  O2-  O353  1  0.59945266  0.93248504  0.51628945  1
  O2-  O354  1  0.92907087  0.26504915  0.01940751  1
  O2-  O355  1  0.93036333  0.25979570  0.52046829  1
  O2-  O356  1  0.93004283  0.59356340  0.02075945  1
  O2-  O357  1  0.93004474  0.59335012  0.51741406  1
  O2-  O358  1  0.92823845  0.92639006  0.02301793  1
  O2-  O359  1  0.92838933  0.92858182  0.52248038  1
