# generated using pymatgen
data_Sr7Ca15Pr50Mn72O216
_symmetry_space_group_name_H-M   'P 1'
_cell_length_a   16.55783039
_cell_length_b   16.60593377
_cell_length_c   15.59285125
_cell_angle_alpha   89.99631151
_cell_angle_beta   90.00366657
_cell_angle_gamma   89.99614892
_symmetry_Int_Tables_number   1
_chemical_formula_structural   Sr7Ca15Pr50Mn72O216
_chemical_formula_sum   'Sr7 Ca15 Pr50 Mn72 O216'
_cell_volume   4287.38282942
_cell_formula_units_Z   1
loop_
 _symmetry_equiv_pos_site_id
 _symmetry_equiv_pos_as_xyz
  1  'x, y, z'
loop_
 _atom_type_symbol
 _atom_type_oxidation_number
  Sr2+  2.0
  Ca2+  2.0
  Pr3+  3.0
  Mn3.30+  3.3
  O2-  -2.0
loop_
 _atom_site_type_symbol
 _atom_site_label
 _atom_site_symmetry_multiplicity
 _atom_site_fract_x
 _atom_site_fract_y
 _atom_site_fract_z
 _atom_site_occupancy
  Sr2+  Sr0  1  0.66975914  0.98705931  0.37391481  1
  Sr2+  Sr1  1  -0.00249468  0.00959094  0.62498534  1
  Sr2+  Sr2  1  0.99871813  0.65975025  0.37333064  1
  Sr2+  Sr3  1  0.50052985  0.48871675  0.87493230  1
  Sr2+  Sr4  1  -0.00202704  0.01095713  0.12506241  1
  Sr2+  Sr5  1  0.33417327  0.67646820  0.62626619  1
  Sr2+  Sr6  1  0.83366026  0.82597075  0.87480451  1
  Ca2+  Ca7  1  0.67208460  0.65422448  0.37514264  1
  Ca2+  Ca8  1  0.83308825  0.81981951  0.37463623  1
  Ca2+  Ca9  1  0.99988746  0.31810730  0.87524442  1
  Ca2+  Ca10  1  0.82796833  0.48121054  0.87655183  1
  Ca2+  Ca11  1  0.83535670  0.17727440  0.12156905  1
  Ca2+  Ca12  1  0.16423191  0.84692005  0.12696436  1
  Ca2+  Ca13  1  0.50332782  0.84820840  0.62418730  1
  Ca2+  Ca14  1  1.00181500  0.98510319  0.37366173  1
  Ca2+  Ca15  1  0.33154191  0.01328894  0.62383373  1
  Ca2+  Ca16  1  0.67287907  0.31452049  0.87486116  1
  Ca2+  Ca17  1  -0.00484953  0.68371801  0.12662730  1
  Ca2+  Ca18  1  0.50342310  0.17936681  0.62536963  1
  Ca2+  Ca19  1  0.66792933  0.01419655  0.12438320  1
  Ca2+  Ca20  1  0.16066238  0.48356922  0.87392904  1
  Ca2+  Ca21  1  0.83119117  0.15367807  0.87714294  1
  Pr3+  Pr22  1  0.66358329  0.34350767  0.62779123  1
  Pr3+  Pr23  1  0.66769173  0.34234038  0.12253767  1
  Pr3+  Pr24  1  0.16825065  0.17781364  0.62571755  1
  Pr3+  Pr25  1  0.32968145  0.68286469  0.12333571  1
  Pr3+  Pr26  1  -0.00281349  0.67978582  0.62359365  1
  Pr3+  Pr27  1  0.33637039  0.98811010  0.87360279  1
  Pr3+  Pr28  1  0.49864832  0.15181255  0.37738443  1
  Pr3+  Pr29  1  0.16084691  0.15121824  0.37446238  1
  Pr3+  Pr30  1  0.50007513  0.48968820  0.37503751  1
  Pr3+  Pr31  1  0.49934864  0.81997247  0.37564145  1
  Pr3+  Pr32  1  0.83587880  0.84624258  0.62298647  1
  Pr3+  Pr33  1  1.00205980  0.65290932  0.87645764  1
  Pr3+  Pr34  1  0.33270734  0.34528339  0.62717433  1
  Pr3+  Pr35  1  1.00177354  0.32192610  0.37485298  1
  Pr3+  Pr36  1  0.16665491  0.18003139  0.12370245  1
  Pr3+  Pr37  1  0.17112292  0.84825488  0.62365001  1
  Pr3+  Pr38  1  0.83720463  0.17715914  0.62655922  1
  Pr3+  Pr39  1  0.16253120  0.82205200  0.37406404  1
  Pr3+  Pr40  1  0.83047620  0.49114536  0.37438787  1
  Pr3+  Pr41  1  0.50414198  0.17724669  0.12544044  1
  Pr3+  Pr42  1  0.67425718  0.65185215  0.87576407  1
  Pr3+  Pr43  1  0.67173230  0.98876073  0.87585701  1
  Pr3+  Pr44  1  0.50353709  0.51255034  0.12232101  1
  Pr3+  Pr45  1  0.50037046  0.15702226  0.87293297  1
  Pr3+  Pr46  1  0.33464844  0.65386008  0.87464655  1
  Pr3+  Pr47  1  0.83763981  0.84510611  0.12709083  1
  Pr3+  Pr48  1  0.16200529  0.82344016  0.87582145  1
  Pr3+  Pr49  1  0.83149382  0.15125514  0.37323788  1
  Pr3+  Pr50  1  0.33009675  0.34716580  0.12304841  1
  Pr3+  Pr51  1  0.32797475  0.01259336  0.12555014  1
  Pr3+  Pr52  1  0.16572351  0.51362631  0.12228386  1
  Pr3+  Pr53  1  0.33611478  0.32225827  0.87453199  1
  Pr3+  Pr54  1  0.50644524  0.85040836  0.12500011  1
  Pr3+  Pr55  1  0.99779933  0.99009239  0.87607388  1
  Pr3+  Pr56  1  0.16225547  0.15498590  0.87476643  1
  Pr3+  Pr57  1  0.33455499  0.65586080  0.37500441  1
  Pr3+  Pr58  1  0.66621060  0.67957059  0.12537181  1
  Pr3+  Pr59  1  -0.00368896  0.34559110  0.62815455  1
  Pr3+  Pr60  1  -0.00590796  0.34269349  0.12174269  1
  Pr3+  Pr61  1  0.83508758  0.51299316  0.62823652  1
  Pr3+  Pr62  1  0.66062402  0.68172145  0.62436621  1
  Pr3+  Pr63  1  0.16153796  0.49039162  0.37599461  1
  Pr3+  Pr64  1  0.16901790  0.51408815  0.62792941  1
  Pr3+  Pr65  1  0.67061598  0.31945555  0.37521077  1
  Pr3+  Pr66  1  0.49805610  0.82193354  0.87404172  1
  Pr3+  Pr67  1  0.33641555  0.32087504  0.37570890  1
  Pr3+  Pr68  1  0.66309098  0.01256100  0.62459567  1
  Pr3+  Pr69  1  0.84014466  0.51602392  0.12252601  1
  Pr3+  Pr70  1  0.50334622  0.51215945  0.62737787  1
  Pr3+  Pr71  1  0.33782765  0.98544650  0.37626978  1
  Mn3.30+  Mn72  1  0.16584264  -0.00019811  0.00105068  1
  Mn3.30+  Mn73  1  0.16742324  0.00067249  0.50014404  1
  Mn3.30+  Mn74  1  0.16327944  0.33483752  -0.00287410  1
  Mn3.30+  Mn75  1  0.16672968  0.33351706  0.50124301  1
  Mn3.30+  Mn76  1  0.16412793  0.66801382  0.00122791  1
  Mn3.30+  Mn77  1  0.16646532  0.66801207  0.50017396  1
  Mn3.30+  Mn78  1  0.50189355  0.00184723  -0.00022463  1
  Mn3.30+  Mn79  1  0.49949646  -0.00121060  0.50308345  1
  Mn3.30+  Mn80  1  0.50173212  0.33277947  -0.00177779  1
  Mn3.30+  Mn81  1  0.50081317  0.33236292  0.50081154  1
  Mn3.30+  Mn82  1  0.50075818  0.66714774  -0.00032707  1
  Mn3.30+  Mn83  1  0.50188518  0.66785644  0.49935587  1
  Mn3.30+  Mn84  1  0.83206991  0.00196145  0.00298170  1
  Mn3.30+  Mn85  1  0.83411834  -0.00240471  0.49694367  1
  Mn3.30+  Mn86  1  0.83256580  0.33062283  -0.00352904  1
  Mn3.30+  Mn87  1  0.83342861  0.33339403  0.50086019  1
  Mn3.30+  Mn88  1  0.83635705  0.66709346  -0.00130612  1
  Mn3.30+  Mn89  1  0.83004108  0.66705207  0.49928145  1
  Mn3.30+  Mn90  1  -0.00261612  0.16531473  0.24896732  1
  Mn3.30+  Mn91  1  -0.00181755  0.16662974  0.75174683  1
  Mn3.30+  Mn92  1  -0.00044529  0.50204719  0.24876393  1
  Mn3.30+  Mn93  1  -0.00151882  0.49824077  0.75432835  1
  Mn3.30+  Mn94  1  -0.00054512  0.83439053  0.25029488  1
  Mn3.30+  Mn95  1  -0.00028736  0.83390020  0.74990472  1
  Mn3.30+  Mn96  1  0.33272949  0.16697841  0.25112498  1
  Mn3.30+  Mn97  1  0.33461529  0.16591379  0.74752929  1
  Mn3.30+  Mn98  1  0.33260717  0.50131955  0.24887824  1
  Mn3.30+  Mn99  1  0.33208810  0.50018086  0.75246812  1
  Mn3.30+  Mn100  1  0.33257293  0.83387600  0.24888437  1
  Mn3.30+  Mn101  1  0.33428962  0.83454642  0.74749249  1
  Mn3.30+  Mn102  1  0.66917352  0.16427435  0.24820824  1
  Mn3.30+  Mn103  1  0.66766323  0.16668513  0.75041443  1
  Mn3.30+  Mn104  1  0.66792563  0.50003332  0.24811428  1
  Mn3.30+  Mn105  1  0.66938019  0.49696923  0.75348384  1
  Mn3.30+  Mn106  1  0.66992578  0.83331480  0.25185431  1
  Mn3.30+  Mn107  1  0.66565009  0.83397983  0.74909467  1
  Mn3.30+  Mn108  1  0.16488587  -0.00075510  0.24965215  1
  Mn3.30+  Mn109  1  0.16821751  0.00097243  0.74860220  1
  Mn3.30+  Mn110  1  0.16602603  0.33449448  0.24951067  1
  Mn3.30+  Mn111  1  0.16416045  0.33391898  0.75181352  1
  Mn3.30+  Mn112  1  0.16405195  0.66906300  0.24654500  1
  Mn3.30+  Mn113  1  0.16642111  0.66699733  0.75189832  1
  Mn3.30+  Mn114  1  0.50260127  -0.00009775  0.25040657  1
  Mn3.30+  Mn115  1  0.49934749  0.00080370  0.74675767  1
  Mn3.30+  Mn116  1  0.50077587  0.33304478  0.24961818  1
  Mn3.30+  Mn117  1  0.50192700  0.33213173  0.75176736  1
  Mn3.30+  Mn118  1  0.50171886  0.66700512  0.25006864  1
  Mn3.30+  Mn119  1  0.50072667  0.66776397  0.75046758  1
  Mn3.30+  Mn120  1  0.83400798  -0.00125250  0.24992609  1
  Mn3.30+  Mn121  1  0.83203030  0.00097284  0.75016103  1
  Mn3.30+  Mn122  1  0.83360442  0.33242837  0.24867050  1
  Mn3.30+  Mn123  1  0.83237246  0.33153071  0.75442752  1
  Mn3.30+  Mn124  1  0.83281568  0.66780526  0.25136646  1
  Mn3.30+  Mn125  1  0.83313948  0.66630841  0.75076043  1
  Mn3.30+  Mn126  1  -0.00380486  0.16687115  -0.00118180  1
  Mn3.30+  Mn127  1  -0.00040492  0.16447931  0.49974910  1
  Mn3.30+  Mn128  1  -0.00070075  0.49880619  -0.00372549  1
  Mn3.30+  Mn129  1  -0.00097250  0.50109475  0.50102450  1
  Mn3.30+  Mn130  1  -0.00028671  0.83318715  0.00184182  1
  Mn3.30+  Mn131  1  -0.00057560  0.83491786  0.49769044  1
  Mn3.30+  Mn132  1  0.33340333  0.16727290  -0.00072540  1
  Mn3.30+  Mn133  1  0.33397723  0.16555173  0.50226340  1
  Mn3.30+  Mn134  1  0.33173434  0.50064572  -0.00184094  1
  Mn3.30+  Mn135  1  0.33260990  0.50079623  0.50010306  1
  Mn3.30+  Mn136  1  0.33173696  0.83507028  0.00017957  1
  Mn3.30+  Mn137  1  0.33512428  0.83346622  0.50320586  1
  Mn3.30+  Mn138  1  0.66962395  0.16609624  0.00042105  1
  Mn3.30+  Mn139  1  0.66670544  0.16537508  0.50053962  1
  Mn3.30+  Mn140  1  0.67058519  0.49671953  -0.00133387  1
  Mn3.30+  Mn141  1  0.66709556  0.50041143  0.50022355  1
  Mn3.30+  Mn142  1  0.66828264  0.83464932  0.00092246  1
  Mn3.30+  Mn143  1  0.66731008  0.83296818  0.49805426  1
  O2-  O144  1  0.02393554  0.16913912  0.12489361  1
  O2-  O145  1  0.02389334  0.16548310  0.62449060  1
  O2-  O146  1  0.02402626  0.48918220  0.12053673  1
  O2-  O147  1  0.02545605  0.49382132  0.62691787  1
  O2-  O148  1  0.02262130  0.82822844  0.12536261  1
  O2-  O149  1  0.02445067  0.82866940  0.62454548  1
  O2-  O150  1  0.35880618  0.16133610  0.12585107  1
  O2-  O151  1  0.36082280  0.16056716  0.62601895  1
  O2-  O152  1  0.35879143  0.49520519  0.12441211  1
  O2-  O153  1  0.35793986  0.49478796  0.62575283  1
  O2-  O154  1  0.36194876  0.83023225  0.12550215  1
  O2-  O155  1  0.36202623  0.82755152  0.62615955  1
  O2-  O156  1  0.69178555  0.16302980  0.12583476  1
  O2-  O157  1  0.69314454  0.16274324  0.62465525  1
  O2-  O158  1  0.69509201  0.49077651  0.12311173  1
  O2-  O159  1  0.69116143  0.49173264  0.62938696  1
  O2-  O160  1  0.69273090  0.82533320  0.12725007  1
  O2-  O161  1  0.69177666  0.82886974  0.62349627  1
  O2-  O162  1  0.14001962  0.32874086  0.12186634  1
  O2-  O163  1  0.14052547  0.32704866  0.62572601  1
  O2-  O164  1  0.13647861  0.65837120  0.12358154  1
  O2-  O165  1  0.14165386  0.66153808  0.62842660  1
  O2-  O166  1  0.14884460  0.99624196  0.12576785  1
  O2-  O167  1  0.14620922  0.99712396  0.62493762  1
  O2-  O168  1  0.47361054  0.32535857  0.12464240  1
  O2-  O169  1  0.47707589  0.32871252  0.62501627  1
  O2-  O170  1  0.47511247  0.66148386  0.12542438  1
  O2-  O171  1  0.48320712  0.65806370  0.62661822  1
  O2-  O172  1  0.47234830  0.99836947  0.12472026  1
  O2-  O173  1  0.47184548  0.99092180  0.62527350  1
  O2-  O174  1  0.81069685  0.32429235  0.12237000  1
  O2-  O175  1  0.80753384  0.32580860  0.62537176  1
  O2-  O176  1  0.80996233  0.66384019  0.12546184  1
  O2-  O177  1  0.80565100  0.66007295  0.62588022  1
  O2-  O178  1  0.80788687  0.99076131  0.12677816  1
  O2-  O179  1  0.80921231  0.99541027  0.62231041  1
  O2-  O180  1  0.30602855  0.17403831  0.37536887  1
  O2-  O181  1  0.30717859  0.17345002  0.87334824  1
  O2-  O182  1  0.30645961  0.50599507  0.37334936  1
  O2-  O183  1  0.30507706  0.50468250  0.87666596  1
  O2-  O184  1  0.30809334  0.83692142  0.37402283  1
  O2-  O185  1  0.30639539  0.84083681  0.87402649  1
  O2-  O186  1  0.64265916  0.17155247  0.37485383  1
  O2-  O187  1  0.64300447  0.16741716  0.87491235  1
  O2-  O188  1  0.64354478  0.50602534  0.37118173  1
  O2-  O189  1  0.64811735  0.50637180  0.87628788  1
  O2-  O190  1  0.64081709  0.83574876  0.37452485  1
  O2-  O191  1  0.64175502  0.83992738  0.87470057  1
  O2-  O192  1  0.97530778  0.17624517  0.37523370  1
  O2-  O193  1  0.97449581  0.17021987  0.87497457  1
  O2-  O194  1  0.97475536  0.50163789  0.37765840  1
  O2-  O195  1  0.96809152  0.50924864  0.87546584  1
  O2-  O196  1  0.97698435  0.83941135  0.37515308  1
  O2-  O197  1  0.98352749  0.84022490  0.87521847  1
  O2-  O198  1  0.19403015  0.00427792  0.37511837  1
  O2-  O199  1  0.19204284  0.00551057  0.87370785  1
  O2-  O200  1  0.19272763  0.34177953  0.37721247  1
  O2-  O201  1  0.19305183  0.33691423  0.87500208  1
  O2-  O202  1  0.19116246  0.67230367  0.37085463  1
  O2-  O203  1  0.19197775  0.67751211  0.87667579  1
  O2-  O204  1  0.51965420  0.00485856  0.37687519  1
  O2-  O205  1  0.52725309  0.00750990  0.87387370  1
  O2-  O206  1  0.52628499  0.34118587  0.37489038  1
  O2-  O207  1  0.52714757  0.33068221  0.87635571  1
  O2-  O208  1  0.52838382  0.67077275  0.37223412  1
  O2-  O209  1  0.52794506  0.67420561  0.87511359  1
  O2-  O210  1  0.86018141  0.00665430  0.37388475  1
  O2-  O211  1  0.85270313  0.00614264  0.87708755  1
  O2-  O212  1  0.85813985  0.34285800  0.37750109  1
  O2-  O213  1  0.86043099  0.34025501  0.87443385  1
  O2-  O214  1  0.85001379  0.66433542  0.37586699  1
  O2-  O215  1  0.85840311  0.67334056  0.87334507  1
  O2-  O216  1  0.23871960  0.09608657  0.01963419  1
  O2-  O217  1  0.23544731  0.09677557  0.51746460  1
  O2-  O218  1  0.23815277  0.42693446  0.02180614  1
  O2-  O219  1  0.23820335  0.42745858  0.52296695  1
  O2-  O220  1  0.23538798  0.76370934  0.02381400  1
  O2-  O221  1  0.23972452  0.76509590  0.51737253  1
  O2-  O222  1  0.56943015  0.09749070  0.01785776  1
  O2-  O223  1  0.56934847  0.09399692  0.52190766  1
  O2-  O224  1  0.57191699  0.42456358  0.02381584  1
  O2-  O225  1  0.57202081  0.42895128  0.51974642  1
  O2-  O226  1  0.57273856  0.76321548  0.02065404  1
  O2-  O227  1  0.57035030  0.76353618  0.52039724  1
  O2-  O228  1  0.90263424  0.09547192  0.01898649  1
  O2-  O229  1  0.90342537  0.09763825  0.51605220  1
  O2-  O230  1  0.90353761  0.42647494  0.02117692  1
  O2-  O231  1  0.90471155  0.42739138  0.52360643  1
  O2-  O232  1  0.90581945  0.76106308  0.01957223  1
  O2-  O233  1  0.90414531  0.75690498  0.52030045  1
  O2-  O234  1  0.26136600  0.26273559  0.22897186  1
  O2-  O235  1  0.26238641  0.25958672  0.72829111  1
  O2-  O236  1  0.26076690  0.59773509  0.22719895  1
  O2-  O237  1  0.25749844  0.59390740  0.73380574  1
  O2-  O238  1  0.26598151  0.92981970  0.23382309  1
  O2-  O239  1  0.26449418  0.92971794  0.72790185  1
  O2-  O240  1  0.59516970  0.26104579  0.23001291  1
  O2-  O241  1  0.59660554  0.25830821  0.73086877  1
  O2-  O242  1  0.59484788  0.59035494  0.22388738  1
  O2-  O243  1  0.59656187  0.59285374  0.73311558  1
  O2-  O244  1  0.59625453  0.92756635  0.22654973  1
  O2-  O245  1  0.59378162  0.93029535  0.73083888  1
  O2-  O246  1  0.93082858  0.26494850  0.23578167  1
  O2-  O247  1  0.92677121  0.26059510  0.72812921  1
  O2-  O248  1  0.92867257  0.59377898  0.22739006  1
  O2-  O249  1  0.92933704  0.59450822  0.72783852  1
  O2-  O250  1  0.92626727  0.92573911  0.22997867  1
  O2-  O251  1  0.92419272  0.92510036  0.73556134  1
  O2-  O252  1  0.09515293  0.23919029  0.26997981  1
  O2-  O253  1  0.09555010  0.23734239  0.76825531  1
  O2-  O254  1  0.09785770  0.56967352  0.26616638  1
  O2-  O255  1  0.09279138  0.56977832  0.77305119  1
  O2-  O256  1  0.09566403  0.90644594  0.26916661  1
  O2-  O257  1  0.09715983  0.90801027  0.76743851  1
  O2-  O258  1  0.42823895  0.23858304  0.27307306  1
  O2-  O259  1  0.42565709  0.24097131  0.77107493  1
  O2-  O260  1  0.42764073  0.57236409  0.27111893  1
  O2-  O261  1  0.42543705  0.57625004  0.76901073  1
  O2-  O262  1  0.42995932  0.90441218  0.26985575  1
  O2-  O263  1  0.42725778  0.90809117  0.77540786  1
  O2-  O264  1  0.75987137  0.24082367  0.27320095  1
  O2-  O265  1  0.76535109  0.23473048  0.76941167  1
  O2-  O266  1  0.76392325  0.56807676  0.26344435  1
  O2-  O267  1  0.76492007  0.56850701  0.77113382  1
  O2-  O268  1  0.76589910  0.89858774  0.26932891  1
  O2-  O269  1  0.75658878  0.90660013  0.76524518  1
  O2-  O270  1  0.07166863  0.07304276  0.47576718  1
  O2-  O271  1  0.07147180  0.07547470  0.97848664  1
  O2-  O272  1  0.07080592  0.40650540  0.48094694  1
  O2-  O273  1  0.06840279  0.40287869  0.97630666  1
  O2-  O274  1  0.07435971  0.74172978  0.48308442  1
  O2-  O275  1  0.07271612  0.73907980  0.97758612  1
  O2-  O276  1  0.40457973  0.07325503  0.47823601  1
  O2-  O277  1  0.40569176  0.07275961  0.97833288  1
  O2-  O278  1  0.40520169  0.40651528  0.47965635  1
  O2-  O279  1  0.40454643  0.40240852  0.98292167  1
  O2-  O280  1  0.40697000  0.73930073  0.47590402  1
  O2-  O281  1  0.40193365  0.74174947  0.97924848  1
  O2-  O282  1  0.74112626  0.07229799  0.48251413  1
  O2-  O283  1  0.73499710  0.07014830  0.98410667  1
  O2-  O284  1  0.73789442  0.40506255  0.48036641  1
  O2-  O285  1  0.73613533  0.39813434  0.98072262  1
  O2-  O286  1  0.73259846  0.73323069  0.48446146  1
  O2-  O287  1  0.73751899  0.73408648  0.98399138  1
  O2-  O288  1  0.09503527  0.23923083  0.47925090  1
  O2-  O289  1  0.09648331  0.23773049  0.98146502  1
  O2-  O290  1  0.09431793  0.56992734  0.48474620  1
  O2-  O291  1  0.09620676  0.56932049  0.97612232  1
  O2-  O292  1  0.09987503  0.90600587  0.48311410  1
  O2-  O293  1  0.09333259  0.90865381  0.98056520  1
  O2-  O294  1  0.42740973  0.24069279  0.47718136  1
  O2-  O295  1  0.42787478  0.23869836  0.97920772  1
  O2-  O296  1  0.42836586  0.57325410  0.47860833  1
  O2-  O297  1  0.42444435  0.57514895  0.98154444  1
  O2-  O298  1  0.42764593  0.90495594  0.47682992  1
  O2-  O299  1  0.43077605  0.90747912  0.97883198  1
  O2-  O300  1  0.76352466  0.23995376  0.47831283  1
  O2-  O301  1  0.76250428  0.23601019  0.97827457  1
  O2-  O302  1  0.76300063  0.56763204  0.48511046  1
  O2-  O303  1  0.76710271  0.57014681  0.98168230  1
  O2-  O304  1  0.76444316  0.89907481  0.48179055  1
  O2-  O305  1  0.75821631  0.90665013  0.98282656  1
  O2-  O306  1  0.07065356  0.07425180  0.27228390  1
  O2-  O307  1  0.07238565  0.07422624  0.77268088  1
  O2-  O308  1  0.07232728  0.40683768  0.27091495  1
  O2-  O309  1  0.06623770  0.40379749  0.77050736  1
  O2-  O310  1  0.07518506  0.74340375  0.26955422  1
  O2-  O311  1  0.07185915  0.73777343  0.76983346  1
  O2-  O312  1  0.40389227  0.07271742  0.27112049  1
  O2-  O313  1  0.40718621  0.07478338  0.77407629  1
  O2-  O314  1  0.40600339  0.40531531  0.27040311  1
  O2-  O315  1  0.40341928  0.40454287  0.76791090  1
  O2-  O316  1  0.40339004  0.73938391  0.27013312  1
  O2-  O317  1  0.40562367  0.74154504  0.77542548  1
  O2-  O318  1  0.74189428  0.07293756  0.26936488  1
  O2-  O319  1  0.73407336  0.07015638  0.76475829  1
  O2-  O320  1  0.73795363  0.40484252  0.26954603  1
  O2-  O321  1  0.73619680  0.39837012  0.76908305  1
  O2-  O322  1  0.73403012  0.73302611  0.26689757  1
  O2-  O323  1  0.73482570  0.73491246  0.76561841  1
  O2-  O324  1  0.23688846  0.09607330  0.23051572  1
  O2-  O325  1  0.23752248  0.09649398  0.73179251  1
  O2-  O326  1  0.23877724  0.42938480  0.22783872  1
  O2-  O327  1  0.23793238  0.42527635  0.72854723  1
  O2-  O328  1  0.23821297  0.76272858  0.22576539  1
  O2-  O329  1  0.23714706  0.76607126  0.73272721  1
  O2-  O330  1  0.57032614  0.09698517  0.23360280  1
  O2-  O331  1  0.57000782  0.09487857  0.72655595  1
  O2-  O332  1  0.57267402  0.42803809  0.22801546  1
  O2-  O333  1  0.57263994  0.42649065  0.72906111  1
  O2-  O334  1  0.57140857  0.76263104  0.22815729  1
  O2-  O335  1  0.57087467  0.76373799  0.72910746  1
  O2-  O336  1  0.90176767  0.09974313  0.23183075  1
  O2-  O337  1  0.90476392  0.09506443  0.73271376  1
  O2-  O338  1  0.90459916  0.42811245  0.22927657  1
  O2-  O339  1  0.90414490  0.42619926  0.72771466  1
  O2-  O340  1  0.90459119  0.76084491  0.23491339  1
  O2-  O341  1  0.90566127  0.75774947  0.72564391  1
  O2-  O342  1  0.26086134  0.26201423  0.02048002  1
  O2-  O343  1  0.26313498  0.26086702  0.52259443  1
  O2-  O344  1  0.25905554  0.59817376  0.02163173  1
  O2-  O345  1  0.25868308  0.59310077  0.51667035  1
  O2-  O346  1  0.26585691  0.93078669  0.01638937  1
  O2-  O347  1  0.26520549  0.92928554  0.52029466  1
  O2-  O348  1  0.59442589  0.25791277  0.02252972  1
  O2-  O349  1  0.59731652  0.26238345  0.51690493  1
  O2-  O350  1  0.59775074  0.59123377  0.02038083  1
  O2-  O351  1  0.59438166  0.59187543  0.52094133  1
  O2-  O352  1  0.59371715  0.93115618  0.02214099  1
  O2-  O353  1  0.59520760  0.92788906  0.52018723  1
  O2-  O354  1  0.92846420  0.26233779  0.01669906  1
  O2-  O355  1  0.92845276  0.26256214  0.51998949  1
  O2-  O356  1  0.93198850  0.59695090  0.02171649  1
  O2-  O357  1  0.92590766  0.59218539  0.52425454  1
  O2-  O358  1  0.92483165  0.92663100  0.01516827  1
  O2-  O359  1  0.92516296  0.92450985  0.51951465  1
