# generated using pymatgen
data_Sr7Ca15Pr50Mn72O216
_symmetry_space_group_name_H-M   'P 1'
_cell_length_a   16.55905512
_cell_length_b   16.60573567
_cell_length_c   15.59180623
_cell_angle_alpha   90.00427087
_cell_angle_beta   89.99987714
_cell_angle_gamma   89.99067600
_symmetry_Int_Tables_number   1
_chemical_formula_structural   Sr7Ca15Pr50Mn72O216
_chemical_formula_sum   'Sr7 Ca15 Pr50 Mn72 O216'
_cell_volume   4287.36140629
_cell_formula_units_Z   1
loop_
 _symmetry_equiv_pos_site_id
 _symmetry_equiv_pos_as_xyz
  1  'x, y, z'
loop_
 _atom_type_symbol
 _atom_type_oxidation_number
  Sr2+  2.0
  Ca2+  2.0
  Pr3+  3.0
  Mn3.30+  3.3
  O2-  -2.0
loop_
 _atom_site_type_symbol
 _atom_site_label
 _atom_site_symmetry_multiplicity
 _atom_site_fract_x
 _atom_site_fract_y
 _atom_site_fract_z
 _atom_site_occupancy
  Sr2+  Sr0  1  0.82812930  0.82256150  0.87395619  1
  Sr2+  Sr1  1  0.83776256  0.17623505  0.12358751  1
  Sr2+  Sr2  1  0.33042130  0.34383194  0.62920385  1
  Sr2+  Sr3  1  0.49788448  0.15526376  0.87513372  1
  Sr2+  Sr4  1  0.99983874  0.32328947  0.37333431  1
  Sr2+  Sr5  1  0.16753020  0.16051076  0.87378209  1
  Sr2+  Sr6  1  0.49876667  0.82351066  0.37514952  1
  Ca2+  Ca7  1  -0.00569391  0.68049730  0.12355082  1
  Ca2+  Ca8  1  0.83427377  0.84967634  0.62793740  1
  Ca2+  Ca9  1  0.82805096  0.14889970  0.87497095  1
  Ca2+  Ca10  1  1.00201691  0.31727267  0.87867784  1
  Ca2+  Ca11  1  0.33152133  0.68301346  0.12509289  1
  Ca2+  Ca12  1  -0.00668840  0.34844444  0.12247357  1
  Ca2+  Ca13  1  0.67110688  0.65378974  0.87657691  1
  Ca2+  Ca14  1  0.83887775  0.51582887  0.12349913  1
  Ca2+  Ca15  1  0.33723999  0.31722140  0.87472086  1
  Ca2+  Ca16  1  0.50292193  0.84645437  0.12452112  1
  Ca2+  Ca17  1  0.67091531  0.98579316  0.87192902  1
  Ca2+  Ca18  1  0.83051314  0.15108463  0.37497890  1
  Ca2+  Ca19  1  0.66537732  0.01177276  0.62827747  1
  Ca2+  Ca20  1  0.17133466  0.51240387  0.62494195  1
  Ca2+  Ca21  1  0.50612919  0.85065475  0.62511773  1
  Pr3+  Pr22  1  0.83502912  0.51058920  0.62637372  1
  Pr3+  Pr23  1  0.16415434  0.82097100  0.37518505  1
  Pr3+  Pr24  1  0.50440954  0.17887500  0.62692544  1
  Pr3+  Pr25  1  0.67503200  0.31666945  0.37465571  1
  Pr3+  Pr26  1  0.16935216  0.84623583  0.62571498  1
  Pr3+  Pr27  1  0.99824727  0.99069042  0.37493770  1
  Pr3+  Pr28  1  0.16125561  0.48459849  0.87502330  1
  Pr3+  Pr29  1  0.33182671  0.67781959  0.62570251  1
  Pr3+  Pr30  1  0.33797685  0.99128835  0.87436802  1
  Pr3+  Pr31  1  0.83181827  0.48797209  0.87768764  1
  Pr3+  Pr32  1  0.33802869  0.98576529  0.37527473  1
  Pr3+  Pr33  1  0.33389357  0.01033560  0.12496340  1
  Pr3+  Pr34  1  0.66184624  0.68129648  0.62795041  1
  Pr3+  Pr35  1  0.49861563  0.15266935  0.37496314  1
  Pr3+  Pr36  1  0.16299956  0.82221414  0.87454531  1
  Pr3+  Pr37  1  0.16232518  0.15612414  0.37547853  1
  Pr3+  Pr38  1  0.16277135  0.48662353  0.37497814  1
  Pr3+  Pr39  1  -0.00434734  0.01312511  0.62666497  1
  Pr3+  Pr40  1  0.49709706  0.48713482  0.87575449  1
  Pr3+  Pr41  1  0.83483156  0.17731164  0.62639141  1
  Pr3+  Pr42  1  0.00055207  0.34547478  0.62811552  1
  Pr3+  Pr43  1  1.00025106  0.99017230  0.87533069  1
  Pr3+  Pr44  1  0.83629588  0.84516439  0.12333799  1
  Pr3+  Pr45  1  0.50669650  0.17914904  0.12327249  1
  Pr3+  Pr46  1  0.66548851  0.00938119  0.12196080  1
  Pr3+  Pr47  1  0.50182116  0.51225107  0.62681582  1
  Pr3+  Pr48  1  1.00135275  0.65545254  0.87768290  1
  Pr3+  Pr49  1  0.82779499  0.81932062  0.37675209  1
  Pr3+  Pr50  1  0.16778501  0.84432067  0.12389004  1
  Pr3+  Pr51  1  0.16879074  0.18047412  0.62701500  1
  Pr3+  Pr52  1  0.33503029  0.32187335  0.37457412  1
  Pr3+  Pr53  1  0.33492826  0.65541519  0.87708728  1
  Pr3+  Pr54  1  0.67031097  0.98605517  0.37691083  1
  Pr3+  Pr55  1  0.16463815  0.17962503  0.12301338  1
  Pr3+  Pr56  1  0.16702509  0.51446409  0.12492216  1
  Pr3+  Pr57  1  1.00246025  0.65346865  0.37284170  1
  Pr3+  Pr58  1  0.33347069  0.01208507  0.62448291  1
  Pr3+  Pr59  1  0.49751509  0.48908901  0.37414698  1
  Pr3+  Pr60  1  0.50156862  0.82528460  0.87469146  1
  Pr3+  Pr61  1  0.33050567  0.34400912  0.12061982  1
  Pr3+  Pr62  1  0.66801024  0.34626514  0.12307510  1
  Pr3+  Pr63  1  0.66771675  0.65425993  0.37407848  1
  Pr3+  Pr64  1  -0.00437433  0.68030172  0.62593493  1
  Pr3+  Pr65  1  0.83163720  0.48621433  0.37232387  1
  Pr3+  Pr66  1  0.66398294  0.68112380  0.12207106  1
  Pr3+  Pr67  1  -0.00527642  0.01345191  0.12350332  1
  Pr3+  Pr68  1  0.66269804  0.34523388  0.62712036  1
  Pr3+  Pr69  1  0.33670471  0.65447657  0.37340258  1
  Pr3+  Pr70  1  0.67181224  0.31689378  0.87526558  1
  Pr3+  Pr71  1  0.50252812  0.51442580  0.12314947  1
  Mn3.30+  Mn72  1  0.16664312  0.00144610  -0.00067743  1
  Mn3.30+  Mn73  1  0.16632037  0.00035127  0.49990257  1
  Mn3.30+  Mn74  1  0.16284523  0.33313981  -0.00036365  1
  Mn3.30+  Mn75  1  0.16691542  0.33476898  0.50068065  1
  Mn3.30+  Mn76  1  0.16679251  0.66707238  0.00240481  1
  Mn3.30+  Mn77  1  0.16652569  0.66568428  0.50064717  1
  Mn3.30+  Mn78  1  0.50235770  -0.00154613  -0.00132682  1
  Mn3.30+  Mn79  1  0.50267224  -0.00103116  0.50219248  1
  Mn3.30+  Mn80  1  0.49942845  0.33333425  -0.00073537  1
  Mn3.30+  Mn81  1  0.50098875  0.33397120  0.49930162  1
  Mn3.30+  Mn82  1  0.50045380  0.66947367  -0.00025577  1
  Mn3.30+  Mn83  1  0.49980730  0.66861879  0.50061213  1
  Mn3.30+  Mn84  1  0.83121296  0.00011320  -0.00312909  1
  Mn3.30+  Mn85  1  0.83160801  -0.00013275  0.50265283  1
  Mn3.30+  Mn86  1  0.83712140  0.33151222  -0.00058467  1
  Mn3.30+  Mn87  1  0.83382551  0.33134426  0.50027214  1
  Mn3.30+  Mn88  1  0.83279827  0.66633686  -0.00021327  1
  Mn3.30+  Mn89  1  0.83237075  0.66653705  0.50185825  1
  Mn3.30+  Mn90  1  -0.00253681  0.16896183  0.25087986  1
  Mn3.30+  Mn91  1  -0.00145333  0.16793751  0.75320507  1
  Mn3.30+  Mn92  1  -0.00195680  0.49964841  0.24676063  1
  Mn3.30+  Mn93  1  0.00117257  0.49944928  0.75062162  1
  Mn3.30+  Mn94  1  -0.00122020  0.83262083  0.25032255  1
  Mn3.30+  Mn95  1  -0.00307270  0.83379898  0.74973741  1
  Mn3.30+  Mn96  1  0.33331393  0.16707538  0.24879992  1
  Mn3.30+  Mn97  1  0.33470685  0.16722210  0.75116575  1
  Mn3.30+  Mn98  1  0.33263219  0.50120541  0.24703821  1
  Mn3.30+  Mn99  1  0.33082762  0.49898064  0.75193375  1
  Mn3.30+  Mn100  1  0.33471699  0.83230817  0.24743314  1
  Mn3.30+  Mn101  1  0.33559174  0.83380290  0.74933336  1
  Mn3.30+  Mn102  1  0.66991799  0.16541038  0.24890999  1
  Mn3.30+  Mn103  1  0.66858306  0.16276673  0.75186969  1
  Mn3.30+  Mn104  1  0.66828275  0.50016101  0.24698934  1
  Mn3.30+  Mn105  1  0.66716391  0.50107915  0.75299241  1
  Mn3.30+  Mn106  1  0.66532262  0.83261731  0.24985579  1
  Mn3.30+  Mn107  1  0.66717497  0.83490675  0.74808796  1
  Mn3.30+  Mn108  1  0.16619021  0.00026305  0.24969945  1
  Mn3.30+  Mn109  1  0.16681436  0.00137285  0.75077663  1
  Mn3.30+  Mn110  1  0.16355923  0.33408406  0.24684146  1
  Mn3.30+  Mn111  1  0.16631278  0.33388872  0.75340901  1
  Mn3.30+  Mn112  1  0.16674740  0.66766465  0.24743294  1
  Mn3.30+  Mn113  1  0.16612838  0.66520354  0.74963782  1
  Mn3.30+  Mn114  1  0.50101718  -0.00191472  0.24903709  1
  Mn3.30+  Mn115  1  0.50437448  -0.00075053  0.74952937  1
  Mn3.30+  Mn116  1  0.50170255  0.33411382  0.24976079  1
  Mn3.30+  Mn117  1  0.49828614  0.33328128  0.75136820  1
  Mn3.30+  Mn118  1  0.49883477  0.66948848  0.24669591  1
  Mn3.30+  Mn119  1  0.50127999  0.66895586  0.75262510  1
  Mn3.30+  Mn120  1  0.83294633  0.00055872  0.25119294  1
  Mn3.30+  Mn121  1  0.82986430  -0.00083687  0.74916226  1
  Mn3.30+  Mn122  1  0.83598859  0.33177749  0.24761194  1
  Mn3.30+  Mn123  1  0.83479535  0.33125402  0.75299329  1
  Mn3.30+  Mn124  1  0.83472256  0.66533501  0.24787152  1
  Mn3.30+  Mn125  1  0.83054326  0.66785935  0.75069407  1
  Mn3.30+  Mn126  1  -0.00196222  0.16874060  -0.00269114  1
  Mn3.30+  Mn127  1  -0.00168689  0.16788929  0.49919020  1
  Mn3.30+  Mn128  1  -0.00243653  0.49904008  0.00155714  1
  Mn3.30+  Mn129  1  0.00177766  0.49956683  0.50191511  1
  Mn3.30+  Mn130  1  -0.00118534  0.83222786  -0.00047296  1
  Mn3.30+  Mn131  1  -0.00272566  0.83419783  0.50097721  1
  Mn3.30+  Mn132  1  0.33461133  0.16664057  0.00005433  1
  Mn3.30+  Mn133  1  0.33322146  0.16757715  0.49949350  1
  Mn3.30+  Mn134  1  0.33193514  0.50057324  -0.00009944  1
  Mn3.30+  Mn135  1  0.33180971  0.49964238  0.50109615  1
  Mn3.30+  Mn136  1  0.33458228  0.83346296  0.00097592  1
  Mn3.30+  Mn137  1  0.33571176  0.83263943  0.50168765  1
  Mn3.30+  Mn138  1  0.66996384  0.16430710  -0.00200459  1
  Mn3.30+  Mn139  1  0.66852854  0.16425601  0.50092524  1
  Mn3.30+  Mn140  1  0.66885285  0.50134795  0.00008082  1
  Mn3.30+  Mn141  1  0.66659810  0.49986355  0.49989989  1
  Mn3.30+  Mn142  1  0.66618852  0.83330207  -0.00193623  1
  Mn3.30+  Mn143  1  0.66604714  0.83368187  0.50330602  1
  O2-  O144  1  0.02187463  0.15812980  0.12479910  1
  O2-  O145  1  0.02461255  0.16063317  0.62558639  1
  O2-  O146  1  0.02489728  0.49184155  0.12398318  1
  O2-  O147  1  0.02863774  0.49343132  0.62796820  1
  O2-  O148  1  0.02348058  0.82861252  0.12415910  1
  O2-  O149  1  0.02603252  0.82906509  0.62407782  1
  O2-  O150  1  0.36162616  0.16120569  0.12698033  1
  O2-  O151  1  0.35863040  0.16186650  0.62427510  1
  O2-  O152  1  0.36004901  0.48993237  0.12322931  1
  O2-  O153  1  0.35881514  0.49884735  0.62809675  1
  O2-  O154  1  0.36002974  0.82914174  0.12401110  1
  O2-  O155  1  0.36199586  0.82540585  0.62726676  1
  O2-  O156  1  0.68783850  0.15847086  0.12329828  1
  O2-  O157  1  0.69137649  0.16110774  0.62590178  1
  O2-  O158  1  0.69430686  0.49458099  0.12375870  1
  O2-  O159  1  0.69006725  0.49369326  0.62717174  1
  O2-  O160  1  0.69258929  0.82912321  0.12607407  1
  O2-  O161  1  0.69476982  0.82418051  0.62502759  1
  O2-  O162  1  0.13724003  0.32762304  0.12475991  1
  O2-  O163  1  0.14430754  0.32784955  0.62762522  1
  O2-  O164  1  0.13730506  0.66421562  0.12583186  1
  O2-  O165  1  0.14051063  0.66010592  0.62594993  1
  O2-  O166  1  0.13912886  0.99283860  0.12541795  1
  O2-  O167  1  0.14061026  0.99438090  0.62494607  1
  O2-  O168  1  0.47593129  0.32817327  0.12573391  1
  O2-  O169  1  0.48251823  0.32914090  0.62460968  1
  O2-  O170  1  0.47205520  0.65949248  0.12333332  1
  O2-  O171  1  0.47459202  0.65786957  0.62835803  1
  O2-  O172  1  0.47778741  0.99395647  0.12487143  1
  O2-  O173  1  0.47604234  0.99715594  0.62430164  1
  O2-  O174  1  0.80890091  0.32748445  0.12378343  1
  O2-  O175  1  0.80604783  0.32795095  0.62750342  1
  O2-  O176  1  0.80788316  0.66237624  0.12412170  1
  O2-  O177  1  0.80595193  0.65591871  0.62517249  1
  O2-  O178  1  0.81131453  0.99464120  0.12430262  1
  O2-  O179  1  0.80807220  0.99727871  0.62491528  1
  O2-  O180  1  0.30735543  0.17291205  0.37257064  1
  O2-  O181  1  0.31769662  0.16518802  0.87578889  1
  O2-  O182  1  0.30707257  0.50743476  0.37094653  1
  O2-  O183  1  0.30484759  0.51020172  0.87769446  1
  O2-  O184  1  0.30834138  0.83755095  0.37444240  1
  O2-  O185  1  0.30688386  0.84132306  0.87375148  1
  O2-  O186  1  0.64152573  0.17068399  0.37457289  1
  O2-  O187  1  0.64554203  0.17217450  0.87562668  1
  O2-  O188  1  0.64194111  0.50572487  0.37255910  1
  O2-  O189  1  0.64227873  0.50565845  0.87641050  1
  O2-  O190  1  0.64783510  0.83710254  0.37630164  1
  O2-  O191  1  0.64380363  0.84156733  0.87251695  1
  O2-  O192  1  0.97361651  0.16805626  0.37632770  1
  O2-  O193  1  0.97122445  0.17162091  0.87370305  1
  O2-  O194  1  0.97531608  0.50644755  0.37344486  1
  O2-  O195  1  0.97454055  0.50942614  0.87583446  1
  O2-  O196  1  0.97190205  0.84058015  0.37745469  1
  O2-  O197  1  0.97950793  0.83931662  0.87487128  1
  O2-  O198  1  0.19414724  0.00691765  0.37465766  1
  O2-  O199  1  0.19329230  0.00194517  0.87489769  1
  O2-  O200  1  0.19127721  0.33802044  0.37120840  1
  O2-  O201  1  0.19432679  0.33843103  0.87695376  1
  O2-  O202  1  0.19276186  0.67285846  0.37281787  1
  O2-  O203  1  0.19062736  0.67358900  0.87560658  1
  O2-  O204  1  0.52507360  0.00474041  0.37660986  1
  O2-  O205  1  0.52620960  -0.00181243  0.87377500  1
  O2-  O206  1  0.52918750  0.34092081  0.37346292  1
  O2-  O207  1  0.52651900  0.33891531  0.87606426  1
  O2-  O208  1  0.52383567  0.66790414  0.37200560  1
  O2-  O209  1  0.52908449  0.67611449  0.87555843  1
  O2-  O210  1  0.85489529  0.00317918  0.37788155  1
  O2-  O211  1  0.85690909  0.00253322  0.87285618  1
  O2-  O212  1  0.85142427  0.34130875  0.37362290  1
  O2-  O213  1  0.86144783  0.34294238  0.87487718  1
  O2-  O214  1  0.85805072  0.67171515  0.37688592  1
  O2-  O215  1  0.85789493  0.66732650  0.87400023  1
  O2-  O216  1  0.24150243  0.09170277  0.02481106  1
  O2-  O217  1  0.23755835  0.09308450  0.52117297  1
  O2-  O218  1  0.23488372  0.42736144  0.02255614  1
  O2-  O219  1  0.23693432  0.43226700  0.51552363  1
  O2-  O220  1  0.23819311  0.76352987  0.01817881  1
  O2-  O221  1  0.23679352  0.76068433  0.52126436  1
  O2-  O222  1  0.57308629  0.09207514  0.02179792  1
  O2-  O223  1  0.56927529  0.09800716  0.51678607  1
  O2-  O224  1  0.57221916  0.42809523  0.02014561  1
  O2-  O225  1  0.57179138  0.42944866  0.51993931  1
  O2-  O226  1  0.56997936  0.76331076  0.02199999  1
  O2-  O227  1  0.57178341  0.76178837  0.52340914  1
  O2-  O228  1  0.90844153  0.09068179  0.01507301  1
  O2-  O229  1  0.90633160  0.09335184  0.52226022  1
  O2-  O230  1  0.90134444  0.43301552  0.01908934  1
  O2-  O231  1  0.90557716  0.42649048  0.52087836  1
  O2-  O232  1  0.90382559  0.75978218  0.01921429  1
  O2-  O233  1  0.90241212  0.76090045  0.52310535  1
  O2-  O234  1  0.26136523  0.26207342  0.22719754  1
  O2-  O235  1  0.25666304  0.25650211  0.73441266  1
  O2-  O236  1  0.26296479  0.59492758  0.22518596  1
  O2-  O237  1  0.26340786  0.59673546  0.73292898  1
  O2-  O238  1  0.26082002  0.92621316  0.22903164  1
  O2-  O239  1  0.26295692  0.92584079  0.72672974  1
  O2-  O240  1  0.59827931  0.26026564  0.22893497  1
  O2-  O241  1  0.59761984  0.25906148  0.73168563  1
  O2-  O242  1  0.59364583  0.59574763  0.22741503  1
  O2-  O243  1  0.59138957  0.59426386  0.72933823  1
  O2-  O244  1  0.59818551  0.92845826  0.23342734  1
  O2-  O245  1  0.59549890  0.92797150  0.72634068  1
  O2-  O246  1  0.93153660  0.26504143  0.22981057  1
  O2-  O247  1  0.92591317  0.25996253  0.72552619  1
  O2-  O248  1  0.93229922  0.59831976  0.23125923  1
  O2-  O249  1  0.92801163  0.59409118  0.72863168  1
  O2-  O250  1  0.92845772  0.92712923  0.23055808  1
  O2-  O251  1  0.92864118  0.92983039  0.73132035  1
  O2-  O252  1  0.09737172  0.23502570  0.26692543  1
  O2-  O253  1  0.09162765  0.24013894  0.76419074  1
  O2-  O254  1  0.09599276  0.57280687  0.26956452  1
  O2-  O255  1  0.09200590  0.57320958  0.77470968  1
  O2-  O256  1  0.09367972  0.90674853  0.27222847  1
  O2-  O257  1  0.09568949  0.90699863  0.76894438  1
  O2-  O258  1  0.42941279  0.24080353  0.27165703  1
  O2-  O259  1  0.42750990  0.24046760  0.76390676  1
  O2-  O260  1  0.42869324  0.57154447  0.26875065  1
  O2-  O261  1  0.42747480  0.57322418  0.77397978  1
  O2-  O262  1  0.42331272  0.90884463  0.26888410  1
  O2-  O263  1  0.42789362  0.90744323  0.77085233  1
  O2-  O264  1  0.76198566  0.23632128  0.27222608  1
  O2-  O265  1  0.76342411  0.23595706  0.77110876  1
  O2-  O266  1  0.76134342  0.57304162  0.27186662  1
  O2-  O267  1  0.76383368  0.56863900  0.76793864  1
  O2-  O268  1  0.76242698  0.90363216  0.26945379  1
  O2-  O269  1  0.76099097  0.90483454  0.76423781  1
  O2-  O270  1  0.07084935  0.07352665  0.47902008  1
  O2-  O271  1  0.06991797  0.07245120  0.98238900  1
  O2-  O272  1  0.07387531  0.40725599  0.48201591  1
  O2-  O273  1  0.07079819  0.40610034  0.97586983  1
  O2-  O274  1  0.07086998  0.73991999  0.47946811  1
  O2-  O275  1  0.07344687  0.74129907  0.97842203  1
  O2-  O276  1  0.40529738  0.07295835  0.47912618  1
  O2-  O277  1  0.40628904  0.06799416  0.98553649  1
  O2-  O278  1  0.40496771  0.40867885  0.47569090  1
  O2-  O279  1  0.40313490  0.40686512  0.97783562  1
  O2-  O280  1  0.40181719  0.73550318  0.48253720  1
  O2-  O281  1  0.40603275  0.74189565  0.97554352  1
  O2-  O282  1  0.73739997  0.07153457  0.48028616  1
  O2-  O283  1  0.73653081  0.06752727  0.98051939  1
  O2-  O284  1  0.73764141  0.40467756  0.48177040  1
  O2-  O285  1  0.73914317  0.40187501  0.97945908  1
  O2-  O286  1  0.73584879  0.73671700  0.47964920  1
  O2-  O287  1  0.73327901  0.73539111  0.98356417  1
  O2-  O288  1  0.09605511  0.23698883  0.48461329  1
  O2-  O289  1  0.09446982  0.23763006  0.98398913  1
  O2-  O290  1  0.09434092  0.57516252  0.47626650  1
  O2-  O291  1  0.09536256  0.57084100  0.98176712  1
  O2-  O292  1  0.09521145  0.90736753  0.47858611  1
  O2-  O293  1  0.09456204  0.90692678  0.97977654  1
  O2-  O294  1  0.42941312  0.24104629  0.47723833  1
  O2-  O295  1  0.42727993  0.24087277  0.98709534  1
  O2-  O296  1  0.42784100  0.57121339  0.48024749  1
  O2-  O297  1  0.42968668  0.57435839  0.97755056  1
  O2-  O298  1  0.42539297  0.90978958  0.48223910  1
  O2-  O299  1  0.42597479  0.90720089  0.97757395  1
  O2-  O300  1  0.76343362  0.23594286  0.47991992  1
  O2-  O301  1  0.76360951  0.23818741  0.97658484  1
  O2-  O302  1  0.76141712  0.57042916  0.47921245  1
  O2-  O303  1  0.76283094  0.57170081  0.98058754  1
  O2-  O304  1  0.76124314  0.90458761  0.48025443  1
  O2-  O305  1  0.76064611  0.90408569  0.98755353  1
  O2-  O306  1  0.07228209  0.07376415  0.27138699  1
  O2-  O307  1  0.06842282  0.07220902  0.76817957  1
  O2-  O308  1  0.07538866  0.41060698  0.26950179  1
  O2-  O309  1  0.06956541  0.40351183  0.77439253  1
  O2-  O310  1  0.07188933  0.74242425  0.27442979  1
  O2-  O311  1  0.07142430  0.73947662  0.76890175  1
  O2-  O312  1  0.40581912  0.07272374  0.27113261  1
  O2-  O313  1  0.40522149  0.06935479  0.76399993  1
  O2-  O314  1  0.40460923  0.40726963  0.27108692  1
  O2-  O315  1  0.40337618  0.40874343  0.77547249  1
  O2-  O316  1  0.40250534  0.73730959  0.26773392  1
  O2-  O317  1  0.40501021  0.73910500  0.77388061  1
  O2-  O318  1  0.73578890  0.06909475  0.26784714  1
  O2-  O319  1  0.73736355  0.06960839  0.77003611  1
  O2-  O320  1  0.73779915  0.40236417  0.26773057  1
  O2-  O321  1  0.74017247  0.40295030  0.77108843  1
  O2-  O322  1  0.73691813  0.73761406  0.26930493  1
  O2-  O323  1  0.73228952  0.73311802  0.76744737  1
  O2-  O324  1  0.23837194  0.09358633  0.22725026  1
  O2-  O325  1  0.24140503  0.09154627  0.72695586  1
  O2-  O326  1  0.23927232  0.42804821  0.22711139  1
  O2-  O327  1  0.23357883  0.43280763  0.73409275  1
  O2-  O328  1  0.23651961  0.76387427  0.23041531  1
  O2-  O329  1  0.23905404  0.76148958  0.72943238  1
  O2-  O330  1  0.57141380  0.09494550  0.23146266  1
  O2-  O331  1  0.57177000  0.09457488  0.72900405  1
  O2-  O332  1  0.57190710  0.42878849  0.22698849  1
  O2-  O333  1  0.57181817  0.42783656  0.73239821  1
  O2-  O334  1  0.57184661  0.76097798  0.22565969  1
  O2-  O335  1  0.56969964  0.76472481  0.72778938  1
  O2-  O336  1  0.90936749  0.09090025  0.23380147  1
  O2-  O337  1  0.90474139  0.09264668  0.72890574  1
  O2-  O338  1  0.90154102  0.43300374  0.23200450  1
  O2-  O339  1  0.90630976  0.42794147  0.72826341  1
  O2-  O340  1  0.90201482  0.76261696  0.23317734  1
  O2-  O341  1  0.90369104  0.75900937  0.72628033  1
  O2-  O342  1  0.25705713  0.25957664  0.02209951  1
  O2-  O343  1  0.25919770  0.26101355  0.51608996  1
  O2-  O344  1  0.26205195  0.59592932  0.02395768  1
  O2-  O345  1  0.26407429  0.59634514  0.51792504  1
  O2-  O346  1  0.26186765  0.92622939  0.02210048  1
  O2-  O347  1  0.26154733  0.92560642  0.52098604  1
  O2-  O348  1  0.59718675  0.26026919  0.01989080  1
  O2-  O349  1  0.59890424  0.25995235  0.51940078  1
  O2-  O350  1  0.59258529  0.59451444  0.02250351  1
  O2-  O351  1  0.59446152  0.59486646  0.51942446  1
  O2-  O352  1  0.59379158  0.92576929  0.02003452  1
  O2-  O353  1  0.59869427  0.93066070  0.51953631  1
  O2-  O354  1  0.93202958  0.26560812  0.01817437  1
  O2-  O355  1  0.92789656  0.26028384  0.52505890  1
  O2-  O356  1  0.93153642  0.59739963  0.01843197  1
  O2-  O357  1  0.92918109  0.59299428  0.52163674  1
  O2-  O358  1  0.92763554  0.92674417  0.01902372  1
  O2-  O359  1  0.92902919  0.93023109  0.51947917  1
