# generated using pymatgen
data_Sr7Ca15Pr50Mn72O216
_symmetry_space_group_name_H-M   'P 1'
_cell_length_a   16.55749562
_cell_length_b   16.60522382
_cell_length_c   15.59440948
_cell_angle_alpha   89.99943778
_cell_angle_beta   89.99980135
_cell_angle_gamma   89.99734137
_symmetry_Int_Tables_number   1
_chemical_formula_structural   Sr7Ca15Pr50Mn72O216
_chemical_formula_sum   'Sr7 Ca15 Pr50 Mn72 O216'
_cell_volume   4287.54129551
_cell_formula_units_Z   1
loop_
 _symmetry_equiv_pos_site_id
 _symmetry_equiv_pos_as_xyz
  1  'x, y, z'
loop_
 _atom_type_symbol
 _atom_type_oxidation_number
  Sr2+  2.0
  Ca2+  2.0
  Pr3+  3.0
  Mn3.30+  3.3
  O2-  -2.0
loop_
 _atom_site_type_symbol
 _atom_site_label
 _atom_site_symmetry_multiplicity
 _atom_site_fract_x
 _atom_site_fract_y
 _atom_site_fract_z
 _atom_site_occupancy
  Sr2+  Sr0  1  0.16843650  0.84336613  0.12627477  1
  Sr2+  Sr1  1  0.16978637  0.17502091  0.62168110  1
  Sr2+  Sr2  1  0.16918427  0.51126657  0.62437655  1
  Sr2+  Sr3  1  0.16523920  0.82486098  0.87633108  1
  Sr2+  Sr4  1  0.66393088  0.67554235  0.62492762  1
  Sr2+  Sr5  1  1.00281938  0.98976233  0.37502348  1
  Sr2+  Sr6  1  1.00211604  0.98974940  0.87487494  1
  Ca2+  Ca7  1  0.49653876  0.15211503  0.87657769  1
  Ca2+  Ca8  1  0.33515682  0.31654289  0.37639357  1
  Ca2+  Ca9  1  0.50267761  0.17984173  0.12733194  1
  Ca2+  Ca10  1  0.16487135  0.48589385  0.37561991  1
  Ca2+  Ca11  1  0.66287221  0.01419589  0.62433622  1
  Ca2+  Ca12  1  0.16384028  0.82108324  0.37417473  1
  Ca2+  Ca13  1  0.83127749  0.81977197  0.37615626  1
  Ca2+  Ca14  1  0.49984831  0.51598914  0.62449364  1
  Ca2+  Ca15  1  0.16580293  0.48764217  0.87439120  1
  Ca2+  Ca16  1  0.49672096  0.15205490  0.37388143  1
  Ca2+  Ca17  1  0.16550486  0.15338148  0.37547421  1
  Ca2+  Ca18  1  0.49390553  0.81819961  0.87309262  1
  Ca2+  Ca19  1  0.33017718  0.67948467  0.62494429  1
  Ca2+  Ca20  1  0.17193941  0.51435305  0.12572422  1
  Ca2+  Ca21  1  0.65976121  0.01861885  0.12580842  1
  Pr3+  Pr22  1  0.50229791  0.17712494  0.62376671  1
  Pr3+  Pr23  1  0.83027026  0.15312884  0.37430754  1
  Pr3+  Pr24  1  0.33110334  0.01311731  0.62421496  1
  Pr3+  Pr25  1  0.49346191  0.48632786  0.37659670  1
  Pr3+  Pr26  1  0.66096016  0.34448232  0.12577961  1
  Pr3+  Pr27  1  1.00501215  0.32281551  0.87522769  1
  Pr3+  Pr28  1  0.83031938  0.48768878  0.37548485  1
  Pr3+  Pr29  1  0.82993270  0.15235998  0.87559590  1
  Pr3+  Pr30  1  0.83285261  0.82243761  0.87494865  1
  Pr3+  Pr31  1  0.83809473  0.51405719  0.62449833  1
  Pr3+  Pr32  1  0.66704009  0.98827282  0.87475276  1
  Pr3+  Pr33  1  0.66921487  0.65554562  0.37661529  1
  Pr3+  Pr34  1  0.67245855  0.98625679  0.37534287  1
  Pr3+  Pr35  1  0.66726261  0.31834855  0.37486246  1
  Pr3+  Pr36  1  0.33984137  0.98501451  0.87433320  1
  Pr3+  Pr37  1  0.33555627  0.32006561  0.87402017  1
  Pr3+  Pr38  1  1.00831994  0.65362880  0.87490463  1
  Pr3+  Pr39  1  0.33405771  0.98988270  0.37563248  1
  Pr3+  Pr40  1  0.66317950  0.68084617  0.12539703  1
  Pr3+  Pr41  1  0.16545877  0.15375650  0.87448740  1
  Pr3+  Pr42  1  1.00561432  0.65560421  0.37517276  1
  Pr3+  Pr43  1  -0.00245560  0.68022649  0.62436787  1
  Pr3+  Pr44  1  0.83459981  0.17763919  0.12539099  1
  Pr3+  Pr45  1  0.33084773  0.65502099  0.37623045  1
  Pr3+  Pr46  1  0.66737413  0.31839708  0.87516404  1
  Pr3+  Pr47  1  0.49752790  0.82140814  0.37560224  1
  Pr3+  Pr48  1  0.32825420  0.67961092  0.12580359  1
  Pr3+  Pr49  1  0.83426239  0.84635477  0.62348344  1
  Pr3+  Pr50  1  0.00125943  0.34557415  0.62360666  1
  Pr3+  Pr51  1  0.50488750  0.84656432  0.62584258  1
  Pr3+  Pr52  1  0.83593299  0.84680633  0.12666307  1
  Pr3+  Pr53  1  0.83714991  0.51394893  0.12539275  1
  Pr3+  Pr54  1  0.00035827  0.34719389  0.12616799  1
  Pr3+  Pr55  1  0.83613018  0.17786279  0.62440241  1
  Pr3+  Pr56  1  0.49990304  0.51280163  0.12544942  1
  Pr3+  Pr57  1  0.17011965  0.84365714  0.62367493  1
  Pr3+  Pr58  1  0.32977588  0.34588468  0.12720707  1
  Pr3+  Pr59  1  0.00083405  0.68067664  0.12557494  1
  Pr3+  Pr60  1  0.49528199  0.48927783  0.87305452  1
  Pr3+  Pr61  1  0.66080494  0.34825404  0.62418668  1
  Pr3+  Pr62  1  0.50445703  0.84974575  0.12419515  1
  Pr3+  Pr63  1  0.00112186  0.00960664  0.12425024  1
  Pr3+  Pr64  1  0.17064066  0.17565374  0.12736428  1
  Pr3+  Pr65  1  1.00585904  0.31915825  0.37479882  1
  Pr3+  Pr66  1  0.33306227  0.65538844  0.87337296  1
  Pr3+  Pr67  1  0.83048552  0.48746581  0.87467800  1
  Pr3+  Pr68  1  0.33163040  0.01340803  0.12560978  1
  Pr3+  Pr69  1  0.32831649  0.34487410  0.62292938  1
  Pr3+  Pr70  1  0.66555809  0.65600471  0.87339791  1
  Pr3+  Pr71  1  0.00006067  0.01176955  0.62566699  1
  Mn3.30+  Mn72  1  0.16808449  -0.00099694  0.00020688  1
  Mn3.30+  Mn73  1  0.16702230  -0.00025748  0.49792872  1
  Mn3.30+  Mn74  1  0.16806832  0.33525943  0.00115008  1
  Mn3.30+  Mn75  1  0.16938076  0.33291153  0.49644648  1
  Mn3.30+  Mn76  1  0.16762427  0.66492353  -0.00008851  1
  Mn3.30+  Mn77  1  0.16805306  0.66613338  0.50051680  1
  Mn3.30+  Mn78  1  0.50188990  0.00233150  0.00053350  1
  Mn3.30+  Mn79  1  0.50226966  0.00082737  0.49885883  1
  Mn3.30+  Mn80  1  0.49843932  0.33141175  0.00013298  1
  Mn3.30+  Mn81  1  0.49666912  0.33244083  0.49902748  1
  Mn3.30+  Mn82  1  0.49835322  0.66827372  -0.00032245  1
  Mn3.30+  Mn83  1  0.49810257  0.66597303  0.50174139  1
  Mn3.30+  Mn84  1  0.82991072  -0.00025352  0.00181952  1
  Mn3.30+  Mn85  1  0.83282393  -0.00112617  0.49989905  1
  Mn3.30+  Mn86  1  0.83326054  0.33311620  0.00058283  1
  Mn3.30+  Mn87  1  0.83268177  0.33316596  0.49952742  1
  Mn3.30+  Mn88  1  0.83366690  0.66730851  -0.00086878  1
  Mn3.30+  Mn89  1  0.83358577  0.66875019  0.49902056  1
  Mn3.30+  Mn90  1  0.00222792  0.16565202  0.25042633  1
  Mn3.30+  Mn91  1  0.00074646  0.16756431  0.74970359  1
  Mn3.30+  Mn92  1  0.00357532  0.50085694  0.24992809  1
  Mn3.30+  Mn93  1  0.00232592  0.50038361  0.75020536  1
  Mn3.30+  Mn94  1  0.00041180  0.83446746  0.25265474  1
  Mn3.30+  Mn95  1  0.00142172  0.83393527  0.74991834  1
  Mn3.30+  Mn96  1  0.33634225  0.16751608  0.25216486  1
  Mn3.30+  Mn97  1  0.33563170  0.16617504  0.75055110  1
  Mn3.30+  Mn98  1  0.32962721  0.49783048  0.25275932  1
  Mn3.30+  Mn99  1  0.33187729  0.50089478  0.74782806  1
  Mn3.30+  Mn100  1  0.33220713  0.83414744  0.25167186  1
  Mn3.30+  Mn101  1  0.33540334  0.83117728  0.74884080  1
  Mn3.30+  Mn102  1  0.66294501  0.16525907  0.24994878  1
  Mn3.30+  Mn103  1  0.66478118  0.16510731  0.74960709  1
  Mn3.30+  Mn104  1  0.66511742  0.49993547  0.25032740  1
  Mn3.30+  Mn105  1  0.66380567  0.50077330  0.74899308  1
  Mn3.30+  Mn106  1  0.66808804  0.83530890  0.24993691  1
  Mn3.30+  Mn107  1  0.66413086  0.83385520  0.75064273  1
  Mn3.30+  Mn108  1  0.16691431  -0.00059675  0.25144860  1
  Mn3.30+  Mn109  1  0.16816893  -0.00065552  0.74979399  1
  Mn3.30+  Mn110  1  0.16880826  0.33361271  0.25258341  1
  Mn3.30+  Mn111  1  0.16823194  0.33447037  0.74988298  1
  Mn3.30+  Mn112  1  0.16680603  0.66548870  0.25114345  1
  Mn3.30+  Mn113  1  0.16851149  0.66582745  0.74854785  1
  Mn3.30+  Mn114  1  0.50221610  0.00271534  0.25066123  1
  Mn3.30+  Mn115  1  0.50194953  0.00044033  0.75030792  1
  Mn3.30+  Mn116  1  0.49647778  0.33059531  0.25173110  1
  Mn3.30+  Mn117  1  0.49886947  0.33334967  0.74907062  1
  Mn3.30+  Mn118  1  0.49865435  0.66713697  0.25098809  1
  Mn3.30+  Mn119  1  0.49804292  0.66697984  0.74807995  1
  Mn3.30+  Mn120  1  0.83176491  -0.00083178  0.24909901  1
  Mn3.30+  Mn121  1  0.83110026  -0.00054497  0.74915363  1
  Mn3.30+  Mn122  1  0.83327840  0.33317841  0.24978298  1
  Mn3.30+  Mn123  1  0.83283279  0.33337616  0.74972651  1
  Mn3.30+  Mn124  1  0.83370802  0.66836677  0.25109016  1
  Mn3.30+  Mn125  1  0.83379684  0.66762624  0.75070475  1
  Mn3.30+  Mn126  1  0.00093281  0.16704201  0.00030523  1
  Mn3.30+  Mn127  1  0.00242023  0.16597001  0.49942245  1
  Mn3.30+  Mn128  1  0.00364567  0.50071336  0.00129384  1
  Mn3.30+  Mn129  1  0.00237299  0.50039074  0.49848204  1
  Mn3.30+  Mn130  1  0.00072855  0.83443719  0.00056386  1
  Mn3.30+  Mn131  1  0.00106142  0.83410556  0.49702434  1
  Mn3.30+  Mn132  1  0.33741839  0.16684821  0.00116889  1
  Mn3.30+  Mn133  1  0.33465760  0.16708230  0.49590687  1
  Mn3.30+  Mn134  1  0.33012310  0.49929733  -0.00064120  1
  Mn3.30+  Mn135  1  0.33155959  0.49973728  0.50011997  1
  Mn3.30+  Mn136  1  0.33521173  0.83304619  -0.00057326  1
  Mn3.30+  Mn137  1  0.33298382  0.83184726  0.49976646  1
  Mn3.30+  Mn138  1  0.66255334  0.16553559  0.00083434  1
  Mn3.30+  Mn139  1  0.66510618  0.16498002  0.50001305  1
  Mn3.30+  Mn140  1  0.66561404  0.49993648  0.00011239  1
  Mn3.30+  Mn141  1  0.66298600  0.50058486  0.50053725  1
  Mn3.30+  Mn142  1  0.66442572  0.83548970  -0.00130009  1
  Mn3.30+  Mn143  1  0.66750177  0.83325401  0.50100072  1
  O2-  O144  1  0.02476460  0.16133299  0.12528293  1
  O2-  O145  1  0.01828879  0.16296498  0.62544306  1
  O2-  O146  1  0.02917814  0.49453701  0.12607138  1
  O2-  O147  1  0.01845052  0.49402788  0.62384336  1
  O2-  O148  1  0.01793888  0.82998912  0.12617795  1
  O2-  O149  1  0.02423946  0.82891527  0.62337067  1
  O2-  O150  1  0.36168564  0.16126200  0.12579081  1
  O2-  O151  1  0.35856115  0.16224960  0.62337138  1
  O2-  O152  1  0.35832150  0.49413735  0.12670899  1
  O2-  O153  1  0.36001119  0.49075811  0.62315657  1
  O2-  O154  1  0.35993053  0.82863111  0.12638139  1
  O2-  O155  1  0.36090933  0.82764432  0.62328536  1
  O2-  O156  1  0.69143568  0.16543763  0.12499753  1
  O2-  O157  1  0.69272561  0.16232643  0.62377788  1
  O2-  O158  1  0.69186687  0.49416242  0.12513298  1
  O2-  O159  1  0.69341893  0.49559801  0.62491868  1
  O2-  O160  1  0.69272760  0.82584038  0.12359149  1
  O2-  O161  1  0.69109655  0.82777435  0.62547114  1
  O2-  O162  1  0.14234363  0.32230169  0.12639364  1
  O2-  O163  1  0.14454396  0.32851550  0.62181339  1
  O2-  O164  1  0.14398539  0.65785307  0.12571454  1
  O2-  O165  1  0.14057579  0.66493651  0.62402295  1
  O2-  O166  1  0.14681224  1.00170765  0.12544570  1
  O2-  O167  1  0.14556713  0.99373543  0.62354574  1
  O2-  O168  1  0.47401157  0.32605147  0.12711383  1
  O2-  O169  1  0.47261669  0.32276204  0.62444039  1
  O2-  O170  1  0.47401937  0.66191384  0.12598094  1
  O2-  O171  1  0.47319793  0.66144906  0.62290519  1
  O2-  O172  1  0.47438320  0.99359362  0.12558309  1
  O2-  O173  1  0.47493174  0.99478883  0.62342601  1
  O2-  O174  1  0.80619407  0.32782273  0.12495277  1
  O2-  O175  1  0.80610178  0.32719251  0.62346037  1
  O2-  O176  1  0.80700765  0.66086472  0.12539720  1
  O2-  O177  1  0.81464722  0.66097929  0.62611188  1
  O2-  O178  1  0.80202461  0.99403522  0.12513205  1
  O2-  O179  1  0.80496543  0.99431612  0.62525603  1
  O2-  O180  1  0.30686961  0.16943853  0.37376530  1
  O2-  O181  1  0.30881281  0.17105431  0.87671547  1
  O2-  O182  1  0.30523500  0.50883697  0.37555387  1
  O2-  O183  1  0.30705490  0.50628154  0.87476814  1
  O2-  O184  1  0.30751065  0.84090671  0.37573934  1
  O2-  O185  1  0.31510446  0.83754131  0.87415767  1
  O2-  O186  1  0.64010806  0.17166337  0.37544888  1
  O2-  O187  1  0.63958855  0.17175617  0.87584060  1
  O2-  O188  1  0.63971415  0.50612617  0.37428864  1
  O2-  O189  1  0.64092231  0.50511010  0.87552944  1
  O2-  O190  1  0.64123027  0.83909624  0.37565949  1
  O2-  O191  1  0.63589249  0.84181230  0.87568976  1
  O2-  O192  1  0.97413428  0.17071623  0.37385148  1
  O2-  O193  1  0.97442672  0.17393838  0.87525497  1
  O2-  O194  1  0.97292860  0.50536703  0.37401866  1
  O2-  O195  1  0.97360719  0.50384971  0.87617761  1
  O2-  O196  1  0.97324472  0.83347376  0.37520396  1
  O2-  O197  1  0.97737324  0.83306958  0.87579699  1
  O2-  O198  1  0.19013134  0.00759337  0.37468244  1
  O2-  O199  1  0.19289428  0.00448523  0.87558653  1
  O2-  O200  1  0.19348327  0.34370099  0.37315309  1
  O2-  O201  1  0.19129895  0.34184698  0.87804106  1
  O2-  O202  1  0.18800542  0.67662139  0.37639869  1
  O2-  O203  1  0.18905121  0.67109993  0.87385516  1
  O2-  O204  1  0.52888653  0.00500956  0.37515602  1
  O2-  O205  1  0.52524624  0.00966012  0.87627623  1
  O2-  O206  1  0.52637242  0.34161036  0.37581581  1
  O2-  O207  1  0.52546545  0.34363005  0.87288548  1
  O2-  O208  1  0.52534481  0.67177002  0.37481753  1
  O2-  O209  1  0.52244482  0.67038540  0.87628614  1
  O2-  O210  1  0.85252467  0.00789267  0.37375162  1
  O2-  O211  1  0.85225812  0.00408497  0.87560310  1
  O2-  O212  1  0.85914386  0.33871700  0.37466123  1
  O2-  O213  1  0.85967761  0.33898982  0.87653317  1
  O2-  O214  1  0.85956869  0.67176975  0.37376501  1
  O2-  O215  1  0.86200613  0.67260907  0.87448507  1
  O2-  O216  1  0.24238938  0.09659908  0.02006561  1
  O2-  O217  1  0.24546459  0.08937658  0.51708491  1
  O2-  O218  1  0.23843990  0.42713099  0.02485406  1
  O2-  O219  1  0.24150232  0.42576622  0.51965031  1
  O2-  O220  1  0.24223415  0.75617829  0.01902019  1
  O2-  O221  1  0.23868005  0.76029818  0.51946718  1
  O2-  O222  1  0.56919192  0.09804961  0.02270550  1
  O2-  O223  1  0.57299987  0.09426006  0.52148921  1
  O2-  O224  1  0.56895217  0.42664660  0.02203431  1
  O2-  O225  1  0.56834512  0.42718593  0.52242841  1
  O2-  O226  1  0.57392619  0.76249357  0.02292792  1
  O2-  O227  1  0.56851477  0.76312883  0.51628225  1
  O2-  O228  1  0.90323322  0.09215934  0.02113961  1
  O2-  O229  1  0.90332369  0.09279219  0.52030893  1
  O2-  O230  1  0.90604725  0.42976633  0.02215866  1
  O2-  O231  1  0.90371048  0.42817096  0.51888460  1
  O2-  O232  1  0.90321316  0.76095575  0.02023711  1
  O2-  O233  1  0.90603755  0.76141524  0.52158805  1
  O2-  O234  1  0.26228672  0.25919671  0.22763705  1
  O2-  O235  1  0.26586916  0.26173326  0.73557811  1
  O2-  O236  1  0.26325033  0.59509416  0.23299089  1
  O2-  O237  1  0.26470749  0.59805724  0.73094910  1
  O2-  O238  1  0.26475310  0.93063024  0.23350154  1
  O2-  O239  1  0.26472338  0.92517678  0.72949093  1
  O2-  O240  1  0.59738355  0.26429880  0.23347909  1
  O2-  O241  1  0.59586496  0.26271804  0.72915153  1
  O2-  O242  1  0.59366714  0.59495718  0.22886628  1
  O2-  O243  1  0.59191324  0.59490176  0.73652150  1
  O2-  O244  1  0.59745584  0.93086602  0.22917655  1
  O2-  O245  1  0.59683423  0.93057720  0.72805273  1
  O2-  O246  1  0.92795966  0.26018423  0.22907962  1
  O2-  O247  1  0.92701299  0.26223386  0.72894296  1
  O2-  O248  1  0.92898490  0.59400074  0.22787200  1
  O2-  O249  1  0.93021213  0.59311364  0.73104950  1
  O2-  O250  1  0.92602107  0.92844080  0.22670642  1
  O2-  O251  1  0.92368483  0.92704672  0.72807023  1
  O2-  O252  1  0.09750854  0.23933814  0.27240676  1
  O2-  O253  1  0.09497971  0.24315601  0.77357224  1
  O2-  O254  1  0.09437960  0.57179444  0.27525934  1
  O2-  O255  1  0.09500923  0.57087674  0.77239633  1
  O2-  O256  1  0.09554123  0.90383261  0.26851065  1
  O2-  O257  1  0.09356684  0.90612870  0.76194155  1
  O2-  O258  1  0.42962669  0.23699330  0.27356895  1
  O2-  O259  1  0.43026579  0.23726921  0.77212520  1
  O2-  O260  1  0.42517666  0.56898649  0.27009157  1
  O2-  O261  1  0.42552398  0.57228978  0.77175178  1
  O2-  O262  1  0.43105547  0.90725067  0.27083312  1
  O2-  O263  1  0.43203604  0.90585347  0.76936686  1
  O2-  O264  1  0.75942221  0.23665485  0.27029099  1
  O2-  O265  1  0.76159015  0.23844616  0.77147386  1
  O2-  O266  1  0.76310242  0.57369301  0.27109314  1
  O2-  O267  1  0.76162874  0.57365663  0.77127000  1
  O2-  O268  1  0.76337772  0.90271112  0.27211445  1
  O2-  O269  1  0.75980703  0.90468483  0.77158740  1
  O2-  O270  1  0.07231101  0.07268693  0.48789782  1
  O2-  O271  1  0.07693660  0.07649997  0.98209731  1
  O2-  O272  1  0.06909759  0.40385528  0.48176615  1
  O2-  O273  1  0.06797924  0.40313487  0.98411291  1
  O2-  O274  1  0.06882457  0.73620562  0.48421889  1
  O2-  O275  1  0.07074708  0.73464361  0.98698877  1
  O2-  O276  1  0.40677963  0.07121741  0.48099054  1
  O2-  O277  1  0.40389370  0.06907134  0.98144854  1
  O2-  O278  1  0.40375606  0.40363343  0.47655134  1
  O2-  O279  1  0.40292100  0.40576644  0.98015530  1
  O2-  O280  1  0.40624989  0.74066436  0.47512637  1
  O2-  O281  1  0.40448262  0.73691809  0.98220634  1
  O2-  O282  1  0.73892835  0.07392048  0.47821711  1
  O2-  O283  1  0.73717303  0.07384047  0.97882539  1
  O2-  O284  1  0.73650701  0.40621657  0.47872280  1
  O2-  O285  1  0.73924002  0.40496012  0.97838538  1
  O2-  O286  1  0.73779813  0.73971945  0.47912287  1
  O2-  O287  1  0.73582870  0.74104300  0.97702685  1
  O2-  O288  1  0.09575589  0.24122807  0.47485543  1
  O2-  O289  1  0.09735828  0.24180919  0.97872760  1
  O2-  O290  1  0.09466241  0.57226302  0.47650855  1
  O2-  O291  1  0.09542595  0.57068783  0.97610198  1
  O2-  O292  1  0.09773610  0.90103536  0.48224857  1
  O2-  O293  1  0.09021092  0.90892314  0.98800206  1
  O2-  O294  1  0.43231296  0.23513229  0.47966025  1
  O2-  O295  1  0.42798990  0.23952619  0.97552093  1
  O2-  O296  1  0.42525547  0.57248778  0.47637377  1
  O2-  O297  1  0.42629864  0.56970104  0.98126930  1
  O2-  O298  1  0.42952294  0.90698767  0.47881806  1
  O2-  O299  1  0.43360887  0.90530384  0.98022232  1
  O2-  O300  1  0.76088338  0.23812165  0.47844424  1
  O2-  O301  1  0.76033134  0.23693302  0.97900386  1
  O2-  O302  1  0.76157582  0.57321072  0.47915621  1
  O2-  O303  1  0.76270440  0.57406302  0.97872628  1
  O2-  O304  1  0.76398295  0.90458849  0.47906391  1
  O2-  O305  1  0.75969218  0.90449594  0.97759519  1
  O2-  O306  1  0.07340117  0.07183206  0.26281701  1
  O2-  O307  1  0.07529864  0.07637724  0.76664537  1
  O2-  O308  1  0.06857499  0.40209164  0.26776261  1
  O2-  O309  1  0.06829137  0.40421903  0.76567773  1
  O2-  O310  1  0.06976501  0.73603345  0.26452181  1
  O2-  O311  1  0.07046051  0.73421871  0.76427071  1
  O2-  O312  1  0.40447114  0.07017852  0.27035654  1
  O2-  O313  1  0.40510756  0.06982782  0.76671742  1
  O2-  O314  1  0.40157660  0.40352260  0.27219569  1
  O2-  O315  1  0.40476073  0.40560638  0.77148224  1
  O2-  O316  1  0.40585247  0.73987071  0.27218080  1
  O2-  O317  1  0.40483801  0.73792134  0.76911731  1
  O2-  O318  1  0.73777211  0.07335291  0.27013694  1
  O2-  O319  1  0.73916846  0.07334465  0.77209804  1
  O2-  O320  1  0.73799786  0.40597791  0.27145786  1
  O2-  O321  1  0.73772926  0.40529366  0.77081148  1
  O2-  O322  1  0.73551980  0.73704028  0.26768676  1
  O2-  O323  1  0.73873585  0.74233987  0.77579008  1
  O2-  O324  1  0.24335668  0.09412199  0.22938751  1
  O2-  O325  1  0.24348761  0.09235349  0.73302104  1
  O2-  O326  1  0.23745245  0.42740996  0.22512341  1
  O2-  O327  1  0.24200723  0.42490496  0.73052675  1
  O2-  O328  1  0.24179649  0.75584859  0.23178996  1
  O2-  O329  1  0.23847326  0.76061238  0.72977180  1
  O2-  O330  1  0.57023836  0.09743069  0.22855127  1
  O2-  O331  1  0.57134966  0.09455068  0.72902273  1
  O2-  O332  1  0.56772397  0.42651887  0.22914983  1
  O2-  O333  1  0.56905446  0.42747275  0.72612605  1
  O2-  O334  1  0.57338475  0.76495912  0.23019943  1
  O2-  O335  1  0.57040231  0.76294185  0.73243676  1
  O2-  O336  1  0.90357274  0.09270771  0.22761205  1
  O2-  O337  1  0.90390271  0.09322984  0.73078062  1
  O2-  O338  1  0.90664647  0.43004448  0.22859491  1
  O2-  O339  1  0.90325710  0.42842079  0.73073202  1
  O2-  O340  1  0.90458495  0.75972032  0.22820960  1
  O2-  O341  1  0.90473706  0.76216768  0.72961994  1
  O2-  O342  1  0.26361458  0.26079931  0.02020474  1
  O2-  O343  1  0.26515850  0.26146770  0.51557148  1
  O2-  O344  1  0.26371531  0.59485730  0.01916081  1
  O2-  O345  1  0.26490927  0.59839533  0.51766365  1
  O2-  O346  1  0.26633938  0.92911051  0.01597627  1
  O2-  O347  1  0.26342215  0.92579861  0.52117873  1
  O2-  O348  1  0.59825854  0.26440867  0.01702646  1
  O2-  O349  1  0.59627539  0.26199679  0.52041224  1
  O2-  O350  1  0.59283127  0.59577400  0.02046218  1
  O2-  O351  1  0.59229243  0.59395772  0.51465539  1
  O2-  O352  1  0.59711746  0.93240817  0.02303683  1
  O2-  O353  1  0.59664940  0.92834994  0.52087558  1
  O2-  O354  1  0.92715241  0.26141119  0.02244732  1
  O2-  O355  1  0.92800200  0.26066353  0.51949145  1
  O2-  O356  1  0.93137690  0.59274846  0.02221965  1
  O2-  O357  1  0.92889817  0.59383461  0.51817386  1
  O2-  O358  1  0.92199891  0.92689407  0.02211002  1
  O2-  O359  1  0.92829866  0.92742197  0.52359674  1
