# generated using pymatgen
data_Sr7Ca15Pr50Mn72O216
_symmetry_space_group_name_H-M   'P 1'
_cell_length_a   16.55464560
_cell_length_b   16.60176986
_cell_length_c   15.59344950
_cell_angle_alpha   89.99860473
_cell_angle_beta   90.00542619
_cell_angle_gamma   90.00130148
_symmetry_Int_Tables_number   1
_chemical_formula_structural   Sr7Ca15Pr50Mn72O216
_chemical_formula_sum   'Sr7 Ca15 Pr50 Mn72 O216'
_cell_volume   4285.64775886
_cell_formula_units_Z   1
loop_
 _symmetry_equiv_pos_site_id
 _symmetry_equiv_pos_as_xyz
  1  'x, y, z'
loop_
 _atom_type_symbol
 _atom_type_oxidation_number
  Sr2+  2.0
  Ca2+  2.0
  Pr3+  3.0
  Mn3.30+  3.3
  O2-  -2.0
loop_
 _atom_site_type_symbol
 _atom_site_label
 _atom_site_symmetry_multiplicity
 _atom_site_fract_x
 _atom_site_fract_y
 _atom_site_fract_z
 _atom_site_occupancy
  Sr2+  Sr0  1  0.16192873  0.48889273  0.87650563  1
  Sr2+  Sr1  1  0.99954354  0.32622115  0.87424345  1
  Sr2+  Sr2  1  0.49773606  0.82282217  0.37454899  1
  Sr2+  Sr3  1  0.32902584  0.01084569  0.12453210  1
  Sr2+  Sr4  1  0.67124991  0.65550938  0.87505610  1
  Sr2+  Sr5  1  0.83261538  0.17539461  0.62627172  1
  Sr2+  Sr6  1  0.83160467  0.49155263  0.87736196  1
  Ca2+  Ca7  1  0.82952912  0.81618034  0.87651426  1
  Ca2+  Ca8  1  0.17152545  0.84850215  0.12638102  1
  Ca2+  Ca9  1  0.83767085  0.51407777  0.12244545  1
  Ca2+  Ca10  1  0.83258037  0.15621995  0.87301150  1
  Ca2+  Ca11  1  0.50308038  0.51427316  0.62470758  1
  Ca2+  Ca12  1  0.83929524  0.84652713  0.12119051  1
  Ca2+  Ca13  1  0.66514091  0.01434858  0.62563516  1
  Ca2+  Ca14  1  0.16368938  0.82094088  0.37328921  1
  Ca2+  Ca15  1  0.33298994  0.31818564  0.37471508  1
  Ca2+  Ca16  1  0.16981468  0.51421059  0.12447682  1
  Ca2+  Ca17  1  -0.00385059  0.68066281  0.62603627  1
  Ca2+  Ca18  1  0.16306357  0.48523197  0.37390982  1
  Ca2+  Ca19  1  0.16895408  0.18148515  0.62537423  1
  Ca2+  Ca20  1  0.16974645  0.18005814  0.12437487  1
  Ca2+  Ca21  1  0.32866759  0.01775186  0.62514156  1
  Pr3+  Pr22  1  0.83117283  0.48697544  0.37214547  1
  Pr3+  Pr23  1  0.32518146  0.68140516  0.12511616  1
  Pr3+  Pr24  1  0.33344178  0.67702498  0.62499863  1
  Pr3+  Pr25  1  0.83820432  0.51328572  0.62559331  1
  Pr3+  Pr26  1  0.16134718  0.15785510  0.87451059  1
  Pr3+  Pr27  1  0.16438846  0.82262388  0.87684903  1
  Pr3+  Pr28  1  0.16605513  0.51234817  0.62562236  1
  Pr3+  Pr29  1  0.16945546  0.84667139  0.62465587  1
  Pr3+  Pr30  1  1.00580410  0.98397535  0.37585620  1
  Pr3+  Pr31  1  0.33585434  0.98764429  0.87403285  1
  Pr3+  Pr32  1  0.66809242  0.65500320  0.37438905  1
  Pr3+  Pr33  1  0.49219050  0.48602643  0.37608373  1
  Pr3+  Pr34  1  0.67431124  0.32008792  0.87511045  1
  Pr3+  Pr35  1  0.00052854  0.34813697  0.12467358  1
  Pr3+  Pr36  1  0.16641598  0.15464248  0.37547689  1
  Pr3+  Pr37  1  0.33266981  0.32187142  0.87492586  1
  Pr3+  Pr38  1  0.66193851  0.34846000  0.62447614  1
  Pr3+  Pr39  1  0.33247524  0.65684700  0.37516177  1
  Pr3+  Pr40  1  0.66462225  0.67661541  0.62658191  1
  Pr3+  Pr41  1  1.00382075  0.32070449  0.37511910  1
  Pr3+  Pr42  1  0.49921512  0.81871409  0.87534838  1
  Pr3+  Pr43  1  0.49933499  0.51335807  0.12671582  1
  Pr3+  Pr44  1  0.66822756  0.31895042  0.37474800  1
  Pr3+  Pr45  1  0.83229830  0.15160710  0.37613275  1
  Pr3+  Pr46  1  0.49830073  0.48841263  0.87452653  1
  Pr3+  Pr47  1  0.50357980  0.17818525  0.62457841  1
  Pr3+  Pr48  1  0.33585259  0.65182281  0.87480834  1
  Pr3+  Pr49  1  1.00047747  0.65393846  0.87425855  1
  Pr3+  Pr50  1  0.66470212  0.34703115  0.12584209  1
  Pr3+  Pr51  1  0.33583804  0.98574683  0.37562951  1
  Pr3+  Pr52  1  0.66500600  0.01052401  0.12521583  1
  Pr3+  Pr53  1  0.50083465  0.17888269  0.12534137  1
  Pr3+  Pr54  1  -0.00159299  0.34280399  0.62529401  1
  Pr3+  Pr55  1  0.83746655  0.84354833  0.62764351  1
  Pr3+  Pr56  1  0.50601166  0.84869009  0.62437330  1
  Pr3+  Pr57  1  0.83773769  0.17744836  0.12432989  1
  Pr3+  Pr58  1  0.00097540  0.01066243  0.12459829  1
  Pr3+  Pr59  1  -0.00254141  0.01410739  0.62505150  1
  Pr3+  Pr60  1  -0.00078517  0.67993952  0.12338563  1
  Pr3+  Pr61  1  0.32550834  0.34626360  0.12726806  1
  Pr3+  Pr62  1  0.66895136  0.67807918  0.12343328  1
  Pr3+  Pr63  1  0.99855630  0.99030682  0.87367329  1
  Pr3+  Pr64  1  0.83279154  0.82004171  0.37290381  1
  Pr3+  Pr65  1  0.49706992  0.15387091  0.87441241  1
  Pr3+  Pr66  1  0.50170831  0.84509629  0.12564489  1
  Pr3+  Pr67  1  1.00805257  0.65313770  0.37584391  1
  Pr3+  Pr68  1  0.66777782  0.98598512  0.37761465  1
  Pr3+  Pr69  1  0.49337592  0.15357882  0.37561897  1
  Pr3+  Pr70  1  0.33007888  0.34463081  0.62287888  1
  Pr3+  Pr71  1  0.67459778  0.98638241  0.87326827  1
  Mn3.30+  Mn72  1  0.16688693  0.00098861  -0.00032228  1
  Mn3.30+  Mn73  1  0.16917129  0.00075047  0.50206617  1
  Mn3.30+  Mn74  1  0.16513682  0.33357169  0.00140588  1
  Mn3.30+  Mn75  1  0.16776413  0.33374598  0.49813129  1
  Mn3.30+  Mn76  1  0.16569934  0.66689724  0.00021224  1
  Mn3.30+  Mn77  1  0.16570056  0.66789906  0.50137697  1
  Mn3.30+  Mn78  1  0.50127515  -0.00022032  -0.00034043  1
  Mn3.30+  Mn79  1  0.49852131  0.00020323  0.50259749  1
  Mn3.30+  Mn80  1  0.49976558  0.33353031  0.00052790  1
  Mn3.30+  Mn81  1  0.49698222  0.33400967  0.49955046  1
  Mn3.30+  Mn82  1  0.49985538  0.66613762  0.00107263  1
  Mn3.30+  Mn83  1  0.49959100  0.66609166  0.49938899  1
  Mn3.30+  Mn84  1  0.83377993  -0.00070708  -0.00026126  1
  Mn3.30+  Mn85  1  0.83361245  -0.00188991  0.50129022  1
  Mn3.30+  Mn86  1  0.83404859  0.33375995  0.00052549  1
  Mn3.30+  Mn87  1  0.83274105  0.33237297  0.50011660  1
  Mn3.30+  Mn88  1  0.83394042  0.66703557  0.00170390  1
  Mn3.30+  Mn89  1  0.83600825  0.66619815  0.49870005  1
  Mn3.30+  Mn90  1  0.00307951  0.16602373  0.24861972  1
  Mn3.30+  Mn91  1  -0.00144821  0.16801791  0.75028615  1
  Mn3.30+  Mn92  1  0.00233647  0.50113783  0.24842388  1
  Mn3.30+  Mn93  1  -0.00009218  0.50012677  0.75002245  1
  Mn3.30+  Mn94  1  0.00275921  0.83312662  0.24708963  1
  Mn3.30+  Mn95  1  -0.00073165  0.83284138  0.75176111  1
  Mn3.30+  Mn96  1  0.33048466  0.16702025  0.24939119  1
  Mn3.30+  Mn97  1  0.33140189  0.16637867  0.74865959  1
  Mn3.30+  Mn98  1  0.32805819  0.49941315  0.25289296  1
  Mn3.30+  Mn99  1  0.33398997  0.49878883  0.74789329  1
  Mn3.30+  Mn100  1  0.32965415  0.83380130  0.25126835  1
  Mn3.30+  Mn101  1  0.33473120  0.83405790  0.74816973  1
  Mn3.30+  Mn102  1  0.66656383  0.16520047  0.25075545  1
  Mn3.30+  Mn103  1  0.66729998  0.16562685  0.74937898  1
  Mn3.30+  Mn104  1  0.66616939  0.50033766  0.24955506  1
  Mn3.30+  Mn105  1  0.66659736  0.50030455  0.74981325  1
  Mn3.30+  Mn106  1  0.66914950  0.83263257  0.24877564  1
  Mn3.30+  Mn107  1  0.66975204  0.83380654  0.74982085  1
  Mn3.30+  Mn108  1  0.16796569  -0.00108594  0.24985733  1
  Mn3.30+  Mn109  1  0.16800465  0.00255696  0.74878384  1
  Mn3.30+  Mn110  1  0.16744440  0.33451336  0.25160474  1
  Mn3.30+  Mn111  1  0.16542691  0.33301861  0.74869974  1
  Mn3.30+  Mn112  1  0.16600490  0.66690043  0.25047785  1
  Mn3.30+  Mn113  1  0.16486018  0.66755390  0.74854653  1
  Mn3.30+  Mn114  1  0.49853753  -0.00065902  0.24932196  1
  Mn3.30+  Mn115  1  0.50145382  0.00043514  0.74914318  1
  Mn3.30+  Mn116  1  0.49613883  0.33297046  0.25074907  1
  Mn3.30+  Mn117  1  0.50049165  0.33430236  0.74990852  1
  Mn3.30+  Mn118  1  0.49825125  0.66722831  0.25011779  1
  Mn3.30+  Mn119  1  0.50114634  0.66508728  0.74953490  1
  Mn3.30+  Mn120  1  0.83466983  -0.00255283  0.24910493  1
  Mn3.30+  Mn121  1  0.83279286  0.00042119  0.74992191  1
  Mn3.30+  Mn122  1  0.83438750  0.33361067  0.24876896  1
  Mn3.30+  Mn123  1  0.83241018  0.33227369  0.74994275  1
  Mn3.30+  Mn124  1  0.83686214  0.66632674  0.24888421  1
  Mn3.30+  Mn125  1  0.83360320  0.66700885  0.75004239  1
  Mn3.30+  Mn126  1  0.00023843  0.16785673  -0.00039858  1
  Mn3.30+  Mn127  1  0.00117705  0.16634004  0.50083366  1
  Mn3.30+  Mn128  1  0.00067531  0.50048793  0.00199698  1
  Mn3.30+  Mn129  1  0.00123953  0.50028355  0.49858713  1
  Mn3.30+  Mn130  1  -0.00095533  0.83460841  -0.00065368  1
  Mn3.30+  Mn131  1  0.00235735  0.83124931  0.50084706  1
  Mn3.30+  Mn132  1  0.33049868  0.16644856  0.00042849  1
  Mn3.30+  Mn133  1  0.33141334  0.16689879  0.50143675  1
  Mn3.30+  Mn134  1  0.33074274  0.49905810  0.00041131  1
  Mn3.30+  Mn135  1  0.33127450  0.49912357  0.49942264  1
  Mn3.30+  Mn136  1  0.33178234  0.83393788  -0.00033280  1
  Mn3.30+  Mn137  1  0.33321938  0.83429474  0.50158301  1
  Mn3.30+  Mn138  1  0.66856104  0.16584944  0.00014313  1
  Mn3.30+  Mn139  1  0.66534464  0.16521798  0.50068048  1
  Mn3.30+  Mn140  1  0.66820860  0.50047686  0.00222869  1
  Mn3.30+  Mn141  1  0.66478779  0.50037896  0.49855769  1
  Mn3.30+  Mn142  1  0.67145713  0.83321822  0.00102874  1
  Mn3.30+  Mn143  1  0.66788285  0.83297188  0.50006443  1
  O2-  O144  1  0.02775556  0.15821436  0.12664127  1
  O2-  O145  1  0.02576877  0.16220457  0.62304479  1
  O2-  O146  1  0.02865007  0.49744123  0.12780587  1
  O2-  O147  1  0.02212878  0.49227225  0.62170028  1
  O2-  O148  1  0.03045137  0.82935124  0.12298277  1
  O2-  O149  1  0.02573509  0.82731650  0.62824257  1
  O2-  O150  1  0.35743255  0.16663313  0.12407900  1
  O2-  O151  1  0.36004175  0.16430026  0.62607249  1
  O2-  O152  1  0.35643029  0.49493055  0.12750699  1
  O2-  O153  1  0.36143129  0.49351097  0.62361491  1
  O2-  O154  1  0.35708126  0.82918011  0.12295208  1
  O2-  O155  1  0.36211103  0.82466350  0.62595018  1
  O2-  O156  1  0.69300250  0.15925722  0.12787511  1
  O2-  O157  1  0.68283536  0.16183351  0.62424254  1
  O2-  O158  1  0.69337315  0.49349331  0.12806155  1
  O2-  O159  1  0.69257063  0.49602484  0.62047739  1
  O2-  O160  1  0.69655044  0.82867996  0.12640126  1
  O2-  O161  1  0.69338257  0.82465714  0.62377784  1
  O2-  O162  1  0.14453341  0.32347749  0.12796704  1
  O2-  O163  1  0.14311378  0.32734542  0.62236849  1
  O2-  O164  1  0.14379244  0.65841235  0.12506825  1
  O2-  O165  1  0.13829079  0.66097036  0.62471580  1
  O2-  O166  1  0.14366467  0.99131888  0.12272681  1
  O2-  O167  1  0.14028089  0.99284710  0.62536163  1
  O2-  O168  1  0.47137337  0.32717067  0.12388643  1
  O2-  O169  1  0.47424858  0.32521780  0.62330247  1
  O2-  O170  1  0.47097313  0.66272805  0.12631081  1
  O2-  O171  1  0.47768755  0.66076859  0.62478222  1
  O2-  O172  1  0.48027122  0.99401145  0.12296456  1
  O2-  O173  1  0.47225363  0.99582043  0.62621732  1
  O2-  O174  1  0.80724503  0.32355896  0.12701309  1
  O2-  O175  1  0.80679649  0.33211513  0.62159568  1
  O2-  O176  1  0.81163255  0.65842852  0.12754201  1
  O2-  O177  1  0.80873985  0.66164006  0.62065604  1
  O2-  O178  1  0.80842004  0.99359739  0.12518048  1
  O2-  O179  1  0.80757795  0.99031350  0.62373321  1
  O2-  O180  1  0.31020714  0.17091980  0.37557628  1
  O2-  O181  1  0.30675924  0.17334463  0.87416261  1
  O2-  O182  1  0.30305038  0.51054030  0.37641715  1
  O2-  O183  1  0.31251340  0.50263588  0.87282688  1
  O2-  O184  1  0.30660665  0.83820571  0.37951257  1
  O2-  O185  1  0.31006444  0.83815258  0.87215290  1
  O2-  O186  1  0.63870792  0.17042175  0.37420877  1
  O2-  O187  1  0.64080470  0.17205376  0.87441278  1
  O2-  O188  1  0.63773111  0.50616318  0.37350185  1
  O2-  O189  1  0.64239984  0.49925040  0.87911619  1
  O2-  O190  1  0.64701895  0.83696404  0.37482290  1
  O2-  O191  1  0.64220746  0.83894636  0.87464321  1
  O2-  O192  1  0.97596820  0.17081202  0.37380298  1
  O2-  O193  1  0.97501055  0.16892397  0.87660779  1
  O2-  O194  1  0.97416295  0.50466182  0.37441127  1
  O2-  O195  1  0.98147886  0.50449479  0.87503184  1
  O2-  O196  1  0.97600827  0.83673047  0.37271334  1
  O2-  O197  1  0.97062294  0.84136064  0.87520199  1
  O2-  O198  1  0.19316293  0.00811635  0.37934458  1
  O2-  O199  1  0.19274094  0.00915638  0.87226506  1
  O2-  O200  1  0.19218947  0.34153934  0.37517072  1
  O2-  O201  1  0.18862613  0.33327311  0.87409054  1
  O2-  O202  1  0.18999503  0.67801035  0.37713897  1
  O2-  O203  1  0.19272368  0.67410743  0.87351091  1
  O2-  O204  1  0.52316030  0.00508941  0.37517866  1
  O2-  O205  1  0.52841517  0.00498809  0.87580436  1
  O2-  O206  1  0.52490612  0.33824784  0.37599063  1
  O2-  O207  1  0.52866982  0.34047617  0.87771696  1
  O2-  O208  1  0.52358110  0.66810859  0.37285987  1
  O2-  O209  1  0.52018298  0.66935061  0.87588268  1
  O2-  O210  1  0.86007742  0.00267256  0.37507695  1
  O2-  O211  1  0.85519870  0.01138517  0.87628075  1
  O2-  O212  1  0.85809183  0.33879083  0.37302256  1
  O2-  O213  1  0.84894725  0.33746540  0.87813690  1
  O2-  O214  1  0.86285647  0.67248497  0.37367944  1
  O2-  O215  1  0.85599300  0.67105367  0.87743044  1
  O2-  O216  1  0.23479939  0.09891476  0.01680067  1
  O2-  O217  1  0.23614956  0.09886185  0.52090794  1
  O2-  O218  1  0.23913198  0.42712437  0.02222375  1
  O2-  O219  1  0.23842737  0.42773340  0.52434892  1
  O2-  O220  1  0.23568705  0.76214823  0.01981473  1
  O2-  O221  1  0.24100749  0.76024075  0.52614173  1
  O2-  O222  1  0.57246375  0.09518692  0.02064248  1
  O2-  O223  1  0.56752242  0.09530286  0.51644572  1
  O2-  O224  1  0.57040813  0.42807205  0.02464612  1
  O2-  O225  1  0.56759520  0.42865221  0.52088353  1
  O2-  O226  1  0.57271259  0.76130304  0.02103045  1
  O2-  O227  1  0.57488164  0.76044060  0.52187195  1
  O2-  O228  1  0.90750265  0.09223107  0.02385196  1
  O2-  O229  1  0.90619776  0.08993016  0.51712929  1
  O2-  O230  1  0.90611437  0.42631424  0.02466618  1
  O2-  O231  1  0.90366607  0.42798975  0.51729588  1
  O2-  O232  1  0.90856117  0.76083142  0.02338218  1
  O2-  O233  1  0.90293597  0.76241673  0.51773400  1
  O2-  O234  1  0.26294094  0.26384813  0.23466076  1
  O2-  O235  1  0.26389665  0.26376506  0.73211053  1
  O2-  O236  1  0.26313900  0.59892484  0.23341720  1
  O2-  O237  1  0.26127736  0.59301618  0.72864477  1
  O2-  O238  1  0.26092419  0.92956814  0.23662339  1
  O2-  O239  1  0.26465924  0.92877506  0.72911399  1
  O2-  O240  1  0.59629914  0.25888029  0.22935603  1
  O2-  O241  1  0.59423532  0.26277359  0.73009410  1
  O2-  O242  1  0.59488433  0.59267827  0.22718278  1
  O2-  O243  1  0.59470993  0.59361949  0.73072172  1
  O2-  O244  1  0.59555801  0.92530614  0.23072325  1
  O2-  O245  1  0.59896866  0.92831782  0.72742582  1
  O2-  O246  1  0.93086757  0.25877638  0.22881658  1
  O2-  O247  1  0.92720910  0.26103857  0.73003548  1
  O2-  O248  1  0.93339477  0.59707425  0.23214789  1
  O2-  O249  1  0.92738097  0.59501773  0.72967005  1
  O2-  O250  1  0.93333369  0.92814200  0.23098190  1
  O2-  O251  1  0.92997107  0.92690256  0.72859047  1
  O2-  O252  1  0.09568424  0.24088084  0.27434203  1
  O2-  O253  1  0.09409822  0.23856226  0.76562473  1
  O2-  O254  1  0.09634080  0.57217586  0.27515558  1
  O2-  O255  1  0.09239802  0.57578212  0.76668179  1
  O2-  O256  1  0.09466445  0.90511498  0.27348383  1
  O2-  O257  1  0.09498553  0.90709758  0.77124045  1
  O2-  O258  1  0.42971415  0.23686378  0.26735087  1
  O2-  O259  1  0.42823661  0.23943363  0.77173551  1
  O2-  O260  1  0.42437406  0.56897906  0.27067841  1
  O2-  O261  1  0.42548382  0.57176542  0.77018986  1
  O2-  O262  1  0.42434808  0.90643829  0.26656359  1
  O2-  O263  1  0.43262929  0.90507924  0.77161518  1
  O2-  O264  1  0.75969626  0.23538411  0.27226956  1
  O2-  O265  1  0.75854697  0.23754391  0.77074708  1
  O2-  O266  1  0.75929522  0.57381234  0.27395845  1
  O2-  O267  1  0.76152770  0.57111742  0.76107965  1
  O2-  O268  1  0.76052275  0.90701857  0.27274954  1
  O2-  O269  1  0.76429635  0.90361764  0.77244803  1
  O2-  O270  1  0.07286048  0.07071548  0.47963074  1
  O2-  O271  1  0.07140321  0.07207000  0.97815594  1
  O2-  O272  1  0.07026634  0.40384587  0.48161577  1
  O2-  O273  1  0.07186396  0.40396417  0.98950396  1
  O2-  O274  1  0.07161347  0.73845649  0.48208138  1
  O2-  O275  1  0.07107741  0.74119382  0.97660267  1
  O2-  O276  1  0.40394289  0.07294464  0.47934286  1
  O2-  O277  1  0.40494538  0.07507615  0.97691732  1
  O2-  O278  1  0.40203721  0.40354780  0.47576367  1
  O2-  O279  1  0.40672438  0.40505173  0.97961057  1
  O2-  O280  1  0.40358509  0.73667353  0.48355087  1
  O2-  O281  1  0.40446065  0.73852894  0.97963127  1
  O2-  O282  1  0.74050691  0.07157302  0.47763152  1
  O2-  O283  1  0.73611062  0.06758359  0.98521162  1
  O2-  O284  1  0.73570674  0.40611103  0.47666283  1
  O2-  O285  1  0.73424807  0.40038546  0.98790972  1
  O2-  O286  1  0.74156792  0.73622379  0.47755150  1
  O2-  O287  1  0.73946890  0.73888789  0.98654237  1
  O2-  O288  1  0.09540521  0.24151765  0.47646452  1
  O2-  O289  1  0.09499481  0.23800432  0.98366475  1
  O2-  O290  1  0.09676001  0.57018279  0.47829731  1
  O2-  O291  1  0.09121966  0.57902687  0.98081133  1
  O2-  O292  1  0.09779173  0.90465225  0.48063792  1
  O2-  O293  1  0.09152085  0.90915375  0.97381962  1
  O2-  O294  1  0.42895518  0.23655040  0.48208425  1
  O2-  O295  1  0.42851481  0.23922738  0.97808404  1
  O2-  O296  1  0.42387556  0.57228199  0.47827380  1
  O2-  O297  1  0.42732315  0.57029583  0.98156860  1
  O2-  O298  1  0.42754238  0.90701132  0.48276632  1
  O2-  O299  1  0.43011133  0.90529397  0.97862962  1
  O2-  O300  1  0.75965353  0.23967951  0.47613291  1
  O2-  O301  1  0.76198749  0.23494545  0.98114547  1
  O2-  O302  1  0.76413538  0.57259173  0.47634540  1
  O2-  O303  1  0.75853463  0.57260416  0.98860302  1
  O2-  O304  1  0.76356722  0.90416080  0.47841854  1
  O2-  O305  1  0.76379803  0.90537488  0.97603807  1
  O2-  O306  1  0.07257297  0.06984087  0.27136775  1
  O2-  O307  1  0.07097506  0.07373141  0.77012461  1
  O2-  O308  1  0.06872314  0.40294497  0.26781470  1
  O2-  O309  1  0.07412838  0.40646472  0.75953580  1
  O2-  O310  1  0.06915383  0.73517654  0.26589429  1
  O2-  O311  1  0.07247765  0.74383808  0.77595440  1
  O2-  O312  1  0.40437123  0.07456471  0.27105299  1
  O2-  O313  1  0.40476984  0.07448270  0.77296263  1
  O2-  O314  1  0.39867955  0.40635686  0.27297790  1
  O2-  O315  1  0.40693908  0.40415705  0.77151125  1
  O2-  O316  1  0.39988614  0.73911503  0.26707139  1
  O2-  O317  1  0.40583247  0.73835248  0.77005371  1
  O2-  O318  1  0.73708320  0.07142005  0.27236668  1
  O2-  O319  1  0.73566308  0.07157196  0.76612670  1
  O2-  O320  1  0.73467781  0.40556931  0.27150684  1
  O2-  O321  1  0.73426396  0.40245959  0.76361168  1
  O2-  O322  1  0.74060156  0.73856736  0.27073948  1
  O2-  O323  1  0.73986195  0.73905439  0.76345210  1
  O2-  O324  1  0.23507472  0.09935158  0.23352187  1
  O2-  O325  1  0.23688240  0.09848487  0.72878835  1
  O2-  O326  1  0.23538325  0.42983385  0.22642525  1
  O2-  O327  1  0.24205303  0.42613057  0.72583167  1
  O2-  O328  1  0.23663603  0.76186233  0.22752529  1
  O2-  O329  1  0.23847868  0.76063832  0.72817445  1
  O2-  O330  1  0.57269340  0.09444658  0.22920383  1
  O2-  O331  1  0.56872651  0.09725637  0.73359027  1
  O2-  O332  1  0.56790600  0.42658499  0.22991419  1
  O2-  O333  1  0.57043177  0.42974260  0.72784252  1
  O2-  O334  1  0.57746461  0.76019286  0.22539795  1
  O2-  O335  1  0.57303630  0.76282380  0.73094353  1
  O2-  O336  1  0.90469719  0.09297955  0.23098437  1
  O2-  O337  1  0.90936050  0.08994316  0.72990679  1
  O2-  O338  1  0.90618412  0.43185470  0.22833888  1
  O2-  O339  1  0.90687917  0.42627144  0.72833888  1
  O2-  O340  1  0.90710352  0.76486923  0.22641856  1
  O2-  O341  1  0.90665105  0.75987358  0.73086207  1
  O2-  O342  1  0.26383657  0.26469717  0.01574637  1
  O2-  O343  1  0.26242532  0.26226065  0.51787440  1
  O2-  O344  1  0.26293675  0.59721245  0.01525849  1
  O2-  O345  1  0.25979806  0.59515948  0.52372067  1
  O2-  O346  1  0.26053487  0.92899137  0.00971275  1
  O2-  O347  1  0.26321680  0.93046743  0.52476051  1
  O2-  O348  1  0.59392270  0.26139862  0.02288433  1
  O2-  O349  1  0.59323978  0.26339521  0.51846508  1
  O2-  O350  1  0.59149808  0.59234504  0.02567907  1
  O2-  O351  1  0.59729851  0.59622406  0.51629686  1
  O2-  O352  1  0.59837310  0.92499847  0.02103965  1
  O2-  O353  1  0.59508891  0.93032386  0.52091978  1
  O2-  O354  1  0.92697945  0.25955452  0.02541672  1
  O2-  O355  1  0.92949577  0.26207186  0.51536949  1
  O2-  O356  1  0.92845166  0.59622082  0.01762577  1
  O2-  O357  1  0.92936400  0.59561466  0.52078620  1
  O2-  O358  1  0.93036750  0.93008966  0.01951955  1
  O2-  O359  1  0.93048992  0.92591168  0.52043468  1
