# generated using pymatgen
data_Sr7Ca15Pr50Mn72O216
_symmetry_space_group_name_H-M   'P 1'
_cell_length_a   16.55569929
_cell_length_b   16.59837127
_cell_length_c   15.58633066
_cell_angle_alpha   90.00042107
_cell_angle_beta   90.00269955
_cell_angle_gamma   90.01860956
_symmetry_Int_Tables_number   1
_chemical_formula_structural   Sr7Ca15Pr50Mn72O216
_chemical_formula_sum   'Sr7 Ca15 Pr50 Mn72 O216'
_cell_volume   4283.08670305
_cell_formula_units_Z   1
loop_
 _symmetry_equiv_pos_site_id
 _symmetry_equiv_pos_as_xyz
  1  'x, y, z'
loop_
 _atom_type_symbol
 _atom_type_oxidation_number
  Sr2+  2.0
  Ca2+  2.0
  Pr3+  3.0
  Mn3.30+  3.3
  O2-  -2.0
loop_
 _atom_site_type_symbol
 _atom_site_label
 _atom_site_symmetry_multiplicity
 _atom_site_fract_x
 _atom_site_fract_y
 _atom_site_fract_z
 _atom_site_occupancy
  Sr2+  Sr0  1  0.33538655  0.32330728  0.87670069  1
  Sr2+  Sr1  1  0.66412203  0.34177403  0.62323201  1
  Sr2+  Sr2  1  1.00247816  0.32413784  0.87408038  1
  Sr2+  Sr3  1  -0.00285831  0.34401862  0.62647114  1
  Sr2+  Sr4  1  0.83335382  0.17462286  0.12408909  1
  Sr2+  Sr5  1  0.50293627  0.17563482  0.62517749  1
  Sr2+  Sr6  1  0.66674301  0.00974312  0.12430190  1
  Ca2+  Ca7  1  0.17107921  0.18291309  0.62662738  1
  Ca2+  Ca8  1  0.66592486  0.34327448  0.12676444  1
  Ca2+  Ca9  1  0.33059184  0.01359716  0.12216015  1
  Ca2+  Ca10  1  0.66116002  0.01554429  0.62530215  1
  Ca2+  Ca11  1  -0.00425512  0.68485643  0.12334385  1
  Ca2+  Ca12  1  0.66978785  0.31588316  0.37424900  1
  Ca2+  Ca13  1  0.83735437  0.84731639  0.12384855  1
  Ca2+  Ca14  1  0.83662127  0.51141675  0.62628506  1
  Ca2+  Ca15  1  0.16476060  0.82060307  0.87686901  1
  Ca2+  Ca16  1  0.17035639  0.85065321  0.12169880  1
  Ca2+  Ca17  1  0.17132644  0.84729035  0.62821081  1
  Ca2+  Ca18  1  0.33455685  0.65357453  0.87639750  1
  Ca2+  Ca19  1  0.50694111  0.18026928  0.12405855  1
  Ca2+  Ca20  1  0.83655355  0.51392654  0.12412206  1
  Ca2+  Ca21  1  0.33488467  0.98727095  0.87560585  1
  Pr3+  Pr22  1  -0.00126012  0.67733350  0.62663254  1
  Pr3+  Pr23  1  0.82953932  0.15584029  0.37510450  1
  Pr3+  Pr24  1  1.00557371  0.98688309  0.87654747  1
  Pr3+  Pr25  1  1.00086118  0.31955729  0.37568393  1
  Pr3+  Pr26  1  0.16803169  0.51065345  0.62714521  1
  Pr3+  Pr27  1  0.00228744  0.01239815  0.62660740  1
  Pr3+  Pr28  1  0.83168690  0.82090623  0.37207254  1
  Pr3+  Pr29  1  0.66772025  0.99020155  0.87404337  1
  Pr3+  Pr30  1  0.49786550  0.82219568  0.37302067  1
  Pr3+  Pr31  1  0.33330583  0.34409375  0.12379934  1
  Pr3+  Pr32  1  1.00198641  0.65368860  0.37316350  1
  Pr3+  Pr33  1  0.67006665  0.65245118  0.87662123  1
  Pr3+  Pr34  1  0.83295356  0.17894135  0.62569484  1
  Pr3+  Pr35  1  0.83328261  0.15701203  0.87466770  1
  Pr3+  Pr36  1  0.16145286  0.48685198  0.37417803  1
  Pr3+  Pr37  1  0.32764552  0.68190156  0.12193931  1
  Pr3+  Pr38  1  0.33596381  0.98713447  0.37405410  1
  Pr3+  Pr39  1  0.32824007  0.01607583  0.62716140  1
  Pr3+  Pr40  1  0.16692471  0.51297980  0.12300166  1
  Pr3+  Pr41  1  0.50132798  0.84806307  0.12389757  1
  Pr3+  Pr42  1  0.16282249  0.82166120  0.37412981  1
  Pr3+  Pr43  1  0.50378052  0.51002730  0.12403359  1
  Pr3+  Pr44  1  0.33519555  0.65473606  0.37367137  1
  Pr3+  Pr45  1  0.82740451  0.48437642  0.37467398  1
  Pr3+  Pr46  1  0.33062122  0.34353488  0.62593956  1
  Pr3+  Pr47  1  0.50385324  0.84698711  0.62591663  1
  Pr3+  Pr48  1  0.67041525  0.65408364  0.37310892  1
  Pr3+  Pr49  1  0.16457158  0.48714329  0.87594702  1
  Pr3+  Pr50  1  1.00267150  0.98733230  0.37346513  1
  Pr3+  Pr51  1  0.66913313  0.98988412  0.37580914  1
  Pr3+  Pr52  1  1.00334308  0.65471297  0.87714154  1
  Pr3+  Pr53  1  0.50034842  0.48435672  0.37370690  1
  Pr3+  Pr54  1  0.49752117  0.48537822  0.87633964  1
  Pr3+  Pr55  1  0.66566660  0.67366057  0.62535063  1
  Pr3+  Pr56  1  0.16873090  0.17615752  0.12471714  1
  Pr3+  Pr57  1  0.83624554  0.84597032  0.62665023  1
  Pr3+  Pr58  1  0.66823119  0.31919027  0.87553283  1
  Pr3+  Pr59  1  0.16391664  0.15175067  0.37611730  1
  Pr3+  Pr60  1  0.33604644  0.31870871  0.37322394  1
  Pr3+  Pr61  1  0.49364943  0.82052232  0.87652814  1
  Pr3+  Pr62  1  0.49331181  0.15270258  0.87514835  1
  Pr3+  Pr63  1  0.83195622  0.82071490  0.87814677  1
  Pr3+  Pr64  1  0.83115307  0.48592449  0.87551594  1
  Pr3+  Pr65  1  0.50256600  0.50823828  0.62609832  1
  Pr3+  Pr66  1  -0.00868012  0.34627617  0.12407963  1
  Pr3+  Pr67  1  -0.00390454  0.01033432  0.12357505  1
  Pr3+  Pr68  1  0.66629279  0.67983312  0.12428209  1
  Pr3+  Pr69  1  0.32762007  0.68147284  0.62777291  1
  Pr3+  Pr70  1  0.16575497  0.15542656  0.87364769  1
  Pr3+  Pr71  1  0.50089599  0.15483588  0.37510195  1
  Mn3.30+  Mn72  1  0.17048566  -0.00185465  -0.00078975  1
  Mn3.30+  Mn73  1  0.16759137  -0.00092961  0.50204516  1
  Mn3.30+  Mn74  1  0.16544544  0.33232592  0.00091873  1
  Mn3.30+  Mn75  1  0.16622215  0.33293684  0.50078388  1
  Mn3.30+  Mn76  1  0.16592587  0.67035796  -0.00002117  1
  Mn3.30+  Mn77  1  0.16660948  0.66782052  0.50052193  1
  Mn3.30+  Mn78  1  0.49698366  0.00115707  0.00121101  1
  Mn3.30+  Mn79  1  0.50106864  -0.00048924  0.50055523  1
  Mn3.30+  Mn80  1  0.50208209  0.33103834  0.00268321  1
  Mn3.30+  Mn81  1  0.50161479  0.33148450  0.49837336  1
  Mn3.30+  Mn82  1  0.49803908  0.66644276  -0.00022659  1
  Mn3.30+  Mn83  1  0.49927855  0.66593725  0.50010821  1
  Mn3.30+  Mn84  1  0.83415919  -0.00045870  -0.00067017  1
  Mn3.30+  Mn85  1  0.83302254  0.00003531  0.50273858  1
  Mn3.30+  Mn86  1  0.83133491  0.33301960  0.00165225  1
  Mn3.30+  Mn87  1  0.83184442  0.33438267  0.50110922  1
  Mn3.30+  Mn88  1  0.83606195  0.66653614  0.00283242  1
  Mn3.30+  Mn89  1  0.83387402  0.66552182  0.50027099  1
  Mn3.30+  Mn90  1  -0.00083667  0.16595498  0.25019151  1
  Mn3.30+  Mn91  1  0.00174411  0.16737853  0.74870110  1
  Mn3.30+  Mn92  1  -0.00382259  0.50131277  0.24852619  1
  Mn3.30+  Mn93  1  -0.00074942  0.50032300  0.74971964  1
  Mn3.30+  Mn94  1  -0.00005708  0.83262550  0.24610453  1
  Mn3.30+  Mn95  1  0.00433292  0.83323596  0.75049771  1
  Mn3.30+  Mn96  1  0.33583685  0.16443953  0.24670222  1
  Mn3.30+  Mn97  1  0.33173397  0.16724502  0.75090253  1
  Mn3.30+  Mn98  1  0.33268229  0.50026757  0.24909503  1
  Mn3.30+  Mn99  1  0.33462109  0.50105095  0.75137527  1
  Mn3.30+  Mn100  1  0.33056681  0.83498359  0.24710137  1
  Mn3.30+  Mn101  1  0.33102729  0.83417524  0.75344667  1
  Mn3.30+  Mn102  1  0.66570714  0.16759143  0.24702010  1
  Mn3.30+  Mn103  1  0.66425903  0.16529154  0.75058118  1
  Mn3.30+  Mn104  1  0.66896060  0.49706083  0.24750351  1
  Mn3.30+  Mn105  1  0.66785187  0.49853735  0.74874362  1
  Mn3.30+  Mn106  1  0.66741354  0.83440840  0.24796380  1
  Mn3.30+  Mn107  1  0.66632124  0.83311336  0.74998599  1
  Mn3.30+  Mn108  1  0.16864793  -0.00159117  0.24707790  1
  Mn3.30+  Mn109  1  0.16944890  -0.00156316  0.75179282  1
  Mn3.30+  Mn110  1  0.16525198  0.33258933  0.24889168  1
  Mn3.30+  Mn111  1  0.16654581  0.33268834  0.74961933  1
  Mn3.30+  Mn112  1  0.16445634  0.66903181  0.24600801  1
  Mn3.30+  Mn113  1  0.16814738  0.66938213  0.75355915  1
  Mn3.30+  Mn114  1  0.49941158  0.00216807  0.24712047  1
  Mn3.30+  Mn115  1  0.49886436  -0.00090230  0.75055186  1
  Mn3.30+  Mn116  1  0.50362164  0.33081645  0.24947532  1
  Mn3.30+  Mn117  1  0.49998227  0.33141413  0.74960149  1
  Mn3.30+  Mn118  1  0.49978149  0.66625430  0.24849143  1
  Mn3.30+  Mn119  1  0.49748973  0.66611410  0.75126252  1
  Mn3.30+  Mn120  1  0.83384852  -0.00054019  0.24910694  1
  Mn3.30+  Mn121  1  0.83322200  0.00000652  0.74909465  1
  Mn3.30+  Mn122  1  0.82950711  0.33297596  0.24802605  1
  Mn3.30+  Mn123  1  0.83331145  0.33442940  0.74934982  1
  Mn3.30+  Mn124  1  0.83602303  0.66625089  0.24657082  1
  Mn3.30+  Mn125  1  0.83387235  0.66567262  0.75043702  1
  Mn3.30+  Mn126  1  0.00047811  0.16683501  -0.00121204  1
  Mn3.30+  Mn127  1  0.00065881  0.16656315  0.50252113  1
  Mn3.30+  Mn128  1  -0.00166962  0.50177316  0.00186553  1
  Mn3.30+  Mn129  1  -0.00302400  0.49994616  0.50066082  1
  Mn3.30+  Mn130  1  0.00254496  0.83282240  0.00129084  1
  Mn3.30+  Mn131  1  0.00137289  0.83326338  0.50214874  1
  Mn3.30+  Mn132  1  0.33532572  0.16458011  0.00207979  1
  Mn3.30+  Mn133  1  0.33215450  0.16689077  0.50010961  1
  Mn3.30+  Mn134  1  0.33386665  0.50122379  0.00010567  1
  Mn3.30+  Mn135  1  0.33332685  0.49994123  0.49866478  1
  Mn3.30+  Mn136  1  0.32945022  0.83542860  -0.00201864  1
  Mn3.30+  Mn137  1  0.33220789  0.83378056  0.50143600  1
  Mn3.30+  Mn138  1  0.66410779  0.16654666  0.00217102  1
  Mn3.30+  Mn139  1  0.66586380  0.16635940  0.49997972  1
  Mn3.30+  Mn140  1  0.66896315  0.49794593  0.00344953  1
  Mn3.30+  Mn141  1  0.66784456  0.49786832  0.50010509  1
  Mn3.30+  Mn142  1  0.66628522  0.83447325  0.00026228  1
  Mn3.30+  Mn143  1  0.66744107  0.83311022  0.50114225  1
  O2-  O144  1  0.02342186  0.16063729  0.12538866  1
  O2-  O145  1  0.02814064  0.16033773  0.62464829  1
  O2-  O146  1  0.02406152  0.49228199  0.12606347  1
  O2-  O147  1  0.02382424  0.50349226  0.62421948  1
  O2-  O148  1  0.02815153  0.83135526  0.12391651  1
  O2-  O149  1  0.02908315  0.82574350  0.62702516  1
  O2-  O150  1  0.36332389  0.15801156  0.12610661  1
  O2-  O151  1  0.35328692  0.16387087  0.62391412  1
  O2-  O152  1  0.35801098  0.49606383  0.12562161  1
  O2-  O153  1  0.35812318  0.49416073  0.62308457  1
  O2-  O154  1  0.35921888  0.82611000  0.12401334  1
  O2-  O155  1  0.36017612  0.82699615  0.62746826  1
  O2-  O156  1  0.68612477  0.16147201  0.12411286  1
  O2-  O157  1  0.68861746  0.15980690  0.62684822  1
  O2-  O158  1  0.69524141  0.49019000  0.12628678  1
  O2-  O159  1  0.69272850  0.50047200  0.62368371  1
  O2-  O160  1  0.69307300  0.82866872  0.12469905  1
  O2-  O161  1  0.69339060  0.82113473  0.62643549  1
  O2-  O162  1  0.13787327  0.32615282  0.12671980  1
  O2-  O163  1  0.14872128  0.33167248  0.62394903  1
  O2-  O164  1  0.13736091  0.65822663  0.12452487  1
  O2-  O165  1  0.14217099  0.65778502  0.62752723  1
  O2-  O166  1  0.14001938  0.99701692  0.12413193  1
  O2-  O167  1  0.14417274  0.98979100  0.62700307  1
  O2-  O168  1  0.47603154  0.32894251  0.12713935  1
  O2-  O169  1  0.47552762  0.33510894  0.62130983  1
  O2-  O170  1  0.47269151  0.65934186  0.12526237  1
  O2-  O171  1  0.47210366  0.65833653  0.62619853  1
  O2-  O172  1  0.47153127  0.99272670  0.12497193  1
  O2-  O173  1  0.47330096  0.99397860  0.62503152  1
  O2-  O174  1  0.80789653  0.32765543  0.12551640  1
  O2-  O175  1  0.81263715  0.32630147  0.62505908  1
  O2-  O176  1  0.80775381  0.65798852  0.12469844  1
  O2-  O177  1  0.80943940  0.66026275  0.62624075  1
  O2-  O178  1  0.81746354  0.99303946  0.12191422  1
  O2-  O179  1  0.80406242  0.99267233  0.62609350  1
  O2-  O180  1  0.30677952  0.17067760  0.37359435  1
  O2-  O181  1  0.30887691  0.17182107  0.87676153  1
  O2-  O182  1  0.30557298  0.50600031  0.37292992  1
  O2-  O183  1  0.30930197  0.50507925  0.87807643  1
  O2-  O184  1  0.30685466  0.83840111  0.37267749  1
  O2-  O185  1  0.30515371  0.84478124  0.87595565  1
  O2-  O186  1  0.64543715  0.16760111  0.37191994  1
  O2-  O187  1  0.63927060  0.17011805  0.87723659  1
  O2-  O188  1  0.64230208  0.50934595  0.37299603  1
  O2-  O189  1  0.64170126  0.50556587  0.87683531  1
  O2-  O190  1  0.64232728  0.83856701  0.37452951  1
  O2-  O191  1  0.63957202  0.83878324  0.87383787  1
  O2-  O192  1  0.97557849  0.16881668  0.37709071  1
  O2-  O193  1  0.97878871  0.16590855  0.87259307  1
  O2-  O194  1  0.97282411  0.50630857  0.37352582  1
  O2-  O195  1  0.97578714  0.50617539  0.87680692  1
  O2-  O196  1  0.97535359  0.83842951  0.37488706  1
  O2-  O197  1  0.97480794  0.83730681  0.87443592  1
  O2-  O198  1  0.19172562  0.00382982  0.37419073  1
  O2-  O199  1  0.19486345  0.01054158  0.87517564  1
  O2-  O200  1  0.19098014  0.33939569  0.37287413  1
  O2-  O201  1  0.18526155  0.33815906  0.87578789  1
  O2-  O202  1  0.19208843  0.67435371  0.37178841  1
  O2-  O203  1  0.19376416  0.67499462  0.87628749  1
  O2-  O204  1  0.52414177  0.00197915  0.37424391  1
  O2-  O205  1  0.52337710  0.00206578  0.87587482  1
  O2-  O206  1  0.52660695  0.33693166  0.37307549  1
  O2-  O207  1  0.52341414  0.33763737  0.87790427  1
  O2-  O208  1  0.52556291  0.67394750  0.37298522  1
  O2-  O209  1  0.52647512  0.67236091  0.87535757  1
  O2-  O210  1  0.85895656  0.00559009  0.37896495  1
  O2-  O211  1  0.86011256  0.00592069  0.87260429  1
  O2-  O212  1  0.85797754  0.33700257  0.37530118  1
  O2-  O213  1  0.85279552  0.33765284  0.87491136  1
  O2-  O214  1  0.85834054  0.67368491  0.37220467  1
  O2-  O215  1  0.85824305  0.67276832  0.87719363  1
  O2-  O216  1  0.23788599  0.09573332  0.02079609  1
  O2-  O217  1  0.23608312  0.09640922  0.51975084  1
  O2-  O218  1  0.23966097  0.42596516  0.02154694  1
  O2-  O219  1  0.23889031  0.42969327  0.51901934  1
  O2-  O220  1  0.23666125  0.76317300  0.02469319  1
  O2-  O221  1  0.23713610  0.76340245  0.52136784  1
  O2-  O222  1  0.56651715  0.09681397  0.01584332  1
  O2-  O223  1  0.57308052  0.09088297  0.51277280  1
  O2-  O224  1  0.57179338  0.42916310  0.01845019  1
  O2-  O225  1  0.56926750  0.43201955  0.51481878  1
  O2-  O226  1  0.57037118  0.75941892  0.02129156  1
  O2-  O227  1  0.57111926  0.75923683  0.52074521  1
  O2-  O228  1  0.90978071  0.09133149  0.01496714  1
  O2-  O229  1  0.90586168  0.09288803  0.52462776  1
  O2-  O230  1  0.90285930  0.42965877  0.02035305  1
  O2-  O231  1  0.89964793  0.43144167  0.51679988  1
  O2-  O232  1  0.90201500  0.76449327  0.01932693  1
  O2-  O233  1  0.90555532  0.76212674  0.52115749  1
  O2-  O234  1  0.26460980  0.25831822  0.22775895  1
  O2-  O235  1  0.26120685  0.26200583  0.73120658  1
  O2-  O236  1  0.25892343  0.59778145  0.22840978  1
  O2-  O237  1  0.26026703  0.59368979  0.72958597  1
  O2-  O238  1  0.26458898  0.93189168  0.23021839  1
  O2-  O239  1  0.26438439  0.92964656  0.72951664  1
  O2-  O240  1  0.59677762  0.26293983  0.23001550  1
  O2-  O241  1  0.59380539  0.26050526  0.73725701  1
  O2-  O242  1  0.59738525  0.59228478  0.22691509  1
  O2-  O243  1  0.59544616  0.59255347  0.73013927  1
  O2-  O244  1  0.59004537  0.92671456  0.23213610  1
  O2-  O245  1  0.59743442  0.92587642  0.72749112  1
  O2-  O246  1  0.92915996  0.26544208  0.23543494  1
  O2-  O247  1  0.92241694  0.25571915  0.73228293  1
  O2-  O248  1  0.93237892  0.60021009  0.23043240  1
  O2-  O249  1  0.92993544  0.59713699  0.73416497  1
  O2-  O250  1  0.93141175  0.92812914  0.23392088  1
  O2-  O251  1  0.93079076  0.92605515  0.72837389  1
  O2-  O252  1  0.09383780  0.23724418  0.27203787  1
  O2-  O253  1  0.09583050  0.23800930  0.76637583  1
  O2-  O254  1  0.09545190  0.57217155  0.27106220  1
  O2-  O255  1  0.09664270  0.57451232  0.77311047  1
  O2-  O256  1  0.09446954  0.90643396  0.27129945  1
  O2-  O257  1  0.09632284  0.90589118  0.77539001  1
  O2-  O258  1  0.42775176  0.23973307  0.27266203  1
  O2-  O259  1  0.42698202  0.23771879  0.76724281  1
  O2-  O260  1  0.42772860  0.57253111  0.27189639  1
  O2-  O261  1  0.42954527  0.57086987  0.77017244  1
  O2-  O262  1  0.42702249  0.90481408  0.27052066  1
  O2-  O263  1  0.43101315  0.90124380  0.76749956  1
  O2-  O264  1  0.76228178  0.23774708  0.27067008  1
  O2-  O265  1  0.75866102  0.23866470  0.76975048  1
  O2-  O266  1  0.76176471  0.57285311  0.27064208  1
  O2-  O267  1  0.75949388  0.57300072  0.77341580  1
  O2-  O268  1  0.76016623  0.90837919  0.27295010  1
  O2-  O269  1  0.76274034  0.90473606  0.77214447  1
  O2-  O270  1  0.07120761  0.07065645  0.48024025  1
  O2-  O271  1  0.07619930  0.07076223  0.98047787  1
  O2-  O272  1  0.07151633  0.40753399  0.47827972  1
  O2-  O273  1  0.07285083  0.41063243  0.98497756  1
  O2-  O274  1  0.07189012  0.73748088  0.47895979  1
  O2-  O275  1  0.07076474  0.73889269  0.97936322  1
  O2-  O276  1  0.40383806  0.07276418  0.47991966  1
  O2-  O277  1  0.40388381  0.07053737  0.97491205  1
  O2-  O278  1  0.40558728  0.40471920  0.47619078  1
  O2-  O279  1  0.41004704  0.40634929  0.98632045  1
  O2-  O280  1  0.40364281  0.73879670  0.47935630  1
  O2-  O281  1  0.39892431  0.74043248  0.97821770  1
  O2-  O282  1  0.74181552  0.07298376  0.47928097  1
  O2-  O283  1  0.74028755  0.07491706  0.97697031  1
  O2-  O284  1  0.73623818  0.40502642  0.47553070  1
  O2-  O285  1  0.73894592  0.40627999  0.97675603  1
  O2-  O286  1  0.73936146  0.73847415  0.47911011  1
  O2-  O287  1  0.73825787  0.73760634  0.98034398  1
  O2-  O288  1  0.09365932  0.23960841  0.47735932  1
  O2-  O289  1  0.09681206  0.23599278  0.98375901  1
  O2-  O290  1  0.09559068  0.57259348  0.47841720  1
  O2-  O291  1  0.09689077  0.57364144  0.97839505  1
  O2-  O292  1  0.09355981  0.90653805  0.47793825  1
  O2-  O293  1  0.09699952  0.90688542  0.97639528  1
  O2-  O294  1  0.42495753  0.23947755  0.47585359  1
  O2-  O295  1  0.42998679  0.23675707  0.98444843  1
  O2-  O296  1  0.42757404  0.57169076  0.47643543  1
  O2-  O297  1  0.43017900  0.57199728  0.98118006  1
  O2-  O298  1  0.42968794  0.90379901  0.47948934  1
  O2-  O299  1  0.42864378  0.90183936  0.98273682  1
  O2-  O300  1  0.76315531  0.23714839  0.48429565  1
  O2-  O301  1  0.75959434  0.23905110  0.97646819  1
  O2-  O302  1  0.75921425  0.57363402  0.47691694  1
  O2-  O303  1  0.76216327  0.57287962  0.97915423  1
  O2-  O304  1  0.76374282  0.90512603  0.47904707  1
  O2-  O305  1  0.75947664  0.90901490  0.97541717  1
  O2-  O306  1  0.07494260  0.07077705  0.27015746  1
  O2-  O307  1  0.07369937  0.06926316  0.76899993  1
  O2-  O308  1  0.06708363  0.40757250  0.27083328  1
  O2-  O309  1  0.07738835  0.41133008  0.76615211  1
  O2-  O310  1  0.07126070  0.74035651  0.27227909  1
  O2-  O311  1  0.07009141  0.73660384  0.76958078  1
  O2-  O312  1  0.40681871  0.07331824  0.27591927  1
  O2-  O313  1  0.40207649  0.07134167  0.76921940  1
  O2-  O314  1  0.40702978  0.40362220  0.26951577  1
  O2-  O315  1  0.40878703  0.40786656  0.76734123  1
  O2-  O316  1  0.40243247  0.74074756  0.26960592  1
  O2-  O317  1  0.40084459  0.73901157  0.77360602  1
  O2-  O318  1  0.74037622  0.07338771  0.27057755  1
  O2-  O319  1  0.74056303  0.07557812  0.77345245  1
  O2-  O320  1  0.73704046  0.40388407  0.27562485  1
  O2-  O321  1  0.73812270  0.40682677  0.77212853  1
  O2-  O322  1  0.73967017  0.73739228  0.26894622  1
  O2-  O323  1  0.73819897  0.73888057  0.77220054  1
  O2-  O324  1  0.23758017  0.09537266  0.23192131  1
  O2-  O325  1  0.23645395  0.09639580  0.72860191  1
  O2-  O326  1  0.23789844  0.42775610  0.22766280  1
  O2-  O327  1  0.24177655  0.42823964  0.73125426  1
  O2-  O328  1  0.23581005  0.76423755  0.22616433  1
  O2-  O329  1  0.23845325  0.76195685  0.72661554  1
  O2-  O330  1  0.56811564  0.09779056  0.23411395  1
  O2-  O331  1  0.57236795  0.09105925  0.73710084  1
  O2-  O332  1  0.56946480  0.43021757  0.23219723  1
  O2-  O333  1  0.57176996  0.42962835  0.73415144  1
  O2-  O334  1  0.57228312  0.76018030  0.22788246  1
  O2-  O335  1  0.57054217  0.75893502  0.72878886  1
  O2-  O336  1  0.90903616  0.09156876  0.23424646  1
  O2-  O337  1  0.90706376  0.09240217  0.72688535  1
  O2-  O338  1  0.90026880  0.43012734  0.22946044  1
  O2-  O339  1  0.90208105  0.43067597  0.73401439  1
  O2-  O340  1  0.90261573  0.76532636  0.22939974  1
  O2-  O341  1  0.90562808  0.76166721  0.72994790  1
  O2-  O342  1  0.26206474  0.25729079  0.02562321  1
  O2-  O343  1  0.26396257  0.26376037  0.51495042  1
  O2-  O344  1  0.25771735  0.59541060  0.02207603  1
  O2-  O345  1  0.26112105  0.59681938  0.51935343  1
  O2-  O346  1  0.26315707  0.93009171  0.02346987  1
  O2-  O347  1  0.26593723  0.93073899  0.51725992  1
  O2-  O348  1  0.59836717  0.26538488  0.01876383  1
  O2-  O349  1  0.59189455  0.25863524  0.51266797  1
  O2-  O350  1  0.59856048  0.59187302  0.02257507  1
  O2-  O351  1  0.59410723  0.59371659  0.51962918  1
  O2-  O352  1  0.58995108  0.92694934  0.01754086  1
  O2-  O353  1  0.59742115  0.92582052  0.52231143  1
  O2-  O354  1  0.92684087  0.26281408  0.01677485  1
  O2-  O355  1  0.92680095  0.25866230  0.51624587  1
  O2-  O356  1  0.93221547  0.59930844  0.01927551  1
  O2-  O357  1  0.92973109  0.59831712  0.51609665  1
  O2-  O358  1  0.93240038  0.92740303  0.01452250  1
  O2-  O359  1  0.92810604  0.92803562  0.52366188  1
