# generated using pymatgen
data_Sr7Ca15Pr50Mn72O216
_symmetry_space_group_name_H-M   'P 1'
_cell_length_a   16.55952775
_cell_length_b   16.60443269
_cell_length_c   15.59317054
_cell_angle_alpha   89.99432268
_cell_angle_beta   89.99769778
_cell_angle_gamma   89.99301199
_symmetry_Int_Tables_number   1
_chemical_formula_structural   Sr7Ca15Pr50Mn72O216
_chemical_formula_sum   'Sr7 Ca15 Pr50 Mn72 O216'
_cell_volume   4287.52250190
_cell_formula_units_Z   1
loop_
 _symmetry_equiv_pos_site_id
 _symmetry_equiv_pos_as_xyz
  1  'x, y, z'
loop_
 _atom_type_symbol
 _atom_type_oxidation_number
  Sr2+  2.0
  Ca2+  2.0
  Pr3+  3.0
  Mn3.30+  3.3
  O2-  -2.0
loop_
 _atom_site_type_symbol
 _atom_site_label
 _atom_site_symmetry_multiplicity
 _atom_site_fract_x
 _atom_site_fract_y
 _atom_site_fract_z
 _atom_site_occupancy
  Sr2+  Sr0  1  0.50192466  0.84318604  0.12728730  1
  Sr2+  Sr1  1  0.66500823  0.34392954  0.12506052  1
  Sr2+  Sr2  1  0.16691620  0.82526608  0.37559881  1
  Sr2+  Sr3  1  0.83696210  0.17443487  0.62368376  1
  Sr2+  Sr4  1  0.83059681  0.82595831  0.87338260  1
  Sr2+  Sr5  1  0.33592499  0.32236049  0.37740116  1
  Sr2+  Sr6  1  -0.00276639  0.00945176  0.62443120  1
  Ca2+  Ca7  1  0.33986481  0.98602911  0.37626167  1
  Ca2+  Ca8  1  0.33106668  0.34537052  0.62201504  1
  Ca2+  Ca9  1  0.99952820  0.98607417  0.87108354  1
  Ca2+  Ca10  1  0.83361367  0.84794523  0.12340156  1
  Ca2+  Ca11  1  0.32936074  0.01462610  0.62014920  1
  Ca2+  Ca12  1  0.67200986  0.65533051  0.87645626  1
  Ca2+  Ca13  1  0.49133286  0.15052956  0.37631558  1
  Ca2+  Ca14  1  0.49110022  0.81836627  0.37425241  1
  Ca2+  Ca15  1  0.83644162  0.84994755  0.62654714  1
  Ca2+  Ca16  1  0.67211340  0.98385916  0.87457305  1
  Ca2+  Ca17  1  0.50078740  0.17831384  0.62137774  1
  Ca2+  Ca18  1  0.16428682  0.48230598  0.37514778  1
  Ca2+  Ca19  1  1.00640157  0.31976312  0.37475681  1
  Ca2+  Ca20  1  -0.00377087  0.34828870  0.12846343  1
  Ca2+  Ca21  1  0.33474330  0.65407928  0.37551369  1
  Pr3+  Pr22  1  0.17073833  0.50979454  0.62231577  1
  Pr3+  Pr23  1  0.66503470  0.01343962  0.62712597  1
  Pr3+  Pr24  1  0.66512904  0.34341147  0.62461755  1
  Pr3+  Pr25  1  0.16811552  0.51220174  0.12760552  1
  Pr3+  Pr26  1  0.66451337  0.68097981  0.62543102  1
  Pr3+  Pr27  1  0.33711560  0.31985567  0.87304317  1
  Pr3+  Pr28  1  1.00742824  0.65278309  0.37468995  1
  Pr3+  Pr29  1  0.33165948  0.34620679  0.12696557  1
  Pr3+  Pr30  1  0.66390832  0.98955599  0.37637035  1
  Pr3+  Pr31  1  0.50319839  0.82144511  0.87491280  1
  Pr3+  Pr32  1  0.82937133  0.48966236  0.87568121  1
  Pr3+  Pr33  1  0.16736980  0.15698554  0.37588362  1
  Pr3+  Pr34  1  0.16928627  0.18038514  0.12568257  1
  Pr3+  Pr35  1  0.83366346  0.15552424  0.37659144  1
  Pr3+  Pr36  1  0.33208032  0.01156036  0.12668300  1
  Pr3+  Pr37  1  -0.00464774  0.68321649  0.12597561  1
  Pr3+  Pr38  1  0.49898739  0.51036206  0.62260202  1
  Pr3+  Pr39  1  0.83614837  0.51346103  0.12591931  1
  Pr3+  Pr40  1  0.66603932  0.31868483  0.37430169  1
  Pr3+  Pr41  1  0.16350812  0.48675951  0.87490246  1
  Pr3+  Pr42  1  0.66636437  0.65614941  0.37494341  1
  Pr3+  Pr43  1  0.15984656  0.82248216  0.87368967  1
  Pr3+  Pr44  1  -0.00464494  0.68195638  0.62415792  1
  Pr3+  Pr45  1  0.32931235  0.67971822  0.62221482  1
  Pr3+  Pr46  1  0.17044010  0.84701729  0.12624068  1
  Pr3+  Pr47  1  0.83671748  0.18104398  0.12610508  1
  Pr3+  Pr48  1  0.82938773  0.14998840  0.87403550  1
  Pr3+  Pr49  1  0.83203569  0.48584340  0.37518463  1
  Pr3+  Pr50  1  0.33188304  0.68113412  0.12749091  1
  Pr3+  Pr51  1  0.83153758  0.82451682  0.37649020  1
  Pr3+  Pr52  1  0.33594202  0.98664857  0.87229313  1
  Pr3+  Pr53  1  0.17085203  0.85099040  0.62279418  1
  Pr3+  Pr54  1  1.00052326  0.65578810  0.87513018  1
  Pr3+  Pr55  1  0.33582018  0.65529490  0.87459264  1
  Pr3+  Pr56  1  0.67109232  0.32020828  0.87550926  1
  Pr3+  Pr57  1  1.00301724  0.98858346  0.37775859  1
  Pr3+  Pr58  1  0.50081741  0.84767138  0.62226891  1
  Pr3+  Pr59  1  0.66380705  0.68121624  0.12500519  1
  Pr3+  Pr60  1  0.17169097  0.17941024  0.62486614  1
  Pr3+  Pr61  1  0.50062625  0.15252975  0.87360239  1
  Pr3+  Pr62  1  0.49966271  0.48811716  0.87418439  1
  Pr3+  Pr63  1  0.50403638  0.51225266  0.12713125  1
  Pr3+  Pr64  1  -0.00244178  0.34235902  0.62235100  1
  Pr3+  Pr65  1  0.16255988  0.15045202  0.87449492  1
  Pr3+  Pr66  1  0.50397190  0.17730281  0.12691591  1
  Pr3+  Pr67  1  -0.00388386  0.00944981  0.12634409  1
  Pr3+  Pr68  1  0.66323440  0.00787013  0.12290545  1
  Pr3+  Pr69  1  1.00244668  0.31944284  0.87666557  1
  Pr3+  Pr70  1  0.49428640  0.48728955  0.37590501  1
  Pr3+  Pr71  1  0.83728265  0.51171835  0.62466474  1
  Mn3.30+  Mn72  1  0.16427847  -0.00040483  -0.00056901  1
  Mn3.30+  Mn73  1  0.17039048  0.00214956  0.49898425  1
  Mn3.30+  Mn74  1  0.16586067  0.33317243  0.00167889  1
  Mn3.30+  Mn75  1  0.16768987  0.33306347  0.49831756  1
  Mn3.30+  Mn76  1  0.16591137  0.66716181  0.00102929  1
  Mn3.30+  Mn77  1  0.16721752  0.66607294  0.49747385  1
  Mn3.30+  Mn78  1  0.50136205  -0.00187113  -0.00224307  1
  Mn3.30+  Mn79  1  0.49605662  0.00175851  0.50128485  1
  Mn3.30+  Mn80  1  0.50135311  0.33281885  -0.00080908  1
  Mn3.30+  Mn81  1  0.49764781  0.32995863  0.50213554  1
  Mn3.30+  Mn82  1  0.50262179  0.66683136  -0.00163620  1
  Mn3.30+  Mn83  1  0.49706594  0.66778076  0.49905366  1
  Mn3.30+  Mn84  1  0.83222563  -0.00193631  -0.00016866  1
  Mn3.30+  Mn85  1  0.83318979  -0.00016170  0.50026143  1
  Mn3.30+  Mn86  1  0.83575041  0.33421096  0.00251869  1
  Mn3.30+  Mn87  1  0.83464112  0.33180971  0.49771217  1
  Mn3.30+  Mn88  1  0.83158132  0.66988747  0.00010693  1
  Mn3.30+  Mn89  1  0.83408215  0.66814319  0.49955687  1
  Mn3.30+  Mn90  1  0.00105767  0.16897984  0.24924825  1
  Mn3.30+  Mn91  1  -0.00054063  0.16429730  0.75029597  1
  Mn3.30+  Mn92  1  0.00198670  0.49799571  0.25113855  1
  Mn3.30+  Mn93  1  0.00016641  0.49957343  0.74976192  1
  Mn3.30+  Mn94  1  -0.00095626  0.83415894  0.25011627  1
  Mn3.30+  Mn95  1  -0.00275054  0.83520337  0.74944531  1
  Mn3.30+  Mn96  1  0.33548924  0.16606688  0.25212378  1
  Mn3.30+  Mn97  1  0.33517259  0.16606993  0.74728263  1
  Mn3.30+  Mn98  1  0.33215877  0.50091365  0.25237000  1
  Mn3.30+  Mn99  1  0.33281650  0.49896824  0.74920099  1
  Mn3.30+  Mn100  1  0.33474808  0.83436610  0.25265902  1
  Mn3.30+  Mn101  1  0.33314608  0.83442269  0.74878645  1
  Mn3.30+  Mn102  1  0.66503554  0.16509282  0.25214032  1
  Mn3.30+  Mn103  1  0.66572491  0.16619116  0.74787022  1
  Mn3.30+  Mn104  1  0.66670061  0.49927757  0.25119253  1
  Mn3.30+  Mn105  1  0.66679706  0.50136774  0.74909391  1
  Mn3.30+  Mn106  1  0.66450846  0.83394231  0.25284066  1
  Mn3.30+  Mn107  1  0.66877736  0.83444614  0.74807785  1
  Mn3.30+  Mn108  1  0.16761024  0.00119532  0.25230534  1
  Mn3.30+  Mn109  1  0.16701111  0.00095058  0.74835671  1
  Mn3.30+  Mn110  1  0.16477458  0.33395064  0.25075911  1
  Mn3.30+  Mn111  1  0.16839422  0.33250866  0.74976400  1
  Mn3.30+  Mn112  1  0.16787287  0.66625560  0.25292306  1
  Mn3.30+  Mn113  1  0.16554927  0.66683103  0.74832013  1
  Mn3.30+  Mn114  1  0.49791221  -0.00140639  0.25193587  1
  Mn3.30+  Mn115  1  0.49973703  0.00098969  0.74806373  1
  Mn3.30+  Mn116  1  0.49938948  0.33128269  0.25132557  1
  Mn3.30+  Mn117  1  0.49964417  0.33158285  0.74726128  1
  Mn3.30+  Mn118  1  0.49809649  0.66776800  0.25228015  1
  Mn3.30+  Mn119  1  0.50133815  0.66684005  0.74969245  1
  Mn3.30+  Mn120  1  0.83175071  -0.00019086  0.25036494  1
  Mn3.30+  Mn121  1  0.83348548  -0.00142322  0.75029698  1
  Mn3.30+  Mn122  1  0.83620533  0.33363092  0.25088225  1
  Mn3.30+  Mn123  1  0.83448419  0.33223682  0.74987018  1
  Mn3.30+  Mn124  1  0.83412583  0.66901169  0.25159817  1
  Mn3.30+  Mn125  1  0.83124858  0.66883317  0.74979641  1
  Mn3.30+  Mn126  1  -0.00042058  0.16513882  0.00066235  1
  Mn3.30+  Mn127  1  0.00134364  0.16749396  0.49940839  1
  Mn3.30+  Mn128  1  -0.00054458  0.50019728  0.00166371  1
  Mn3.30+  Mn129  1  0.00299947  0.49789001  0.49796746  1
  Mn3.30+  Mn130  1  -0.00294859  0.83543026  -0.00056640  1
  Mn3.30+  Mn131  1  -0.00071811  0.83387942  0.50065163  1
  Mn3.30+  Mn132  1  0.33380780  0.16614699  -0.00103485  1
  Mn3.30+  Mn133  1  0.33658137  0.16627863  0.50153727  1
  Mn3.30+  Mn134  1  0.33393606  0.50050376  0.00026428  1
  Mn3.30+  Mn135  1  0.33148469  0.49912007  0.49810698  1
  Mn3.30+  Mn136  1  0.33322443  0.83392416  -0.00058748  1
  Mn3.30+  Mn137  1  0.33474842  0.83467794  0.49710506  1
  Mn3.30+  Mn138  1  0.66776349  0.16449646  -0.00018697  1
  Mn3.30+  Mn139  1  0.66271170  0.16613161  0.49988398  1
  Mn3.30+  Mn140  1  0.66713880  0.50121447  0.00015121  1
  Mn3.30+  Mn141  1  0.66635757  0.49985799  0.49990414  1
  Mn3.30+  Mn142  1  0.66843364  0.83340581  -0.00023339  1
  Mn3.30+  Mn143  1  0.66456903  0.83448465  0.49929586  1
  O2-  O144  1  0.02644521  0.15462029  0.12371041  1
  O2-  O145  1  0.02509669  0.16726731  0.62678217  1
  O2-  O146  1  0.02475264  0.49521914  0.12563484  1
  O2-  O147  1  0.02636811  0.49187246  0.62342509  1
  O2-  O148  1  0.02594539  0.83143593  0.12555875  1
  O2-  O149  1  0.02539959  0.82892128  0.62347225  1
  O2-  O150  1  0.35928000  0.15978817  0.12349949  1
  O2-  O151  1  0.36000048  0.15629533  0.62668173  1
  O2-  O152  1  0.35931423  0.49511688  0.12454588  1
  O2-  O153  1  0.35421032  0.49480566  0.62649064  1
  O2-  O154  1  0.35229652  0.82992909  0.12589665  1
  O2-  O155  1  0.35783270  0.82530556  0.62467057  1
  O2-  O156  1  0.69205620  0.15704231  0.12668187  1
  O2-  O157  1  0.68860525  0.16374346  0.62484564  1
  O2-  O158  1  0.69195340  0.49837149  0.12873599  1
  O2-  O159  1  0.69365989  0.49277101  0.62398550  1
  O2-  O160  1  0.69088094  0.82858132  0.12979953  1
  O2-  O161  1  0.69363641  0.82772054  0.62273392  1
  O2-  O162  1  0.13954423  0.32860983  0.12380238  1
  O2-  O163  1  0.14139588  0.32950053  0.62591196  1
  O2-  O164  1  0.14051921  0.66025551  0.12615819  1
  O2-  O165  1  0.13984935  0.65704787  0.62310875  1
  O2-  O166  1  0.14122628  0.99621019  0.12504740  1
  O2-  O167  1  0.14737419  1.00039271  0.62448542  1
  O2-  O168  1  0.47606210  0.32683677  0.12346716  1
  O2-  O169  1  0.47304660  0.32650305  0.62622856  1
  O2-  O170  1  0.47602624  0.66054540  0.12690661  1
  O2-  O171  1  0.47310894  0.66095484  0.62538662  1
  O2-  O172  1  0.47550633  0.99795676  0.12277570  1
  O2-  O173  1  0.46971029  0.99212203  0.62535811  1
  O2-  O174  1  0.81260351  0.32969482  0.12641052  1
  O2-  O175  1  0.80992655  0.33194900  0.62233022  1
  O2-  O176  1  0.80780749  0.65978954  0.12856169  1
  O2-  O177  1  0.80801994  0.65712314  0.62345204  1
  O2-  O178  1  0.80796239  0.99664263  0.12775118  1
  O2-  O179  1  0.81043585  0.99761725  0.62245743  1
  O2-  O180  1  0.31013867  0.17126944  0.37508119  1
  O2-  O181  1  0.30690569  0.17295286  0.87458975  1
  O2-  O182  1  0.30769452  0.50686160  0.37352980  1
  O2-  O183  1  0.30775610  0.50661871  0.87553881  1
  O2-  O184  1  0.31337093  0.84225234  0.37529383  1
  O2-  O185  1  0.30463657  0.83749242  0.87278456  1
  O2-  O186  1  0.63616463  0.17024057  0.37644514  1
  O2-  O187  1  0.64409943  0.17354740  0.87237925  1
  O2-  O188  1  0.63902496  0.50689659  0.37612461  1
  O2-  O189  1  0.64267766  0.50779965  0.87164000  1
  O2-  O190  1  0.63438017  0.83989515  0.37690830  1
  O2-  O191  1  0.64474413  0.84029953  0.87114650  1
  O2-  O192  1  0.97795290  0.17477743  0.37203323  1
  O2-  O193  1  0.97399584  0.17439914  0.87781009  1
  O2-  O194  1  0.97422098  0.50817366  0.37467819  1
  O2-  O195  1  0.97410950  0.50710805  0.87680771  1
  O2-  O196  1  0.97682806  0.83724092  0.37563369  1
  O2-  O197  1  0.98210510  0.83688064  0.87596836  1
  O2-  O198  1  0.19542171  0.00830401  0.37516175  1
  O2-  O199  1  0.19209716  0.00172914  0.87428679  1
  O2-  O200  1  0.18704630  0.33363095  0.37342836  1
  O2-  O201  1  0.19299907  0.33826824  0.87664601  1
  O2-  O202  1  0.19247060  0.67238181  0.37494487  1
  O2-  O203  1  0.19080841  0.67377251  0.87516471  1
  O2-  O204  1  0.52259750  0.00918310  0.37796189  1
  O2-  O205  1  0.52882695  0.00532197  0.87275058  1
  O2-  O206  1  0.52268559  0.34105007  0.37788207  1
  O2-  O207  1  0.52644201  0.33974945  0.87325716  1
  O2-  O208  1  0.52297910  0.66973406  0.37566066  1
  O2-  O209  1  0.52884389  0.67173926  0.87113975  1
  O2-  O210  1  0.85764582  0.00486668  0.37395464  1
  O2-  O211  1  0.85767223  0.00402813  0.87713631  1
  O2-  O212  1  0.86264782  0.33772076  0.37361318  1
  O2-  O213  1  0.85889701  0.34092074  0.87778785  1
  O2-  O214  1  0.86249868  0.67573353  0.37508419  1
  O2-  O215  1  0.85796715  0.66883070  0.87362130  1
  O2-  O216  1  0.23675510  0.09440661  0.01878562  1
  O2-  O217  1  0.23849396  0.09894209  0.51848671  1
  O2-  O218  1  0.23768397  0.42768237  0.02157589  1
  O2-  O219  1  0.23684140  0.42725478  0.51662321  1
  O2-  O220  1  0.23704882  0.76044265  0.02043560  1
  O2-  O221  1  0.23780723  0.76044685  0.52295648  1
  O2-  O222  1  0.57109452  0.09285847  0.01944515  1
  O2-  O223  1  0.57184727  0.09220951  0.52532743  1
  O2-  O224  1  0.56933567  0.43019429  0.01593065  1
  O2-  O225  1  0.57191282  0.42534947  0.52238006  1
  O2-  O226  1  0.57339617  0.75942486  0.01635952  1
  O2-  O227  1  0.57338236  0.75997992  0.52298297  1
  O2-  O228  1  0.90255944  0.09510118  0.02173360  1
  O2-  O229  1  0.90893377  0.09493303  0.50957334  1
  O2-  O230  1  0.90429009  0.43134521  0.01945153  1
  O2-  O231  1  0.90557960  0.42937581  0.51881471  1
  O2-  O232  1  0.90499758  0.76211328  0.02357302  1
  O2-  O233  1  0.90235013  0.76115876  0.52265472  1
  O2-  O234  1  0.26141486  0.25978177  0.22642737  1
  O2-  O235  1  0.26512149  0.26179764  0.72804202  1
  O2-  O236  1  0.26079164  0.59373012  0.22556991  1
  O2-  O237  1  0.26049357  0.59609198  0.73068771  1
  O2-  O238  1  0.25859271  0.92714660  0.22772777  1
  O2-  O239  1  0.26356479  0.93077447  0.72835632  1
  O2-  O240  1  0.59508773  0.25760995  0.23243033  1
  O2-  O241  1  0.59701622  0.26401363  0.73271065  1
  O2-  O242  1  0.59502485  0.59369919  0.23087677  1
  O2-  O243  1  0.59109152  0.59242004  0.72256512  1
  O2-  O244  1  0.59666100  0.93048617  0.23383596  1
  O2-  O245  1  0.59104763  0.92715945  0.72480247  1
  O2-  O246  1  0.93018879  0.25917731  0.22522905  1
  O2-  O247  1  0.93175567  0.26416972  0.73545563  1
  O2-  O248  1  0.93048577  0.59523298  0.23024914  1
  O2-  O249  1  0.92871323  0.59452772  0.72909230  1
  O2-  O250  1  0.92640387  0.93036628  0.23435812  1
  O2-  O251  1  0.92608788  0.92642677  0.73432826  1
  O2-  O252  1  0.09885140  0.23564502  0.26487923  1
  O2-  O253  1  0.09581568  0.23818456  0.77203190  1
  O2-  O254  1  0.09735451  0.56882558  0.27119316  1
  O2-  O255  1  0.09426019  0.57165914  0.77139385  1
  O2-  O256  1  0.09119571  0.90970420  0.26817684  1
  O2-  O257  1  0.09842085  0.90440283  0.76391998  1
  O2-  O258  1  0.43046737  0.23302955  0.26552238  1
  O2-  O259  1  0.42811951  0.23926725  0.77459563  1
  O2-  O260  1  0.42913625  0.57038853  0.26807069  1
  O2-  O261  1  0.42739502  0.57299648  0.77079185  1
  O2-  O262  1  0.42973999  0.90415550  0.26944893  1
  O2-  O263  1  0.42925803  0.90512418  0.77239463  1
  O2-  O264  1  0.76143341  0.23899120  0.27110566  1
  O2-  O265  1  0.76242719  0.24085340  0.77254629  1
  O2-  O266  1  0.76098406  0.57366936  0.27416013  1
  O2-  O267  1  0.76439303  0.57052668  0.76632970  1
  O2-  O268  1  0.75679566  0.90676860  0.27529768  1
  O2-  O269  1  0.75851581  0.90811568  0.76325445  1
  O2-  O270  1  0.07558968  0.07612189  0.47647243  1
  O2-  O271  1  0.06969256  0.06893236  0.97652358  1
  O2-  O272  1  0.06864017  0.40211535  0.48135554  1
  O2-  O273  1  0.07477831  0.40609851  0.97689120  1
  O2-  O274  1  0.06958003  0.73474228  0.48422139  1
  O2-  O275  1  0.06932736  0.73875524  0.98172198  1
  O2-  O276  1  0.40197684  0.06853045  0.48003298  1
  O2-  O277  1  0.40581954  0.07138381  0.97756828  1
  O2-  O278  1  0.40878165  0.40847289  0.48399581  1
  O2-  O279  1  0.40431282  0.40555641  0.97914839  1
  O2-  O280  1  0.40074469  0.73572348  0.48173586  1
  O2-  O281  1  0.40654377  0.73845223  0.97884278  1
  O2-  O282  1  0.73794718  0.07442013  0.47989423  1
  O2-  O283  1  0.73839415  0.07085645  0.97839198  1
  O2-  O284  1  0.73882206  0.40603402  0.47668338  1
  O2-  O285  1  0.73827715  0.40870467  0.97837362  1
  O2-  O286  1  0.73652768  0.74049105  0.47692599  1
  O2-  O287  1  0.73552958  0.73480532  0.98411346  1
  O2-  O288  1  0.09857153  0.23744868  0.48445421  1
  O2-  O289  1  0.09673624  0.23661882  0.97963888  1
  O2-  O290  1  0.09687327  0.56869066  0.47705714  1
  O2-  O291  1  0.09448396  0.57271340  0.97985276  1
  O2-  O292  1  0.09316735  0.91070102  0.48390586  1
  O2-  O293  1  0.09732760  0.90258475  0.98419678  1
  O2-  O294  1  0.43188897  0.23375190  0.48264282  1
  O2-  O295  1  0.42856563  0.23893783  0.97771497  1
  O2-  O296  1  0.42742851  0.56998373  0.48419545  1
  O2-  O297  1  0.43026122  0.57353860  0.97795799  1
  O2-  O298  1  0.43330859  0.90080837  0.48239829  1
  O2-  O299  1  0.42734385  0.90763609  0.97404905  1
  O2-  O300  1  0.75794532  0.24020393  0.47484665  1
  O2-  O301  1  0.76350166  0.23869836  0.98166926  1
  O2-  O302  1  0.76289320  0.57421267  0.47762028  1
  O2-  O303  1  0.76418342  0.57162811  0.98341221  1
  O2-  O304  1  0.75540047  0.90758025  0.47599800  1
  O2-  O305  1  0.76049113  0.90625004  0.98660455  1
  O2-  O306  1  0.07257488  0.07339578  0.27205914  1
  O2-  O307  1  0.07265554  0.07265196  0.77373038  1
  O2-  O308  1  0.06948065  0.40380555  0.26979403  1
  O2-  O309  1  0.07116245  0.40557950  0.77250377  1
  O2-  O310  1  0.07044511  0.73481011  0.26546366  1
  O2-  O311  1  0.07038945  0.73788510  0.76817819  1
  O2-  O312  1  0.40183910  0.06735794  0.26616486  1
  O2-  O313  1  0.40699970  0.07350901  0.77601272  1
  O2-  O314  1  0.40528084  0.40757356  0.26599414  1
  O2-  O315  1  0.40806225  0.40667664  0.77271577  1
  O2-  O316  1  0.40185601  0.73582182  0.26784694  1
  O2-  O317  1  0.40619271  0.73872038  0.77138578  1
  O2-  O318  1  0.73880240  0.07407397  0.27449614  1
  O2-  O319  1  0.73782401  0.07141330  0.76945904  1
  O2-  O320  1  0.73929449  0.40772655  0.27509616  1
  O2-  O321  1  0.73972767  0.40511876  0.77052746  1
  O2-  O322  1  0.73786440  0.74136360  0.27524609  1
  O2-  O323  1  0.73399436  0.73297551  0.76571744  1
  O2-  O324  1  0.23888570  0.09553301  0.22767063  1
  O2-  O325  1  0.23729659  0.09779796  0.73538181  1
  O2-  O326  1  0.23893569  0.42627982  0.22746774  1
  O2-  O327  1  0.23561700  0.42987590  0.73410215  1
  O2-  O328  1  0.23888731  0.76000296  0.22816127  1
  O2-  O329  1  0.23691809  0.76172730  0.72755074  1
  O2-  O330  1  0.57264914  0.09034790  0.22777791  1
  O2-  O331  1  0.56880959  0.09554231  0.72751059  1
  O2-  O332  1  0.57123730  0.42936214  0.23437188  1
  O2-  O333  1  0.57173734  0.42710754  0.72785932  1
  O2-  O334  1  0.57594430  0.75643752  0.23242774  1
  O2-  O335  1  0.57121319  0.76223097  0.72722854  1
  O2-  O336  1  0.90608433  0.09606828  0.23123395  1
  O2-  O337  1  0.90464537  0.09548651  0.73835030  1
  O2-  O338  1  0.90379210  0.43234866  0.23247963  1
  O2-  O339  1  0.90582183  0.42793591  0.72996354  1
  O2-  O340  1  0.90405449  0.76432362  0.22791416  1
  O2-  O341  1  0.90363393  0.75918663  0.72616231  1
  O2-  O342  1  0.26184002  0.26243103  0.02135623  1
  O2-  O343  1  0.26358751  0.25958838  0.52387537  1
  O2-  O344  1  0.26274833  0.59497028  0.02057617  1
  O2-  O345  1  0.25977865  0.59359238  0.52264380  1
  O2-  O346  1  0.26000291  0.92990724  0.01965719  1
  O2-  O347  1  0.26205455  0.92668717  0.52154411  1
  O2-  O348  1  0.59406090  0.25705556  0.01638358  1
  O2-  O349  1  0.59695480  0.26389126  0.51854893  1
  O2-  O350  1  0.59479421  0.59277893  0.02271090  1
  O2-  O351  1  0.59401341  0.59356758  0.52095827  1
  O2-  O352  1  0.59477922  0.92702450  0.01707935  1
  O2-  O353  1  0.59419095  0.93012503  0.52323870  1
  O2-  O354  1  0.93264556  0.26165364  0.02247754  1
  O2-  O355  1  0.92981702  0.26114803  0.51694241  1
  O2-  O356  1  0.92721854  0.59787411  0.02082113  1
  O2-  O357  1  0.93083320  0.59349855  0.52011139  1
  O2-  O358  1  0.92821196  0.92905046  0.02094323  1
  O2-  O359  1  0.92419125  0.92551261  0.51292488  1
