# generated using pymatgen
data_Sr7Ca15Pr50Mn72O216
_symmetry_space_group_name_H-M   'P 1'
_cell_length_a   16.55718862
_cell_length_b   16.60172143
_cell_length_c   15.58910415
_cell_angle_alpha   89.99701997
_cell_angle_beta   89.99950454
_cell_angle_gamma   89.99940827
_symmetry_Int_Tables_number   1
_chemical_formula_structural   Sr7Ca15Pr50Mn72O216
_chemical_formula_sum   'Sr7 Ca15 Pr50 Mn72 O216'
_cell_volume   4285.09916259
_cell_formula_units_Z   1
loop_
 _symmetry_equiv_pos_site_id
 _symmetry_equiv_pos_as_xyz
  1  'x, y, z'
loop_
 _atom_type_symbol
 _atom_type_oxidation_number
  Sr2+  2.0
  Ca2+  2.0
  Pr3+  3.0
  Mn3.30+  3.3
  O2-  -2.0
loop_
 _atom_site_type_symbol
 _atom_site_label
 _atom_site_symmetry_multiplicity
 _atom_site_fract_x
 _atom_site_fract_y
 _atom_site_fract_z
 _atom_site_occupancy
  Sr2+  Sr0  1  0.33344797  0.00703598  0.12540624  1
  Sr2+  Sr1  1  0.16619690  0.15520561  0.37450108  1
  Sr2+  Sr2  1  0.16612517  0.15704253  0.87556548  1
  Sr2+  Sr3  1  0.16954076  0.50706125  0.12605101  1
  Sr2+  Sr4  1  0.50390056  0.17946168  0.62549290  1
  Sr2+  Sr5  1  0.83314120  0.84365897  0.62648850  1
  Sr2+  Sr6  1  0.16980123  0.51084349  0.62407597  1
  Ca2+  Ca7  1  0.83533431  0.84995499  0.12288323  1
  Ca2+  Ca8  1  0.17116772  0.84926247  0.12420800  1
  Ca2+  Ca9  1  0.16336599  0.48637194  0.37564631  1
  Ca2+  Ca10  1  0.65936122  0.35142238  0.62691021  1
  Ca2+  Ca11  1  0.66850252  0.98567048  0.87609254  1
  Ca2+  Ca12  1  0.50450259  0.51181967  0.62721605  1
  Ca2+  Ca13  1  0.83616376  0.18081420  0.12168603  1
  Ca2+  Ca14  1  0.49855198  0.48407438  0.87375250  1
  Ca2+  Ca15  1  0.49842435  0.81994533  0.87888803  1
  Ca2+  Ca16  1  0.33587722  0.98570033  0.37155276  1
  Ca2+  Ca17  1  0.82825094  0.48470091  0.87674335  1
  Ca2+  Ca18  1  0.50257910  0.18114405  0.12369039  1
  Ca2+  Ca19  1  0.50282243  0.84876719  0.12222077  1
  Ca2+  Ca20  1  0.83982989  0.51310321  0.12265829  1
  Ca2+  Ca21  1  0.82561120  0.14980915  0.87716954  1
  Pr3+  Pr22  1  1.00296047  0.98807025  0.37338133  1
  Pr3+  Pr23  1  0.33357729  0.32237669  0.37428193  1
  Pr3+  Pr24  1  0.99939694  0.32121200  0.87457244  1
  Pr3+  Pr25  1  0.66256189  0.67783520  0.62643429  1
  Pr3+  Pr26  1  1.00437304  0.32150537  0.37510967  1
  Pr3+  Pr27  1  0.49914440  0.48629637  0.37514195  1
  Pr3+  Pr28  1  1.00508294  0.65343345  0.37462496  1
  Pr3+  Pr29  1  0.16984570  0.17872320  0.62533627  1
  Pr3+  Pr30  1  0.83448389  0.51157283  0.62784034  1
  Pr3+  Pr31  1  0.66861917  0.65188558  0.87603094  1
  Pr3+  Pr32  1  0.66297839  0.01267603  0.62757007  1
  Pr3+  Pr33  1  1.00063627  0.65483706  0.87528628  1
  Pr3+  Pr34  1  0.83010708  0.82106356  0.37247162  1
  Pr3+  Pr35  1  0.33487476  0.65175522  0.37351722  1
  Pr3+  Pr36  1  0.33748271  0.32190380  0.87572552  1
  Pr3+  Pr37  1  0.33930858  0.65111537  0.87636317  1
  Pr3+  Pr38  1  0.33141834  0.01226873  0.62434526  1
  Pr3+  Pr39  1  0.50346628  0.51130546  0.12268712  1
  Pr3+  Pr40  1  0.66766782  0.34467638  0.12393712  1
  Pr3+  Pr41  1  0.66106287  0.01506556  0.12272286  1
  Pr3+  Pr42  1  0.49344062  0.15221498  0.37312203  1
  Pr3+  Pr43  1  0.83011943  0.15362625  0.37263387  1
  Pr3+  Pr44  1  -0.00432968  0.01220769  0.62575607  1
  Pr3+  Pr45  1  0.16729674  0.82513054  0.37038844  1
  Pr3+  Pr46  1  1.00020994  0.98970514  0.87622772  1
  Pr3+  Pr47  1  0.66930335  0.65413302  0.37439026  1
  Pr3+  Pr48  1  0.32859171  0.68098010  0.12410502  1
  Pr3+  Pr49  1  0.66735288  0.98777105  0.37446228  1
  Pr3+  Pr50  1  0.16505709  0.48802615  0.87491465  1
  Pr3+  Pr51  1  0.83056374  0.48646264  0.37418047  1
  Pr3+  Pr52  1  0.16872759  0.17602452  0.12447529  1
  Pr3+  Pr53  1  0.16454084  0.82188796  0.87951509  1
  Pr3+  Pr54  1  0.49702090  0.15507469  0.87690701  1
  Pr3+  Pr55  1  0.16965677  0.84447036  0.62600562  1
  Pr3+  Pr56  1  -0.00296378  0.68105120  0.12430756  1
  Pr3+  Pr57  1  0.50442865  0.84509107  0.62690902  1
  Pr3+  Pr58  1  0.33285326  0.34000566  0.12440231  1
  Pr3+  Pr59  1  -0.00497615  0.34679274  0.12464847  1
  Pr3+  Pr60  1  0.49452988  0.82164827  0.37140081  1
  Pr3+  Pr61  1  -0.00211820  0.68005581  0.62565995  1
  Pr3+  Pr62  1  0.83241784  0.17894685  0.62733737  1
  Pr3+  Pr63  1  -0.00117908  0.34562870  0.62521774  1
  Pr3+  Pr64  1  0.66939969  0.31972571  0.37601671  1
  Pr3+  Pr65  1  0.82839611  0.82332882  0.87746388  1
  Pr3+  Pr66  1  0.33261445  0.34660446  0.62556749  1
  Pr3+  Pr67  1  0.33319421  0.67673895  0.62595962  1
  Pr3+  Pr68  1  0.33699669  0.98524641  0.87727929  1
  Pr3+  Pr69  1  -0.00419178  0.01475906  0.12380931  1
  Pr3+  Pr70  1  0.67051323  0.32066969  0.87349601  1
  Pr3+  Pr71  1  0.66570676  0.68246132  0.12383228  1
  Mn3.30+  Mn72  1  0.16699321  -0.00018513  0.00046735  1
  Mn3.30+  Mn73  1  0.16704545  -0.00063798  0.49850179  1
  Mn3.30+  Mn74  1  0.16574125  0.33260115  -0.00048133  1
  Mn3.30+  Mn75  1  0.16715380  0.33464977  0.49991292  1
  Mn3.30+  Mn76  1  0.16677265  0.66597806  0.00147603  1
  Mn3.30+  Mn77  1  0.16785593  0.66646921  0.49899496  1
  Mn3.30+  Mn78  1  0.50174573  -0.00066101  0.00012521  1
  Mn3.30+  Mn79  1  0.49843831  -0.00039870  0.49928189  1
  Mn3.30+  Mn80  1  0.50269822  0.33349950  0.00009607  1
  Mn3.30+  Mn81  1  0.50235464  0.33365235  0.50168262  1
  Mn3.30+  Mn82  1  0.50065687  0.66783886  0.00047923  1
  Mn3.30+  Mn83  1  0.49985336  0.66489298  0.49981811  1
  Mn3.30+  Mn84  1  0.82965951  0.00171771  0.00059116  1
  Mn3.30+  Mn85  1  0.83263089  -0.00023941  0.50011863  1
  Mn3.30+  Mn86  1  0.83283112  0.33260734  -0.00156797  1
  Mn3.30+  Mn87  1  0.83098033  0.33329103  0.50281090  1
  Mn3.30+  Mn88  1  0.83310485  0.66595377  0.00124485  1
  Mn3.30+  Mn89  1  0.83390991  0.66676731  0.49982394  1
  Mn3.30+  Mn90  1  -0.00144408  0.16752160  0.24896029  1
  Mn3.30+  Mn91  1  -0.00277769  0.16654770  0.75206997  1
  Mn3.30+  Mn92  1  0.00078717  0.50119178  0.24922013  1
  Mn3.30+  Mn93  1  -0.00161735  0.50039332  0.75125869  1
  Mn3.30+  Mn94  1  -0.00098162  0.83440392  0.24644094  1
  Mn3.30+  Mn95  1  -0.00095433  0.83416214  0.75171517  1
  Mn3.30+  Mn96  1  0.33397592  0.16366727  0.24886128  1
  Mn3.30+  Mn97  1  0.33489666  0.16619033  0.75025907  1
  Mn3.30+  Mn98  1  0.33291112  0.49832191  0.25016784  1
  Mn3.30+  Mn99  1  0.33760694  0.49948812  0.74960045  1
  Mn3.30+  Mn100  1  0.33270214  0.83466417  0.24691318  1
  Mn3.30+  Mn101  1  0.33614548  0.83180013  0.75198925  1
  Mn3.30+  Mn102  1  0.66551031  0.16724929  0.24746267  1
  Mn3.30+  Mn103  1  0.66643251  0.16664837  0.75197737  1
  Mn3.30+  Mn104  1  0.66969259  0.50063180  0.24685870  1
  Mn3.30+  Mn105  1  0.66539767  0.49876034  0.75218541  1
  Mn3.30+  Mn106  1  0.66571459  0.83488245  0.24662496  1
  Mn3.30+  Mn107  1  0.66476342  0.83359576  0.75354036  1
  Mn3.30+  Mn108  1  0.16786288  -0.00044537  0.24929998  1
  Mn3.30+  Mn109  1  0.16609292  0.00005583  0.75137194  1
  Mn3.30+  Mn110  1  0.16599114  0.33336509  0.24988437  1
  Mn3.30+  Mn111  1  0.16706206  0.33371066  0.75051586  1
  Mn3.30+  Mn112  1  0.16671716  0.66586442  0.24829987  1
  Mn3.30+  Mn113  1  0.16817605  0.66659589  0.75100527  1
  Mn3.30+  Mn114  1  0.49888751  -0.00009713  0.24663946  1
  Mn3.30+  Mn115  1  0.50112212  -0.00084393  0.75366891  1
  Mn3.30+  Mn116  1  0.50160482  0.33193399  0.24897911  1
  Mn3.30+  Mn117  1  0.50324597  0.33507393  0.74927450  1
  Mn3.30+  Mn118  1  0.50007158  0.66753956  0.24707403  1
  Mn3.30+  Mn119  1  0.50039203  0.66475256  0.75278815  1
  Mn3.30+  Mn120  1  0.83206606  0.00058086  0.24688478  1
  Mn3.30+  Mn121  1  0.82995510  0.00061196  0.75234874  1
  Mn3.30+  Mn122  1  0.83385410  0.33313052  0.24897230  1
  Mn3.30+  Mn123  1  0.83031395  0.33302281  0.74970013  1
  Mn3.30+  Mn124  1  0.83445296  0.66682853  0.24730419  1
  Mn3.30+  Mn125  1  0.83224484  0.66600716  0.75230616  1
  Mn3.30+  Mn126  1  -0.00405437  0.16746700  -0.00182640  1
  Mn3.30+  Mn127  1  -0.00041528  0.16669912  0.50080982  1
  Mn3.30+  Mn128  1  -0.00272822  0.50049190  -0.00082966  1
  Mn3.30+  Mn129  1  0.00107001  0.50066723  0.50098773  1
  Mn3.30+  Mn130  1  -0.00154845  0.83494041  0.00259557  1
  Mn3.30+  Mn131  1  -0.00031187  0.83363039  0.49911845  1
  Mn3.30+  Mn132  1  0.33477810  0.16460207  0.00191012  1
  Mn3.30+  Mn133  1  0.33412316  0.16546184  0.49916483  1
  Mn3.30+  Mn134  1  0.33604853  0.49834345  0.00010424  1
  Mn3.30+  Mn135  1  0.33437902  0.49950451  0.49969007  1
  Mn3.30+  Mn136  1  0.33464842  0.83295798  0.00120316  1
  Mn3.30+  Mn137  1  0.33418881  0.83353423  0.49935477  1
  Mn3.30+  Mn138  1  0.66772389  0.16658232  0.00017902  1
  Mn3.30+  Mn139  1  0.66470539  0.16783036  0.50029414  1
  Mn3.30+  Mn140  1  0.66979746  0.49966850  -0.00001068  1
  Mn3.30+  Mn141  1  0.66538856  0.49953340  0.50140837  1
  Mn3.30+  Mn142  1  0.66502438  0.83519884  0.00022785  1
  Mn3.30+  Mn143  1  0.66560190  0.83323676  0.49985559  1
  O2-  O144  1  0.02366608  0.16406678  0.12414837  1
  O2-  O145  1  0.02489798  0.16041272  0.62602347  1
  O2-  O146  1  0.02052025  0.49467059  0.12385302  1
  O2-  O147  1  0.02039973  0.49551697  0.62660832  1
  O2-  O148  1  0.02906764  0.82867548  0.12465853  1
  O2-  O149  1  0.02510916  0.82876467  0.62736430  1
  O2-  O150  1  0.35938592  0.16684609  0.12512979  1
  O2-  O151  1  0.35413922  0.16001701  0.62435894  1
  O2-  O152  1  0.35979766  0.49079995  0.12532740  1
  O2-  O153  1  0.36214485  0.49600178  0.62578756  1
  O2-  O154  1  0.36082018  0.82707756  0.12423855  1
  O2-  O155  1  0.36051894  0.82599327  0.62768553  1
  O2-  O156  1  0.69493608  0.16261146  0.12427127  1
  O2-  O157  1  0.68977273  0.15814080  0.62695741  1
  O2-  O158  1  0.69749765  0.49307274  0.12513922  1
  O2-  O159  1  0.69115630  0.49888122  0.62719088  1
  O2-  O160  1  0.69449458  0.82965415  0.12468906  1
  O2-  O161  1  0.68386298  0.82688370  0.62739680  1
  O2-  O162  1  0.14111892  0.32698666  0.12359574  1
  O2-  O163  1  0.14409751  0.32858105  0.62603367  1
  O2-  O164  1  0.14060289  0.65868973  0.12465604  1
  O2-  O165  1  0.14238532  0.66659046  0.62586234  1
  O2-  O166  1  0.14085631  0.99690857  0.12401094  1
  O2-  O167  1  0.14029817  0.99212549  0.62622385  1
  O2-  O168  1  0.47742972  0.33011232  0.12634887  1
  O2-  O169  1  0.47532550  0.33100759  0.62455152  1
  O2-  O170  1  0.47329884  0.65700979  0.12465506  1
  O2-  O171  1  0.47699505  0.65835575  0.62637365  1
  O2-  O172  1  0.48182524  0.99225420  0.12381590  1
  O2-  O173  1  0.47534840  0.99241683  0.62805815  1
  O2-  O174  1  0.81024067  0.32411478  0.12333149  1
  O2-  O175  1  0.80162128  0.32595030  0.62536510  1
  O2-  O176  1  0.80896821  0.65624416  0.12438100  1
  O2-  O177  1  0.80764608  0.66050888  0.62694041  1
  O2-  O178  1  0.80550023  0.99344790  0.12453262  1
  O2-  O179  1  0.80738034  0.99853910  0.62676408  1
  O2-  O180  1  0.31487279  0.17466364  0.37493871  1
  O2-  O181  1  0.31619942  0.17264780  0.87580162  1
  O2-  O182  1  0.30706372  0.50355303  0.37325144  1
  O2-  O183  1  0.30944377  0.50245413  0.87527160  1
  O2-  O184  1  0.31128503  0.83771476  0.37303402  1
  O2-  O185  1  0.30814052  0.83578275  0.87496688  1
  O2-  O186  1  0.63900166  0.17206324  0.37295464  1
  O2-  O187  1  0.63950088  0.17502815  0.87571266  1
  O2-  O188  1  0.64294370  0.50583116  0.37184957  1
  O2-  O189  1  0.63933282  0.50356378  0.87645583  1
  O2-  O190  1  0.63940492  0.83756659  0.37273406  1
  O2-  O191  1  0.64036070  0.83775232  0.87617203  1
  O2-  O192  1  0.97418101  0.17199181  0.37536103  1
  O2-  O193  1  0.96871323  0.17285478  0.87379610  1
  O2-  O194  1  0.97359511  0.50464825  0.37577686  1
  O2-  O195  1  0.97077578  0.50634478  0.87420593  1
  O2-  O196  1  0.97361485  0.83946994  0.37085052  1
  O2-  O197  1  0.97298793  0.83989602  0.87697145  1
  O2-  O198  1  0.19170045  -0.00185819  0.37543960  1
  O2-  O199  1  0.19131530  0.00098277  0.87462492  1
  O2-  O200  1  0.18799751  0.33872325  0.37578123  1
  O2-  O201  1  0.19120848  0.33825278  0.87440513  1
  O2-  O202  1  0.19245232  0.67823289  0.37308577  1
  O2-  O203  1  0.19387307  0.67357545  0.87644191  1
  O2-  O204  1  0.52388884  0.00361770  0.37149758  1
  O2-  O205  1  0.52679303  0.00912633  0.87654603  1
  O2-  O206  1  0.52666507  0.33871653  0.37390326  1
  O2-  O207  1  0.52569682  0.33824727  0.87497373  1
  O2-  O208  1  0.52549166  0.67319883  0.37030969  1
  O2-  O209  1  0.52522278  0.67598796  0.87857823  1
  O2-  O210  1  0.85845423  0.00660563  0.37207008  1
  O2-  O211  1  0.85723587  0.00492207  0.87656717  1
  O2-  O212  1  0.85953050  0.33895674  0.37817876  1
  O2-  O213  1  0.85736027  0.34223111  0.87341517  1
  O2-  O214  1  0.85895128  0.67320445  0.37231045  1
  O2-  O215  1  0.85720647  0.67634127  0.87728903  1
  O2-  O216  1  0.23778504  0.09342532  0.01844925  1
  O2-  O217  1  0.23666084  0.09133625  0.52269951  1
  O2-  O218  1  0.24329661  0.42318027  0.01617763  1
  O2-  O219  1  0.24520418  0.42414220  0.51954561  1
  O2-  O220  1  0.23600065  0.76081080  0.02233213  1
  O2-  O221  1  0.23992383  0.76165168  0.52048509  1
  O2-  O222  1  0.57081117  0.09865770  0.02197888  1
  O2-  O223  1  0.57302156  0.09258381  0.51548820  1
  O2-  O224  1  0.57650873  0.42760418  0.02358633  1
  O2-  O225  1  0.56896137  0.43284092  0.51689385  1
  O2-  O226  1  0.57301159  0.76186033  0.02480225  1
  O2-  O227  1  0.56981580  0.75982283  0.51914959  1
  O2-  O228  1  0.90260914  0.09477120  0.02273016  1
  O2-  O229  1  0.90405148  0.09555195  0.52026285  1
  O2-  O230  1  0.90530736  0.42713014  0.02149737  1
  O2-  O231  1  0.90181493  0.42633915  0.52251146  1
  O2-  O232  1  0.90495971  0.76383384  0.02297354  1
  O2-  O233  1  0.90799277  0.75844939  0.51769903  1
  O2-  O234  1  0.25997290  0.25712827  0.22979917  1
  O2-  O235  1  0.26143834  0.25907807  0.73005110  1
  O2-  O236  1  0.26600442  0.59537690  0.23232315  1
  O2-  O237  1  0.26677948  0.59499479  0.73381030  1
  O2-  O238  1  0.25765816  0.92328154  0.23188430  1
  O2-  O239  1  0.26412311  0.92521963  0.72980917  1
  O2-  O240  1  0.59802578  0.26293382  0.23061033  1
  O2-  O241  1  0.59914245  0.26639876  0.73276113  1
  O2-  O242  1  0.59701274  0.59488738  0.22729351  1
  O2-  O243  1  0.59897225  0.59735024  0.73519834  1
  O2-  O244  1  0.59786759  0.93162675  0.23283341  1
  O2-  O245  1  0.59300351  0.92668596  0.72898338  1
  O2-  O246  1  0.92962482  0.26472845  0.23381102  1
  O2-  O247  1  0.92611464  0.26133989  0.72688647  1
  O2-  O248  1  0.93322988  0.59729178  0.23287360  1
  O2-  O249  1  0.92811041  0.59445464  0.72956211  1
  O2-  O250  1  0.92919605  0.92993635  0.22931537  1
  O2-  O251  1  0.92965431  0.92990410  0.73455294  1
  O2-  O252  1  0.09085897  0.24066793  0.26779711  1
  O2-  O253  1  0.08844577  0.24134646  0.76718126  1
  O2-  O254  1  0.09574025  0.57290971  0.27486884  1
  O2-  O255  1  0.09432799  0.57555941  0.77350772  1
  O2-  O256  1  0.09175102  0.90774626  0.27117889  1
  O2-  O257  1  0.09496106  0.90486980  0.77184185  1
  O2-  O258  1  0.42583975  0.24014926  0.26993704  1
  O2-  O259  1  0.42994936  0.24150697  0.77073646  1
  O2-  O260  1  0.42848902  0.56982553  0.26996119  1
  O2-  O261  1  0.43066032  0.57129684  0.77560388  1
  O2-  O262  1  0.42803751  0.90506790  0.26727231  1
  O2-  O263  1  0.42939099  0.90305412  0.77425081  1
  O2-  O264  1  0.76009281  0.24004042  0.27303650  1
  O2-  O265  1  0.76356182  0.23531507  0.77227642  1
  O2-  O266  1  0.76088949  0.57348633  0.27335249  1
  O2-  O267  1  0.76124578  0.56955761  0.77277822  1
  O2-  O268  1  0.75923913  0.90623375  0.27312074  1
  O2-  O269  1  0.76100648  0.90553276  0.77096871  1
  O2-  O270  1  0.07043738  0.06778853  0.48325369  1
  O2-  O271  1  0.06630404  0.07358634  0.98271611  1
  O2-  O272  1  0.06972340  0.40620640  0.48371476  1
  O2-  O273  1  0.07094329  0.40876566  0.97745760  1
  O2-  O274  1  0.07378702  0.73983942  0.47987284  1
  O2-  O275  1  0.06974700  0.74008787  0.97876363  1
  O2-  O276  1  0.40389101  0.06891754  0.47943585  1
  O2-  O277  1  0.40739205  0.07169169  0.97824616  1
  O2-  O278  1  0.40701420  0.40389519  0.47763418  1
  O2-  O279  1  0.40676037  0.40340864  0.98222729  1
  O2-  O280  1  0.40559495  0.73687575  0.47943565  1
  O2-  O281  1  0.40138242  0.73596768  0.98310432  1
  O2-  O282  1  0.73887850  0.07289550  0.47893271  1
  O2-  O283  1  0.73294079  0.06919678  0.98048826  1
  O2-  O284  1  0.73901713  0.40682103  0.47808392  1
  O2-  O285  1  0.73789560  0.40199907  0.98152916  1
  O2-  O286  1  0.73920298  0.73922770  0.47919545  1
  O2-  O287  1  0.73651655  0.73887914  0.98125058  1
  O2-  O288  1  0.09035678  0.24125844  0.48453755  1
  O2-  O289  1  0.08946298  0.24199702  0.98024030  1
  O2-  O290  1  0.09705459  0.57575264  0.47659650  1
  O2-  O291  1  0.09372211  0.57399002  0.97526191  1
  O2-  O292  1  0.09577955  0.90436378  0.47923895  1
  O2-  O293  1  0.09134767  0.90789913  0.97819391  1
  O2-  O294  1  0.43002891  0.24103339  0.47857270  1
  O2-  O295  1  0.42794433  0.24116238  0.98130472  1
  O2-  O296  1  0.42819195  0.57258251  0.47514757  1
  O2-  O297  1  0.43126770  0.56878445  0.97932957  1
  O2-  O298  1  0.42966998  0.90195501  0.48274147  1
  O2-  O299  1  0.42803483  0.90547492  0.97693917  1
  O2-  O300  1  0.76225053  0.23776385  0.47799432  1
  O2-  O301  1  0.76134498  0.23805789  0.97584354  1
  O2-  O302  1  0.76241349  0.57212234  0.48002456  1
  O2-  O303  1  0.76009366  0.57112607  0.97589416  1
  O2-  O304  1  0.76016319  0.90719064  0.47696978  1
  O2-  O305  1  0.76143224  0.90481054  0.98030346  1
  O2-  O306  1  0.06835633  0.07166933  0.26543137  1
  O2-  O307  1  0.06698515  0.07173082  0.76801200  1
  O2-  O308  1  0.06937281  0.40658454  0.26768538  1
  O2-  O309  1  0.07175771  0.40855508  0.77146734  1
  O2-  O310  1  0.07004390  0.73969866  0.27004375  1
  O2-  O311  1  0.07243152  0.74174054  0.77267315  1
  O2-  O312  1  0.40531708  0.07154421  0.27227722  1
  O2-  O313  1  0.40563788  0.07001787  0.77031088  1
  O2-  O314  1  0.40808370  0.40569878  0.27162797  1
  O2-  O315  1  0.40498734  0.40258378  0.76887125  1
  O2-  O316  1  0.40347505  0.73804914  0.26944434  1
  O2-  O317  1  0.40395814  0.73507508  0.76819868  1
  O2-  O318  1  0.73557935  0.07320316  0.27105289  1
  O2-  O319  1  0.73503931  0.06937055  0.77005651  1
  O2-  O320  1  0.73963492  0.40478121  0.27135966  1
  O2-  O321  1  0.73724971  0.40532375  0.76895476  1
  O2-  O322  1  0.73701665  0.73948550  0.26943202  1
  O2-  O323  1  0.73778415  0.73914587  0.77164339  1
  O2-  O324  1  0.23705921  0.09432074  0.23045036  1
  O2-  O325  1  0.23849587  0.09129658  0.72839806  1
  O2-  O326  1  0.24551629  0.42038562  0.23038735  1
  O2-  O327  1  0.24413477  0.42670166  0.73261450  1
  O2-  O328  1  0.23741074  0.76068295  0.22670202  1
  O2-  O329  1  0.23989438  0.76115413  0.73001960  1
  O2-  O330  1  0.57019507  0.09758391  0.22803842  1
  O2-  O331  1  0.57315079  0.09362036  0.73298283  1
  O2-  O332  1  0.57536762  0.42944576  0.22882026  1
  O2-  O333  1  0.57062488  0.43076204  0.72985291  1
  O2-  O334  1  0.57177752  0.76439651  0.22580280  1
  O2-  O335  1  0.57119523  0.75790999  0.72977196  1
  O2-  O336  1  0.90355714  0.09803904  0.22801173  1
  O2-  O337  1  0.90428952  0.09342602  0.72797706  1
  O2-  O338  1  0.90353868  0.42998465  0.23071610  1
  O2-  O339  1  0.90473497  0.42373774  0.72609518  1
  O2-  O340  1  0.90377399  0.76394201  0.22614903  1
  O2-  O341  1  0.90970257  0.75865794  0.73283120  1
  O2-  O342  1  0.26017849  0.25732899  0.02011486  1
  O2-  O343  1  0.26098939  0.25944293  0.51994735  1
  O2-  O344  1  0.26608482  0.59401867  0.01651829  1
  O2-  O345  1  0.26490100  0.59812905  0.51640039  1
  O2-  O346  1  0.26162387  0.92390763  0.01378295  1
  O2-  O347  1  0.25991395  0.92580346  0.52382473  1
  O2-  O348  1  0.59804026  0.26300545  0.01884539  1
  O2-  O349  1  0.59908622  0.26740471  0.51746371  1
  O2-  O350  1  0.59785522  0.59484466  0.02231545  1
  O2-  O351  1  0.59778085  0.59792953  0.51495144  1
  O2-  O352  1  0.59670408  0.92935898  0.01937369  1
  O2-  O353  1  0.59393194  0.92843458  0.51933062  1
  O2-  O354  1  0.92915883  0.26453387  0.01661791  1
  O2-  O355  1  0.92478895  0.26248023  0.52327228  1
  O2-  O356  1  0.93149618  0.59766489  0.01747072  1
  O2-  O357  1  0.92885448  0.59437104  0.52055966  1
  O2-  O358  1  0.92785713  0.93076387  0.01882667  1
  O2-  O359  1  0.92945115  0.93042631  0.51589242  1
