# generated using pymatgen
data_Sr7Ca15Pr50Mn72O216
_symmetry_space_group_name_H-M   'P 1'
_cell_length_a   16.55600029
_cell_length_b   16.60239029
_cell_length_c   15.59060016
_cell_angle_alpha   89.99740596
_cell_angle_beta   89.99603968
_cell_angle_gamma   90.00315148
_symmetry_Int_Tables_number   1
_chemical_formula_structural   Sr7Ca15Pr50Mn72O216
_chemical_formula_sum   'Sr7 Ca15 Pr50 Mn72 O216'
_cell_volume   4285.37543458
_cell_formula_units_Z   1
loop_
 _symmetry_equiv_pos_site_id
 _symmetry_equiv_pos_as_xyz
  1  'x, y, z'
loop_
 _atom_type_symbol
 _atom_type_oxidation_number
  Sr2+  2.0
  Ca2+  2.0
  Pr3+  3.0
  Mn3.30+  3.3
  O2-  -2.0
loop_
 _atom_site_type_symbol
 _atom_site_label
 _atom_site_symmetry_multiplicity
 _atom_site_fract_x
 _atom_site_fract_y
 _atom_site_fract_z
 _atom_site_occupancy
  Sr2+  Sr0  1  0.83247826  0.17425087  0.12393717  1
  Sr2+  Sr1  1  0.33129027  0.67636307  0.62483906  1
  Sr2+  Sr2  1  0.83377101  0.17497583  0.62678586  1
  Sr2+  Sr3  1  0.16302116  0.49014690  0.37511103  1
  Sr2+  Sr4  1  1.00127825  0.65273110  0.87608064  1
  Sr2+  Sr5  1  0.83247431  0.15881748  0.87544026  1
  Sr2+  Sr6  1  0.66529272  0.01190792  0.62450279  1
  Ca2+  Ca7  1  0.50211778  0.51360948  0.12254880  1
  Ca2+  Ca8  1  0.82946766  0.48469601  0.87752451  1
  Ca2+  Ca9  1  0.33020423  0.01308569  0.62438843  1
  Ca2+  Ca10  1  0.83726446  0.51368156  0.12297979  1
  Ca2+  Ca11  1  0.50594995  0.85155715  0.12541388  1
  Ca2+  Ca12  1  0.33849386  0.98580184  0.87428654  1
  Ca2+  Ca13  1  0.49521913  0.48555510  0.87703594  1
  Ca2+  Ca14  1  0.32843447  0.34854042  0.62555910  1
  Ca2+  Ca15  1  1.00403974  0.31975990  0.37416899  1
  Ca2+  Ca16  1  1.00217794  0.65244725  0.37325686  1
  Ca2+  Ca17  1  0.33822569  0.98558855  0.37489460  1
  Ca2+  Ca18  1  0.33032519  0.34943648  0.12431350  1
  Ca2+  Ca19  1  0.83000727  0.81673674  0.37501328  1
  Ca2+  Ca20  1  0.66380863  0.01430366  0.12440918  1
  Ca2+  Ca21  1  0.16273828  0.48591227  0.87461381  1
  Pr3+  Pr22  1  0.33535803  0.32210282  0.37446318  1
  Pr3+  Pr23  1  0.83581171  0.51105094  0.62695108  1
  Pr3+  Pr24  1  -0.00425832  0.34508227  0.62342260  1
  Pr3+  Pr25  1  0.50033771  0.84803220  0.62409075  1
  Pr3+  Pr26  1  0.83353488  0.15738177  0.37497162  1
  Pr3+  Pr27  1  0.49498262  0.15083522  0.37437646  1
  Pr3+  Pr28  1  0.16484851  0.81947588  0.37393605  1
  Pr3+  Pr29  1  0.33350961  0.01132562  0.12464174  1
  Pr3+  Pr30  1  0.17289756  0.18189466  0.62439541  1
  Pr3+  Pr31  1  0.49669820  0.82316968  0.87666194  1
  Pr3+  Pr32  1  0.17202228  0.18382726  0.12534186  1
  Pr3+  Pr33  1  0.66239008  0.67949265  0.62484095  1
  Pr3+  Pr34  1  0.16595227  0.82182628  0.87599469  1
  Pr3+  Pr35  1  1.00217513  0.98861243  0.37500821  1
  Pr3+  Pr36  1  0.66503416  0.34848464  0.12341230  1
  Pr3+  Pr37  1  0.50028666  0.51175675  0.62720886  1
  Pr3+  Pr38  1  0.82977392  0.82114885  0.87545238  1
  Pr3+  Pr39  1  0.83630762  0.84555171  0.62384553  1
  Pr3+  Pr40  1  0.16557984  0.15437400  0.37487046  1
  Pr3+  Pr41  1  0.66984528  0.65422386  0.37449438  1
  Pr3+  Pr42  1  0.50180027  0.17847031  0.62547099  1
  Pr3+  Pr43  1  0.83557038  0.84545529  0.12648220  1
  Pr3+  Pr44  1  0.16459662  0.15390633  0.87524814  1
  Pr3+  Pr45  1  1.00083398  0.32331999  0.87574786  1
  Pr3+  Pr46  1  1.00043749  0.98994920  0.87558171  1
  Pr3+  Pr47  1  0.33651898  0.65034689  0.87415590  1
  Pr3+  Pr48  1  -0.00216697  0.01310599  0.12532598  1
  Pr3+  Pr49  1  0.49614758  0.15145859  0.87527508  1
  Pr3+  Pr50  1  0.17349921  0.84616222  0.62519957  1
  Pr3+  Pr51  1  0.33381221  0.67799070  0.12444017  1
  Pr3+  Pr52  1  -0.00180835  0.01291139  0.62508569  1
  Pr3+  Pr53  1  0.67186760  0.98636119  0.37453103  1
  Pr3+  Pr54  1  -0.00624980  0.34783929  0.12689742  1
  Pr3+  Pr55  1  0.16806119  0.84354227  0.12429638  1
  Pr3+  Pr56  1  0.16960831  0.51293639  0.62623447  1
  Pr3+  Pr57  1  0.49653387  0.82237363  0.37279653  1
  Pr3+  Pr58  1  0.67103344  0.98991750  0.87598828  1
  Pr3+  Pr59  1  0.49507140  0.48842864  0.37288530  1
  Pr3+  Pr60  1  0.66712674  0.32155584  0.37367223  1
  Pr3+  Pr61  1  0.66278850  0.68010272  0.12506892  1
  Pr3+  Pr62  1  -0.00092016  0.67667067  0.62419687  1
  Pr3+  Pr63  1  0.33537281  0.65234075  0.37505340  1
  Pr3+  Pr64  1  0.50457094  0.17927562  0.12444906  1
  Pr3+  Pr65  1  0.33536713  0.32301897  0.87530476  1
  Pr3+  Pr66  1  0.66540578  0.34222499  0.62625704  1
  Pr3+  Pr67  1  0.66791464  0.32217989  0.87599003  1
  Pr3+  Pr68  1  -0.00451865  0.67561500  0.12627969  1
  Pr3+  Pr69  1  0.67151447  0.65085728  0.87570959  1
  Pr3+  Pr70  1  0.83336158  0.48742461  0.37264496  1
  Pr3+  Pr71  1  0.16848067  0.51120253  0.12365901  1
  Mn3.30+  Mn72  1  0.16936088  -0.00015206  -0.00051892  1
  Mn3.30+  Mn73  1  0.17041009  -0.00058393  0.49895196  1
  Mn3.30+  Mn74  1  0.16799848  0.33572689  0.00071455  1
  Mn3.30+  Mn75  1  0.16608767  0.33430668  0.49909212  1
  Mn3.30+  Mn76  1  0.16620116  0.66478944  -0.00089125  1
  Mn3.30+  Mn77  1  0.16514222  0.66635488  0.49866224  1
  Mn3.30+  Mn78  1  0.50112745  -0.00056792  0.00078608  1
  Mn3.30+  Mn79  1  0.49750891  0.00019663  0.49988408  1
  Mn3.30+  Mn80  1  0.49834088  0.33658494  0.00153098  1
  Mn3.30+  Mn81  1  0.49716099  0.33382556  0.50151887  1
  Mn3.30+  Mn82  1  0.50076266  0.66597992  -0.00020308  1
  Mn3.30+  Mn83  1  0.49966213  0.66724775  0.50025540  1
  Mn3.30+  Mn84  1  0.83205459  0.00048339  0.00159033  1
  Mn3.30+  Mn85  1  0.83476629  -0.00035003  0.49930676  1
  Mn3.30+  Mn86  1  0.83251845  0.33475363  0.00161379  1
  Mn3.30+  Mn87  1  0.83438133  0.33284599  0.49852448  1
  Mn3.30+  Mn88  1  0.83217103  0.66333814  -0.00003601  1
  Mn3.30+  Mn89  1  0.83440858  0.66631812  0.49840239  1
  Mn3.30+  Mn90  1  0.00107463  0.16807875  0.25002617  1
  Mn3.30+  Mn91  1  0.00147891  0.16709972  0.75049895  1
  Mn3.30+  Mn92  1  -0.00090514  0.50001164  0.25062314  1
  Mn3.30+  Mn93  1  0.00064219  0.49892509  0.75306844  1
  Mn3.30+  Mn94  1  -0.00195594  0.83167337  0.25274993  1
  Mn3.30+  Mn95  1  0.00172208  0.83218267  0.74991794  1
  Mn3.30+  Mn96  1  0.33423756  0.16702539  0.24901557  1
  Mn3.30+  Mn97  1  0.33332041  0.16546826  0.74984079  1
  Mn3.30+  Mn98  1  0.33368030  0.49897864  0.24670605  1
  Mn3.30+  Mn99  1  0.33238891  0.49837207  0.75202601  1
  Mn3.30+  Mn100  1  0.33521778  0.83422740  0.24824867  1
  Mn3.30+  Mn101  1  0.33345492  0.83490057  0.75039956  1
  Mn3.30+  Mn102  1  0.66606134  0.16621751  0.24962550  1
  Mn3.30+  Mn103  1  0.66589730  0.16713842  0.74965223  1
  Mn3.30+  Mn104  1  0.66641606  0.50102895  0.24689129  1
  Mn3.30+  Mn105  1  0.66602374  0.49888348  0.75247096  1
  Mn3.30+  Mn106  1  0.66688967  0.83461965  0.24948249  1
  Mn3.30+  Mn107  1  0.66493194  0.83437958  0.74980759  1
  Mn3.30+  Mn108  1  0.16930301  -0.00064332  0.25059677  1
  Mn3.30+  Mn109  1  0.17059247  -0.00010335  0.75097798  1
  Mn3.30+  Mn110  1  0.16625732  0.33506799  0.25046901  1
  Mn3.30+  Mn111  1  0.16787287  0.33462021  0.75010097  1
  Mn3.30+  Mn112  1  0.16469434  0.66566212  0.24921253  1
  Mn3.30+  Mn113  1  0.16658929  0.66592554  0.75218036  1
  Mn3.30+  Mn114  1  0.50155243  -0.00063728  0.24945821  1
  Mn3.30+  Mn115  1  0.49748704  0.00022807  0.74933528  1
  Mn3.30+  Mn116  1  0.49862677  0.33535134  0.24655526  1
  Mn3.30+  Mn117  1  0.49717929  0.33466793  0.75044088  1
  Mn3.30+  Mn118  1  0.50062447  0.66736542  0.24751023  1
  Mn3.30+  Mn119  1  0.49990878  0.66627332  0.75179641  1
  Mn3.30+  Mn120  1  0.83293774  -0.00093664  0.25041312  1
  Mn3.30+  Mn121  1  0.83380281  0.00068385  0.75002602  1
  Mn3.30+  Mn122  1  0.83413347  0.33356590  0.24959769  1
  Mn3.30+  Mn123  1  0.83275605  0.33381428  0.75089674  1
  Mn3.30+  Mn124  1  0.83314785  0.66554950  0.25077338  1
  Mn3.30+  Mn125  1  0.83285410  0.66486652  0.75091682  1
  Mn3.30+  Mn126  1  0.00096186  0.16762535  0.00079870  1
  Mn3.30+  Mn127  1  0.00159312  0.16772350  0.49954954  1
  Mn3.30+  Mn128  1  -0.00129009  0.49920090  -0.00177316  1
  Mn3.30+  Mn129  1  0.00076804  0.49943885  0.49844414  1
  Mn3.30+  Mn130  1  -0.00040193  0.83237946  0.00049364  1
  Mn3.30+  Mn131  1  0.00047704  0.83128302  0.49781735  1
  Mn3.30+  Mn132  1  0.33425245  0.16713712  0.00014180  1
  Mn3.30+  Mn133  1  0.33365911  0.16575319  0.50078275  1
  Mn3.30+  Mn134  1  0.33451773  0.49878731  0.00019719  1
  Mn3.30+  Mn135  1  0.33158796  0.49844351  0.50044586  1
  Mn3.30+  Mn136  1  0.33575048  0.83402258  0.00130858  1
  Mn3.30+  Mn137  1  0.33279129  0.83492244  0.49887129  1
  Mn3.30+  Mn138  1  0.66650368  0.16694367  0.00110793  1
  Mn3.30+  Mn139  1  0.66526708  0.16709488  0.49960965  1
  Mn3.30+  Mn140  1  0.66580787  0.50059030  0.00014400  1
  Mn3.30+  Mn141  1  0.66625750  0.49897942  0.49962884  1
  Mn3.30+  Mn142  1  0.66418097  0.83480709  0.00210690  1
  Mn3.30+  Mn143  1  0.66746503  0.83375395  0.49879551  1
  O2-  O144  1  0.02718604  0.16082669  0.12442579  1
  O2-  O145  1  0.02728375  0.16187687  0.62540373  1
  O2-  O146  1  0.02430519  0.49557861  0.12423650  1
  O2-  O147  1  0.02453966  0.49261388  0.62555001  1
  O2-  O148  1  0.02366689  0.82659274  0.12636746  1
  O2-  O149  1  0.02848380  0.82602564  0.62261982  1
  O2-  O150  1  0.36138798  0.15751199  0.12386981  1
  O2-  O151  1  0.35970001  0.15598493  0.62489948  1
  O2-  O152  1  0.36026886  0.49625906  0.12381371  1
  O2-  O153  1  0.35639020  0.49519612  0.62659170  1
  O2-  O154  1  0.36268593  0.82550707  0.12455885  1
  O2-  O155  1  0.35690925  0.82810602  0.62360989  1
  O2-  O156  1  0.68249601  0.16127473  0.12714317  1
  O2-  O157  1  0.68238704  0.17081141  0.62308846  1
  O2-  O158  1  0.69522056  0.49644812  0.12519540  1
  O2-  O159  1  0.69171753  0.49311095  0.62548634  1
  O2-  O160  1  0.69331279  0.82669636  0.12691851  1
  O2-  O161  1  0.69179813  0.82765323  0.62440456  1
  O2-  O162  1  0.13935814  0.33098748  0.12531796  1
  O2-  O163  1  0.13990557  0.32859260  0.62350126  1
  O2-  O164  1  0.14133207  0.66221003  0.12418949  1
  O2-  O165  1  0.14435397  0.66412873  0.62703925  1
  O2-  O166  1  0.14111679  0.99295081  0.12622798  1
  O2-  O167  1  0.14123554  0.99386328  0.62669508  1
  O2-  O168  1  0.47104193  0.32453759  0.12444969  1
  O2-  O169  1  0.47075161  0.32624163  0.62528330  1
  O2-  O170  1  0.47643489  0.65750024  0.12257857  1
  O2-  O171  1  0.48120295  0.66035296  0.62598298  1
  O2-  O172  1  0.47672848  0.99845651  0.12448057  1
  O2-  O173  1  0.47227662  0.99548199  0.62290354  1
  O2-  O174  1  0.80891116  0.32837487  0.12648279  1
  O2-  O175  1  0.80987217  0.33310021  0.62297097  1
  O2-  O176  1  0.80675999  0.65953540  0.12409198  1
  O2-  O177  1  0.80571205  0.65928642  0.62529840  1
  O2-  O178  1  0.80720201  0.99327916  0.12729729  1
  O2-  O179  1  0.81584335  0.99388459  0.62372518  1
  O2-  O180  1  0.30823452  0.17608346  0.37464295  1
  O2-  O181  1  0.30689706  0.17614894  0.87633825  1
  O2-  O182  1  0.31486454  0.50361912  0.37249327  1
  O2-  O183  1  0.30539693  0.50270508  0.87668464  1
  O2-  O184  1  0.30877222  0.84087760  0.37300027  1
  O2-  O185  1  0.30964532  0.84188377  0.87774104  1
  O2-  O186  1  0.63989588  0.17284679  0.37471905  1
  O2-  O187  1  0.64175862  0.17147377  0.87498837  1
  O2-  O188  1  0.63907220  0.50441210  0.37322678  1
  O2-  O189  1  0.63712001  0.50361737  0.87550390  1
  O2-  O190  1  0.64066543  0.83713933  0.37308648  1
  O2-  O191  1  0.64151428  0.84122346  0.87584319  1
  O2-  O192  1  0.97874001  0.17045889  0.37478869  1
  O2-  O193  1  0.98381484  0.17198579  0.87623693  1
  O2-  O194  1  0.97513168  0.50964347  0.37545603  1
  O2-  O195  1  0.97195968  0.49629665  0.87545717  1
  O2-  O196  1  0.97118472  0.84269925  0.37493421  1
  O2-  O197  1  0.97418422  0.84128966  0.87687940  1
  O2-  O198  1  0.19677823  0.00562582  0.37183595  1
  O2-  O199  1  0.19697945  0.00571222  0.87516567  1
  O2-  O200  1  0.19218144  0.33382106  0.37508320  1
  O2-  O201  1  0.19146976  0.33874479  0.87662307  1
  O2-  O202  1  0.19166956  0.67095873  0.37133615  1
  O2-  O203  1  0.19221880  0.67417963  0.87691697  1
  O2-  O204  1  0.52674546  0.00235594  0.37487873  1
  O2-  O205  1  0.52656495  0.00178356  0.87691933  1
  O2-  O206  1  0.52319876  0.34123140  0.37314294  1
  O2-  O207  1  0.52373421  0.33998618  0.87649590  1
  O2-  O208  1  0.52513965  0.67268976  0.37471585  1
  O2-  O209  1  0.52761657  0.67656467  0.87593325  1
  O2-  O210  1  0.85892705  0.00823580  0.37491113  1
  O2-  O211  1  0.85549125  -0.00257997  0.87523719  1
  O2-  O212  1  0.86004868  0.34014111  0.37412753  1
  O2-  O213  1  0.85579310  0.33953296  0.87702108  1
  O2-  O214  1  0.85986214  0.67250269  0.37634419  1
  O2-  O215  1  0.85223907  0.67608906  0.87532431  1
  O2-  O216  1  0.23998612  0.09573658  0.02237572  1
  O2-  O217  1  0.23759235  0.09817728  0.51794612  1
  O2-  O218  1  0.23857680  0.42826694  0.02136556  1
  O2-  O219  1  0.23629990  0.42671227  0.51998424  1
  O2-  O220  1  0.24167066  0.76146464  0.02130034  1
  O2-  O221  1  0.23592902  0.76526917  0.51321944  1
  O2-  O222  1  0.56833547  0.09731494  0.01469170  1
  O2-  O223  1  0.56674004  0.09643258  0.51562402  1
  O2-  O224  1  0.57183266  0.42927973  0.02510855  1
  O2-  O225  1  0.56892961  0.42672143  0.52176311  1
  O2-  O226  1  0.57121449  0.76531922  0.02252687  1
  O2-  O227  1  0.57204749  0.76086726  0.52008525  1
  O2-  O228  1  0.91186693  0.08916076  0.01787772  1
  O2-  O229  1  0.91115785  0.09186017  0.51667324  1
  O2-  O230  1  0.90515960  0.42725953  0.02397898  1
  O2-  O231  1  0.90335986  0.42915202  0.51919093  1
  O2-  O232  1  0.90296157  0.75896574  0.02107692  1
  O2-  O233  1  0.90605411  0.75852739  0.52502445  1
  O2-  O234  1  0.26409227  0.26156896  0.22723053  1
  O2-  O235  1  0.26314450  0.26167020  0.72801971  1
  O2-  O236  1  0.26202103  0.59398134  0.22802646  1
  O2-  O237  1  0.26028003  0.59282803  0.73425445  1
  O2-  O238  1  0.26055598  0.92529401  0.22449549  1
  O2-  O239  1  0.26187498  0.92906272  0.72686277  1
  O2-  O240  1  0.59299325  0.26563868  0.22970382  1
  O2-  O241  1  0.58985748  0.26286823  0.73148572  1
  O2-  O242  1  0.59777964  0.59723811  0.23227812  1
  O2-  O243  1  0.59707891  0.59346322  0.73050812  1
  O2-  O244  1  0.60065820  0.93287909  0.23184195  1
  O2-  O245  1  0.59220243  0.92597052  0.73083992  1
  O2-  O246  1  0.92817326  0.26200008  0.23250875  1
  O2-  O247  1  0.92944460  0.26231964  0.73491541  1
  O2-  O248  1  0.92699082  0.59374475  0.23048425  1
  O2-  O249  1  0.92859460  0.59189204  0.72745295  1
  O2-  O250  1  0.92868424  0.92722898  0.22842030  1
  O2-  O251  1  0.93016254  0.92489136  0.72936182  1
  O2-  O252  1  0.09844435  0.23650318  0.26641985  1
  O2-  O253  1  0.09766647  0.23949504  0.76966277  1
  O2-  O254  1  0.09349571  0.57288288  0.26271888  1
  O2-  O255  1  0.09514432  0.56740322  0.76722961  1
  O2-  O256  1  0.09530993  0.90603728  0.27113204  1
  O2-  O257  1  0.09684869  0.90729746  0.77253318  1
  O2-  O258  1  0.42823851  0.23756579  0.27085454  1
  O2-  O259  1  0.42703592  0.23788108  0.77179556  1
  O2-  O260  1  0.42699956  0.57471110  0.27029233  1
  O2-  O261  1  0.42848394  0.57096091  0.77154274  1
  O2-  O262  1  0.43225503  0.90646290  0.26707020  1
  O2-  O263  1  0.42965258  0.90316189  0.76737412  1
  O2-  O264  1  0.75970498  0.24128774  0.27319921  1
  O2-  O265  1  0.75656560  0.24488116  0.76797339  1
  O2-  O266  1  0.76013932  0.57376239  0.27465850  1
  O2-  O267  1  0.76146972  0.57006675  0.77221217  1
  O2-  O268  1  0.76386007  0.90302842  0.27378384  1
  O2-  O269  1  0.75976590  0.90443505  0.76878535  1
  O2-  O270  1  0.07553502  0.06974292  0.47925146  1
  O2-  O271  1  0.07512098  0.07224661  0.97966592  1
  O2-  O272  1  0.06675661  0.40146350  0.48174877  1
  O2-  O273  1  0.06923125  0.40323142  0.98310924  1
  O2-  O274  1  0.06967484  0.73811439  0.47586046  1
  O2-  O275  1  0.07508209  0.74238414  0.98279832  1
  O2-  O276  1  0.40472103  0.07193936  0.47437425  1
  O2-  O277  1  0.40518340  0.06984892  0.97804694  1
  O2-  O278  1  0.40618239  0.40569156  0.47909987  1
  O2-  O279  1  0.40381408  0.40475888  0.97964641  1
  O2-  O280  1  0.40442837  0.74111761  0.47615424  1
  O2-  O281  1  0.40421199  0.73818530  0.97803738  1
  O2-  O282  1  0.74084480  0.07519704  0.47861641  1
  O2-  O283  1  0.73936240  0.07096045  0.98305928  1
  O2-  O284  1  0.73713926  0.40593253  0.47839755  1
  O2-  O285  1  0.73321692  0.40591348  0.98213688  1
  O2-  O286  1  0.73834568  0.73619950  0.48195157  1
  O2-  O287  1  0.73566424  0.73919789  0.98119420  1
  O2-  O288  1  0.09857335  0.23629965  0.48212610  1
  O2-  O289  1  0.09829466  0.23934679  0.98206505  1
  O2-  O290  1  0.09129383  0.57232180  0.48864224  1
  O2-  O291  1  0.09644711  0.56677412  0.98213916  1
  O2-  O292  1  0.09606524  0.90451959  0.47741317  1
  O2-  O293  1  0.09468937  0.90790742  0.97984867  1
  O2-  O294  1  0.42837890  0.23824788  0.47859275  1
  O2-  O295  1  0.42763189  0.23771091  0.97825884  1
  O2-  O296  1  0.42839121  0.57280563  0.48112814  1
  O2-  O297  1  0.42635719  0.57187532  0.97508110  1
  O2-  O298  1  0.42951303  0.90320252  0.48078678  1
  O2-  O299  1  0.43013295  0.90515595  0.98302493  1
  O2-  O300  1  0.75958219  0.24272585  0.47616445  1
  O2-  O301  1  0.75583776  0.24361145  0.98258975  1
  O2-  O302  1  0.76271189  0.57233671  0.47795730  1
  O2-  O303  1  0.76073955  0.57133528  0.97533472  1
  O2-  O304  1  0.76232623  0.90468574  0.47837798  1
  O2-  O305  1  0.76090969  0.90292462  0.98072395  1
  O2-  O306  1  0.07554708  0.07082719  0.27060710  1
  O2-  O307  1  0.07596783  0.07054240  0.77164239  1
  O2-  O308  1  0.06563651  0.40360222  0.26755116  1
  O2-  O309  1  0.06981664  0.40284718  0.76800485  1
  O2-  O310  1  0.07021515  0.73949194  0.27168102  1
  O2-  O311  1  0.07312016  0.74097770  0.76971562  1
  O2-  O312  1  0.40380554  0.07028263  0.27090747  1
  O2-  O313  1  0.40434534  0.07265290  0.77514654  1
  O2-  O314  1  0.40625702  0.40585295  0.27043173  1
  O2-  O315  1  0.40467693  0.40510130  0.77035826  1
  O2-  O316  1  0.40359358  0.73863061  0.27080884  1
  O2-  O317  1  0.40557138  0.74066145  0.77350709  1
  O2-  O318  1  0.74219710  0.07340546  0.27332366  1
  O2-  O319  1  0.73909124  0.07289337  0.76679279  1
  O2-  O320  1  0.73690274  0.40578991  0.27086756  1
  O2-  O321  1  0.73554079  0.40565388  0.76898375  1
  O2-  O322  1  0.73659262  0.73683030  0.26821854  1
  O2-  O323  1  0.73590202  0.73982558  0.76932168  1
  O2-  O324  1  0.23998141  0.09550910  0.22711834  1
  O2-  O325  1  0.23634709  0.09805492  0.73205610  1
  O2-  O326  1  0.23789395  0.42805856  0.22941494  1
  O2-  O327  1  0.23692969  0.42687743  0.72995912  1
  O2-  O328  1  0.23715420  0.75977653  0.22875814  1
  O2-  O329  1  0.23826771  0.76609589  0.73611044  1
  O2-  O330  1  0.56724600  0.09701658  0.23521557  1
  O2-  O331  1  0.56737099  0.09603592  0.73436061  1
  O2-  O332  1  0.57118934  0.43094197  0.22630879  1
  O2-  O333  1  0.57230551  0.42591971  0.72609576  1
  O2-  O334  1  0.57032971  0.76407206  0.22821802  1
  O2-  O335  1  0.57225696  0.76240970  0.72878586  1
  O2-  O336  1  0.91010592  0.09108192  0.23286830  1
  O2-  O337  1  0.91326152  0.08968541  0.73383202  1
  O2-  O338  1  0.90210569  0.43056309  0.22967022  1
  O2-  O339  1  0.90618536  0.42587303  0.72829937  1
  O2-  O340  1  0.90357522  0.75775745  0.22681537  1
  O2-  O341  1  0.90465645  0.75956054  0.72833962  1
  O2-  O342  1  0.26209681  0.26275599  0.02303034  1
  O2-  O343  1  0.26392949  0.26194614  0.52222380  1
  O2-  O344  1  0.26347132  0.59425200  0.02106697  1
  O2-  O345  1  0.25840495  0.59249706  0.51527071  1
  O2-  O346  1  0.26078741  0.92531898  0.02465077  1
  O2-  O347  1  0.26174680  0.92856957  0.52244775  1
  O2-  O348  1  0.59148538  0.26417934  0.02016797  1
  O2-  O349  1  0.59121708  0.26428530  0.51819071  1
  O2-  O350  1  0.59929253  0.59737715  0.01738494  1
  O2-  O351  1  0.59615844  0.59264064  0.51947649  1
  O2-  O352  1  0.59852907  0.93248882  0.02009467  1
  O2-  O353  1  0.59159238  0.92683445  0.51704738  1
  O2-  O354  1  0.93145753  0.26161813  0.01630957  1
  O2-  O355  1  0.92738150  0.26165662  0.51743477  1
  O2-  O356  1  0.92960419  0.59393960  0.01981300  1
  O2-  O357  1  0.92494250  0.59239933  0.52450892  1
  O2-  O358  1  0.92728969  0.92618835  0.02242813  1
  O2-  O359  1  0.93169637  0.92529396  0.52110080  1
