# generated using pymatgen
data_Sr7Ca15Pr50Mn72O216
_symmetry_space_group_name_H-M   'P 1'
_cell_length_a   16.55848323
_cell_length_b   16.60393145
_cell_length_c   15.59365653
_cell_angle_alpha   90.00720857
_cell_angle_beta   90.00103560
_cell_angle_gamma   90.00099430
_symmetry_Int_Tables_number   1
_chemical_formula_structural   Sr7Ca15Pr50Mn72O216
_chemical_formula_sum   'Sr7 Ca15 Pr50 Mn72 O216'
_cell_volume   4287.25627397
_cell_formula_units_Z   1
loop_
 _symmetry_equiv_pos_site_id
 _symmetry_equiv_pos_as_xyz
  1  'x, y, z'
loop_
 _atom_type_symbol
 _atom_type_oxidation_number
  Sr2+  2.0
  Ca2+  2.0
  Pr3+  3.0
  Mn3.30+  3.3
  O2-  -2.0
loop_
 _atom_site_type_symbol
 _atom_site_label
 _atom_site_symmetry_multiplicity
 _atom_site_fract_x
 _atom_site_fract_y
 _atom_site_fract_z
 _atom_site_occupancy
  Sr2+  Sr0  1  0.83530686  0.49297798  0.87725277  1
  Sr2+  Sr1  1  0.83471834  0.50786633  0.12345289  1
  Sr2+  Sr2  1  0.49757344  0.15939869  0.87838421  1
  Sr2+  Sr3  1  0.16947285  0.84241098  0.62426685  1
  Sr2+  Sr4  1  -0.00300453  0.67210609  0.12261444  1
  Sr2+  Sr5  1  0.49841026  0.48903717  0.37541316  1
  Sr2+  Sr6  1  0.66457763  0.34383026  0.12504295  1
  Ca2+  Ca7  1  0.17280633  0.51772148  0.62400101  1
  Ca2+  Ca8  1  0.50303767  0.18587980  0.12635319  1
  Ca2+  Ca9  1  0.66915596  0.65050235  0.37585983  1
  Ca2+  Ca10  1  0.33801907  0.31973196  0.37177484  1
  Ca2+  Ca11  1  1.00592652  0.32058307  0.37243402  1
  Ca2+  Ca12  1  0.16287967  0.48186794  0.37523236  1
  Ca2+  Ca13  1  0.32839102  0.68084653  0.62383889  1
  Ca2+  Ca14  1  0.82886928  0.15466435  0.87642548  1
  Ca2+  Ca15  1  1.00298825  0.64974777  0.87471997  1
  Ca2+  Ca16  1  0.66198370  0.68048613  0.62324237  1
  Ca2+  Ca17  1  0.33279472  0.34610593  0.12792830  1
  Ca2+  Ca18  1  0.33772387  0.31906190  0.87839749  1
  Ca2+  Ca19  1  0.16871174  0.84654947  0.12545150  1
  Ca2+  Ca20  1  0.49571337  0.15624825  0.37109903  1
  Ca2+  Ca21  1  0.17359596  0.18794359  0.12691432  1
  Pr3+  Pr22  1  -0.00155381  0.01320564  0.62458645  1
  Pr3+  Pr23  1  0.83560808  0.18072702  0.12380984  1
  Pr3+  Pr24  1  0.66981508  0.98928857  0.87612917  1
  Pr3+  Pr25  1  0.16939720  0.50969145  0.12701242  1
  Pr3+  Pr26  1  1.00121881  0.32228618  0.87710347  1
  Pr3+  Pr27  1  0.83749040  0.18060840  0.62602992  1
  Pr3+  Pr28  1  0.50310382  0.84491891  0.12530689  1
  Pr3+  Pr29  1  0.49653531  0.82021127  0.87538684  1
  Pr3+  Pr30  1  0.33463902  0.65187127  0.37801703  1
  Pr3+  Pr31  1  0.83291154  0.15632802  0.37310258  1
  Pr3+  Pr32  1  0.66631521  0.32221172  0.37294677  1
  Pr3+  Pr33  1  0.83215900  0.81916481  0.87496919  1
  Pr3+  Pr34  1  0.67110535  0.31908903  0.87646181  1
  Pr3+  Pr35  1  -0.00074812  0.34608345  0.12666812  1
  Pr3+  Pr36  1  0.83755465  0.84129857  0.12466350  1
  Pr3+  Pr37  1  0.33503068  0.65379606  0.87251744  1
  Pr3+  Pr38  1  0.66132171  0.01600486  0.12555563  1
  Pr3+  Pr39  1  0.33665346  0.98928433  0.37441994  1
  Pr3+  Pr40  1  0.32831319  0.34717984  0.62436437  1
  Pr3+  Pr41  1  0.83078174  0.48871282  0.37394132  1
  Pr3+  Pr42  1  0.50147786  0.51553585  0.62267623  1
  Pr3+  Pr43  1  0.83493017  0.51328300  0.62588777  1
  Pr3+  Pr44  1  0.82912679  0.81619857  0.37465699  1
  Pr3+  Pr45  1  0.16447803  0.82040577  0.37463126  1
  Pr3+  Pr46  1  0.83572559  0.84573359  0.62457378  1
  Pr3+  Pr47  1  0.32925849  0.01856109  0.12561475  1
  Pr3+  Pr48  1  0.17011984  0.17899592  0.62417146  1
  Pr3+  Pr49  1  1.00385585  0.98690942  0.37373896  1
  Pr3+  Pr50  1  0.50120450  0.50616239  0.12803465  1
  Pr3+  Pr51  1  0.50072015  0.84409847  0.62458176  1
  Pr3+  Pr52  1  0.49746661  0.81901223  0.37444621  1
  Pr3+  Pr53  1  1.00431079  0.65085582  0.37560316  1
  Pr3+  Pr54  1  0.32981024  0.01373510  0.62478221  1
  Pr3+  Pr55  1  0.66604457  0.67160766  0.12588120  1
  Pr3+  Pr56  1  1.00171886  0.98882208  0.87615097  1
  Pr3+  Pr57  1  -0.00039758  0.67879661  0.62699188  1
  Pr3+  Pr58  1  0.16149870  0.81732733  0.87509780  1
  Pr3+  Pr59  1  0.16320718  0.48708682  0.87421259  1
  Pr3+  Pr60  1  0.16603233  0.15760515  0.37217370  1
  Pr3+  Pr61  1  0.66368064  0.01197782  0.62433694  1
  Pr3+  Pr62  1  0.50128915  0.17975755  0.62374001  1
  Pr3+  Pr63  1  0.16668827  0.15622846  0.87853673  1
  Pr3+  Pr64  1  0.33684665  0.98805007  0.87626340  1
  Pr3+  Pr65  1  0.00045811  0.34712582  0.62340124  1
  Pr3+  Pr66  1  0.66808398  0.65293634  0.87312693  1
  Pr3+  Pr67  1  0.49391249  0.48453940  0.87446216  1
  Pr3+  Pr68  1  0.66768210  0.98828075  0.37375756  1
  Pr3+  Pr69  1  0.00043133  0.01142485  0.12507265  1
  Pr3+  Pr70  1  0.66326582  0.34624972  0.62473126  1
  Pr3+  Pr71  1  0.32693527  0.67890974  0.12657754  1
  Mn3.30+  Mn72  1  0.16793461  0.00059166  0.00229934  1
  Mn3.30+  Mn73  1  0.16747893  0.00060326  0.49919235  1
  Mn3.30+  Mn74  1  0.17103676  0.33318999  0.00076706  1
  Mn3.30+  Mn75  1  0.16744173  0.33546190  0.49733793  1
  Mn3.30+  Mn76  1  0.16484953  0.66636152  0.00128104  1
  Mn3.30+  Mn77  1  0.16866425  0.66400673  0.50029280  1
  Mn3.30+  Mn78  1  0.49897651  0.00247076  0.00114739  1
  Mn3.30+  Mn79  1  0.49977070  0.00120188  0.49863560  1
  Mn3.30+  Mn80  1  0.49769461  0.33259036  0.00144802  1
  Mn3.30+  Mn81  1  0.49654402  0.33344922  0.49781450  1
  Mn3.30+  Mn82  1  0.49766783  0.66503787  0.00083069  1
  Mn3.30+  Mn83  1  0.50032682  0.66626196  0.50006162  1
  Mn3.30+  Mn84  1  0.83337317  0.00058614  0.00112889  1
  Mn3.30+  Mn85  1  0.83323559  0.00020863  0.49834581  1
  Mn3.30+  Mn86  1  0.83381604  0.33373002  -0.00044720  1
  Mn3.30+  Mn87  1  0.83527988  0.33394257  0.49831671  1
  Mn3.30+  Mn88  1  0.83430020  0.66484286  -0.00194383  1
  Mn3.30+  Mn89  1  0.83113594  0.66580229  0.50186168  1
  Mn3.30+  Mn90  1  0.00327400  0.16786571  0.24812084  1
  Mn3.30+  Mn91  1  -0.00035636  0.16747307  0.75271013  1
  Mn3.30+  Mn92  1  0.00146169  0.49791308  0.25283115  1
  Mn3.30+  Mn93  1  0.00279644  0.50077229  0.74790846  1
  Mn3.30+  Mn94  1  0.00130483  0.83102734  0.24810383  1
  Mn3.30+  Mn95  1  0.00025127  0.83271195  0.75032755  1
  Mn3.30+  Mn96  1  0.33463778  0.17156512  0.24825590  1
  Mn3.30+  Mn97  1  0.33424879  0.16883540  0.75209140  1
  Mn3.30+  Mn98  1  0.33225126  0.49659606  0.25336777  1
  Mn3.30+  Mn99  1  0.33081032  0.50016371  0.74805571  1
  Mn3.30+  Mn100  1  0.33212045  0.83414872  0.24903789  1
  Mn3.30+  Mn101  1  0.33151625  0.83230815  0.74989017  1
  Mn3.30+  Mn102  1  0.66288910  0.16814855  0.25056810  1
  Mn3.30+  Mn103  1  0.66801012  0.16617260  0.75006376  1
  Mn3.30+  Mn104  1  0.66611354  0.49976686  0.25104863  1
  Mn3.30+  Mn105  1  0.66557784  0.50042648  0.74931174  1
  Mn3.30+  Mn106  1  0.66694552  0.83053217  0.25006373  1
  Mn3.30+  Mn107  1  0.66612203  0.83258671  0.74909052  1
  Mn3.30+  Mn108  1  0.16798467  0.00126792  0.24789322  1
  Mn3.30+  Mn109  1  0.16729006  0.00007764  0.75092145  1
  Mn3.30+  Mn110  1  0.16965536  0.33426088  0.25177889  1
  Mn3.30+  Mn111  1  0.16855134  0.33381516  0.75094414  1
  Mn3.30+  Mn112  1  0.16590224  0.66545457  0.25009479  1
  Mn3.30+  Mn113  1  0.16772409  0.66519131  0.74895718  1
  Mn3.30+  Mn114  1  0.49886727  0.00309420  0.24927268  1
  Mn3.30+  Mn115  1  0.49957345  0.00096342  0.75110629  1
  Mn3.30+  Mn116  1  0.49735339  0.33259762  0.25120200  1
  Mn3.30+  Mn117  1  0.49738273  0.33337836  0.74977325  1
  Mn3.30+  Mn118  1  0.49852085  0.66448354  0.25155356  1
  Mn3.30+  Mn119  1  0.49920732  0.66694846  0.74709357  1
  Mn3.30+  Mn120  1  0.83330773  -0.00075959  0.24862600  1
  Mn3.30+  Mn121  1  0.83319588  0.00156975  0.75095283  1
  Mn3.30+  Mn122  1  0.83602846  0.33372356  0.25121013  1
  Mn3.30+  Mn123  1  0.83339237  0.33392149  0.75078007  1
  Mn3.30+  Mn124  1  0.83367336  0.66407794  0.25038879  1
  Mn3.30+  Mn125  1  0.83194913  0.66644009  0.74907872  1
  Mn3.30+  Mn126  1  0.00118774  0.16655008  0.00123752  1
  Mn3.30+  Mn127  1  0.00152712  0.16893283  0.49825662  1
  Mn3.30+  Mn128  1  0.00068951  0.50009314  -0.00144207  1
  Mn3.30+  Mn129  1  0.00393485  0.49871856  0.50073765  1
  Mn3.30+  Mn130  1  0.00181318  0.83083595  0.00057838  1
  Mn3.30+  Mn131  1  -0.00001206  0.83290555  0.50005711  1
  Mn3.30+  Mn132  1  0.33357809  0.17150695  0.00384373  1
  Mn3.30+  Mn133  1  0.33531521  0.16889693  0.49705345  1
  Mn3.30+  Mn134  1  0.33279006  0.49771113  0.00041537  1
  Mn3.30+  Mn135  1  0.33031569  0.49876205  0.49934164  1
  Mn3.30+  Mn136  1  0.33103564  0.83365571  0.00175810  1
  Mn3.30+  Mn137  1  0.33268602  0.83234186  0.49979291  1
  Mn3.30+  Mn138  1  0.66530577  0.16736579  0.00050517  1
  Mn3.30+  Mn139  1  0.66593071  0.16697901  0.49817987  1
  Mn3.30+  Mn140  1  0.66500400  0.49893254  -0.00011288  1
  Mn3.30+  Mn141  1  0.66615132  0.50140082  0.49955491  1
  Mn3.30+  Mn142  1  0.66699886  0.83249542  0.00075245  1
  Mn3.30+  Mn143  1  0.66650054  0.83048106  0.49910294  1
  O2-  O144  1  0.02987247  0.15974334  0.12427632  1
  O2-  O145  1  0.02559246  0.16137066  0.62512769  1
  O2-  O146  1  0.02460509  0.49492422  0.12607750  1
  O2-  O147  1  0.03046683  0.49392703  0.62308454  1
  O2-  O148  1  0.02568833  0.82833781  0.12467071  1
  O2-  O149  1  0.01933765  0.82861575  0.62606646  1
  O2-  O150  1  0.36278803  0.16213580  0.12615764  1
  O2-  O151  1  0.35665310  0.16096731  0.62250870  1
  O2-  O152  1  0.35691025  0.49369419  0.12585176  1
  O2-  O153  1  0.35891537  0.49191849  0.62441140  1
  O2-  O154  1  0.35936912  0.82634114  0.12576359  1
  O2-  O155  1  0.35656440  0.82894599  0.62349453  1
  O2-  O156  1  0.69203406  0.16329569  0.12571807  1
  O2-  O157  1  0.69404009  0.16102938  0.62289277  1
  O2-  O158  1  0.68307244  0.50286619  0.12476123  1
  O2-  O159  1  0.69112358  0.49204178  0.62436914  1
  O2-  O160  1  0.69310670  0.82284153  0.12469771  1
  O2-  O161  1  0.69256239  0.82820756  0.62234016  1
  O2-  O162  1  0.14254262  0.33340768  0.12519002  1
  O2-  O163  1  0.14239338  0.32371792  0.62499666  1
  O2-  O164  1  0.14619870  0.65694780  0.12758631  1
  O2-  O165  1  0.14232317  0.66290746  0.62363448  1
  O2-  O166  1  0.14286537  0.99115612  0.12415866  1
  O2-  O167  1  0.14279540  1.00076327  0.62333657  1
  O2-  O168  1  0.47648165  0.33462930  0.12680150  1
  O2-  O169  1  0.47427258  0.32767279  0.62298684  1
  O2-  O170  1  0.47115205  0.65821013  0.12697462  1
  O2-  O171  1  0.47108724  0.66472943  0.62446036  1
  O2-  O172  1  0.47363975  0.99008444  0.12572651  1
  O2-  O173  1  0.47400874  0.99265249  0.62574029  1
  O2-  O174  1  0.81532100  0.32854814  0.12549569  1
  O2-  O175  1  0.80767269  0.32745425  0.62439788  1
  O2-  O176  1  0.81115195  0.66889568  0.12348431  1
  O2-  O177  1  0.80454679  0.66238146  0.62549336  1
  O2-  O178  1  0.80603637  0.99002181  0.12506797  1
  O2-  O179  1  0.80791702  0.99444956  0.62206986  1
  O2-  O180  1  0.30879782  0.17178066  0.37334981  1
  O2-  O181  1  0.30932901  0.17341449  0.87939292  1
  O2-  O182  1  0.30387765  0.50769684  0.37811409  1
  O2-  O183  1  0.30669195  0.50893641  0.87247471  1
  O2-  O184  1  0.30882685  0.84044082  0.37324121  1
  O2-  O185  1  0.30715850  0.83920378  0.87776553  1
  O2-  O186  1  0.63964194  0.17229598  0.37583844  1
  O2-  O187  1  0.64755927  0.16889670  0.87485408  1
  O2-  O188  1  0.64866898  0.50439075  0.37763376  1
  O2-  O189  1  0.63843024  0.50555142  0.87294067  1
  O2-  O190  1  0.64035200  0.84155706  0.37460977  1
  O2-  O191  1  0.64009906  0.84082204  0.87749893  1
  O2-  O192  1  0.97668857  0.17226294  0.37328962  1
  O2-  O193  1  0.97228302  0.17265263  0.87768547  1
  O2-  O194  1  0.97417032  0.50519261  0.37940594  1
  O2-  O195  1  0.98553212  0.50212326  0.87107358  1
  O2-  O196  1  0.97400405  0.83877656  0.37506133  1
  O2-  O197  1  0.97472893  0.84240580  0.87361109  1
  O2-  O198  1  0.19203003  0.00776819  0.37381186  1
  O2-  O199  1  0.19300396  0.00817578  0.87867138  1
  O2-  O200  1  0.19536974  0.33645524  0.37580973  1
  O2-  O201  1  0.19580125  0.33916974  0.87510528  1
  O2-  O202  1  0.19115218  0.67439102  0.37344811  1
  O2-  O203  1  0.19192918  0.66947437  0.87562461  1
  O2-  O204  1  0.52461133  0.00822155  0.37277029  1
  O2-  O205  1  0.52528957  0.00261991  0.87584097  1
  O2-  O206  1  0.52404067  0.33633092  0.37720199  1
  O2-  O207  1  0.52569236  0.33806417  0.87285629  1
  O2-  O208  1  0.52666647  0.67207303  0.37556379  1
  O2-  O209  1  0.52394431  0.67194903  0.87285335  1
  O2-  O210  1  0.85951804  0.00717955  0.37394982  1
  O2-  O211  1  0.85785763  0.00835877  0.87827249  1
  O2-  O212  1  0.86294324  0.33894610  0.37583167  1
  O2-  O213  1  0.85698394  0.33672721  0.87417249  1
  O2-  O214  1  0.85920902  0.66914370  0.37851592  1
  O2-  O215  1  0.85823111  0.67200859  0.87168460  1
  O2-  O216  1  0.23798007  0.10035087  0.02345199  1
  O2-  O217  1  0.23874474  0.09572332  0.51829166  1
  O2-  O218  1  0.23628376  0.43239994  0.01697566  1
  O2-  O219  1  0.23541972  0.42865803  0.52504500  1
  O2-  O220  1  0.23446097  0.76155736  0.02116243  1
  O2-  O221  1  0.23914244  0.76064879  0.51209519  1
  O2-  O222  1  0.57167843  0.09389151  0.02432728  1
  O2-  O223  1  0.57312200  0.09092291  0.52376904  1
  O2-  O224  1  0.56673334  0.42999225  0.01492712  1
  O2-  O225  1  0.57184783  0.42606807  0.52169873  1
  O2-  O226  1  0.57044573  0.75869466  0.02110793  1
  O2-  O227  1  0.56974024  0.76389969  0.51935027  1
  O2-  O228  1  0.90605912  0.09128346  0.02627949  1
  O2-  O229  1  0.90690160  0.09594647  0.51973532  1
  O2-  O230  1  0.91394845  0.42217850  0.01639100  1
  O2-  O231  1  0.90492790  0.42867983  0.52318652  1
  O2-  O232  1  0.90315910  0.76485565  0.01414427  1
  O2-  O233  1  0.90165106  0.75976744  0.52037943  1
  O2-  O234  1  0.26499643  0.26478274  0.22946819  1
  O2-  O235  1  0.25912241  0.26052261  0.72844397  1
  O2-  O236  1  0.26140487  0.59445132  0.23120554  1
  O2-  O237  1  0.26542402  0.59836928  0.72988189  1
  O2-  O238  1  0.26282448  0.93238399  0.23219131  1
  O2-  O239  1  0.26349746  0.93103919  0.73384390  1
  O2-  O240  1  0.59454853  0.26177733  0.23554963  1
  O2-  O241  1  0.59674584  0.26003684  0.72914301  1
  O2-  O242  1  0.58942292  0.59301034  0.22994339  1
  O2-  O243  1  0.59315605  0.59702826  0.72645549  1
  O2-  O244  1  0.59553825  0.92689636  0.22969258  1
  O2-  O245  1  0.59497334  0.92676218  0.72909219  1
  O2-  O246  1  0.92831433  0.25769701  0.22780722  1
  O2-  O247  1  0.92932050  0.26198062  0.72884984  1
  O2-  O248  1  0.92782613  0.59370901  0.23909887  1
  O2-  O249  1  0.92643545  0.59319644  0.72582047  1
  O2-  O250  1  0.92976410  0.92616157  0.22850957  1
  O2-  O251  1  0.92656732  0.93011430  0.72991953  1
  O2-  O252  1  0.09956833  0.24049004  0.26824212  1
  O2-  O253  1  0.09497954  0.23862659  0.77302072  1
  O2-  O254  1  0.09419012  0.56894082  0.27319422  1
  O2-  O255  1  0.09756461  0.57195272  0.76643139  1
  O2-  O256  1  0.09249107  0.90545962  0.27158455  1
  O2-  O257  1  0.09419974  0.90771902  0.77236704  1
  O2-  O258  1  0.43029523  0.23726415  0.27041486  1
  O2-  O259  1  0.42816462  0.23854113  0.76310151  1
  O2-  O260  1  0.42246164  0.57310238  0.27052558  1
  O2-  O261  1  0.42887069  0.57116708  0.76851731  1
  O2-  O262  1  0.42959506  0.90588431  0.27067674  1
  O2-  O263  1  0.42770296  0.90454131  0.77118999  1
  O2-  O264  1  0.76299027  0.24043013  0.27137862  1
  O2-  O265  1  0.76243550  0.23520850  0.76907645  1
  O2-  O266  1  0.76092275  0.57334526  0.26816354  1
  O2-  O267  1  0.75856263  0.57383316  0.76833102  1
  O2-  O268  1  0.76216738  0.90513996  0.27149538  1
  O2-  O269  1  0.76231103  0.90619293  0.77048446  1
  O2-  O270  1  0.07269636  0.07190225  0.47865819  1
  O2-  O271  1  0.07079484  0.07264265  0.97869558  1
  O2-  O272  1  0.06897450  0.39957869  0.47995216  1
  O2-  O273  1  0.07583710  0.40434307  0.98004268  1
  O2-  O274  1  0.07234704  0.73782358  0.48108658  1
  O2-  O275  1  0.07045951  0.73779389  0.97399003  1
  O2-  O276  1  0.40224098  0.07101455  0.48255697  1
  O2-  O277  1  0.40041233  0.07088299  0.98420369  1
  O2-  O278  1  0.39840647  0.40075906  0.48283537  1
  O2-  O279  1  0.40429753  0.40724484  0.97587128  1
  O2-  O280  1  0.40859044  0.74009926  0.47629571  1
  O2-  O281  1  0.40368120  0.73863637  0.98019132  1
  O2-  O282  1  0.73916278  0.07238707  0.47710565  1
  O2-  O283  1  0.73616416  0.06982014  0.98542240  1
  O2-  O284  1  0.74060655  0.40357790  0.47935419  1
  O2-  O285  1  0.73632351  0.40690176  0.98127895  1
  O2-  O286  1  0.73676252  0.73857369  0.47523135  1
  O2-  O287  1  0.73785619  0.73989350  0.97702339  1
  O2-  O288  1  0.09836200  0.23697780  0.48152228  1
  O2-  O289  1  0.09559577  0.24179374  0.97792631  1
  O2-  O290  1  0.09583246  0.57169170  0.47637339  1
  O2-  O291  1  0.09691562  0.57083064  0.98310405  1
  O2-  O292  1  0.09499573  0.90872504  0.47692323  1
  O2-  O293  1  0.09286865  0.90549765  0.97773942  1
  O2-  O294  1  0.43244185  0.23363888  0.48208172  1
  O2-  O295  1  0.42688681  0.24189501  0.98455240  1
  O2-  O296  1  0.42553961  0.57228425  0.48302500  1
  O2-  O297  1  0.42561610  0.57134376  0.97804697  1
  O2-  O298  1  0.42953667  0.90595264  0.47849181  1
  O2-  O299  1  0.42958055  0.90529799  0.98024027  1
  O2-  O300  1  0.76324667  0.23962987  0.47725572  1
  O2-  O301  1  0.76256799  0.23733618  0.98129402  1
  O2-  O302  1  0.76574040  0.56989180  0.48398863  1
  O2-  O303  1  0.75266609  0.57730199  0.98064901  1
  O2-  O304  1  0.75999335  0.90399713  0.47784818  1
  O2-  O305  1  0.76333740  0.90623176  0.97809826  1
  O2-  O306  1  0.07190929  0.07124526  0.26988856  1
  O2-  O307  1  0.07179420  0.07249059  0.77129716  1
  O2-  O308  1  0.07137083  0.40212559  0.26930336  1
  O2-  O309  1  0.07376019  0.40160267  0.77029688  1
  O2-  O310  1  0.07239591  0.73884315  0.27406134  1
  O2-  O311  1  0.07116639  0.73612299  0.76999682  1
  O2-  O312  1  0.40126100  0.07109999  0.26727887  1
  O2-  O313  1  0.40290771  0.07036452  0.76692902  1
  O2-  O314  1  0.40235273  0.40398389  0.26993760  1
  O2-  O315  1  0.40093088  0.40548118  0.77095215  1
  O2-  O316  1  0.40570301  0.73822495  0.27155185  1
  O2-  O317  1  0.40659116  0.74027436  0.77241313  1
  O2-  O318  1  0.73702665  0.07324848  0.26948802  1
  O2-  O319  1  0.73666853  0.06892592  0.76636159  1
  O2-  O320  1  0.74292754  0.40636847  0.27212225  1
  O2-  O321  1  0.73614349  0.40196967  0.76646652  1
  O2-  O322  1  0.73756805  0.73652213  0.27234094  1
  O2-  O323  1  0.73727473  0.74168911  0.77268955  1
  O2-  O324  1  0.23898334  0.10031473  0.22838711  1
  O2-  O325  1  0.23856466  0.09586923  0.73229942  1
  O2-  O326  1  0.23616191  0.42979595  0.23281356  1
  O2-  O327  1  0.23609004  0.43087207  0.72718676  1
  O2-  O328  1  0.23766427  0.76311138  0.22955747  1
  O2-  O329  1  0.23754093  0.76114385  0.73739162  1
  O2-  O330  1  0.56998336  0.09292002  0.22527693  1
  O2-  O331  1  0.57461482  0.09336439  0.72582797  1
  O2-  O332  1  0.57119277  0.42651081  0.23519303  1
  O2-  O333  1  0.56885765  0.42854160  0.72836314  1
  O2-  O334  1  0.57064059  0.75928825  0.22817589  1
  O2-  O335  1  0.56900109  0.76279746  0.73136024  1
  O2-  O336  1  0.90489794  0.09279034  0.22757362  1
  O2-  O337  1  0.90629914  0.09350416  0.72749326  1
  O2-  O338  1  0.90933166  0.42556992  0.23276945  1
  O2-  O339  1  0.90956711  0.42731145  0.72610167  1
  O2-  O340  1  0.90267365  0.76310234  0.23556892  1
  O2-  O341  1  0.90271325  0.76170048  0.72907965  1
  O2-  O342  1  0.26293015  0.26513025  0.02407513  1
  O2-  O343  1  0.26138365  0.26042137  0.52106817  1
  O2-  O344  1  0.26321692  0.59476424  0.01994930  1
  O2-  O345  1  0.26432176  0.59783197  0.52017205  1
  O2-  O346  1  0.26496392  0.93059683  0.01948795  1
  O2-  O347  1  0.26299093  0.93168350  0.51590641  1
  O2-  O348  1  0.59486826  0.26118182  0.01302834  1
  O2-  O349  1  0.59573065  0.26093444  0.52130350  1
  O2-  O350  1  0.59070228  0.59397493  0.01909006  1
  O2-  O351  1  0.59228917  0.59556694  0.52391870  1
  O2-  O352  1  0.59623084  0.92638858  0.02281347  1
  O2-  O353  1  0.59574895  0.92693084  0.51923457  1
  O2-  O354  1  0.93109799  0.25778001  0.02249442  1
  O2-  O355  1  0.92679994  0.26090255  0.52307033  1
  O2-  O356  1  0.92423745  0.59103559  0.01084033  1
  O2-  O357  1  0.92992162  0.59442720  0.52365029  1
  O2-  O358  1  0.92873894  0.92749470  0.02076140  1
  O2-  O359  1  0.92715234  0.92893276  0.51979213  1
