# generated using pymatgen
data_Sr7Ca15Pr50Mn72O216
_symmetry_space_group_name_H-M   'P 1'
_cell_length_a   16.55891370
_cell_length_b   16.60541262
_cell_length_c   15.59202850
_cell_angle_alpha   90.00089649
_cell_angle_beta   89.99822371
_cell_angle_gamma   90.00268967
_symmetry_Int_Tables_number   1
_chemical_formula_structural   Sr7Ca15Pr50Mn72O216
_chemical_formula_sum   'Sr7 Ca15 Pr50 Mn72 O216'
_cell_volume   4287.30256282
_cell_formula_units_Z   1
loop_
 _symmetry_equiv_pos_site_id
 _symmetry_equiv_pos_as_xyz
  1  'x, y, z'
loop_
 _atom_type_symbol
 _atom_type_oxidation_number
  Sr2+  2.0
  Ca2+  2.0
  Pr3+  3.0
  Mn3.30+  3.3
  O2-  -2.0
loop_
 _atom_site_type_symbol
 _atom_site_label
 _atom_site_symmetry_multiplicity
 _atom_site_fract_x
 _atom_site_fract_y
 _atom_site_fract_z
 _atom_site_occupancy
  Sr2+  Sr0  1  0.49667739  0.82523593  0.37621629  1
  Sr2+  Sr1  1  0.50258462  0.84300108  0.62495695  1
  Sr2+  Sr2  1  0.66724869  0.65572100  0.87505171  1
  Sr2+  Sr3  1  0.83115840  0.15848492  0.37148746  1
  Sr2+  Sr4  1  -0.00307822  0.34320367  0.12512256  1
  Sr2+  Sr5  1  0.82934771  0.15714688  0.87756682  1
  Sr2+  Sr6  1  0.16737479  0.17848415  0.12573220  1
  Ca2+  Ca7  1  0.33669461  0.98612727  0.37373248  1
  Ca2+  Ca8  1  0.49720450  0.48744270  0.37661008  1
  Ca2+  Ca9  1  0.83781777  0.51258039  0.12297788  1
  Ca2+  Ca10  1  0.83900201  0.18170607  0.12590376  1
  Ca2+  Ca11  1  1.00455270  0.65363716  0.87528067  1
  Ca2+  Ca12  1  0.16094629  0.81410725  0.87532376  1
  Ca2+  Ca13  1  0.82857845  0.81955441  0.37454676  1
  Ca2+  Ca14  1  0.16122845  0.15175091  0.37280796  1
  Ca2+  Ca15  1  0.67147236  0.98658479  0.87416511  1
  Ca2+  Ca16  1  0.49467853  0.14826979  0.37457197  1
  Ca2+  Ca17  1  0.32933232  0.68128703  0.12520307  1
  Ca2+  Ca18  1  -0.00314896  0.68266223  0.62632802  1
  Ca2+  Ca19  1  0.33635435  0.31887454  0.87651643  1
  Ca2+  Ca20  1  0.50541301  0.51458659  0.62565021  1
  Ca2+  Ca21  1  0.49565441  0.48246486  0.87334418  1
  Pr3+  Pr22  1  0.66750004  0.67757576  0.12262874  1
  Pr3+  Pr23  1  0.66253011  0.68027330  0.62683566  1
  Pr3+  Pr24  1  0.16398829  0.48848331  0.87464991  1
  Pr3+  Pr25  1  0.32977528  0.01286895  0.12762348  1
  Pr3+  Pr26  1  0.83327210  0.17938213  0.62421901  1
  Pr3+  Pr27  1  0.16926306  0.84439984  0.62616871  1
  Pr3+  Pr28  1  0.33479853  0.68033435  0.62646224  1
  Pr3+  Pr29  1  0.50027627  0.18052639  0.12736035  1
  Pr3+  Pr30  1  0.50209207  0.51061386  0.12480816  1
  Pr3+  Pr31  1  0.17026348  0.84414731  0.12423951  1
  Pr3+  Pr32  1  0.16539224  0.48822551  0.37523914  1
  Pr3+  Pr33  1  1.00379070  0.31829154  0.37439895  1
  Pr3+  Pr34  1  1.00113683  0.32135846  0.87545150  1
  Pr3+  Pr35  1  0.83614161  0.84494554  0.62447902  1
  Pr3+  Pr36  1  0.66567451  0.32092630  0.37457078  1
  Pr3+  Pr37  1  0.66993385  0.98527148  0.37403015  1
  Pr3+  Pr38  1  0.33191751  0.34763687  0.62615413  1
  Pr3+  Pr39  1  0.66151141  0.01136907  0.62556226  1
  Pr3+  Pr40  1  0.50258368  0.17798399  0.62335256  1
  Pr3+  Pr41  1  1.00170331  0.65618786  0.37598912  1
  Pr3+  Pr42  1  0.66538617  0.01436200  0.12393459  1
  Pr3+  Pr43  1  0.16827353  0.82342926  0.37518659  1
  Pr3+  Pr44  1  -0.00310310  0.01206467  0.62532771  1
  Pr3+  Pr45  1  -0.00264826  0.67657151  0.12377876  1
  Pr3+  Pr46  1  -0.00286731  0.34661061  0.62477180  1
  Pr3+  Pr47  1  1.00408007  0.98542516  0.87563668  1
  Pr3+  Pr48  1  1.00130685  0.98895994  0.37466550  1
  Pr3+  Pr49  1  0.32686268  0.34523277  0.12368847  1
  Pr3+  Pr50  1  0.17117632  0.51419166  0.12517243  1
  Pr3+  Pr51  1  0.17105160  0.17938834  0.62328876  1
  Pr3+  Pr52  1  0.34212525  0.65423739  0.37427439  1
  Pr3+  Pr53  1  0.50056876  0.82127242  0.87483232  1
  Pr3+  Pr54  1  0.83559673  0.51679146  0.62483696  1
  Pr3+  Pr55  1  0.66797466  0.34355128  0.12540997  1
  Pr3+  Pr56  1  0.33735865  0.31781603  0.37461063  1
  Pr3+  Pr57  1  0.16384863  0.15614957  0.87608169  1
  Pr3+  Pr58  1  0.66042683  0.34804019  0.62488334  1
  Pr3+  Pr59  1  0.83169434  0.49112967  0.87665677  1
  Pr3+  Pr60  1  -0.00384902  0.01610105  0.12503758  1
  Pr3+  Pr61  1  0.49805776  0.15556741  0.87619120  1
  Pr3+  Pr62  1  0.33804181  0.65327817  0.87595745  1
  Pr3+  Pr63  1  0.33437977  0.98743551  0.87667632  1
  Pr3+  Pr64  1  0.50079706  0.84443353  0.12521434  1
  Pr3+  Pr65  1  0.66669438  0.65683404  0.37517728  1
  Pr3+  Pr66  1  0.83755529  0.84594694  0.12491734  1
  Pr3+  Pr67  1  0.83086861  0.81991267  0.87524001  1
  Pr3+  Pr68  1  0.16975729  0.51606797  0.62525518  1
  Pr3+  Pr69  1  0.33371073  0.00933515  0.62172842  1
  Pr3+  Pr70  1  0.82997975  0.48851159  0.37350711  1
  Pr3+  Pr71  1  0.66747260  0.32478798  0.87565904  1
  Mn3.30+  Mn72  1  0.16654818  -0.00154834  -0.00010322  1
  Mn3.30+  Mn73  1  0.16714373  0.00073999  0.49820920  1
  Mn3.30+  Mn74  1  0.16710041  0.33407801  -0.00064787  1
  Mn3.30+  Mn75  1  0.16781016  0.33315394  0.49986085  1
  Mn3.30+  Mn76  1  0.16746766  0.66669509  -0.00106375  1
  Mn3.30+  Mn77  1  0.16757127  0.66796651  0.50078572  1
  Mn3.30+  Mn78  1  0.50125334  0.00031719  -0.00038080  1
  Mn3.30+  Mn79  1  0.49859250  -0.00033285  0.49829090  1
  Mn3.30+  Mn80  1  0.49739730  0.33409717  -0.00017778  1
  Mn3.30+  Mn81  1  0.49844372  0.33407368  0.49860660  1
  Mn3.30+  Mn82  1  0.49838465  0.66440254  0.00065918  1
  Mn3.30+  Mn83  1  0.50140936  0.66531567  0.49981340  1
  Mn3.30+  Mn84  1  0.83247776  0.00174008  -0.00104904  1
  Mn3.30+  Mn85  1  0.83219013  0.00001825  0.49840413  1
  Mn3.30+  Mn86  1  0.83388774  0.33433719  0.00107050  1
  Mn3.30+  Mn87  1  0.83152198  0.33408338  0.49933200  1
  Mn3.30+  Mn88  1  0.83543769  0.66512352  -0.00087068  1
  Mn3.30+  Mn89  1  0.83424141  0.66870198  0.49957133  1
  Mn3.30+  Mn90  1  -0.00065340  0.16709576  0.25032414  1
  Mn3.30+  Mn91  1  -0.00059023  0.16649163  0.74998745  1
  Mn3.30+  Mn92  1  -0.00101065  0.49980632  0.24946146  1
  Mn3.30+  Mn93  1  -0.00017082  0.50384186  0.74923277  1
  Mn3.30+  Mn94  1  -0.00045506  0.83320503  0.25175623  1
  Mn3.30+  Mn95  1  0.00183275  0.83066968  0.75056854  1
  Mn3.30+  Mn96  1  0.33188634  0.16461235  0.25375547  1
  Mn3.30+  Mn97  1  0.33394099  0.16664548  0.74957536  1
  Mn3.30+  Mn98  1  0.33547698  0.50074346  0.25052111  1
  Mn3.30+  Mn99  1  0.33657091  0.49921383  0.75034080  1
  Mn3.30+  Mn100  1  0.33455145  0.83279520  0.24907614  1
  Mn3.30+  Mn101  1  0.33169185  0.83349322  0.75250289  1
  Mn3.30+  Mn102  1  0.66584069  0.16687991  0.24992253  1
  Mn3.30+  Mn103  1  0.66663298  0.16635436  0.75146685  1
  Mn3.30+  Mn104  1  0.66657550  0.50050351  0.24908020  1
  Mn3.30+  Mn105  1  0.66418605  0.50068833  0.75144309  1
  Mn3.30+  Mn106  1  0.66785879  0.83250638  0.24925637  1
  Mn3.30+  Mn107  1  0.66774033  0.83445634  0.75160602  1
  Mn3.30+  Mn108  1  0.16747568  0.00084521  0.25191929  1
  Mn3.30+  Mn109  1  0.16685223  -0.00135183  0.75033290  1
  Mn3.30+  Mn110  1  0.16667173  0.33267102  0.25021113  1
  Mn3.30+  Mn111  1  0.16806096  0.33420704  0.75044974  1
  Mn3.30+  Mn112  1  0.16936045  0.66717356  0.25106647  1
  Mn3.30+  Mn113  1  0.16471623  0.66779284  0.75010330  1
  Mn3.30+  Mn114  1  0.49848964  0.00041597  0.25030518  1
  Mn3.30+  Mn115  1  0.50129972  -0.00043950  0.75252171  1
  Mn3.30+  Mn116  1  0.49825128  0.33414127  0.25125236  1
  Mn3.30+  Mn117  1  0.49748382  0.33426974  0.75035015  1
  Mn3.30+  Mn118  1  0.49920394  0.66612279  0.24742507  1
  Mn3.30+  Mn119  1  0.50094005  0.66344057  0.75233395  1
  Mn3.30+  Mn120  1  0.83310100  0.00082485  0.25027422  1
  Mn3.30+  Mn121  1  0.83181882  0.00075412  0.75120126  1
  Mn3.30+  Mn122  1  0.83374113  0.33376755  0.24984226  1
  Mn3.30+  Mn123  1  0.83165592  0.33516834  0.74870023  1
  Mn3.30+  Mn124  1  0.83358798  0.66645261  0.24999319  1
  Mn3.30+  Mn125  1  0.83624359  0.66739886  0.75098512  1
  Mn3.30+  Mn126  1  -0.00270238  0.16753918  0.00005065  1
  Mn3.30+  Mn127  1  0.00142710  0.16593979  0.49975351  1
  Mn3.30+  Mn128  1  -0.00044312  0.50083290  0.00016347  1
  Mn3.30+  Mn129  1  -0.00012748  0.50194304  0.50053880  1
  Mn3.30+  Mn130  1  0.00256863  0.83134824  -0.00091694  1
  Mn3.30+  Mn131  1  -0.00091538  0.83298388  0.49884821  1
  Mn3.30+  Mn132  1  0.33231162  0.16738596  -0.00020058  1
  Mn3.30+  Mn133  1  0.33362053  0.16407297  0.49652065  1
  Mn3.30+  Mn134  1  0.33514579  0.49970013  -0.00165982  1
  Mn3.30+  Mn135  1  0.33719536  0.50073137  0.50181173  1
  Mn3.30+  Mn136  1  0.33131709  0.83155804  -0.00163520  1
  Mn3.30+  Mn137  1  0.33486154  0.83459494  0.50065583  1
  Mn3.30+  Mn138  1  0.66786667  0.16738228  0.00142038  1
  Mn3.30+  Mn139  1  0.66458839  0.16584696  0.49668255  1
  Mn3.30+  Mn140  1  0.66674802  0.50001947  0.00028808  1
  Mn3.30+  Mn141  1  0.66333275  0.50076975  0.49877352  1
  Mn3.30+  Mn142  1  0.66817378  0.83415744  0.00036498  1
  Mn3.30+  Mn143  1  0.66750924  0.83281680  0.49829966  1
  O2-  O144  1  0.01825306  0.16442021  0.12485403  1
  O2-  O145  1  0.02653527  0.16184928  0.62485129  1
  O2-  O146  1  0.02634856  0.50071736  0.12828733  1
  O2-  O147  1  0.02671517  0.49225488  0.62426050  1
  O2-  O148  1  0.02681005  0.82580863  0.12507480  1
  O2-  O149  1  0.02618462  0.82843757  0.62433091  1
  O2-  O150  1  0.35661603  0.16153995  0.12816465  1
  O2-  O151  1  0.35944234  0.15784430  0.62417988  1
  O2-  O152  1  0.35844585  0.49053919  0.12280044  1
  O2-  O153  1  0.36336529  0.49428884  0.62628899  1
  O2-  O154  1  0.35586596  0.82809210  0.12238624  1
  O2-  O155  1  0.35221353  0.83059676  0.62806956  1
  O2-  O156  1  0.69438488  0.16299971  0.12520044  1
  O2-  O157  1  0.68911377  0.15987532  0.62395649  1
  O2-  O158  1  0.69554186  0.49323275  0.12538089  1
  O2-  O159  1  0.69188033  0.49561467  0.62371125  1
  O2-  O160  1  0.69317630  0.82812939  0.12452207  1
  O2-  O161  1  0.69087136  0.83008682  0.62403072  1
  O2-  O162  1  0.14856683  0.33545536  0.12699160  1
  O2-  O163  1  0.14123796  0.32812588  0.62497066  1
  O2-  O164  1  0.14205618  0.66258918  0.12618145  1
  O2-  O165  1  0.13945959  0.66351077  0.62443105  1
  O2-  O166  1  0.14131038  0.99137631  0.12518998  1
  O2-  O167  1  0.14063905  0.99292814  0.62548591  1
  O2-  O168  1  0.47036164  0.32844216  0.12675411  1
  O2-  O169  1  0.47367819  0.32296061  0.62397432  1
  O2-  O170  1  0.47067230  0.65812683  0.12283546  1
  O2-  O171  1  0.47843464  0.65990695  0.62909927  1
  O2-  O172  1  0.47395381  0.99538471  0.12362185  1
  O2-  O173  1  0.47821710  1.00023114  0.62814647  1
  O2-  O174  1  0.81199839  0.32714839  0.12657918  1
  O2-  O175  1  0.80679704  0.32915095  0.62355836  1
  O2-  O176  1  0.81165390  0.65936462  0.12572248  1
  O2-  O177  1  0.80703725  0.66449307  0.62455992  1
  O2-  O178  1  0.80914663  0.99149100  0.12453393  1
  O2-  O179  1  0.80651165  0.99317743  0.62382631  1
  O2-  O180  1  0.30170755  0.17299715  0.37584503  1
  O2-  O181  1  0.30799052  0.17146044  0.87191971  1
  O2-  O182  1  0.30836718  0.50772332  0.37801446  1
  O2-  O183  1  0.30634630  0.50770189  0.87400907  1
  O2-  O184  1  0.31257687  0.83617143  0.37489746  1
  O2-  O185  1  0.30389725  0.83950591  0.87521517  1
  O2-  O186  1  0.63722317  0.17265166  0.37329776  1
  O2-  O187  1  0.64065339  0.17703263  0.87702020  1
  O2-  O188  1  0.63869247  0.50851142  0.37392595  1
  O2-  O189  1  0.64034980  0.49777110  0.87710857  1
  O2-  O190  1  0.64617381  0.83561889  0.37207008  1
  O2-  O191  1  0.64440996  0.83990159  0.87906080  1
  O2-  O192  1  0.98056853  0.16843962  0.37705529  1
  O2-  O193  1  0.98047144  0.17092111  0.87313124  1
  O2-  O194  1  0.97506975  0.50758765  0.37642827  1
  O2-  O195  1  0.97601558  0.50772732  0.87098715  1
  O2-  O196  1  0.97073853  0.84123457  0.37537569  1
  O2-  O197  1  0.97386463  0.84009582  0.87530346  1
  O2-  O198  1  0.19248530  0.00443671  0.37594818  1
  O2-  O199  1  0.19111694  0.00934578  0.87380098  1
  O2-  O200  1  0.19297771  0.34235752  0.37671000  1
  O2-  O201  1  0.19345932  0.34010527  0.87140213  1
  O2-  O202  1  0.19665541  0.67250445  0.37624631  1
  O2-  O203  1  0.19340255  0.66819193  0.87393808  1
  O2-  O204  1  0.52540168  0.00357272  0.37130052  1
  O2-  O205  1  0.52845531  0.00753518  0.87747213  1
  O2-  O206  1  0.52352183  0.34360760  0.37459145  1
  O2-  O207  1  0.52400635  0.33539311  0.87500745  1
  O2-  O208  1  0.52274420  0.67145239  0.37108813  1
  O2-  O209  1  0.51843331  0.67423639  0.87678841  1
  O2-  O210  1  0.85822008  0.00577453  0.37516401  1
  O2-  O211  1  0.86041733  0.00271948  0.87566300  1
  O2-  O212  1  0.85806078  0.34068609  0.37664947  1
  O2-  O213  1  0.85664169  0.34242536  0.87226676  1
  O2-  O214  1  0.85818893  0.67241740  0.37482118  1
  O2-  O215  1  0.86259743  0.67172019  0.87455067  1
  O2-  O216  1  0.24163999  0.09228302  0.01668626  1
  O2-  O217  1  0.23949213  0.09255752  0.52441599  1
  O2-  O218  1  0.23852763  0.43070702  0.01859978  1
  O2-  O219  1  0.23949179  0.42972907  0.52222346  1
  O2-  O220  1  0.23599540  0.76096564  0.01858999  1
  O2-  O221  1  0.23902904  0.76092580  0.52058213  1
  O2-  O222  1  0.57176727  0.09700293  0.02341754  1
  O2-  O223  1  0.57135826  0.09358653  0.51947819  1
  O2-  O224  1  0.57290407  0.42367582  0.02395863  1
  O2-  O225  1  0.57214865  0.42875591  0.52346852  1
  O2-  O226  1  0.57231275  0.75857803  0.02063289  1
  O2-  O227  1  0.57701543  0.75726201  0.51854979  1
  O2-  O228  1  0.90372331  0.09329638  0.02222166  1
  O2-  O229  1  0.90645114  0.09350233  0.52384886  1
  O2-  O230  1  0.90305450  0.43128953  0.01547168  1
  O2-  O231  1  0.90505458  0.42955676  0.52091872  1
  O2-  O232  1  0.90690279  0.76157245  0.02146952  1
  O2-  O233  1  0.90648125  0.76199598  0.52029304  1
  O2-  O234  1  0.26482808  0.26382740  0.23450808  1
  O2-  O235  1  0.26085987  0.25892861  0.72533179  1
  O2-  O236  1  0.26456816  0.59494667  0.22901084  1
  O2-  O237  1  0.26269795  0.59486372  0.72781326  1
  O2-  O238  1  0.25941997  0.92527406  0.22955451  1
  O2-  O239  1  0.26090766  0.93023516  0.72970873  1
  O2-  O240  1  0.59155484  0.26176727  0.22773448  1
  O2-  O241  1  0.59359411  0.26158321  0.72932289  1
  O2-  O242  1  0.59525204  0.59420055  0.22549644  1
  O2-  O243  1  0.59668673  0.59346086  0.73111327  1
  O2-  O244  1  0.59476350  0.92699294  0.22818654  1
  O2-  O245  1  0.59504334  0.92905062  0.73398598  1
  O2-  O246  1  0.92562416  0.26201832  0.23983039  1
  O2-  O247  1  0.92528736  0.26333557  0.72873907  1
  O2-  O248  1  0.93057344  0.59733014  0.23505947  1
  O2-  O249  1  0.92921198  0.59593930  0.72357469  1
  O2-  O250  1  0.92989114  0.92813796  0.22801533  1
  O2-  O251  1  0.93015334  0.92680865  0.72981602  1
  O2-  O252  1  0.09477924  0.24156179  0.27275505  1
  O2-  O253  1  0.09588445  0.24074090  0.76963448  1
  O2-  O254  1  0.09634121  0.57363580  0.27217601  1
  O2-  O255  1  0.09879563  0.56981631  0.76643298  1
  O2-  O256  1  0.09539818  0.90661948  0.27262692  1
  O2-  O257  1  0.09578952  0.90234209  0.77153244  1
  O2-  O258  1  0.42708358  0.23442162  0.27336290  1
  O2-  O259  1  0.43008146  0.23512883  0.76744996  1
  O2-  O260  1  0.43087411  0.56882614  0.27062474  1
  O2-  O261  1  0.42732532  0.57045783  0.77446215  1
  O2-  O262  1  0.42752705  0.90460097  0.26099159  1
  O2-  O263  1  0.42726848  0.90802868  0.77577110  1
  O2-  O264  1  0.75335461  0.24475848  0.26971991  1
  O2-  O265  1  0.75722930  0.24048560  0.76583386  1
  O2-  O266  1  0.75944380  0.57462111  0.27347268  1
  O2-  O267  1  0.76717032  0.57216396  0.76649649  1
  O2-  O268  1  0.76438227  0.90546916  0.26967658  1
  O2-  O269  1  0.76444887  0.90497947  0.76887488  1
  O2-  O270  1  0.07096899  0.06979404  0.48310357  1
  O2-  O271  1  0.07195287  0.07144284  0.98180779  1
  O2-  O272  1  0.07070963  0.40662824  0.47975085  1
  O2-  O273  1  0.07238963  0.40774906  0.97659103  1
  O2-  O274  1  0.07364497  0.74375996  0.47475571  1
  O2-  O275  1  0.06965929  0.73457717  0.98079732  1
  O2-  O276  1  0.40106508  0.06971028  0.47927027  1
  O2-  O277  1  0.40626242  0.07172842  0.97986884  1
  O2-  O278  1  0.40120784  0.40196584  0.48263045  1
  O2-  O279  1  0.40291981  0.40209152  0.97936726  1
  O2-  O280  1  0.40544455  0.73485091  0.48702418  1
  O2-  O281  1  0.40454448  0.74149972  0.97804211  1
  O2-  O282  1  0.73377398  0.07068434  0.48169267  1
  O2-  O283  1  0.73348717  0.06886334  0.98202407  1
  O2-  O284  1  0.73412792  0.40875907  0.47739278  1
  O2-  O285  1  0.73899820  0.40688443  0.98014353  1
  O2-  O286  1  0.73844496  0.73787375  0.48140169  1
  O2-  O287  1  0.74447389  0.73951903  0.98309916  1
  O2-  O288  1  0.09605617  0.23759186  0.47992937  1
  O2-  O289  1  0.09321713  0.24179177  0.97788991  1
  O2-  O290  1  0.09668345  0.57383024  0.47885982  1
  O2-  O291  1  0.09926283  0.57034174  0.98369127  1
  O2-  O292  1  0.09322062  0.90662787  0.47813057  1
  O2-  O293  1  0.09607455  0.90234940  0.97741219  1
  O2-  O294  1  0.42746452  0.23480076  0.47657306  1
  O2-  O295  1  0.42917603  0.23609317  0.98329526  1
  O2-  O296  1  0.42916207  0.57121257  0.47809435  1
  O2-  O297  1  0.42939006  0.56781679  0.97690201  1
  O2-  O298  1  0.42433451  0.90877778  0.48615012  1
  O2-  O299  1  0.42700270  0.90477697  0.97833893  1
  O2-  O300  1  0.75616419  0.23984146  0.48211990  1
  O2-  O301  1  0.75507647  0.24573372  0.98138340  1
  O2-  O302  1  0.76176349  0.57230915  0.48013996  1
  O2-  O303  1  0.76278495  0.57284429  0.98071098  1
  O2-  O304  1  0.76226990  0.90377005  0.47804945  1
  O2-  O305  1  0.76580476  0.90518442  0.98251663  1
  O2-  O306  1  0.07077300  0.06993048  0.26655194  1
  O2-  O307  1  0.07402480  0.06932547  0.76935792  1
  O2-  O308  1  0.07250129  0.40780324  0.27447699  1
  O2-  O309  1  0.07056261  0.40608148  0.76951358  1
  O2-  O310  1  0.07280249  0.74049147  0.27339454  1
  O2-  O311  1  0.07019911  0.73683009  0.77200482  1
  O2-  O312  1  0.40200135  0.06899182  0.26918953  1
  O2-  O313  1  0.40551843  0.07111359  0.77234563  1
  O2-  O314  1  0.40283096  0.40353038  0.26901776  1
  O2-  O315  1  0.40026430  0.39943628  0.76994259  1
  O2-  O316  1  0.40388734  0.73648777  0.26469640  1
  O2-  O317  1  0.40504437  0.73864620  0.76912582  1
  O2-  O318  1  0.73464541  0.06925343  0.26686107  1
  O2-  O319  1  0.73369469  0.07059810  0.76736998  1
  O2-  O320  1  0.73808659  0.40685879  0.27283304  1
  O2-  O321  1  0.73704120  0.40693192  0.76883069  1
  O2-  O322  1  0.73810282  0.73599328  0.26578972  1
  O2-  O323  1  0.74340640  0.74128865  0.76837977  1
  O2-  O324  1  0.24005571  0.09107781  0.22933453  1
  O2-  O325  1  0.23949728  0.09465294  0.72857361  1
  O2-  O326  1  0.23873463  0.43070645  0.23300894  1
  O2-  O327  1  0.23839385  0.42958392  0.72683901  1
  O2-  O328  1  0.23698611  0.76371627  0.23295798  1
  O2-  O329  1  0.23703785  0.75868303  0.72909932  1
  O2-  O330  1  0.57212455  0.09330827  0.22600941  1
  O2-  O331  1  0.57060104  0.09659526  0.73137963  1
  O2-  O332  1  0.57549970  0.42655681  0.22602352  1
  O2-  O333  1  0.56827542  0.42483189  0.72705389  1
  O2-  O334  1  0.57296486  0.75744658  0.22327709  1
  O2-  O335  1  0.57557586  0.75851015  0.73630449  1
  O2-  O336  1  0.90402557  0.09240333  0.22787980  1
  O2-  O337  1  0.90400596  0.09253668  0.72582002  1
  O2-  O338  1  0.90231798  0.43295148  0.23416499  1
  O2-  O339  1  0.90573319  0.43046398  0.72765590  1
  O2-  O340  1  0.90635123  0.75889751  0.22760600  1
  O2-  O341  1  0.90456744  0.76387941  0.73060635  1
  O2-  O342  1  0.26147196  0.26220098  0.01582541  1
  O2-  O343  1  0.26391585  0.26014034  0.52245239  1
  O2-  O344  1  0.26435490  0.59585045  0.02101568  1
  O2-  O345  1  0.26448869  0.59371600  0.52415541  1
  O2-  O346  1  0.26265560  0.92771906  0.02065835  1
  O2-  O347  1  0.25602608  0.92601086  0.52105198  1
  O2-  O348  1  0.59155194  0.26145346  0.02322465  1
  O2-  O349  1  0.59374064  0.26176718  0.51962102  1
  O2-  O350  1  0.59456013  0.59060432  0.02453582  1
  O2-  O351  1  0.59788336  0.59678998  0.51838116  1
  O2-  O352  1  0.59136590  0.92647359  0.02438195  1
  O2-  O353  1  0.59735232  0.92871821  0.51422096  1
  O2-  O354  1  0.92544330  0.26288240  0.01080087  1
  O2-  O355  1  0.92996114  0.25935581  0.52037599  1
  O2-  O356  1  0.92981460  0.59480044  0.01875806  1
  O2-  O357  1  0.92948284  0.59625550  0.52109447  1
  O2-  O358  1  0.93131554  0.92770346  0.02045314  1
  O2-  O359  1  0.92921736  0.92736391  0.52222229  1
