# generated using pymatgen
data_Sr7Ca15Pr50Mn72O216
_symmetry_space_group_name_H-M   'P 1'
_cell_length_a   16.55991908
_cell_length_b   16.60369369
_cell_length_c   15.59370743
_cell_angle_alpha   89.99426860
_cell_angle_beta   89.99275230
_cell_angle_gamma   90.00668972
_symmetry_Int_Tables_number   1
_chemical_formula_structural   Sr7Ca15Pr50Mn72O216
_chemical_formula_sum   'Sr7 Ca15 Pr50 Mn72 O216'
_cell_volume   4287.58059008
_cell_formula_units_Z   1
loop_
 _symmetry_equiv_pos_site_id
 _symmetry_equiv_pos_as_xyz
  1  'x, y, z'
loop_
 _atom_type_symbol
 _atom_type_oxidation_number
  Sr2+  2.0
  Ca2+  2.0
  Pr3+  3.0
  Mn3.30+  3.3
  O2-  -2.0
loop_
 _atom_site_type_symbol
 _atom_site_label
 _atom_site_symmetry_multiplicity
 _atom_site_fract_x
 _atom_site_fract_y
 _atom_site_fract_z
 _atom_site_occupancy
  Sr2+  Sr0  1  0.50218256  0.17449966  0.62504859  1
  Sr2+  Sr1  1  0.33218734  0.34376451  0.62478426  1
  Sr2+  Sr2  1  0.49944654  0.82449011  0.37448022  1
  Sr2+  Sr3  1  0.49999275  0.15820265  0.87591162  1
  Sr2+  Sr4  1  0.66660382  0.32085955  0.87474536  1
  Sr2+  Sr5  1  0.66085792  0.67760284  0.62403522  1
  Sr2+  Sr6  1  0.82809271  0.82087950  0.37314776  1
  Ca2+  Ca7  1  0.32859666  0.68566326  0.12656375  1
  Ca2+  Ca8  1  0.16954007  0.84844647  0.12600464  1
  Ca2+  Ca9  1  0.33823302  0.98286906  0.37426391  1
  Ca2+  Ca10  1  0.66881795  0.65702859  0.37470098  1
  Ca2+  Ca11  1  0.50539884  0.17992420  0.12487986  1
  Ca2+  Ca12  1  0.16237567  0.48608995  0.37691401  1
  Ca2+  Ca13  1  0.83739361  0.17954275  0.12698321  1
  Ca2+  Ca14  1  0.17449279  0.51413318  0.62269716  1
  Ca2+  Ca15  1  0.65986693  0.01210411  0.62257687  1
  Ca2+  Ca16  1  0.83706029  0.51459534  0.12594836  1
  Ca2+  Ca17  1  0.50771058  0.84892061  0.62496896  1
  Ca2+  Ca18  1  -0.00558270  0.01500099  0.12657341  1
  Ca2+  Ca19  1  0.83835020  0.85048384  0.12717934  1
  Ca2+  Ca20  1  0.82830657  0.14979126  0.37199743  1
  Ca2+  Ca21  1  0.49710903  0.82000448  0.87423395  1
  Pr3+  Pr22  1  0.66563735  0.65552119  0.87558640  1
  Pr3+  Pr23  1  0.33617433  0.65563591  0.37226413  1
  Pr3+  Pr24  1  1.00225045  0.31980349  0.37413714  1
  Pr3+  Pr25  1  0.16452002  0.82000587  0.87670400  1
  Pr3+  Pr26  1  0.16468730  0.82243208  0.37297285  1
  Pr3+  Pr27  1  -0.00010216  0.34701157  0.62357516  1
  Pr3+  Pr28  1  0.66859440  0.67884833  0.12617573  1
  Pr3+  Pr29  1  0.33750718  0.65501647  0.87745039  1
  Pr3+  Pr30  1  -0.00232328  0.67935537  0.62488331  1
  Pr3+  Pr31  1  0.33293103  0.34296845  0.12522732  1
  Pr3+  Pr32  1  0.50023354  0.84348628  0.12491358  1
  Pr3+  Pr33  1  0.50215599  0.49276143  0.37495354  1
  Pr3+  Pr34  1  0.83078997  0.84638694  0.62377770  1
  Pr3+  Pr35  1  0.33529734  0.01054726  0.62150495  1
  Pr3+  Pr36  1  1.00327081  0.65350894  0.37478573  1
  Pr3+  Pr37  1  0.16490918  0.48614235  0.87455306  1
  Pr3+  Pr38  1  0.16537965  0.15395807  0.87552849  1
  Pr3+  Pr39  1  1.00194889  0.31883548  0.87555065  1
  Pr3+  Pr40  1  0.67230306  0.31704377  0.37514880  1
  Pr3+  Pr41  1  0.16533433  0.17670407  0.12684352  1
  Pr3+  Pr42  1  -0.00280448  0.01212036  0.62353588  1
  Pr3+  Pr43  1  0.16560865  0.15234424  0.37482820  1
  Pr3+  Pr44  1  0.66075830  0.34361413  0.62573571  1
  Pr3+  Pr45  1  0.33551298  0.32342811  0.37455671  1
  Pr3+  Pr46  1  1.00258523  0.98828302  0.87699821  1
  Pr3+  Pr47  1  -0.00717898  0.34885785  0.12586415  1
  Pr3+  Pr48  1  0.17127544  0.51460603  0.12768266  1
  Pr3+  Pr49  1  0.66581764  0.99001140  0.87363374  1
  Pr3+  Pr50  1  0.82938168  0.82181293  0.87704350  1
  Pr3+  Pr51  1  0.34095066  0.98529764  0.87534435  1
  Pr3+  Pr52  1  0.99802552  0.98764108  0.37263971  1
  Pr3+  Pr53  1  0.50227022  0.51278119  0.12515332  1
  Pr3+  Pr54  1  0.33366271  0.67873170  0.62362097  1
  Pr3+  Pr55  1  0.67043097  0.98531794  0.37663992  1
  Pr3+  Pr56  1  0.66510179  0.01249840  0.12731437  1
  Pr3+  Pr57  1  0.49637172  0.15086420  0.37405050  1
  Pr3+  Pr58  1  0.17252775  0.17910368  0.62348253  1
  Pr3+  Pr59  1  0.17049315  0.84546667  0.62466993  1
  Pr3+  Pr60  1  0.83009322  0.48633716  0.87640959  1
  Pr3+  Pr61  1  1.00359083  0.65356300  0.87545686  1
  Pr3+  Pr62  1  0.83162388  0.17783666  0.62224072  1
  Pr3+  Pr63  1  0.33117308  0.01007624  0.12772689  1
  Pr3+  Pr64  1  0.66757038  0.34282936  0.12438756  1
  Pr3+  Pr65  1  0.50225110  0.51109508  0.62457519  1
  Pr3+  Pr66  1  0.33807070  0.31962724  0.87512601  1
  Pr3+  Pr67  1  0.82637191  0.15489455  0.87829855  1
  Pr3+  Pr68  1  0.83344655  0.51288288  0.62573196  1
  Pr3+  Pr69  1  0.82902407  0.49211674  0.37295099  1
  Pr3+  Pr70  1  0.49729355  0.48662889  0.87479266  1
  Pr3+  Pr71  1  -0.00585866  0.68231535  0.12510316  1
  Mn3.30+  Mn72  1  0.16617741  -0.00114677  0.00280366  1
  Mn3.30+  Mn73  1  0.16760915  -0.00131701  0.49744089  1
  Mn3.30+  Mn74  1  0.16549478  0.33246904  0.00205900  1
  Mn3.30+  Mn75  1  0.16751335  0.33563136  0.49863486  1
  Mn3.30+  Mn76  1  0.16788605  0.66862272  0.00291987  1
  Mn3.30+  Mn77  1  0.16727056  0.66482383  0.49932074  1
  Mn3.30+  Mn78  1  0.50039754  0.00010901  0.00100638  1
  Mn3.30+  Mn79  1  0.50075513  -0.00244101  0.49928527  1
  Mn3.30+  Mn80  1  0.50028675  0.33171502  0.00194200  1
  Mn3.30+  Mn81  1  0.50080884  0.33348208  0.49851036  1
  Mn3.30+  Mn82  1  0.49837317  0.66823378  0.00289030  1
  Mn3.30+  Mn83  1  0.50119877  0.66840429  0.49760532  1
  Mn3.30+  Mn84  1  0.83493393  0.00042487  0.00230491  1
  Mn3.30+  Mn85  1  0.83037884  0.00044641  0.50065999  1
  Mn3.30+  Mn86  1  0.83331712  0.33274513  0.00154227  1
  Mn3.30+  Mn87  1  0.83342501  0.33334052  0.49917922  1
  Mn3.30+  Mn88  1  0.83427090  0.66757322  0.00025233  1
  Mn3.30+  Mn89  1  0.83103051  0.66764719  0.50035259  1
  Mn3.30+  Mn90  1  -0.00363477  0.16510402  0.25117216  1
  Mn3.30+  Mn91  1  -0.00085757  0.16636907  0.74857135  1
  Mn3.30+  Mn92  1  0.00021808  0.50101849  0.25090541  1
  Mn3.30+  Mn93  1  0.00270778  0.49991465  0.74792640  1
  Mn3.30+  Mn94  1  -0.00119143  0.83502503  0.24808683  1
  Mn3.30+  Mn95  1  -0.00037669  0.83415221  0.75007414  1
  Mn3.30+  Mn96  1  0.33493907  0.16556446  0.24936191  1
  Mn3.30+  Mn97  1  0.33405900  0.16544139  0.74960849  1
  Mn3.30+  Mn98  1  0.33211318  0.50112946  0.25078422  1
  Mn3.30+  Mn99  1  0.33163461  0.50036838  0.74857453  1
  Mn3.30+  Mn100  1  0.33147538  0.83352280  0.24942226  1
  Mn3.30+  Mn101  1  0.33752458  0.83312109  0.74839762  1
  Mn3.30+  Mn102  1  0.66835726  0.16588138  0.24873292  1
  Mn3.30+  Mn103  1  0.66549329  0.16429838  0.75026992  1
  Mn3.30+  Mn104  1  0.66924027  0.50098016  0.24753626  1
  Mn3.30+  Mn105  1  0.66622322  0.49999244  0.75150905  1
  Mn3.30+  Mn106  1  0.66906483  0.83206444  0.24833099  1
  Mn3.30+  Mn107  1  0.66229582  0.83364687  0.75117141  1
  Mn3.30+  Mn108  1  0.16548514  -0.00157630  0.24903385  1
  Mn3.30+  Mn109  1  0.16829291  -0.00033356  0.75026499  1
  Mn3.30+  Mn110  1  0.16536466  0.33392524  0.25047595  1
  Mn3.30+  Mn111  1  0.16761214  0.33386650  0.74942216  1
  Mn3.30+  Mn112  1  0.16714562  0.66788233  0.24895739  1
  Mn3.30+  Mn113  1  0.16813847  0.66550175  0.74929623  1
  Mn3.30+  Mn114  1  0.49862613  -0.00062274  0.24910344  1
  Mn3.30+  Mn115  1  0.50202205  -0.00149018  0.74993224  1
  Mn3.30+  Mn116  1  0.50218135  0.33312707  0.25017570  1
  Mn3.30+  Mn117  1  0.49890522  0.33171385  0.74899417  1
  Mn3.30+  Mn118  1  0.49996176  0.66784045  0.24920147  1
  Mn3.30+  Mn119  1  0.49955904  0.66902566  0.75055017  1
  Mn3.30+  Mn120  1  0.83350425  0.00075980  0.24823206  1
  Mn3.30+  Mn121  1  0.83169337  0.00024774  0.74902201  1
  Mn3.30+  Mn122  1  0.83402945  0.33256202  0.25088545  1
  Mn3.30+  Mn123  1  0.83300676  0.33241441  0.74858610  1
  Mn3.30+  Mn124  1  0.83326004  0.66740338  0.24948625  1
  Mn3.30+  Mn125  1  0.83213616  0.66810773  0.75008383  1
  Mn3.30+  Mn126  1  -0.00299476  0.16514204  0.00184725  1
  Mn3.30+  Mn127  1  -0.00113577  0.16634079  0.49827030  1
  Mn3.30+  Mn128  1  -0.00005680  0.50100416  0.00071722  1
  Mn3.30+  Mn129  1  0.00269896  0.50059892  0.50126996  1
  Mn3.30+  Mn130  1  -0.00047298  0.83606971  0.00331975  1
  Mn3.30+  Mn131  1  -0.00118279  0.83318933  0.49858680  1
  Mn3.30+  Mn132  1  0.33460693  0.16505341  0.00325593  1
  Mn3.30+  Mn133  1  0.33400226  0.16604843  0.49763554  1
  Mn3.30+  Mn134  1  0.33272030  0.50177450  0.00281652  1
  Mn3.30+  Mn135  1  0.33104365  0.50010483  0.49780838  1
  Mn3.30+  Mn136  1  0.33220756  0.83273681  0.00093890  1
  Mn3.30+  Mn137  1  0.33638383  0.83358346  0.49970669  1
  Mn3.30+  Mn138  1  0.66691540  0.16606440  0.00279849  1
  Mn3.30+  Mn139  1  0.66660051  0.16413478  0.49872572  1
  Mn3.30+  Mn140  1  0.66871648  0.49949030  0.00184704  1
  Mn3.30+  Mn141  1  0.66692686  0.50148968  0.49854910  1
  Mn3.30+  Mn142  1  0.66687400  0.83424777  0.00070308  1
  Mn3.30+  Mn143  1  0.66464910  0.83101037  0.50023696  1
  O2-  O144  1  0.02317450  0.16192187  0.12942433  1
  O2-  O145  1  0.02863714  0.16068071  0.62429837  1
  O2-  O146  1  0.02699862  0.49606256  0.12551831  1
  O2-  O147  1  0.03231907  0.49445653  0.62558393  1
  O2-  O148  1  0.02854068  0.82684234  0.12510056  1
  O2-  O149  1  0.02562480  0.82965548  0.62503727  1
  O2-  O150  1  0.36181264  0.15913706  0.12760045  1
  O2-  O151  1  0.35071282  0.15984064  0.62057209  1
  O2-  O152  1  0.35899245  0.49042681  0.12676330  1
  O2-  O153  1  0.35858581  0.50013394  0.62149946  1
  O2-  O154  1  0.35617937  0.83100711  0.12412411  1
  O2-  O155  1  0.36280267  0.82633072  0.62509497  1
  O2-  O156  1  0.69583719  0.16143599  0.12715929  1
  O2-  O157  1  0.68878400  0.16118498  0.62391733  1
  O2-  O158  1  0.69573729  0.49193235  0.12391873  1
  O2-  O159  1  0.68840865  0.49312408  0.62624364  1
  O2-  O160  1  0.69602324  0.82693725  0.12341027  1
  O2-  O161  1  0.68929951  0.82868962  0.62750245  1
  O2-  O162  1  0.13779588  0.32636625  0.12565668  1
  O2-  O163  1  0.14258511  0.32464960  0.62318375  1
  O2-  O164  1  0.13750307  0.65915947  0.12558713  1
  O2-  O165  1  0.14133512  0.66052957  0.62290578  1
  O2-  O166  1  0.13822795  0.99626321  0.12464279  1
  O2-  O167  1  0.14125943  0.99431427  0.62300793  1
  O2-  O168  1  0.47676239  0.32921174  0.12753546  1
  O2-  O169  1  0.48301823  0.33442077  0.62225235  1
  O2-  O170  1  0.47144709  0.66035780  0.12517433  1
  O2-  O171  1  0.47617335  0.65691480  0.62322356  1
  O2-  O172  1  0.47450832  0.99137755  0.12476535  1
  O2-  O173  1  0.47775919  0.99436219  0.62417970  1
  O2-  O174  1  0.81153741  0.32482936  0.12785638  1
  O2-  O175  1  0.80582990  0.32769076  0.62301808  1
  O2-  O176  1  0.81275034  0.65830114  0.12101292  1
  O2-  O177  1  0.81206512  0.66058105  0.62613007  1
  O2-  O178  1  0.80861103  0.99246927  0.12390835  1
  O2-  O179  1  0.80491474  0.99506681  0.62671756  1
  O2-  O180  1  0.30848336  0.17488309  0.37276454  1
  O2-  O181  1  0.30921344  0.17034079  0.87902524  1
  O2-  O182  1  0.30383546  0.50766022  0.37256002  1
  O2-  O183  1  0.30766294  0.50749516  0.87877562  1
  O2-  O184  1  0.30809512  0.83649058  0.37487146  1
  O2-  O185  1  0.30744257  0.83783166  0.87541363  1
  O2-  O186  1  0.64082967  0.16981151  0.37217693  1
  O2-  O187  1  0.65000456  0.16383271  0.87738785  1
  O2-  O188  1  0.64676381  0.50785455  0.37110158  1
  O2-  O189  1  0.64201683  0.50510405  0.87790441  1
  O2-  O190  1  0.64881088  0.83874560  0.37270003  1
  O2-  O191  1  0.63857976  0.84151667  0.87709805  1
  O2-  O192  1  0.97077761  0.17168649  0.37497959  1
  O2-  O193  1  0.97120340  0.17146273  0.87067662  1
  O2-  O194  1  0.97297136  0.50550133  0.37644856  1
  O2-  O195  1  0.97479478  0.50430935  0.87338239  1
  O2-  O196  1  0.97810647  0.83808322  0.37385128  1
  O2-  O197  1  0.97438904  0.83984799  0.87559866  1
  O2-  O198  1  0.19477571  0.00389604  0.37480715  1
  O2-  O199  1  0.19479876  0.00619240  0.87712231  1
  O2-  O200  1  0.19060397  0.33967431  0.37353153  1
  O2-  O201  1  0.19239067  0.33729171  0.87840269  1
  O2-  O202  1  0.19246482  0.67629454  0.37433505  1
  O2-  O203  1  0.19296959  0.67230355  0.87760974  1
  O2-  O204  1  0.52559071  0.00348201  0.37149438  1
  O2-  O205  1  0.52201637  0.00457283  0.87856563  1
  O2-  O206  1  0.52785411  0.34219971  0.37288289  1
  O2-  O207  1  0.51600409  0.33821548  0.87723129  1
  O2-  O208  1  0.52535606  0.66609158  0.37198621  1
  O2-  O209  1  0.52175267  0.67226366  0.87952667  1
  O2-  O210  1  0.85474384  0.00488356  0.37428151  1
  O2-  O211  1  0.85970629  0.00737653  0.87499530  1
  O2-  O212  1  0.85950569  0.34503557  0.37596726  1
  O2-  O213  1  0.85891395  0.33784912  0.87331750  1
  O2-  O214  1  0.85810366  0.66389068  0.37772170  1
  O2-  O215  1  0.85987741  0.67380665  0.87526015  1
  O2-  O216  1  0.23782620  0.09470344  0.02380195  1
  O2-  O217  1  0.23646892  0.09264738  0.51792263  1
  O2-  O218  1  0.23862374  0.42886033  0.02206614  1
  O2-  O219  1  0.23684833  0.42981448  0.51782852  1
  O2-  O220  1  0.23311127  0.76524794  0.01934117  1
  O2-  O221  1  0.23916463  0.76104932  0.52147096  1
  O2-  O222  1  0.57461842  0.09287286  0.02583557  1
  O2-  O223  1  0.57117392  0.09408249  0.51112549  1
  O2-  O224  1  0.57341919  0.42735655  0.02103218  1
  O2-  O225  1  0.57345575  0.42847538  0.51725271  1
  O2-  O226  1  0.57349043  0.75786041  0.02425393  1
  O2-  O227  1  0.56822725  0.76309424  0.51877513  1
  O2-  O228  1  0.90230979  0.09892990  0.01869517  1
  O2-  O229  1  0.90663506  0.09236307  0.52327023  1
  O2-  O230  1  0.90488792  0.43101929  0.02032466  1
  O2-  O231  1  0.90758374  0.42972864  0.52477090  1
  O2-  O232  1  0.90503162  0.76682671  0.02119125  1
  O2-  O233  1  0.90512161  0.75878013  0.52293156  1
  O2-  O234  1  0.26174079  0.25894807  0.22848139  1
  O2-  O235  1  0.25667156  0.25862363  0.73502204  1
  O2-  O236  1  0.26222396  0.59716090  0.22635413  1
  O2-  O237  1  0.26315647  0.59678103  0.73180139  1
  O2-  O238  1  0.25878598  0.92727520  0.22986630  1
  O2-  O239  1  0.26585307  0.92511886  0.72740354  1
  O2-  O240  1  0.60012060  0.26202941  0.23194202  1
  O2-  O241  1  0.59551740  0.25998350  0.73358579  1
  O2-  O242  1  0.59399744  0.59122072  0.22412242  1
  O2-  O243  1  0.59046370  0.59279708  0.73656978  1
  O2-  O244  1  0.59364239  0.92549296  0.22839572  1
  O2-  O245  1  0.59818543  0.93098135  0.73180793  1
  O2-  O246  1  0.93183402  0.26568834  0.23398975  1
  O2-  O247  1  0.92900584  0.26080270  0.72610018  1
  O2-  O248  1  0.93263977  0.59785543  0.23373230  1
  O2-  O249  1  0.93148177  0.59230598  0.72923995  1
  O2-  O250  1  0.93074162  0.93208700  0.23170622  1
  O2-  O251  1  0.92599641  0.92987737  0.72919493  1
  O2-  O252  1  0.09450466  0.23748732  0.27244958  1
  O2-  O253  1  0.09250184  0.23811726  0.77150229  1
  O2-  O254  1  0.09741131  0.57088622  0.27224639  1
  O2-  O255  1  0.09411103  0.57268186  0.77456076  1
  O2-  O256  1  0.09305502  0.90696856  0.27315051  1
  O2-  O257  1  0.09613770  0.90686982  0.77071357  1
  O2-  O258  1  0.42818788  0.24175674  0.27262039  1
  O2-  O259  1  0.42196382  0.24208358  0.76711088  1
  O2-  O260  1  0.42835504  0.57174591  0.27037188  1
  O2-  O261  1  0.42729129  0.57213916  0.77093992  1
  O2-  O262  1  0.42532254  0.90603304  0.26344547  1
  O2-  O263  1  0.42910047  0.90442092  0.77333171  1
  O2-  O264  1  0.76336538  0.23909050  0.27486849  1
  O2-  O265  1  0.76338705  0.23525042  0.76437096  1
  O2-  O266  1  0.76389329  0.57047710  0.26398469  1
  O2-  O267  1  0.76112166  0.57323647  0.77153913  1
  O2-  O268  1  0.75890896  0.90891442  0.26635395  1
  O2-  O269  1  0.76128026  0.90490109  0.77193648  1
  O2-  O270  1  0.07193925  0.07138153  0.47730734  1
  O2-  O271  1  0.07416208  0.07299512  0.97731147  1
  O2-  O272  1  0.06885253  0.40288750  0.48100711  1
  O2-  O273  1  0.07119536  0.40505137  0.97955995  1
  O2-  O274  1  0.07400660  0.73754054  0.48072345  1
  O2-  O275  1  0.06971204  0.73874372  0.97867403  1
  O2-  O276  1  0.40513187  0.07136667  0.47829551  1
  O2-  O277  1  0.40202172  0.06822040  0.98457863  1
  O2-  O278  1  0.40590100  0.41015166  0.47471581  1
  O2-  O279  1  0.40334185  0.40767733  0.98184913  1
  O2-  O280  1  0.40210254  0.73512799  0.48120760  1
  O2-  O281  1  0.40169292  0.73874889  0.98347606  1
  O2-  O282  1  0.73827074  0.07141439  0.48027216  1
  O2-  O283  1  0.73907613  0.06989954  0.98202347  1
  O2-  O284  1  0.73908206  0.40526642  0.47988574  1
  O2-  O285  1  0.74214704  0.40572173  0.98128879  1
  O2-  O286  1  0.73622444  0.73567160  0.48220471  1
  O2-  O287  1  0.73744844  0.73988546  0.97765328  1
  O2-  O288  1  0.09428052  0.23864260  0.47754913  1
  O2-  O289  1  0.09227958  0.23625455  0.97928009  1
  O2-  O290  1  0.09420412  0.57259240  0.47479226  1
  O2-  O291  1  0.09728654  0.57159801  0.97942628  1
  O2-  O292  1  0.09506053  0.90711255  0.47914156  1
  O2-  O293  1  0.09458243  0.90611778  0.97589176  1
  O2-  O294  1  0.42749200  0.24181771  0.47543516  1
  O2-  O295  1  0.42119462  0.24240171  0.98459323  1
  O2-  O296  1  0.42605543  0.57302827  0.47678842  1
  O2-  O297  1  0.42940102  0.57091318  0.98022614  1
  O2-  O298  1  0.42429480  0.90834546  0.48198267  1
  O2-  O299  1  0.42843398  0.90266291  0.98017705  1
  O2-  O300  1  0.76310611  0.23527803  0.47835880  1
  O2-  O301  1  0.76246883  0.23807555  0.98418978  1
  O2-  O302  1  0.76447907  0.56892488  0.48628505  1
  O2-  O303  1  0.75943476  0.57358892  0.97605665  1
  O2-  O304  1  0.75954603  0.90488099  0.48530693  1
  O2-  O305  1  0.76171378  0.90864836  0.97640952  1
  O2-  O306  1  0.07290564  0.07373107  0.27437602  1
  O2-  O307  1  0.07006544  0.07405773  0.77090241  1
  O2-  O308  1  0.06735712  0.40548628  0.26829272  1
  O2-  O309  1  0.07182546  0.40397642  0.77199402  1
  O2-  O310  1  0.07067057  0.73788859  0.27046716  1
  O2-  O311  1  0.07406297  0.73822175  0.76988972  1
  O2-  O312  1  0.40324713  0.07130642  0.27306238  1
  O2-  O313  1  0.40394529  0.06806949  0.76401278  1
  O2-  O314  1  0.40601867  0.40784434  0.27116427  1
  O2-  O315  1  0.40420746  0.40884071  0.77104813  1
  O2-  O316  1  0.40285918  0.73922497  0.26592432  1
  O2-  O317  1  0.40106209  0.73547066  0.76858833  1
  O2-  O318  1  0.73504048  0.06933176  0.26786777  1
  O2-  O319  1  0.74253098  0.07262730  0.77237692  1
  O2-  O320  1  0.73869146  0.40419929  0.27028598  1
  O2-  O321  1  0.74333048  0.40836871  0.76735902  1
  O2-  O322  1  0.73609274  0.73305342  0.26547378  1
  O2-  O323  1  0.73539829  0.74304037  0.77535432  1
  O2-  O324  1  0.23682831  0.09365302  0.22892230  1
  O2-  O325  1  0.23806797  0.09330083  0.73047606  1
  O2-  O326  1  0.24043389  0.42524100  0.22665391  1
  O2-  O327  1  0.23587652  0.43232312  0.73408276  1
  O2-  O328  1  0.23398295  0.76424310  0.23064834  1
  O2-  O329  1  0.23909526  0.76209490  0.72903031  1
  O2-  O330  1  0.56975614  0.09521367  0.22822721  1
  O2-  O331  1  0.57483506  0.09102991  0.73451341  1
  O2-  O332  1  0.57426500  0.42819234  0.22812208  1
  O2-  O333  1  0.57204572  0.42690692  0.73322265  1
  O2-  O334  1  0.57413275  0.75901988  0.22471929  1
  O2-  O335  1  0.56691180  0.76377410  0.73394369  1
  O2-  O336  1  0.90237640  0.09620355  0.23082244  1
  O2-  O337  1  0.90680783  0.09461282  0.72455997  1
  O2-  O338  1  0.90421037  0.43095155  0.22850682  1
  O2-  O339  1  0.90886149  0.42797051  0.72725896  1
  O2-  O340  1  0.90572065  0.76249527  0.22732476  1
  O2-  O341  1  0.90462641  0.76190026  0.72922121  1
  O2-  O342  1  0.25847731  0.25948693  0.02375114  1
  O2-  O343  1  0.25814302  0.25941596  0.51457652  1
  O2-  O344  1  0.26338187  0.59634317  0.02490129  1
  O2-  O345  1  0.26281456  0.59704978  0.51787961  1
  O2-  O346  1  0.26299359  0.93000118  0.01878906  1
  O2-  O347  1  0.25951416  0.92434857  0.52331092  1
  O2-  O348  1  0.59559974  0.25875127  0.02173169  1
  O2-  O349  1  0.60060730  0.26218681  0.51354319  1
  O2-  O350  1  0.59529299  0.59322568  0.02223538  1
  O2-  O351  1  0.58913588  0.58994796  0.51668071  1
  O2-  O352  1  0.59533879  0.92711161  0.02340764  1
  O2-  O353  1  0.59576476  0.92927757  0.51575837  1
  O2-  O354  1  0.93020860  0.26622132  0.01621273  1
  O2-  O355  1  0.92832353  0.26253368  0.52182280  1
  O2-  O356  1  0.93316757  0.59767636  0.01487567  1
  O2-  O357  1  0.93033140  0.59388008  0.52263335  1
  O2-  O358  1  0.93255617  0.93404123  0.01827572  1
  O2-  O359  1  0.92484628  0.92910175  0.52035515  1
