# generated using pymatgen
data_Sr7Ca15Pr50Mn72O216
_symmetry_space_group_name_H-M   'P 1'
_cell_length_a   16.55913733
_cell_length_b   16.60346875
_cell_length_c   15.59291509
_cell_angle_alpha   89.99996845
_cell_angle_beta   90.00546707
_cell_angle_gamma   89.99112446
_symmetry_Int_Tables_number   1
_chemical_formula_structural   Sr7Ca15Pr50Mn72O216
_chemical_formula_sum   'Sr7 Ca15 Pr50 Mn72 O216'
_cell_volume   4287.10226900
_cell_formula_units_Z   1
loop_
 _symmetry_equiv_pos_site_id
 _symmetry_equiv_pos_as_xyz
  1  'x, y, z'
loop_
 _atom_type_symbol
 _atom_type_oxidation_number
  Sr2+  2.0
  Ca2+  2.0
  Pr3+  3.0
  Mn3.30+  3.3
  O2-  -2.0
loop_
 _atom_site_type_symbol
 _atom_site_label
 _atom_site_symmetry_multiplicity
 _atom_site_fract_x
 _atom_site_fract_y
 _atom_site_fract_z
 _atom_site_occupancy
  Sr2+  Sr0  1  0.49799512  0.82319541  0.87497679  1
  Sr2+  Sr1  1  0.49925420  0.15641991  0.87621505  1
  Sr2+  Sr2  1  1.00125572  0.99278282  0.87634551  1
  Sr2+  Sr3  1  1.00065697  0.32664337  0.87260045  1
  Sr2+  Sr4  1  0.66581092  0.99060532  0.87586022  1
  Sr2+  Sr5  1  0.16759448  0.49105031  0.87210960  1
  Sr2+  Sr6  1  0.17042611  0.84284062  0.62520089  1
  Ca2+  Ca7  1  0.32738463  0.34921168  0.62866797  1
  Ca2+  Ca8  1  0.50578350  0.85223029  0.12344131  1
  Ca2+  Ca9  1  0.16303838  0.15159379  0.37472323  1
  Ca2+  Ca10  1  0.66267603  0.01337698  0.12376870  1
  Ca2+  Ca11  1  0.83102392  0.48446475  0.87261578  1
  Ca2+  Ca12  1  0.33602583  0.65514477  0.86792065  1
  Ca2+  Ca13  1  0.33701399  0.31763978  0.87266665  1
  Ca2+  Ca14  1  -0.00000128  0.34918837  0.62948043  1
  Ca2+  Ca15  1  0.33396346  0.01522064  0.12389424  1
  Ca2+  Ca16  1  0.66327113  0.68228279  0.62581407  1
  Ca2+  Ca17  1  0.32782589  0.68092413  0.63008686  1
  Ca2+  Ca18  1  0.83594590  0.84699445  0.62681074  1
  Ca2+  Ca19  1  0.67132766  0.98361201  0.37356195  1
  Ca2+  Ca20  1  0.16998001  0.51517766  0.62935803  1
  Ca2+  Ca21  1  0.83516662  0.17970828  0.12243025  1
  Pr3+  Pr22  1  0.34082837  0.98968044  0.87720085  1
  Pr3+  Pr23  1  0.83654585  0.51214878  0.62829515  1
  Pr3+  Pr24  1  1.00383404  0.98727127  0.37365222  1
  Pr3+  Pr25  1  0.17029586  0.18043522  0.62481959  1
  Pr3+  Pr26  1  0.49213865  0.48688260  0.87344914  1
  Pr3+  Pr27  1  0.66943452  0.65414979  0.37664702  1
  Pr3+  Pr28  1  0.82874148  0.15062770  0.37433749  1
  Pr3+  Pr29  1  0.33228097  0.67868140  0.12177313  1
  Pr3+  Pr30  1  0.50144573  0.51602037  0.62521866  1
  Pr3+  Pr31  1  -0.00106792  0.68154528  0.62790985  1
  Pr3+  Pr32  1  -0.00502098  0.01767320  0.12404435  1
  Pr3+  Pr33  1  0.50065812  0.17766041  0.62638153  1
  Pr3+  Pr34  1  0.82916127  0.82159653  0.37649048  1
  Pr3+  Pr35  1  0.65904194  0.68179200  0.12420559  1
  Pr3+  Pr36  1  0.82711461  0.82359584  0.87293316  1
  Pr3+  Pr37  1  0.83190128  0.48619831  0.37705417  1
  Pr3+  Pr38  1  0.50202323  0.17423413  0.12343192  1
  Pr3+  Pr39  1  1.00156907  0.65556795  0.87387589  1
  Pr3+  Pr40  1  0.33545835  0.98732081  0.37273937  1
  Pr3+  Pr41  1  0.66982481  0.31952581  0.37640387  1
  Pr3+  Pr42  1  0.66836032  0.65274180  0.87261236  1
  Pr3+  Pr43  1  0.66323530  0.34522512  0.62574253  1
  Pr3+  Pr44  1  0.83997050  0.17955162  0.62654698  1
  Pr3+  Pr45  1  0.16449907  0.81946194  0.37556901  1
  Pr3+  Pr46  1  0.50273746  0.51182414  0.12396401  1
  Pr3+  Pr47  1  0.17115399  0.85050715  0.12449725  1
  Pr3+  Pr48  1  0.32931296  0.00956590  0.62626313  1
  Pr3+  Pr49  1  0.82979182  0.15333983  0.87565226  1
  Pr3+  Pr50  1  0.49546340  0.48682262  0.37573748  1
  Pr3+  Pr51  1  0.16594341  0.82294043  0.87417018  1
  Pr3+  Pr52  1  0.33398918  0.31892314  0.37756206  1
  Pr3+  Pr53  1  0.67056378  0.32020292  0.87381216  1
  Pr3+  Pr54  1  1.00262691  0.65439723  0.37714497  1
  Pr3+  Pr55  1  0.33122636  0.34406343  0.12264168  1
  Pr3+  Pr56  1  0.66457374  0.34289529  0.12436608  1
  Pr3+  Pr57  1  0.83538002  0.51094343  0.12239719  1
  Pr3+  Pr58  1  0.50043699  0.82124087  0.37344187  1
  Pr3+  Pr59  1  0.33480336  0.65455019  0.37882552  1
  Pr3+  Pr60  1  0.66635707  0.00793305  0.62510569  1
  Pr3+  Pr61  1  0.16938835  0.17948986  0.12565288  1
  Pr3+  Pr62  1  0.16745156  0.51027595  0.12166857  1
  Pr3+  Pr63  1  -0.00091733  0.00964174  0.62622704  1
  Pr3+  Pr64  1  -0.00252707  0.34446971  0.12263044  1
  Pr3+  Pr65  1  -0.00312754  0.67877724  0.12251415  1
  Pr3+  Pr66  1  0.83362771  0.84707887  0.12424037  1
  Pr3+  Pr67  1  0.49966667  0.84196401  0.62586451  1
  Pr3+  Pr68  1  0.16314756  0.48897513  0.37835109  1
  Pr3+  Pr69  1  0.16564462  0.15878859  0.87532342  1
  Pr3+  Pr70  1  1.00568718  0.31796406  0.37807836  1
  Pr3+  Pr71  1  0.49973675  0.15098321  0.37480397  1
  Mn3.30+  Mn72  1  0.16930299  0.00227060  0.00117509  1
  Mn3.30+  Mn73  1  0.16701177  0.00050850  0.49855479  1
  Mn3.30+  Mn74  1  0.16732529  0.33435453  -0.00392852  1
  Mn3.30+  Mn75  1  0.16732851  0.33497995  0.50398646  1
  Mn3.30+  Mn76  1  0.16762177  0.66727382  -0.00178427  1
  Mn3.30+  Mn77  1  0.16883780  0.66565172  0.50320479  1
  Mn3.30+  Mn78  1  0.50082683  -0.00085063  0.00228125  1
  Mn3.30+  Mn79  1  0.50138713  -0.00213341  0.49828533  1
  Mn3.30+  Mn80  1  0.49823285  0.33201208  -0.00146328  1
  Mn3.30+  Mn81  1  0.49735569  0.33274394  0.50208211  1
  Mn3.30+  Mn82  1  0.49743571  0.66811970  -0.00252506  1
  Mn3.30+  Mn83  1  0.50008493  0.66737532  0.50189280  1
  Mn3.30+  Mn84  1  0.83117020  0.00061581  0.00148424  1
  Mn3.30+  Mn85  1  0.83315125  -0.00138406  0.49955716  1
  Mn3.30+  Mn86  1  0.83297429  0.33283840  -0.00080671  1
  Mn3.30+  Mn87  1  0.83648705  0.33274269  0.50206726  1
  Mn3.30+  Mn88  1  0.83051900  0.66551094  -0.00137794  1
  Mn3.30+  Mn89  1  0.83263470  0.66799959  0.50378176  1
  Mn3.30+  Mn90  1  -0.00112245  0.16771991  0.25073520  1
  Mn3.30+  Mn91  1  0.00214154  0.16870442  0.75013124  1
  Mn3.30+  Mn92  1  -0.00076325  0.49980910  0.25026511  1
  Mn3.30+  Mn93  1  0.00194576  0.49968368  0.74978684  1
  Mn3.30+  Mn94  1  -0.00024758  0.83343606  0.24865271  1
  Mn3.30+  Mn95  1  -0.00157819  0.83558915  0.75083249  1
  Mn3.30+  Mn96  1  0.33266646  0.16519057  0.25188867  1
  Mn3.30+  Mn97  1  0.33353528  0.16892983  0.74925781  1
  Mn3.30+  Mn98  1  0.33204202  0.49955400  0.25020362  1
  Mn3.30+  Mn99  1  0.33175203  0.49965569  0.74867660  1
  Mn3.30+  Mn100  1  0.33610514  0.83434281  0.24638423  1
  Mn3.30+  Mn101  1  0.33301721  0.83180048  0.75110015  1
  Mn3.30+  Mn102  1  0.66837789  0.16335821  0.24890858  1
  Mn3.30+  Mn103  1  0.66747189  0.16500983  0.74910728  1
  Mn3.30+  Mn104  1  0.66684866  0.49918691  0.25066708  1
  Mn3.30+  Mn105  1  0.66612941  0.50053392  0.74933490  1
  Mn3.30+  Mn106  1  0.66533817  0.83596447  0.24911779  1
  Mn3.30+  Mn107  1  0.66637353  0.83188941  0.74850163  1
  Mn3.30+  Mn108  1  0.16837274  0.00214124  0.24924516  1
  Mn3.30+  Mn109  1  0.16715556  0.00044093  0.75134729  1
  Mn3.30+  Mn110  1  0.16640909  0.33311289  0.25173073  1
  Mn3.30+  Mn111  1  0.16809572  0.33585226  0.74894245  1
  Mn3.30+  Mn112  1  0.16672357  0.66618933  0.24833475  1
  Mn3.30+  Mn113  1  0.16948808  0.66647445  0.75079222  1
  Mn3.30+  Mn114  1  0.50330762  -0.00148120  0.24910922  1
  Mn3.30+  Mn115  1  0.49917126  -0.00093433  0.75001687  1
  Mn3.30+  Mn116  1  0.49963412  0.33143390  0.25101390  1
  Mn3.30+  Mn117  1  0.49581462  0.33319050  0.74843979  1
  Mn3.30+  Mn118  1  0.49918601  0.66784158  0.24966319  1
  Mn3.30+  Mn119  1  0.49854487  0.66764600  0.74882201  1
  Mn3.30+  Mn120  1  0.83039196  0.00108037  0.24776697  1
  Mn3.30+  Mn121  1  0.83329288  -0.00144907  0.74992274  1
  Mn3.30+  Mn122  1  0.83439018  0.33128332  0.25038389  1
  Mn3.30+  Mn123  1  0.83495116  0.33419513  0.75001982  1
  Mn3.30+  Mn124  1  0.83207352  0.66638247  0.24969610  1
  Mn3.30+  Mn125  1  0.83152180  0.66692298  0.74873657  1
  Mn3.30+  Mn126  1  -0.00085043  0.16923087  -0.00090758  1
  Mn3.30+  Mn127  1  0.00239282  0.16678410  0.50031839  1
  Mn3.30+  Mn128  1  -0.00033184  0.49978040  -0.00378014  1
  Mn3.30+  Mn129  1  0.00107010  0.49950357  0.50480805  1
  Mn3.30+  Mn130  1  -0.00023150  0.83536512  -0.00109771  1
  Mn3.30+  Mn131  1  -0.00137166  0.83414364  0.50165936  1
  Mn3.30+  Mn132  1  0.33396805  0.16697634  0.00074717  1
  Mn3.30+  Mn133  1  0.33219678  0.16632742  0.49885361  1
  Mn3.30+  Mn134  1  0.33358529  0.49992710  -0.00331336  1
  Mn3.30+  Mn135  1  0.33030789  0.49985538  0.50408465  1
  Mn3.30+  Mn136  1  0.33613780  0.83433373  0.00234931  1
  Mn3.30+  Mn137  1  0.33301247  0.83220847  0.49872609  1
  Mn3.30+  Mn138  1  0.66836923  0.16457089  0.00213386  1
  Mn3.30+  Mn139  1  0.66783889  0.16395775  0.50043306  1
  Mn3.30+  Mn140  1  0.66683009  0.49915861  -0.00194551  1
  Mn3.30+  Mn141  1  0.66626542  0.50068217  0.50150369  1
  Mn3.30+  Mn142  1  0.66356883  0.83458266  -0.00087924  1
  Mn3.30+  Mn143  1  0.66800186  0.83281705  0.50229661  1
  O2-  O144  1  0.02455315  0.16670027  0.12543709  1
  O2-  O145  1  0.02602560  0.15570509  0.62316887  1
  O2-  O146  1  0.02257124  0.49480746  0.12284752  1
  O2-  O147  1  0.02561397  0.49674485  0.62558835  1
  O2-  O148  1  0.02582417  0.82631723  0.12475627  1
  O2-  O149  1  0.02141658  0.83147149  0.62582066  1
  O2-  O150  1  0.35782129  0.16521115  0.12952338  1
  O2-  O151  1  0.35789451  0.15666695  0.62122143  1
  O2-  O152  1  0.35906639  0.49211010  0.12360435  1
  O2-  O153  1  0.36026093  0.49063609  0.62443501  1
  O2-  O154  1  0.36408996  0.82286655  0.12576454  1
  O2-  O155  1  0.35446759  0.82995454  0.62097588  1
  O2-  O156  1  0.69316262  0.16208110  0.12764627  1
  O2-  O157  1  0.69446938  0.15898227  0.62242780  1
  O2-  O158  1  0.69135637  0.49299559  0.12607683  1
  O2-  O159  1  0.69254743  0.49159223  0.62483992  1
  O2-  O160  1  0.69157018  0.82470383  0.12512961  1
  O2-  O161  1  0.69343704  0.82755775  0.62354076  1
  O2-  O162  1  0.14205401  0.32924957  0.12677949  1
  O2-  O163  1  0.13895322  0.32472461  0.62395371  1
  O2-  O164  1  0.14062337  0.66034202  0.12395129  1
  O2-  O165  1  0.14344413  0.66464937  0.62639176  1
  O2-  O166  1  0.13980427  0.99772203  0.12592187  1
  O2-  O167  1  0.14387499  0.99809201  0.62264422  1
  O2-  O168  1  0.47562648  0.32648680  0.12735835  1
  O2-  O169  1  0.47114575  0.32522470  0.62386290  1
  O2-  O170  1  0.47609225  0.65785379  0.12485883  1
  O2-  O171  1  0.47109623  0.66434215  0.62297168  1
  O2-  O172  1  0.47579703  1.00004172  0.12830128  1
  O2-  O173  1  0.47345968  0.99260460  0.62138652  1
  O2-  O174  1  0.80872029  0.32947844  0.12511589  1
  O2-  O175  1  0.80750218  0.32802849  0.62388233  1
  O2-  O176  1  0.80338267  0.65691741  0.12193648  1
  O2-  O177  1  0.80384369  0.65665852  0.62538605  1
  O2-  O178  1  0.80511927  0.99325553  0.12598935  1
  O2-  O179  1  0.81092822  0.99586899  0.62294627  1
  O2-  O180  1  0.30518358  0.17176099  0.37567380  1
  O2-  O181  1  0.31024658  0.17061049  0.87437868  1
  O2-  O182  1  0.30668912  0.50746684  0.37811454  1
  O2-  O183  1  0.31648006  0.51137211  0.87380596  1
  O2-  O184  1  0.30824805  0.83904903  0.37103042  1
  O2-  O185  1  0.30919940  0.84393695  0.88067452  1
  O2-  O186  1  0.64278527  0.17393140  0.37662563  1
  O2-  O187  1  0.64985431  0.17223526  0.87392373  1
  O2-  O188  1  0.64034266  0.50532907  0.37670397  1
  O2-  O189  1  0.63736824  0.50366686  0.87178267  1
  O2-  O190  1  0.64413005  0.83794730  0.37536685  1
  O2-  O191  1  0.64819019  0.83398000  0.87490282  1
  O2-  O192  1  0.97268773  0.17145443  0.37667169  1
  O2-  O193  1  0.97475188  0.17045597  0.87559472  1
  O2-  O194  1  0.97516851  0.50693808  0.37828604  1
  O2-  O195  1  0.97333497  0.50714120  0.87405047  1
  O2-  O196  1  0.97430092  0.83739874  0.37378872  1
  O2-  O197  1  0.97237727  0.83588815  0.87559732  1
  O2-  O198  1  0.19115627  0.00615186  0.37292217  1
  O2-  O199  1  0.19555737  0.00903290  0.87857823  1
  O2-  O200  1  0.19211452  0.34417132  0.37730067  1
  O2-  O201  1  0.19439839  0.33129799  0.87270840  1
  O2-  O202  1  0.18961293  0.66869226  0.37378114  1
  O2-  O203  1  0.19275440  0.67459958  0.87653154  1
  O2-  O204  1  0.53002584  0.00297431  0.37580101  1
  O2-  O205  1  0.51520015  0.00131103  0.87467051  1
  O2-  O206  1  0.52568503  0.33872947  0.37620364  1
  O2-  O207  1  0.52640391  0.33835648  0.87219359  1
  O2-  O208  1  0.52586045  0.67085718  0.37533686  1
  O2-  O209  1  0.52428413  0.66543147  0.87407756  1
  O2-  O210  1  0.86003567  0.00327462  0.37328437  1
  O2-  O211  1  0.85162876  0.00357247  0.87725607  1
  O2-  O212  1  0.86057078  0.33852404  0.37807291  1
  O2-  O213  1  0.84980934  0.33769119  0.87467669  1
  O2-  O214  1  0.85947299  0.67346344  0.37861141  1
  O2-  O215  1  0.85769270  0.67686388  0.87459618  1
  O2-  O216  1  0.23861410  0.09708706  0.02089293  1
  O2-  O217  1  0.23950684  0.09364007  0.52061270  1
  O2-  O218  1  0.24075786  0.42595469  0.02148408  1
  O2-  O219  1  0.23280385  0.43453424  0.52045758  1
  O2-  O220  1  0.23873097  0.76361993  0.02340104  1
  O2-  O221  1  0.24009350  0.76195680  0.50959105  1
  O2-  O222  1  0.57395691  0.09331041  0.02025566  1
  O2-  O223  1  0.57194162  0.09249293  0.52206566  1
  O2-  O224  1  0.57161743  0.42705472  0.02054343  1
  O2-  O225  1  0.57037897  0.42654580  0.52141807  1
  O2-  O226  1  0.56996218  0.76067150  0.02219209  1
  O2-  O227  1  0.57101837  0.76233526  0.51741083  1
  O2-  O228  1  0.90649980  0.09546852  0.02104913  1
  O2-  O229  1  0.90429758  0.09492703  0.51896425  1
  O2-  O230  1  0.90516293  0.42606663  0.02027926  1
  O2-  O231  1  0.90354922  0.43168399  0.51944606  1
  O2-  O232  1  0.90210263  0.75792229  0.02253237  1
  O2-  O233  1  0.90282741  0.76138726  0.52340490  1
  O2-  O234  1  0.26142276  0.26456008  0.23096238  1
  O2-  O235  1  0.26110026  0.26059740  0.72545189  1
  O2-  O236  1  0.26091012  0.59406345  0.22817361  1
  O2-  O237  1  0.26337943  0.59430166  0.72987477  1
  O2-  O238  1  0.26567654  0.92809887  0.22675572  1
  O2-  O239  1  0.26213423  0.93055337  0.73531012  1
  O2-  O240  1  0.59588149  0.25843566  0.23052161  1
  O2-  O241  1  0.59363286  0.25993096  0.72772644  1
  O2-  O242  1  0.59330650  0.59497040  0.23029462  1
  O2-  O243  1  0.59621721  0.59534024  0.72656970  1
  O2-  O244  1  0.59836209  0.92958230  0.22855544  1
  O2-  O245  1  0.59176248  0.92403386  0.72626709  1
  O2-  O246  1  0.93100478  0.26450301  0.23370094  1
  O2-  O247  1  0.92958717  0.25898307  0.72617165  1
  O2-  O248  1  0.92803875  0.59473709  0.22944157  1
  O2-  O249  1  0.92678562  0.59619767  0.72887078  1
  O2-  O250  1  0.92822463  0.92983801  0.22800111  1
  O2-  O251  1  0.92763246  0.92839130  0.73097352  1
  O2-  O252  1  0.09735596  0.23925315  0.27333956  1
  O2-  O253  1  0.09830468  0.23740175  0.76584739  1
  O2-  O254  1  0.09326582  0.57059089  0.26916304  1
  O2-  O255  1  0.09075428  0.57972400  0.76961153  1
  O2-  O256  1  0.09754595  0.90630745  0.26956993  1
  O2-  O257  1  0.09619030  0.90824424  0.77106721  1
  O2-  O258  1  0.42723982  0.23804730  0.27397899  1
  O2-  O259  1  0.42823816  0.23713089  0.76448948  1
  O2-  O260  1  0.42662020  0.57093482  0.27061827  1
  O2-  O261  1  0.43278825  0.56851878  0.76282145  1
  O2-  O262  1  0.43029771  0.90637620  0.27268482  1
  O2-  O263  1  0.42467688  0.90626793  0.76404168  1
  O2-  O264  1  0.76034522  0.23846806  0.27306140  1
  O2-  O265  1  0.76304424  0.23885812  0.76675864  1
  O2-  O266  1  0.76259208  0.57225794  0.27254578  1
  O2-  O267  1  0.76279790  0.57022334  0.77313642  1
  O2-  O268  1  0.76510820  0.90177278  0.26781486  1
  O2-  O269  1  0.76123698  0.90403414  0.76404061  1
  O2-  O270  1  0.07051966  0.07044657  0.47926456  1
  O2-  O271  1  0.07496515  0.07733427  0.98467512  1
  O2-  O272  1  0.07191347  0.40553159  0.47859345  1
  O2-  O273  1  0.07466093  0.40678043  0.98582959  1
  O2-  O274  1  0.07114519  0.73948607  0.48095430  1
  O2-  O275  1  0.07211420  0.74087118  0.97871674  1
  O2-  O276  1  0.40790542  0.07059360  0.47606731  1
  O2-  O277  1  0.40484744  0.07283168  0.98697592  1
  O2-  O278  1  0.40346353  0.40765188  0.47613686  1
  O2-  O279  1  0.40349508  0.40465776  0.97817803  1
  O2-  O280  1  0.40887029  0.74093687  0.47463644  1
  O2-  O281  1  0.39944406  0.73201079  0.98074922  1
  O2-  O282  1  0.73867088  0.06878972  0.47744581  1
  O2-  O283  1  0.74219452  0.07528051  0.98131208  1
  O2-  O284  1  0.73822976  0.40492222  0.47953204  1
  O2-  O285  1  0.73481815  0.40261945  0.98351057  1
  O2-  O286  1  0.73879641  0.73937960  0.47702331  1
  O2-  O287  1  0.73561758  0.73561022  0.98058270  1
  O2-  O288  1  0.09803434  0.23696636  0.47747848  1
  O2-  O289  1  0.09605967  0.23975878  0.98348044  1
  O2-  O290  1  0.09268336  0.57381085  0.48024370  1
  O2-  O291  1  0.08990085  0.57649293  0.98149780  1
  O2-  O292  1  0.09511498  0.90734819  0.47563287  1
  O2-  O293  1  0.10144117  0.90746612  0.98383229  1
  O2-  O294  1  0.42840064  0.23696517  0.47760641  1
  O2-  O295  1  0.42615504  0.23935231  0.98622610  1
  O2-  O296  1  0.42911535  0.57138410  0.47952053  1
  O2-  O297  1  0.43171195  0.56820418  0.98603866  1
  O2-  O298  1  0.42799216  0.90449102  0.47670733  1
  O2-  O299  1  0.42654251  0.90710633  0.98424309  1
  O2-  O300  1  0.76351314  0.23758937  0.48030336  1
  O2-  O301  1  0.76082796  0.23982217  0.98084871  1
  O2-  O302  1  0.76293848  0.57255053  0.47816547  1
  O2-  O303  1  0.76144904  0.56882011  0.97542445  1
  O2-  O304  1  0.76240687  0.90489304  0.48077342  1
  O2-  O305  1  0.76332764  0.90021603  0.98530988  1
  O2-  O306  1  0.06663345  0.07252434  0.26653168  1
  O2-  O307  1  0.07643889  0.07582051  0.76880766  1
  O2-  O308  1  0.07083856  0.40468864  0.27097369  1
  O2-  O309  1  0.07404927  0.40726943  0.76552483  1
  O2-  O310  1  0.07226330  0.73758495  0.27064536  1
  O2-  O311  1  0.07069467  0.74214608  0.77020553  1
  O2-  O312  1  0.40942765  0.07243011  0.27413780  1
  O2-  O313  1  0.40343393  0.07068508  0.76339211  1
  O2-  O314  1  0.40310510  0.40529186  0.27176078  1
  O2-  O315  1  0.40392211  0.40483971  0.77311449  1
  O2-  O316  1  0.40406989  0.73741541  0.27196482  1
  O2-  O317  1  0.40426255  0.73719309  0.76669634  1
  O2-  O318  1  0.73771457  0.07070907  0.27610737  1
  O2-  O319  1  0.74331360  0.07292629  0.76523613  1
  O2-  O320  1  0.74032202  0.40338431  0.27220483  1
  O2-  O321  1  0.73337058  0.40367918  0.76564357  1
  O2-  O322  1  0.73611371  0.73835714  0.27013175  1
  O2-  O323  1  0.73847427  0.73762407  0.77088627  1
  O2-  O324  1  0.23885796  0.09566982  0.23015363  1
  O2-  O325  1  0.23993138  0.09593852  0.72989736  1
  O2-  O326  1  0.23669742  0.42892289  0.22981930  1
  O2-  O327  1  0.23797024  0.42936878  0.72787786  1
  O2-  O328  1  0.23907147  0.76201788  0.22869110  1
  O2-  O329  1  0.23875172  0.76240332  0.73761273  1
  O2-  O330  1  0.57052726  0.09664082  0.23298070  1
  O2-  O331  1  0.57429000  0.08994457  0.72615864  1
  O2-  O332  1  0.57160931  0.42551748  0.23035414  1
  O2-  O333  1  0.56873915  0.42677913  0.72614413  1
  O2-  O334  1  0.57054391  0.76427590  0.23055886  1
  O2-  O335  1  0.57135832  0.75932692  0.72863331  1
  O2-  O336  1  0.90051749  0.09606711  0.22815076  1
  O2-  O337  1  0.90808231  0.09358971  0.73119648  1
  O2-  O338  1  0.90455700  0.42946604  0.23062501  1
  O2-  O339  1  0.90443237  0.42800477  0.73134962  1
  O2-  O340  1  0.90287310  0.75881488  0.22774514  1
  O2-  O341  1  0.90359200  0.76038459  0.72804215  1
  O2-  O342  1  0.25908318  0.25932231  0.02273837  1
  O2-  O343  1  0.26242877  0.26691290  0.52128420  1
  O2-  O344  1  0.25906456  0.59092025  0.02373223  1
  O2-  O345  1  0.26628818  0.59821592  0.52025521  1
  O2-  O346  1  0.26390943  0.92958544  0.02571626  1
  O2-  O347  1  0.26393918  0.93076964  0.51284958  1
  O2-  O348  1  0.59518562  0.25887115  0.02019799  1
  O2-  O349  1  0.59499076  0.25888924  0.52144313  1
  O2-  O350  1  0.59563706  0.59427323  0.01925323  1
  O2-  O351  1  0.59492371  0.59614755  0.52184168  1
  O2-  O352  1  0.59563665  0.92816373  0.02157624  1
  O2-  O353  1  0.59372782  0.92395928  0.52389592  1
  O2-  O354  1  0.92674231  0.26187072  0.02015422  1
  O2-  O355  1  0.93278659  0.26223377  0.52334474  1
  O2-  O356  1  0.92520496  0.59490570  0.02051519  1
  O2-  O357  1  0.92834019  0.59660529  0.52293802  1
  O2-  O358  1  0.92614587  0.92803229  0.02374632  1
  O2-  O359  1  0.93048585  0.93128371  0.51599812  1
