# generated using pymatgen
data_Sr7Ca15Pr50Mn72O216
_symmetry_space_group_name_H-M   'P 1'
_cell_length_a   16.55890930
_cell_length_b   16.60624818
_cell_length_c   15.59412760
_cell_angle_alpha   89.99454088
_cell_angle_beta   90.00115961
_cell_angle_gamma   90.00558923
_symmetry_Int_Tables_number   1
_chemical_formula_structural   Sr7Ca15Pr50Mn72O216
_chemical_formula_sum   'Sr7 Ca15 Pr50 Mn72 O216'
_cell_volume   4288.09433691
_cell_formula_units_Z   1
loop_
 _symmetry_equiv_pos_site_id
 _symmetry_equiv_pos_as_xyz
  1  'x, y, z'
loop_
 _atom_type_symbol
 _atom_type_oxidation_number
  Sr2+  2.0
  Ca2+  2.0
  Pr3+  3.0
  Mn3.30+  3.3
  O2-  -2.0
loop_
 _atom_site_type_symbol
 _atom_site_label
 _atom_site_symmetry_multiplicity
 _atom_site_fract_x
 _atom_site_fract_y
 _atom_site_fract_z
 _atom_site_occupancy
  Sr2+  Sr0  1  0.83425642  0.17770847  0.62618047  1
  Sr2+  Sr1  1  0.33759923  0.65300923  0.87779315  1
  Sr2+  Sr2  1  0.66515761  0.32632633  0.87787279  1
  Sr2+  Sr3  1  0.99961964  0.98941540  0.37528664  1
  Sr2+  Sr4  1  0.33468815  0.67032014  0.12320348  1
  Sr2+  Sr5  1  0.16841454  0.50922925  0.12588227  1
  Sr2+  Sr6  1  0.82868555  0.15606759  0.87444338  1
  Ca2+  Ca7  1  0.66966718  0.65064694  0.37067747  1
  Ca2+  Ca8  1  0.33084650  0.01666974  0.62566347  1
  Ca2+  Ca9  1  0.83344056  0.84473573  0.12721033  1
  Ca2+  Ca10  1  0.50031244  0.48981635  0.88356493  1
  Ca2+  Ca11  1  0.67093553  0.98883614  0.87597541  1
  Ca2+  Ca12  1  0.33328661  0.35150678  0.12553933  1
  Ca2+  Ca13  1  0.66093138  0.35256229  0.12478868  1
  Ca2+  Ca14  1  0.83214749  0.51406026  0.12488240  1
  Ca2+  Ca15  1  0.82647404  0.81438755  0.37175302  1
  Ca2+  Ca16  1  0.50586467  0.51688654  0.12346528  1
  Ca2+  Ca17  1  0.66859245  0.64991942  0.87957263  1
  Ca2+  Ca18  1  0.66853616  0.32104984  0.37219351  1
  Ca2+  Ca19  1  0.66421141  0.67729252  0.12535061  1
  Ca2+  Ca20  1  -0.00669306  0.35317493  0.12541812  1
  Ca2+  Ca21  1  0.50159942  0.48795538  0.36809010  1
  Pr3+  Pr22  1  0.33714556  0.32296389  0.37071591  1
  Pr3+  Pr23  1  -0.00664744  0.67939800  0.12498379  1
  Pr3+  Pr24  1  0.83005468  0.15541720  0.37408845  1
  Pr3+  Pr25  1  0.33927861  0.65067506  0.37265845  1
  Pr3+  Pr26  1  0.16959454  0.17911729  0.62439227  1
  Pr3+  Pr27  1  0.50194821  0.81905059  0.87563320  1
  Pr3+  Pr28  1  0.33187308  0.00940993  0.12483267  1
  Pr3+  Pr29  1  1.00147265  0.65284375  0.87664005  1
  Pr3+  Pr30  1  0.17049743  0.84935191  0.62536624  1
  Pr3+  Pr31  1  0.33950122  0.32598558  0.87997506  1
  Pr3+  Pr32  1  0.66558856  0.01084059  0.12340928  1
  Pr3+  Pr33  1  0.50028692  0.15450197  0.37330383  1
  Pr3+  Pr34  1  0.16678367  0.48880689  0.88033132  1
  Pr3+  Pr35  1  1.00136457  0.32226438  0.36995911  1
  Pr3+  Pr36  1  0.66534202  0.01514160  0.62610584  1
  Pr3+  Pr37  1  0.16895787  0.84103804  0.12518636  1
  Pr3+  Pr38  1  0.17010571  0.51190137  0.62437607  1
  Pr3+  Pr39  1  0.66509365  0.34354912  0.62585095  1
  Pr3+  Pr40  1  0.50425873  0.51105681  0.62597708  1
  Pr3+  Pr41  1  0.33252188  0.67766274  0.62626467  1
  Pr3+  Pr42  1  0.16246288  0.82087022  0.37441716  1
  Pr3+  Pr43  1  0.16454692  0.48867141  0.37061012  1
  Pr3+  Pr44  1  0.16418442  0.15496741  0.87647555  1
  Pr3+  Pr45  1  0.83249484  0.51006968  0.62585298  1
  Pr3+  Pr46  1  0.50356060  0.83857361  0.12370809  1
  Pr3+  Pr47  1  -0.00453068  0.01038721  0.12568708  1
  Pr3+  Pr48  1  0.83515753  0.84618324  0.62230534  1
  Pr3+  Pr49  1  0.33230497  0.34615484  0.62334805  1
  Pr3+  Pr50  1  0.99776015  0.65682143  0.37326528  1
  Pr3+  Pr51  1  0.17028735  0.18187750  0.12582083  1
  Pr3+  Pr52  1  -0.00421379  0.01538786  0.62421390  1
  Pr3+  Pr53  1  0.82569425  0.82052500  0.87667364  1
  Pr3+  Pr54  1  0.99988997  0.98825374  0.87445279  1
  Pr3+  Pr55  1  0.66327496  0.67863755  0.62573550  1
  Pr3+  Pr56  1  0.49985592  0.15526234  0.87617540  1
  Pr3+  Pr57  1  0.33712738  0.98647613  0.37593346  1
  Pr3+  Pr58  1  -0.00486871  0.67906905  0.62477555  1
  Pr3+  Pr59  1  0.82793102  0.48788518  0.87855610  1
  Pr3+  Pr60  1  -0.00587780  0.34487707  0.62494074  1
  Pr3+  Pr61  1  0.82551239  0.48679678  0.37173470  1
  Pr3+  Pr62  1  0.83553132  0.18243638  0.12374036  1
  Pr3+  Pr63  1  1.00121412  0.32191567  0.87979178  1
  Pr3+  Pr64  1  0.50606478  0.18389610  0.12519400  1
  Pr3+  Pr65  1  0.16336238  0.15303560  0.37382250  1
  Pr3+  Pr66  1  0.67296320  0.98450836  0.37439868  1
  Pr3+  Pr67  1  0.49959204  0.81828639  0.37416388  1
  Pr3+  Pr68  1  0.33830050  0.98651877  0.87390241  1
  Pr3+  Pr69  1  0.50323752  0.17993057  0.62420344  1
  Pr3+  Pr70  1  0.50289898  0.84657657  0.62590587  1
  Pr3+  Pr71  1  0.16391843  0.81814457  0.87545005  1
  Mn3.30+  Mn72  1  0.16666149  -0.00125227  -0.00042484  1
  Mn3.30+  Mn73  1  0.16808300  0.00071781  0.50081172  1
  Mn3.30+  Mn74  1  0.16830950  0.33448822  0.00364614  1
  Mn3.30+  Mn75  1  0.16574674  0.33371386  0.49836380  1
  Mn3.30+  Mn76  1  0.16665509  0.66486274  0.00097334  1
  Mn3.30+  Mn77  1  0.16659392  0.66664422  0.49957187  1
  Mn3.30+  Mn78  1  0.50229609  -0.00067321  -0.00090054  1
  Mn3.30+  Mn79  1  0.50003419  -0.00028167  0.50076918  1
  Mn3.30+  Mn80  1  0.50148387  0.33760299  0.00391673  1
  Mn3.30+  Mn81  1  0.50170757  0.33492093  0.49537792  1
  Mn3.30+  Mn82  1  0.50391041  0.66434250  0.00056153  1
  Mn3.30+  Mn83  1  0.50210230  0.66390483  0.49763867  1
  Mn3.30+  Mn84  1  0.83124292  -0.00106928  0.00044323  1
  Mn3.30+  Mn85  1  0.83358312  -0.00126071  0.49790523  1
  Mn3.30+  Mn86  1  0.83107781  0.33592994  0.00391798  1
  Mn3.30+  Mn87  1  0.83154677  0.33342918  0.49781040  1
  Mn3.30+  Mn88  1  0.82914943  0.66733674  0.00259896  1
  Mn3.30+  Mn89  1  0.82964214  0.66585929  0.49814220  1
  Mn3.30+  Mn90  1  -0.00019921  0.16831214  0.24704689  1
  Mn3.30+  Mn91  1  -0.00036406  0.16772154  0.75221424  1
  Mn3.30+  Mn92  1  -0.00444135  0.50132044  0.24778996  1
  Mn3.30+  Mn93  1  0.00026516  0.49913456  0.75111741  1
  Mn3.30+  Mn94  1  -0.00418962  0.83329997  0.25143592  1
  Mn3.30+  Mn95  1  -0.00130716  0.83334471  0.74967647  1
  Mn3.30+  Mn96  1  0.33482613  0.16740053  0.24838915  1
  Mn3.30+  Mn97  1  0.33370037  0.16746416  0.75043338  1
  Mn3.30+  Mn98  1  0.33678888  0.49910397  0.24799363  1
  Mn3.30+  Mn99  1  0.33624865  0.49925776  0.75149040  1
  Mn3.30+  Mn100  1  0.33362780  0.83098058  0.25002225  1
  Mn3.30+  Mn101  1  0.33448688  0.83330278  0.74969609  1
  Mn3.30+  Mn102  1  0.66729849  0.16955578  0.24862632  1
  Mn3.30+  Mn103  1  0.66697012  0.16776863  0.75173098  1
  Mn3.30+  Mn104  1  0.66503983  0.50033059  0.24779444  1
  Mn3.30+  Mn105  1  0.66555428  0.50033652  0.75339006  1
  Mn3.30+  Mn106  1  0.66949644  0.82933104  0.24886341  1
  Mn3.30+  Mn107  1  0.66694527  0.83377205  0.75096506  1
  Mn3.30+  Mn108  1  0.16569833  -0.00106279  0.24950163  1
  Mn3.30+  Mn109  1  0.16888838  0.00101329  0.75014432  1
  Mn3.30+  Mn110  1  0.16756457  0.33483817  0.24667797  1
  Mn3.30+  Mn111  1  0.16705334  0.33407681  0.75102524  1
  Mn3.30+  Mn112  1  0.16714923  0.66585283  0.24959615  1
  Mn3.30+  Mn113  1  0.16620890  0.66547656  0.75022506  1
  Mn3.30+  Mn114  1  0.50149954  -0.00156554  0.24926603  1
  Mn3.30+  Mn115  1  0.50077183  0.00046617  0.75029208  1
  Mn3.30+  Mn116  1  0.50313599  0.33786105  0.24859092  1
  Mn3.30+  Mn117  1  0.49937609  0.33465125  0.75193192  1
  Mn3.30+  Mn118  1  0.50453668  0.66402461  0.24936869  1
  Mn3.30+  Mn119  1  0.50088899  0.66395930  0.75289563  1
  Mn3.30+  Mn120  1  0.83268487  -0.00293803  0.24989848  1
  Mn3.30+  Mn121  1  0.83187481  0.00001613  0.75096559  1
  Mn3.30+  Mn122  1  0.82994546  0.33622826  0.24651855  1
  Mn3.30+  Mn123  1  0.83176498  0.33332402  0.75165167  1
  Mn3.30+  Mn124  1  0.82837154  0.66669324  0.24777696  1
  Mn3.30+  Mn125  1  0.83051784  0.66667918  0.75151393  1
  Mn3.30+  Mn126  1  -0.00056973  0.16788349  0.00164535  1
  Mn3.30+  Mn127  1  -0.00035915  0.16790970  0.49880335  1
  Mn3.30+  Mn128  1  -0.00344738  0.50025307  0.00363640  1
  Mn3.30+  Mn129  1  -0.00127111  0.50020971  0.49799999  1
  Mn3.30+  Mn130  1  -0.00363159  0.83338870  0.00032774  1
  Mn3.30+  Mn131  1  -0.00138571  0.83323098  0.49809616  1
  Mn3.30+  Mn132  1  0.33441222  0.16811259  0.00206063  1
  Mn3.30+  Mn133  1  0.33421576  0.16653933  0.49894177  1
  Mn3.30+  Mn134  1  0.33617457  0.49957037  0.00312493  1
  Mn3.30+  Mn135  1  0.33626719  0.49926436  0.49794144  1
  Mn3.30+  Mn136  1  0.33476946  0.83097743  -0.00041897  1
  Mn3.30+  Mn137  1  0.33355169  0.83347461  0.50122566  1
  Mn3.30+  Mn138  1  0.66835660  0.16850272  0.00002019  1
  Mn3.30+  Mn139  1  0.66687981  0.16876284  0.49873458  1
  Mn3.30+  Mn140  1  0.66603950  0.50164803  0.00317536  1
  Mn3.30+  Mn141  1  0.66509312  0.49889905  0.49647205  1
  Mn3.30+  Mn142  1  0.66874831  0.83180184  0.00130701  1
  Mn3.30+  Mn143  1  0.66781460  0.83064792  0.49863995  1
  O2-  O144  1  0.02630386  0.15756548  0.12439125  1
  O2-  O145  1  0.02478113  0.16510800  0.62700599  1
  O2-  O146  1  0.01923675  0.49985271  0.12618283  1
  O2-  O147  1  0.02625605  0.49265977  0.62379085  1
  O2-  O148  1  0.02491683  0.82831717  0.12486301  1
  O2-  O149  1  0.02565550  0.82637353  0.62419019  1
  O2-  O150  1  0.36242538  0.15470505  0.12532691  1
  O2-  O151  1  0.35960965  0.16245657  0.62308488  1
  O2-  O152  1  0.36040313  0.49786236  0.12784798  1
  O2-  O153  1  0.35860600  0.49547334  0.62275977  1
  O2-  O154  1  0.35718728  0.83218368  0.12408992  1
  O2-  O155  1  0.35901064  0.82496655  0.62453365  1
  O2-  O156  1  0.69108746  0.15773969  0.12568160  1
  O2-  O157  1  0.68399309  0.16404032  0.62485911  1
  O2-  O158  1  0.69315905  0.49303910  0.12557613  1
  O2-  O159  1  0.68941272  0.49227524  0.62509689  1
  O2-  O160  1  0.69239129  0.82368422  0.12646410  1
  O2-  O161  1  0.69177838  0.82592232  0.62381098  1
  O2-  O162  1  0.13708802  0.32811563  0.12549434  1
  O2-  O163  1  0.13852011  0.32831012  0.62290818  1
  O2-  O164  1  0.14086718  0.66915195  0.12471402  1
  O2-  O165  1  0.14008971  0.65888313  0.62410752  1
  O2-  O166  1  0.14039341  0.99028117  0.12193583  1
  O2-  O167  1  0.13978796  0.99730726  0.62485724  1
  O2-  O168  1  0.47306330  0.32661546  0.12705033  1
  O2-  O169  1  0.47538181  0.32702582  0.62215377  1
  O2-  O170  1  0.48307439  0.67023624  0.12577156  1
  O2-  O171  1  0.47571184  0.65958665  0.62474235  1
  O2-  O172  1  0.47529199  0.99060248  0.12495308  1
  O2-  O173  1  0.47233053  0.99457650  0.62525613  1
  O2-  O174  1  0.80259559  0.32730126  0.12622329  1
  O2-  O175  1  0.81111802  0.33635892  0.62220181  1
  O2-  O176  1  0.80570206  0.65888113  0.12486597  1
  O2-  O177  1  0.80723276  0.65943385  0.62545069  1
  O2-  O178  1  0.80960553  0.99258262  0.12614810  1
  O2-  O179  1  0.81012307  0.99485010  0.62237912  1
  O2-  O180  1  0.30696908  0.17415513  0.37267903  1
  O2-  O181  1  0.30719066  0.17623289  0.87845886  1
  O2-  O182  1  0.30924619  0.50223007  0.37583529  1
  O2-  O183  1  0.31146267  0.49375373  0.87413292  1
  O2-  O184  1  0.30698128  0.83900805  0.37819916  1
  O2-  O185  1  0.30824370  0.83935727  0.87357838  1
  O2-  O186  1  0.64393590  0.17246288  0.37273473  1
  O2-  O187  1  0.64299426  0.17086665  0.87573256  1
  O2-  O188  1  0.64155773  0.50874099  0.37409126  1
  O2-  O189  1  0.64204868  0.50596007  0.87615706  1
  O2-  O190  1  0.64111232  0.84028933  0.37633191  1
  O2-  O191  1  0.64445784  0.84568189  0.87362435  1
  O2-  O192  1  0.97533178  0.17408133  0.36999983  1
  O2-  O193  1  0.98004710  0.17294849  0.87860727  1
  O2-  O194  1  0.97101018  0.50710168  0.37287645  1
  O2-  O195  1  0.97338096  0.50419271  0.87782201  1
  O2-  O196  1  0.97181292  0.83195614  0.37552861  1
  O2-  O197  1  0.97158364  0.83951731  0.87461564  1
  O2-  O198  1  0.19349962  0.00501361  0.37687702  1
  O2-  O199  1  0.19505450  0.00659940  0.87629836  1
  O2-  O200  1  0.19164559  0.33857391  0.37378085  1
  O2-  O201  1  0.19390854  0.33851078  0.87779112  1
  O2-  O202  1  0.19316962  0.67350068  0.37684961  1
  O2-  O203  1  0.18496219  0.67044137  0.87470341  1
  O2-  O204  1  0.52753388  0.00456636  0.37440590  1
  O2-  O205  1  0.52855418  0.00705727  0.87475528  1
  O2-  O206  1  0.52765718  0.34083373  0.37300981  1
  O2-  O207  1  0.51473539  0.34099521  0.87745141  1
  O2-  O208  1  0.52816746  0.67336188  0.37564934  1
  O2-  O209  1  0.52733069  0.67232132  0.87477444  1
  O2-  O210  1  0.85087914  0.00818770  0.37459283  1
  O2-  O211  1  0.85622418  -0.00179158  0.87613387  1
  O2-  O212  1  0.85822171  0.33831283  0.37179349  1
  O2-  O213  1  0.85762711  0.34045419  0.87949592  1
  O2-  O214  1  0.85530431  0.66888290  0.37517748  1
  O2-  O215  1  0.85913475  0.67341920  0.87516344  1
  O2-  O216  1  0.23862363  0.09418477  0.02226645  1
  O2-  O217  1  0.23737550  0.09607144  0.51848892  1
  O2-  O218  1  0.23974243  0.42544568  0.01761959  1
  O2-  O219  1  0.23696945  0.42708637  0.51979373  1
  O2-  O220  1  0.23556319  0.76172253  0.01436705  1
  O2-  O221  1  0.23810730  0.76165931  0.52307987  1
  O2-  O222  1  0.57090916  0.09482904  0.02114190  1
  O2-  O223  1  0.57069836  0.09417813  0.51894740  1
  O2-  O224  1  0.57090454  0.43196353  0.02079844  1
  O2-  O225  1  0.57301601  0.42574315  0.52280914  1
  O2-  O226  1  0.57247873  0.76446403  0.01419573  1
  O2-  O227  1  0.57023063  0.76174682  0.52152623  1
  O2-  O228  1  0.90529957  0.09204895  0.02217490  1
  O2-  O229  1  0.91035093  0.09386450  0.51606223  1
  O2-  O230  1  0.90220213  0.43166126  0.02099594  1
  O2-  O231  1  0.90423610  0.42818625  0.51861006  1
  O2-  O232  1  0.90055759  0.76263280  0.02231413  1
  O2-  O233  1  0.90419623  0.75679552  0.52250890  1
  O2-  O234  1  0.26465823  0.25949163  0.22608958  1
  O2-  O235  1  0.25970235  0.26204093  0.72657925  1
  O2-  O236  1  0.26172879  0.59230210  0.23889343  1
  O2-  O237  1  0.26291781  0.59121145  0.72862048  1
  O2-  O238  1  0.26077618  0.92788591  0.23064204  1
  O2-  O239  1  0.26199362  0.93105413  0.72802389  1
  O2-  O240  1  0.59518710  0.26349835  0.22726377  1
  O2-  O241  1  0.58928320  0.26023583  0.73015829  1
  O2-  O242  1  0.59817580  0.59650029  0.22867444  1
  O2-  O243  1  0.59460494  0.59251770  0.72726289  1
  O2-  O244  1  0.59726243  0.92519786  0.22931937  1
  O2-  O245  1  0.59384174  0.92757993  0.72496595  1
  O2-  O246  1  0.92904149  0.26524068  0.22662111  1
  O2-  O247  1  0.93043946  0.26433094  0.73554700  1
  O2-  O248  1  0.92759553  0.59884580  0.23280849  1
  O2-  O249  1  0.92832545  0.59468034  0.73017249  1
  O2-  O250  1  0.92895136  0.92787184  0.23049251  1
  O2-  O251  1  0.92952697  0.92736498  0.72811945  1
  O2-  O252  1  0.09625424  0.23927340  0.26946839  1
  O2-  O253  1  0.09618635  0.23973274  0.77167486  1
  O2-  O254  1  0.09144249  0.57619476  0.27299134  1
  O2-  O255  1  0.09414835  0.56992306  0.77040964  1
  O2-  O256  1  0.09568880  0.90264623  0.26807304  1
  O2-  O257  1  0.09607437  0.90592099  0.77085362  1
  O2-  O258  1  0.43075687  0.23881471  0.27103215  1
  O2-  O259  1  0.42737518  0.23825288  0.77051799  1
  O2-  O260  1  0.42931974  0.57411540  0.27181696  1
  O2-  O261  1  0.43143564  0.56422337  0.76840076  1
  O2-  O262  1  0.42606455  0.90424606  0.27236479  1
  O2-  O263  1  0.43123493  0.90661997  0.77206352  1
  O2-  O264  1  0.76567025  0.23563072  0.26657282  1
  O2-  O265  1  0.75908333  0.24295667  0.76324227  1
  O2-  O266  1  0.76106735  0.56959096  0.26884472  1
  O2-  O267  1  0.76420767  0.57130692  0.76775098  1
  O2-  O268  1  0.75945573  0.90213213  0.27225644  1
  O2-  O269  1  0.76390293  0.90064959  0.76302493  1
  O2-  O270  1  0.07611116  0.07513466  0.48238185  1
  O2-  O271  1  0.07447692  0.07013747  0.97820507  1
  O2-  O272  1  0.07033398  0.40727414  0.47560730  1
  O2-  O273  1  0.07407453  0.40753854  0.97960237  1
  O2-  O274  1  0.07120304  0.73908764  0.47918219  1
  O2-  O275  1  0.06743625  0.74106864  0.97920906  1
  O2-  O276  1  0.40621359  0.07427731  0.47543879  1
  O2-  O277  1  0.40433454  0.07251939  0.97821668  1
  O2-  O278  1  0.40338458  0.40137585  0.48198725  1
  O2-  O279  1  0.40429990  0.40423590  0.98661829  1
  O2-  O280  1  0.40615418  0.73581537  0.48003032  1
  O2-  O281  1  0.41167675  0.74244052  0.98085697  1
  O2-  O282  1  0.73694187  0.07197125  0.48168358  1
  O2-  O283  1  0.73684531  0.06621337  0.98447483  1
  O2-  O284  1  0.73626564  0.40381198  0.47744408  1
  O2-  O285  1  0.74006184  0.41025784  0.98079107  1
  O2-  O286  1  0.73384108  0.73238090  0.48204413  1
  O2-  O287  1  0.73748158  0.73884880  0.97414470  1
  O2-  O288  1  0.09483768  0.23973065  0.47722982  1
  O2-  O289  1  0.09811308  0.23946674  0.98128183  1
  O2-  O290  1  0.09428422  0.57208721  0.47787557  1
  O2-  O291  1  0.09054538  0.57398361  0.97947165  1
  O2-  O292  1  0.09942620  0.90465142  0.48345101  1
  O2-  O293  1  0.09489000  0.90488772  0.97630769  1
  O2-  O294  1  0.42973690  0.24001591  0.47611289  1
  O2-  O295  1  0.42918146  0.23770595  0.98155657  1
  O2-  O296  1  0.43167222  0.57068110  0.47678250  1
  O2-  O297  1  0.43177890  0.57194871  0.98473287  1
  O2-  O298  1  0.42955488  0.90471721  0.47899120  1
  O2-  O299  1  0.42894572  0.90727259  0.97684201  1
  O2-  O300  1  0.76373929  0.23938101  0.48019564  1
  O2-  O301  1  0.76337690  0.23776899  0.98734777  1
  O2-  O302  1  0.76352161  0.56698228  0.48501077  1
  O2-  O303  1  0.76181736  0.57279342  0.97933254  1
  O2-  O304  1  0.76200053  0.90029216  0.47977854  1
  O2-  O305  1  0.76282382  0.90250433  0.98479705  1
  O2-  O306  1  0.07625388  0.07366556  0.26748296  1
  O2-  O307  1  0.07450998  0.07244917  0.77100337  1
  O2-  O308  1  0.07130073  0.41032908  0.27079918  1
  O2-  O309  1  0.07305461  0.40508837  0.77342092  1
  O2-  O310  1  0.07019609  0.74049760  0.27062703  1
  O2-  O311  1  0.06795212  0.73962409  0.76992192  1
  O2-  O312  1  0.40482275  0.07240148  0.27185131  1
  O2-  O313  1  0.40705563  0.07354450  0.77379665  1
  O2-  O314  1  0.40659627  0.40487433  0.27075126  1
  O2-  O315  1  0.39991523  0.39941857  0.76093520  1
  O2-  O316  1  0.40801907  0.73881064  0.27273353  1
  O2-  O317  1  0.40951286  0.73812380  0.76670421  1
  O2-  O318  1  0.73799698  0.07104649  0.26830830  1
  O2-  O319  1  0.73596550  0.06789242  0.76502999  1
  O2-  O320  1  0.73472517  0.40527350  0.27364615  1
  O2-  O321  1  0.74077383  0.41013168  0.76847719  1
  O2-  O322  1  0.73645770  0.73607768  0.27325284  1
  O2-  O323  1  0.73569538  0.73655881  0.77182189  1
  O2-  O324  1  0.23983119  0.09377626  0.22840883  1
  O2-  O325  1  0.23860371  0.09842501  0.73211103  1
  O2-  O326  1  0.24051650  0.42557583  0.23505652  1
  O2-  O327  1  0.23798312  0.42846502  0.72814686  1
  O2-  O328  1  0.23738020  0.76316209  0.23433738  1
  O2-  O329  1  0.23675460  0.76044516  0.72930501  1
  O2-  O330  1  0.57284577  0.09618324  0.22999472  1
  O2-  O331  1  0.56950564  0.09426870  0.72863663  1
  O2-  O332  1  0.56938129  0.43303888  0.22749527  1
  O2-  O333  1  0.57276252  0.42397504  0.72845449  1
  O2-  O334  1  0.57034995  0.76467428  0.23477242  1
  O2-  O335  1  0.57326180  0.76301705  0.72985013  1
  O2-  O336  1  0.90627948  0.09546697  0.22906150  1
  O2-  O337  1  0.91047099  0.09026703  0.73324238  1
  O2-  O338  1  0.89898531  0.43104109  0.23087399  1
  O2-  O339  1  0.90740383  0.42804683  0.73060532  1
  O2-  O340  1  0.90353916  0.75970622  0.22753362  1
  O2-  O341  1  0.90192345  0.75996307  0.72774242  1
  O2-  O342  1  0.26335815  0.26057268  0.02637509  1
  O2-  O343  1  0.26123323  0.25969310  0.52038591  1
  O2-  O344  1  0.25978175  0.58863583  0.01254744  1
  O2-  O345  1  0.26272875  0.59426785  0.51953546  1
  O2-  O346  1  0.26104702  0.92745409  0.01946541  1
  O2-  O347  1  0.26250007  0.93135704  0.52368618  1
  O2-  O348  1  0.59199262  0.26360941  0.02257943  1
  O2-  O349  1  0.59297326  0.26077591  0.51957088  1
  O2-  O350  1  0.59926894  0.59695009  0.02117973  1
  O2-  O351  1  0.59441434  0.59246976  0.52437627  1
  O2-  O352  1  0.59545379  0.92396933  0.02362087  1
  O2-  O353  1  0.59630856  0.92754296  0.52161853  1
  O2-  O354  1  0.92778977  0.26616683  0.02330269  1
  O2-  O355  1  0.93048103  0.26554712  0.51445941  1
  O2-  O356  1  0.92716962  0.60026264  0.01620108  1
  O2-  O357  1  0.92775751  0.59409251  0.52095976  1
  O2-  O358  1  0.93144352  0.93027855  0.01678779  1
  O2-  O359  1  0.92892481  0.92614558  0.52285925  1
