# generated using pymatgen
data_Sr7Ca15Pr50Mn72O216
_symmetry_space_group_name_H-M   'P 1'
_cell_length_a   16.55757327
_cell_length_b   16.60726351
_cell_length_c   15.59232184
_cell_angle_alpha   90.00605255
_cell_angle_beta   89.99966197
_cell_angle_gamma   89.99823919
_symmetry_Int_Tables_number   1
_chemical_formula_structural   Sr7Ca15Pr50Mn72O216
_chemical_formula_sum   'Sr7 Ca15 Pr50 Mn72 O216'
_cell_volume   4287.51399110
_cell_formula_units_Z   1
loop_
 _symmetry_equiv_pos_site_id
 _symmetry_equiv_pos_as_xyz
  1  'x, y, z'
loop_
 _atom_type_symbol
 _atom_type_oxidation_number
  Sr2+  2.0
  Ca2+  2.0
  Pr3+  3.0
  Mn3.30+  3.3
  O2-  -2.0
loop_
 _atom_site_type_symbol
 _atom_site_label
 _atom_site_symmetry_multiplicity
 _atom_site_fract_x
 _atom_site_fract_y
 _atom_site_fract_z
 _atom_site_occupancy
  Sr2+  Sr0  1  1.00103323  0.98991241  0.37570041  1
  Sr2+  Sr1  1  0.83231996  0.48946222  0.37540426  1
  Sr2+  Sr2  1  0.33223442  0.01090504  0.62452126  1
  Sr2+  Sr3  1  0.83256442  0.48911467  0.87463066  1
  Sr2+  Sr4  1  0.66778297  0.99082814  0.87237295  1
  Sr2+  Sr5  1  0.16971079  0.50740809  0.62703231  1
  Sr2+  Sr6  1  0.49769486  0.82368881  0.37382751  1
  Ca2+  Ca7  1  0.83483205  0.84936288  0.62620945  1
  Ca2+  Ca8  1  0.33123449  0.68306712  0.12503481  1
  Ca2+  Ca9  1  0.49365349  0.48022554  0.87395906  1
  Ca2+  Ca10  1  0.16414952  0.15115448  0.37717450  1
  Ca2+  Ca11  1  0.66562978  0.34610721  0.62649439  1
  Ca2+  Ca12  1  0.33089339  0.34742216  0.62860143  1
  Ca2+  Ca13  1  0.83510939  0.18062796  0.62612791  1
  Ca2+  Ca14  1  -0.00351316  0.68090949  0.12413534  1
  Ca2+  Ca15  1  0.16858089  0.15511484  0.87263390  1
  Ca2+  Ca16  1  0.66098418  0.01754204  0.62563326  1
  Ca2+  Ca17  1  0.16462875  0.48278056  0.87382553  1
  Ca2+  Ca18  1  0.33019823  0.34676860  0.12156174  1
  Ca2+  Ca19  1  0.50271818  0.84764515  0.12492123  1
  Ca2+  Ca20  1  0.33605663  0.32066855  0.87078600  1
  Ca2+  Ca21  1  0.50247056  0.18461062  0.62702701  1
  Pr3+  Pr22  1  1.00289270  0.65409659  0.37320023  1
  Pr3+  Pr23  1  -0.00117524  0.34452159  0.62599948  1
  Pr3+  Pr24  1  0.33461132  0.98779378  0.37649781  1
  Pr3+  Pr25  1  1.00493753  0.31823513  0.37654941  1
  Pr3+  Pr26  1  0.82811128  0.82199410  0.87343028  1
  Pr3+  Pr27  1  0.50116850  0.18034606  0.12414790  1
  Pr3+  Pr28  1  0.49725991  0.82216596  0.87543719  1
  Pr3+  Pr29  1  0.16446514  0.82102855  0.87389267  1
  Pr3+  Pr30  1  -0.00399863  0.67849918  0.62608425  1
  Pr3+  Pr31  1  0.17268561  0.51536545  0.12265102  1
  Pr3+  Pr32  1  0.33582822  0.32146991  0.37662080  1
  Pr3+  Pr33  1  0.33623809  0.65445925  0.37300578  1
  Pr3+  Pr34  1  0.49920381  0.51163008  0.12224837  1
  Pr3+  Pr35  1  0.67047671  0.32200254  0.37849278  1
  Pr3+  Pr36  1  0.66257626  0.68106022  0.12401349  1
  Pr3+  Pr37  1  0.16390290  0.48679377  0.37530735  1
  Pr3+  Pr38  1  0.66830428  0.65343680  0.37445437  1
  Pr3+  Pr39  1  0.49713967  0.15581789  0.87180171  1
  Pr3+  Pr40  1  0.83824396  0.51506156  0.12350315  1
  Pr3+  Pr41  1  0.33310554  0.01091460  0.12542812  1
  Pr3+  Pr42  1  0.49755273  0.48794831  0.37515415  1
  Pr3+  Pr43  1  0.83599930  0.17836370  0.12460666  1
  Pr3+  Pr44  1  0.66767185  0.32296796  0.87153655  1
  Pr3+  Pr45  1  0.83067878  0.15414011  0.37871927  1
  Pr3+  Pr46  1  0.66392316  0.34689139  0.12376484  1
  Pr3+  Pr47  1  0.16955028  0.84661137  0.62487575  1
  Pr3+  Pr48  1  1.00168028  0.98852122  0.87320746  1
  Pr3+  Pr49  1  0.33602586  0.98945709  0.87344426  1
  Pr3+  Pr50  1  0.17276968  0.17964950  0.12516242  1
  Pr3+  Pr51  1  0.83470791  0.50832671  0.62628125  1
  Pr3+  Pr52  1  0.16777096  0.84574451  0.12433252  1
  Pr3+  Pr53  1  0.67007063  0.98619172  0.37815108  1
  Pr3+  Pr54  1  0.32972940  0.67618164  0.62555459  1
  Pr3+  Pr55  1  -0.00204454  0.01359236  0.12516034  1
  Pr3+  Pr56  1  -0.00121907  0.34470831  0.12436597  1
  Pr3+  Pr57  1  0.50073276  0.50808772  0.62796669  1
  Pr3+  Pr58  1  0.83660836  0.84665314  0.12453191  1
  Pr3+  Pr59  1  0.66759743  0.65336185  0.87553422  1
  Pr3+  Pr60  1  0.82943668  0.15511513  0.87194635  1
  Pr3+  Pr61  1  1.00536784  0.64964932  0.87737232  1
  Pr3+  Pr62  1  0.33678265  0.64907973  0.87719300  1
  Pr3+  Pr63  1  0.16302100  0.82215146  0.37535187  1
  Pr3+  Pr64  1  0.66464232  0.67583190  0.62591159  1
  Pr3+  Pr65  1  0.49792023  0.15462422  0.37845929  1
  Pr3+  Pr66  1  0.66175467  0.01242905  0.12483579  1
  Pr3+  Pr67  1  0.50370014  0.84725769  0.62437509  1
  Pr3+  Pr68  1  -0.00428432  0.01465938  0.62448573  1
  Pr3+  Pr69  1  0.17409755  0.17980425  0.62492403  1
  Pr3+  Pr70  1  1.00627366  0.31926103  0.87356978  1
  Pr3+  Pr71  1  0.82974204  0.82076705  0.37693810  1
  Mn3.30+  Mn72  1  0.16689340  0.00179044  -0.00146359  1
  Mn3.30+  Mn73  1  0.16562952  0.00113090  0.49982995  1
  Mn3.30+  Mn74  1  0.17038381  0.33269649  -0.00195315  1
  Mn3.30+  Mn75  1  0.16963811  0.33170174  0.50036854  1
  Mn3.30+  Mn76  1  0.16861657  0.66591527  0.00090840  1
  Mn3.30+  Mn77  1  0.16639576  0.66581083  0.50051138  1
  Mn3.30+  Mn78  1  0.49976550  -0.00025905  -0.00111288  1
  Mn3.30+  Mn79  1  0.50121036  0.00241558  0.50305883  1
  Mn3.30+  Mn80  1  0.49597218  0.33382526  -0.00128551  1
  Mn3.30+  Mn81  1  0.50098879  0.33326902  0.50367458  1
  Mn3.30+  Mn82  1  0.49790947  0.66631704  0.00121962  1
  Mn3.30+  Mn83  1  0.49899879  0.66648389  0.49979458  1
  Mn3.30+  Mn84  1  0.83222635  0.00082638  -0.00099784  1
  Mn3.30+  Mn85  1  0.83117625  0.00051664  0.50441542  1
  Mn3.30+  Mn86  1  0.83377558  0.33377826  -0.00151000  1
  Mn3.30+  Mn87  1  0.83345797  0.33230331  0.50206494  1
  Mn3.30+  Mn88  1  0.83442861  0.66720562  -0.00039731  1
  Mn3.30+  Mn89  1  0.83277505  0.66665155  0.50146210  1
  Mn3.30+  Mn90  1  0.00285174  0.16629176  0.25095411  1
  Mn3.30+  Mn91  1  0.00142199  0.16672518  0.74940712  1
  Mn3.30+  Mn92  1  0.00144008  0.49999061  0.24871381  1
  Mn3.30+  Mn93  1  0.00224866  0.49832006  0.75132279  1
  Mn3.30+  Mn94  1  -0.00047661  0.83259996  0.24996580  1
  Mn3.30+  Mn95  1  -0.00250990  0.83317254  0.74911670  1
  Mn3.30+  Mn96  1  0.33260675  0.16812912  0.25161767  1
  Mn3.30+  Mn97  1  0.33441225  0.16870030  0.74827596  1
  Mn3.30+  Mn98  1  0.33267451  0.49968143  0.24715948  1
  Mn3.30+  Mn99  1  0.33280888  0.49574132  0.75338050  1
  Mn3.30+  Mn100  1  0.33415146  0.83286116  0.24739269  1
  Mn3.30+  Mn101  1  0.33284328  0.83232685  0.75063163  1
  Mn3.30+  Mn102  1  0.66634979  0.16745197  0.25120243  1
  Mn3.30+  Mn103  1  0.66588002  0.16836200  0.74496931  1
  Mn3.30+  Mn104  1  0.66701606  0.50023760  0.24848598  1
  Mn3.30+  Mn105  1  0.66508536  0.49831171  0.75182236  1
  Mn3.30+  Mn106  1  0.66487085  0.83327864  0.25030232  1
  Mn3.30+  Mn107  1  0.66734233  0.83542228  0.74775102  1
  Mn3.30+  Mn108  1  0.16585878  0.00105989  0.25044605  1
  Mn3.30+  Mn109  1  0.16694094  0.00184834  0.75046178  1
  Mn3.30+  Mn110  1  0.16880894  0.33216793  0.24919281  1
  Mn3.30+  Mn111  1  0.17119345  0.33214899  0.75238895  1
  Mn3.30+  Mn112  1  0.16739862  0.66784296  0.24658407  1
  Mn3.30+  Mn113  1  0.16692182  0.66345617  0.75113716  1
  Mn3.30+  Mn114  1  0.49952164  -0.00033718  0.25101166  1
  Mn3.30+  Mn115  1  0.50147599  0.00223332  0.74738249  1
  Mn3.30+  Mn116  1  0.49874934  0.33376718  0.24959005  1
  Mn3.30+  Mn117  1  0.49903879  0.33318264  0.74854466  1
  Mn3.30+  Mn118  1  0.49816588  0.66829733  0.24704697  1
  Mn3.30+  Mn119  1  0.49858802  0.66443925  0.75180151  1
  Mn3.30+  Mn120  1  0.83298940  0.00009122  0.25181227  1
  Mn3.30+  Mn121  1  0.83056990  0.00153208  0.74574920  1
  Mn3.30+  Mn122  1  0.83382783  0.33350460  0.25077640  1
  Mn3.30+  Mn123  1  0.83333267  0.33265415  0.74933517  1
  Mn3.30+  Mn124  1  0.83420328  0.66711672  0.24891066  1
  Mn3.30+  Mn125  1  0.83282474  0.66691936  0.75041823  1
  Mn3.30+  Mn126  1  0.00293790  0.16661042  -0.00165713  1
  Mn3.30+  Mn127  1  0.00136196  0.16639601  0.50135462  1
  Mn3.30+  Mn128  1  0.00379663  0.49854645  -0.00012556  1
  Mn3.30+  Mn129  1  0.00040409  0.49942548  0.50026369  1
  Mn3.30+  Mn130  1  -0.00047965  0.83182243  -0.00078990  1
  Mn3.30+  Mn131  1  -0.00251114  0.83390854  0.50141708  1
  Mn3.30+  Mn132  1  0.33266265  0.16939453  -0.00201909  1
  Mn3.30+  Mn133  1  0.33380298  0.16778115  0.50167780  1
  Mn3.30+  Mn134  1  0.33321761  0.49657311  -0.00159656  1
  Mn3.30+  Mn135  1  0.33260819  0.49865803  0.50098287  1
  Mn3.30+  Mn136  1  0.33392073  0.83251960  0.00175803  1
  Mn3.30+  Mn137  1  0.33357218  0.83299464  0.49952870  1
  Mn3.30+  Mn138  1  0.66657041  0.16787838  -0.00117205  1
  Mn3.30+  Mn139  1  0.66535110  0.16814796  0.50555472  1
  Mn3.30+  Mn140  1  0.66521404  0.49988995  -0.00183198  1
  Mn3.30+  Mn141  1  0.66664723  0.49852967  0.50151922  1
  Mn3.30+  Mn142  1  0.66468705  0.83481311  -0.00046120  1
  Mn3.30+  Mn143  1  0.66751086  0.83351542  0.50306015  1
  O2-  O144  1  0.02677432  0.16284882  0.12250548  1
  O2-  O145  1  0.02874117  0.16411341  0.62463961  1
  O2-  O146  1  0.02815562  0.49145600  0.12450970  1
  O2-  O147  1  0.01958960  0.49565213  0.62679652  1
  O2-  O148  1  0.02365573  0.82760574  0.12147907  1
  O2-  O149  1  0.02629853  0.82607536  0.62545191  1
  O2-  O150  1  0.35921384  0.15806549  0.12622712  1
  O2-  O151  1  0.35993641  0.16199852  0.62377721  1
  O2-  O152  1  0.35764401  0.48944300  0.12349807  1
  O2-  O153  1  0.35684513  0.49679957  0.62668773  1
  O2-  O154  1  0.35985092  0.83072197  0.12392017  1
  O2-  O155  1  0.35750276  0.82458081  0.62736966  1
  O2-  O156  1  0.69161919  0.16144850  0.12556896  1
  O2-  O157  1  0.69558596  0.16018181  0.62491637  1
  O2-  O158  1  0.69249276  0.49473876  0.12349936  1
  O2-  O159  1  0.68961040  0.49655853  0.62729380  1
  O2-  O160  1  0.69297345  0.82935165  0.12500095  1
  O2-  O161  1  0.69424419  0.82080967  0.62526059  1
  O2-  O162  1  0.14132721  0.32546871  0.12488874  1
  O2-  O163  1  0.14269700  0.32646073  0.62500042  1
  O2-  O164  1  0.13771002  0.66266310  0.12335473  1
  O2-  O165  1  0.14135035  0.66401808  0.62795870  1
  O2-  O166  1  0.14190939  0.99499367  0.12319581  1
  O2-  O167  1  0.14213934  0.99499786  0.62611782  1
  O2-  O168  1  0.47298000  0.32721314  0.12425425  1
  O2-  O169  1  0.47257689  0.33343235  0.62460266  1
  O2-  O170  1  0.47151984  0.65721942  0.12305771  1
  O2-  O171  1  0.47332489  0.65769345  0.62776328  1
  O2-  O172  1  0.47765665  0.99756918  0.12419518  1
  O2-  O173  1  0.47951266  0.99341653  0.62502941  1
  O2-  O174  1  0.80865667  0.32495403  0.12396081  1
  O2-  O175  1  0.80981311  0.32860260  0.62559764  1
  O2-  O176  1  0.80794183  0.66379560  0.12403702  1
  O2-  O177  1  0.80879601  0.65580580  0.62679740  1
  O2-  O178  1  0.80669662  0.99598597  0.12604121  1
  O2-  O179  1  0.80320237  0.99174078  0.62505381  1
  O2-  O180  1  0.30594246  0.17539825  0.37456514  1
  O2-  O181  1  0.30947177  0.17490572  0.87511622  1
  O2-  O182  1  0.30786875  0.50756722  0.37185275  1
  O2-  O183  1  0.30432963  0.50616227  0.87737543  1
  O2-  O184  1  0.30786259  0.83712984  0.37184385  1
  O2-  O185  1  0.30877412  0.83955473  0.87611875  1
  O2-  O186  1  0.64166576  0.17478798  0.37793290  1
  O2-  O187  1  0.64201371  0.17474597  0.87226750  1
  O2-  O188  1  0.64239999  0.50471441  0.37331528  1
  O2-  O189  1  0.63809913  0.50532343  0.87595778  1
  O2-  O190  1  0.64715885  0.83725545  0.37680950  1
  O2-  O191  1  0.64123381  0.83536080  0.87388623  1
  O2-  O192  1  0.97493608  0.17108673  0.37771456  1
  O2-  O193  1  0.97389769  0.17026843  0.87539035  1
  O2-  O194  1  0.98199134  0.50502690  0.37275543  1
  O2-  O195  1  0.98128768  0.50143787  0.87627227  1
  O2-  O196  1  0.97381112  0.83380766  0.37803432  1
  O2-  O197  1  0.97243293  0.84016130  0.87497854  1
  O2-  O198  1  0.18968724  0.00294253  0.37388878  1
  O2-  O199  1  0.19099353  0.00544919  0.87579683  1
  O2-  O200  1  0.19221454  0.34023082  0.37379344  1
  O2-  O201  1  0.19418121  0.33948754  0.87638206  1
  O2-  O202  1  0.19216782  0.67392898  0.37175107  1
  O2-  O203  1  0.19319795  0.67543679  0.87603140  1
  O2-  O204  1  0.52585636  0.00614921  0.37868686  1
  O2-  O205  1  0.51893200  0.00512970  0.87254292  1
  O2-  O206  1  0.52686455  0.33891153  0.37645710  1
  O2-  O207  1  0.52490968  0.33373377  0.87444425  1
  O2-  O208  1  0.52439334  0.66742527  0.37158633  1
  O2-  O209  1  0.52470336  0.67551959  0.87713475  1
  O2-  O210  1  0.85184868  0.00619483  0.37784636  1
  O2-  O211  1  0.85793464  0.00637678  0.87240018  1
  O2-  O212  1  0.85912622  0.33378880  0.37582366  1
  O2-  O213  1  0.85997198  0.33332850  0.87517201  1
  O2-  O214  1  0.85809120  0.67269151  0.37511216  1
  O2-  O215  1  0.85990317  0.67432517  0.87431864  1
  O2-  O216  1  0.24161509  0.09452890  0.02126394  1
  O2-  O217  1  0.23895082  0.09711800  0.51632252  1
  O2-  O218  1  0.23698074  0.42843434  0.02163104  1
  O2-  O219  1  0.24021721  0.42800781  0.51230852  1
  O2-  O220  1  0.23668074  0.76360558  0.01901082  1
  O2-  O221  1  0.23726193  0.76041806  0.51977797  1
  O2-  O222  1  0.57294922  0.09541298  0.01942187  1
  O2-  O223  1  0.57007746  0.10167439  0.52039130  1
  O2-  O224  1  0.57000477  0.42545409  0.02170550  1
  O2-  O225  1  0.56924095  0.43032352  0.51774580  1
  O2-  O226  1  0.57088355  0.76285061  0.02218820  1
  O2-  O227  1  0.57304532  0.75918034  0.52305650  1
  O2-  O228  1  0.90641376  0.09460966  0.02121502  1
  O2-  O229  1  0.90308784  0.09502478  0.52356446  1
  O2-  O230  1  0.90585295  0.42576732  0.02306012  1
  O2-  O231  1  0.90544851  0.42468343  0.52134621  1
  O2-  O232  1  0.90362554  0.76323397  0.01825856  1
  O2-  O233  1  0.90384401  0.76108648  0.52357217  1
  O2-  O234  1  0.26411815  0.26375610  0.22730873  1
  O2-  O235  1  0.26363489  0.26081393  0.72602737  1
  O2-  O236  1  0.26145526  0.59805577  0.22561854  1
  O2-  O237  1  0.26463234  0.59643525  0.73444049  1
  O2-  O238  1  0.25974166  0.92788211  0.22876223  1
  O2-  O239  1  0.25802337  0.92428774  0.73373159  1
  O2-  O240  1  0.59465848  0.26176395  0.22931135  1
  O2-  O241  1  0.59792816  0.26519445  0.72915359  1
  O2-  O242  1  0.59288110  0.59547423  0.22774825  1
  O2-  O243  1  0.59337571  0.59406344  0.73046751  1
  O2-  O244  1  0.59723279  0.92893855  0.23371326  1
  O2-  O245  1  0.59525197  0.92587668  0.72584137  1
  O2-  O246  1  0.92979225  0.25989189  0.23038796  1
  O2-  O247  1  0.93260001  0.26123355  0.73236232  1
  O2-  O248  1  0.92921824  0.59523374  0.22749336  1
  O2-  O249  1  0.92642932  0.59425387  0.73282522  1
  O2-  O250  1  0.92703149  0.92679090  0.22768478  1
  O2-  O251  1  0.92788967  0.93127353  0.73056049  1
  O2-  O252  1  0.09781979  0.23761773  0.27183883  1
  O2-  O253  1  0.09949015  0.23831355  0.77219140  1
  O2-  O254  1  0.09767620  0.57287214  0.26931225  1
  O2-  O255  1  0.09537633  0.57276466  0.77403924  1
  O2-  O256  1  0.09489489  0.90172249  0.26568603  1
  O2-  O257  1  0.09246680  0.90467223  0.77017370  1
  O2-  O258  1  0.42890162  0.23822890  0.27211617  1
  O2-  O259  1  0.43105180  0.23792722  0.76767004  1
  O2-  O260  1  0.42811632  0.57166766  0.26876618  1
  O2-  O261  1  0.42700843  0.56819497  0.77373816  1
  O2-  O262  1  0.42243990  0.91044696  0.26894072  1
  O2-  O263  1  0.42607746  0.90378085  0.76849192  1
  O2-  O264  1  0.76201017  0.23737246  0.27057761  1
  O2-  O265  1  0.76084600  0.24118719  0.77148428  1
  O2-  O266  1  0.75925560  0.57483761  0.26622787  1
  O2-  O267  1  0.75698583  0.57509449  0.76939278  1
  O2-  O268  1  0.76226030  0.90538192  0.27039984  1
  O2-  O269  1  0.76287594  0.90412712  0.76864353  1
  O2-  O270  1  0.07108957  0.07194502  0.48607382  1
  O2-  O271  1  0.06854875  0.06983617  0.98194524  1
  O2-  O272  1  0.07444248  0.40333340  0.48130364  1
  O2-  O273  1  0.07200313  0.39949193  0.98302793  1
  O2-  O274  1  0.07028192  0.73772989  0.48037087  1
  O2-  O275  1  0.07265729  0.73947406  0.97602010  1
  O2-  O276  1  0.40424166  0.07569836  0.47539345  1
  O2-  O277  1  0.40398901  0.07322239  0.97972290  1
  O2-  O278  1  0.40713554  0.40839877  0.47670064  1
  O2-  O279  1  0.40283458  0.40144493  0.97690308  1
  O2-  O280  1  0.40365940  0.73582476  0.48283968  1
  O2-  O281  1  0.40542526  0.73906573  0.97743705  1
  O2-  O282  1  0.73659218  0.07431430  0.47889524  1
  O2-  O283  1  0.74129909  0.07562587  0.98215894  1
  O2-  O284  1  0.73865310  0.40466490  0.48343650  1
  O2-  O285  1  0.73551444  0.40383064  0.98237457  1
  O2-  O286  1  0.73854465  0.73730418  0.47911386  1
  O2-  O287  1  0.73587953  0.74043657  0.97955882  1
  O2-  O288  1  0.09788682  0.23830163  0.47817506  1
  O2-  O289  1  0.09760463  0.23634535  0.97714264  1
  O2-  O290  1  0.09481621  0.57518138  0.47783610  1
  O2-  O291  1  0.10019215  0.57020255  0.97887986  1
  O2-  O292  1  0.09424837  0.90146016  0.48444909  1
  O2-  O293  1  0.09295185  0.90438543  0.97848730  1
  O2-  O294  1  0.42821575  0.24137470  0.47719449  1
  O2-  O295  1  0.43164158  0.23479575  0.98320874  1
  O2-  O296  1  0.42703358  0.57136928  0.47966186  1
  O2-  O297  1  0.42868099  0.56712248  0.97800135  1
  O2-  O298  1  0.42365561  0.90729963  0.48390542  1
  O2-  O299  1  0.42552874  0.90672182  0.97816392  1
  O2-  O300  1  0.76151380  0.23970502  0.47893339  1
  O2-  O301  1  0.76158866  0.23941623  0.97950894  1
  O2-  O302  1  0.75788996  0.57497603  0.48318011  1
  O2-  O303  1  0.76008094  0.57624247  0.98207506  1
  O2-  O304  1  0.76100797  0.90576349  0.47910494  1
  O2-  O305  1  0.76325303  0.90344692  0.98281238  1
  O2-  O306  1  0.07190733  0.07202122  0.26340532  1
  O2-  O307  1  0.06858105  0.07036135  0.76713776  1
  O2-  O308  1  0.07264016  0.40246370  0.26971696  1
  O2-  O309  1  0.07359302  0.40072742  0.76683460  1
  O2-  O310  1  0.07273378  0.73903555  0.27144166  1
  O2-  O311  1  0.07130681  0.73710058  0.77187914  1
  O2-  O312  1  0.40487567  0.07412029  0.27267252  1
  O2-  O313  1  0.40415687  0.07489908  0.77184856  1
  O2-  O314  1  0.40755078  0.40629391  0.27395878  1
  O2-  O315  1  0.40473118  0.40372091  0.77071348  1
  O2-  O316  1  0.40287306  0.73718560  0.26740187  1
  O2-  O317  1  0.40456037  0.73727305  0.77195412  1
  O2-  O318  1  0.73674344  0.07269427  0.27113329  1
  O2-  O319  1  0.74162526  0.07698729  0.76946935  1
  O2-  O320  1  0.73656052  0.40210948  0.26607653  1
  O2-  O321  1  0.73731065  0.40682968  0.76867350  1
  O2-  O322  1  0.73681354  0.73924138  0.26974174  1
  O2-  O323  1  0.73789333  0.73832234  0.77186532  1
  O2-  O324  1  0.24192565  0.09403129  0.22859407  1
  O2-  O325  1  0.23871423  0.09723031  0.73316086  1
  O2-  O326  1  0.23519073  0.43068082  0.23216832  1
  O2-  O327  1  0.24078299  0.42517852  0.73308652  1
  O2-  O328  1  0.23598461  0.76379135  0.22869712  1
  O2-  O329  1  0.23790383  0.76047621  0.73050458  1
  O2-  O330  1  0.57218059  0.09595849  0.23087249  1
  O2-  O331  1  0.57203698  0.10065222  0.73047001  1
  O2-  O332  1  0.57112138  0.42841418  0.22796817  1
  O2-  O333  1  0.56980854  0.42749780  0.73245710  1
  O2-  O334  1  0.57080776  0.75999317  0.22481938  1
  O2-  O335  1  0.57196488  0.76128065  0.72941139  1
  O2-  O336  1  0.90508808  0.09454973  0.22999146  1
  O2-  O337  1  0.90371652  0.09476034  0.72668278  1
  O2-  O338  1  0.90597618  0.42662763  0.22646941  1
  O2-  O339  1  0.90614067  0.42485327  0.72948217  1
  O2-  O340  1  0.90354795  0.76332619  0.23194850  1
  O2-  O341  1  0.90408130  0.76166071  0.72730573  1
  O2-  O342  1  0.26182985  0.26030630  0.02537995  1
  O2-  O343  1  0.26480666  0.26338646  0.52233226  1
  O2-  O344  1  0.26516737  0.59703169  0.02256956  1
  O2-  O345  1  0.26399715  0.59620672  0.51598986  1
  O2-  O346  1  0.26134700  0.92772662  0.02021804  1
  O2-  O347  1  0.25724629  0.92509246  0.51604241  1
  O2-  O348  1  0.59423362  0.26183518  0.02042780  1
  O2-  O349  1  0.59832083  0.26585152  0.52096136  1
  O2-  O350  1  0.59380439  0.59590476  0.02149991  1
  O2-  O351  1  0.59238664  0.59442846  0.51966171  1
  O2-  O352  1  0.59524267  0.92773667  0.01990696  1
  O2-  O353  1  0.59767247  0.92747437  0.52145363  1
  O2-  O354  1  0.92988074  0.25910773  0.02027233  1
  O2-  O355  1  0.93178134  0.26177695  0.51846555  1
  O2-  O356  1  0.93088126  0.59453688  0.01995148  1
  O2-  O357  1  0.92595122  0.59486879  0.51930016  1
  O2-  O358  1  0.92770690  0.92854381  0.02020804  1
  O2-  O359  1  0.92725431  0.92765054  0.52250611  1
