# generated using pymatgen
data_Sr7Ca15Pr50Mn72O216
_symmetry_space_group_name_H-M   'P 1'
_cell_length_a   16.55872175
_cell_length_b   16.60592402
_cell_length_c   15.59135057
_cell_angle_alpha   90.00071868
_cell_angle_beta   90.00288153
_cell_angle_gamma   89.98931436
_symmetry_Int_Tables_number   1
_chemical_formula_structural   Sr7Ca15Pr50Mn72O216
_chemical_formula_sum   'Sr7 Ca15 Pr50 Mn72 O216'
_cell_volume   4287.19841395
_cell_formula_units_Z   1
loop_
 _symmetry_equiv_pos_site_id
 _symmetry_equiv_pos_as_xyz
  1  'x, y, z'
loop_
 _atom_type_symbol
 _atom_type_oxidation_number
  Sr2+  2.0
  Ca2+  2.0
  Pr3+  3.0
  Mn3.30+  3.3
  O2-  -2.0
loop_
 _atom_site_type_symbol
 _atom_site_label
 _atom_site_symmetry_multiplicity
 _atom_site_fract_x
 _atom_site_fract_y
 _atom_site_fract_z
 _atom_site_occupancy
  Sr2+  Sr0  1  0.16651151  0.82426613  0.37538913  1
  Sr2+  Sr1  1  0.99822136  0.32380359  0.87433343  1
  Sr2+  Sr2  1  0.16539306  0.49268270  0.37741161  1
  Sr2+  Sr3  1  0.33385512  0.31997118  0.37550921  1
  Sr2+  Sr4  1  0.00064153  0.34317945  0.62691984  1
  Sr2+  Sr5  1  0.66854346  0.32508076  0.87461022  1
  Sr2+  Sr6  1  0.00127652  0.67270606  0.62373091  1
  Ca2+  Ca7  1  0.16728551  0.51322507  0.62472403  1
  Ca2+  Ca8  1  -0.00330307  0.01413355  0.12575302  1
  Ca2+  Ca9  1  0.49614675  0.15136413  0.37521658  1
  Ca2+  Ca10  1  0.33970827  0.31877482  0.87358206  1
  Ca2+  Ca11  1  0.50594248  0.85112188  0.62403113  1
  Ca2+  Ca12  1  0.67004547  0.98815676  0.87437031  1
  Ca2+  Ca13  1  0.66244164  0.68379396  0.12507112  1
  Ca2+  Ca14  1  0.49568813  0.48077580  0.87488226  1
  Ca2+  Ca15  1  0.16367798  0.15258417  0.37539375  1
  Ca2+  Ca16  1  0.49510989  0.81991152  0.37567735  1
  Ca2+  Ca17  1  0.83096552  0.81834600  0.37499539  1
  Ca2+  Ca18  1  0.83014342  0.48359935  0.87317290  1
  Ca2+  Ca19  1  0.66159540  0.01367396  0.62579501  1
  Ca2+  Ca20  1  0.66229998  0.01570390  0.12430646  1
  Ca2+  Ca21  1  0.33956482  0.98617209  0.87459283  1
  Pr3+  Pr22  1  0.66219634  0.68244264  0.62525355  1
  Pr3+  Pr23  1  0.33725696  0.98752658  0.37497266  1
  Pr3+  Pr24  1  1.00830568  0.31923839  0.37569006  1
  Pr3+  Pr25  1  0.17050570  0.18023659  0.62392988  1
  Pr3+  Pr26  1  0.16857715  0.84818251  0.12629659  1
  Pr3+  Pr27  1  0.83197682  0.15408855  0.37593008  1
  Pr3+  Pr28  1  -0.00247216  0.34525948  0.12381150  1
  Pr3+  Pr29  1  -0.00138014  0.01070127  0.62454874  1
  Pr3+  Pr30  1  0.66447695  0.34668684  0.62575501  1
  Pr3+  Pr31  1  0.83234465  0.48926339  0.37632164  1
  Pr3+  Pr32  1  0.83598504  0.84472680  0.62331174  1
  Pr3+  Pr33  1  0.82626400  0.15385239  0.87415777  1
  Pr3+  Pr34  1  0.99991786  0.99055028  0.87602423  1
  Pr3+  Pr35  1  0.83472100  0.17810608  0.62478363  1
  Pr3+  Pr36  1  0.16415595  0.48619522  0.87370053  1
  Pr3+  Pr37  1  -0.00343830  0.67973145  0.12604352  1
  Pr3+  Pr38  1  0.66709357  0.31958955  0.37559375  1
  Pr3+  Pr39  1  0.82730751  0.82298309  0.87471048  1
  Pr3+  Pr40  1  0.16919302  0.84447535  0.62366105  1
  Pr3+  Pr41  1  0.49802759  0.15199215  0.87441168  1
  Pr3+  Pr42  1  0.16635041  0.82279859  0.87486150  1
  Pr3+  Pr43  1  0.32753010  0.34811662  0.62585421  1
  Pr3+  Pr44  1  1.00259251  0.65582876  0.37638211  1
  Pr3+  Pr45  1  0.83321941  0.51281694  0.12136042  1
  Pr3+  Pr46  1  1.00025270  0.65422401  0.87403080  1
  Pr3+  Pr47  1  0.16663170  0.15652034  0.87399372  1
  Pr3+  Pr48  1  0.33249175  0.01169072  0.62594751  1
  Pr3+  Pr49  1  1.00451183  0.98697740  0.37395037  1
  Pr3+  Pr50  1  0.33587180  0.65547243  0.37475552  1
  Pr3+  Pr51  1  0.33233412  0.01249116  0.12378628  1
  Pr3+  Pr52  1  0.33153980  0.34443240  0.12401895  1
  Pr3+  Pr53  1  0.50307410  0.17844986  0.12676812  1
  Pr3+  Pr54  1  0.67048553  0.65166468  0.87617546  1
  Pr3+  Pr55  1  0.49336104  0.48759211  0.37556863  1
  Pr3+  Pr56  1  0.50714428  0.84947603  0.12662679  1
  Pr3+  Pr57  1  0.66317920  0.34586739  0.12413392  1
  Pr3+  Pr58  1  0.83798628  0.51159696  0.62909991  1
  Pr3+  Pr59  1  0.83346914  0.84917212  0.12725402  1
  Pr3+  Pr60  1  0.16897934  0.51204188  0.12441160  1
  Pr3+  Pr61  1  0.50201621  0.17858745  0.62293463  1
  Pr3+  Pr62  1  0.33131952  0.68052556  0.12444681  1
  Pr3+  Pr63  1  0.66842423  0.98486918  0.37481076  1
  Pr3+  Pr64  1  0.32987230  0.67886247  0.62540112  1
  Pr3+  Pr65  1  0.50596097  0.51549026  0.12308910  1
  Pr3+  Pr66  1  0.66714588  0.65815865  0.37339400  1
  Pr3+  Pr67  1  0.50248369  0.51248062  0.62677654  1
  Pr3+  Pr68  1  0.83448507  0.17637665  0.12534173  1
  Pr3+  Pr69  1  0.33956151  0.65068398  0.87552601  1
  Pr3+  Pr70  1  0.50037278  0.82382472  0.87439338  1
  Pr3+  Pr71  1  0.16860989  0.17817631  0.12565059  1
  Mn3.30+  Mn72  1  0.16731993  0.00068169  -0.00106814  1
  Mn3.30+  Mn73  1  0.16769535  0.00097058  0.49935873  1
  Mn3.30+  Mn74  1  0.16812467  0.33246269  -0.00234103  1
  Mn3.30+  Mn75  1  0.16739070  0.33459063  0.49956274  1
  Mn3.30+  Mn76  1  0.16697365  0.66756795  -0.00071318  1
  Mn3.30+  Mn77  1  0.16676766  0.66712728  0.50070298  1
  Mn3.30+  Mn78  1  0.50262095  0.00030997  -0.00146179  1
  Mn3.30+  Mn79  1  0.50183990  -0.00125152  0.50022801  1
  Mn3.30+  Mn80  1  0.49897516  0.33265791  -0.00220791  1
  Mn3.30+  Mn81  1  0.49809282  0.33207420  0.49996918  1
  Mn3.30+  Mn82  1  0.50264390  0.66711387  -0.00075402  1
  Mn3.30+  Mn83  1  0.49994693  0.66992188  0.50111266  1
  Mn3.30+  Mn84  1  0.83090027  0.00064299  0.00210243  1
  Mn3.30+  Mn85  1  0.83148640  -0.00221763  0.49922469  1
  Mn3.30+  Mn86  1  0.83153917  0.33277725  -0.00059100  1
  Mn3.30+  Mn87  1  0.83465929  0.33339339  0.49936956  1
  Mn3.30+  Mn88  1  0.83039790  0.66735879  0.00122674  1
  Mn3.30+  Mn89  1  0.83225435  0.66755279  0.49913168  1
  Mn3.30+  Mn90  1  0.00140416  0.16510426  0.24927126  1
  Mn3.30+  Mn91  1  -0.00073093  0.16703449  0.75127694  1
  Mn3.30+  Mn92  1  -0.00069951  0.50019595  0.24913181  1
  Mn3.30+  Mn93  1  0.00012675  0.49908834  0.75080434  1
  Mn3.30+  Mn94  1  -0.00159196  0.83502567  0.25004561  1
  Mn3.30+  Mn95  1  -0.00089674  0.83274164  0.75029374  1
  Mn3.30+  Mn96  1  0.33386828  0.16542323  0.25258506  1
  Mn3.30+  Mn97  1  0.33497674  0.16632255  0.75103067  1
  Mn3.30+  Mn98  1  0.33434312  0.49938863  0.24875420  1
  Mn3.30+  Mn99  1  0.33428640  0.49868393  0.75165541  1
  Mn3.30+  Mn100  1  0.33603233  0.83374818  0.25024274  1
  Mn3.30+  Mn101  1  0.33657206  0.83461349  0.74972843  1
  Mn3.30+  Mn102  1  0.66534924  0.16462220  0.25206342  1
  Mn3.30+  Mn103  1  0.66504571  0.16533963  0.74903086  1
  Mn3.30+  Mn104  1  0.66541807  0.50197073  0.25051601  1
  Mn3.30+  Mn105  1  0.66690771  0.49990103  0.75176592  1
  Mn3.30+  Mn106  1  0.66696664  0.83358649  0.25136379  1
  Mn3.30+  Mn107  1  0.66465185  0.83705341  0.74829802  1
  Mn3.30+  Mn108  1  0.16565164  0.00163634  0.24889066  1
  Mn3.30+  Mn109  1  0.16873041  0.00005233  0.75218281  1
  Mn3.30+  Mn110  1  0.16702002  0.33258015  0.25122388  1
  Mn3.30+  Mn111  1  0.16850479  0.33453520  0.75083490  1
  Mn3.30+  Mn112  1  0.16589275  0.66786356  0.24997236  1
  Mn3.30+  Mn113  1  0.16827763  0.66636666  0.75051785  1
  Mn3.30+  Mn114  1  0.50213505  0.00046527  0.25146499  1
  Mn3.30+  Mn115  1  0.50202856  -0.00113718  0.74976798  1
  Mn3.30+  Mn116  1  0.49865681  0.33211553  0.25108873  1
  Mn3.30+  Mn117  1  0.49840488  0.33283677  0.75087376  1
  Mn3.30+  Mn118  1  0.50156967  0.66915804  0.24937101  1
  Mn3.30+  Mn119  1  0.50045866  0.66706399  0.75108810  1
  Mn3.30+  Mn120  1  0.83341707  -0.00042131  0.25048000  1
  Mn3.30+  Mn121  1  0.82933509  -0.00054286  0.74781624  1
  Mn3.30+  Mn122  1  0.83368498  0.33332853  0.25088345  1
  Mn3.30+  Mn123  1  0.83246438  0.33287170  0.75067666  1
  Mn3.30+  Mn124  1  0.83068226  0.66825812  0.24887671  1
  Mn3.30+  Mn125  1  0.83249036  0.66634009  0.75085341  1
  Mn3.30+  Mn126  1  -0.00065671  0.16565338  -0.00069509  1
  Mn3.30+  Mn127  1  0.00138771  0.16608502  0.49999344  1
  Mn3.30+  Mn128  1  -0.00118368  0.49993272  -0.00183238  1
  Mn3.30+  Mn129  1  0.00044346  0.49934309  0.50246764  1
  Mn3.30+  Mn130  1  -0.00175589  0.83555455  0.00066333  1
  Mn3.30+  Mn131  1  -0.00079815  0.83233230  0.49957261  1
  Mn3.30+  Mn132  1  0.33457351  0.16614003  -0.00136687  1
  Mn3.30+  Mn133  1  0.33433402  0.16555451  0.49703060  1
  Mn3.30+  Mn134  1  0.33616925  0.49744127  -0.00111357  1
  Mn3.30+  Mn135  1  0.33213072  0.50041828  0.50070377  1
  Mn3.30+  Mn136  1  0.33517500  0.83509901  -0.00105115  1
  Mn3.30+  Mn137  1  0.33773858  0.83359792  0.50090322  1
  Mn3.30+  Mn138  1  0.66582743  0.16530725  -0.00037015  1
  Mn3.30+  Mn139  1  0.66467867  0.16420352  0.49921038  1
  Mn3.30+  Mn140  1  0.66653585  0.50034991  -0.00174172  1
  Mn3.30+  Mn141  1  0.66577846  0.50167021  0.49936894  1
  Mn3.30+  Mn142  1  0.66668490  0.83607406  0.00128558  1
  Mn3.30+  Mn143  1  0.66492285  0.83471977  0.49892194  1
  O2-  O144  1  0.02447917  0.16077129  0.12352409  1
  O2-  O145  1  0.02511792  0.15921085  0.62478817  1
  O2-  O146  1  0.02406396  0.49568364  0.12286963  1
  O2-  O147  1  0.02322558  0.49947874  0.62774085  1
  O2-  O148  1  0.02582393  0.82628089  0.12408312  1
  O2-  O149  1  0.02469542  0.83153832  0.62832165  1
  O2-  O150  1  0.35898182  0.16033641  0.12429364  1
  O2-  O151  1  0.35801113  0.15963486  0.62491656  1
  O2-  O152  1  0.36137594  0.49412001  0.12275365  1
  O2-  O153  1  0.35931592  0.49734662  0.62692431  1
  O2-  O154  1  0.36094584  0.82960259  0.12454383  1
  O2-  O155  1  0.36292588  0.82675020  0.62614243  1
  O2-  O156  1  0.68988703  0.16162619  0.12858430  1
  O2-  O157  1  0.69076816  0.15977080  0.62224710  1
  O2-  O158  1  0.68993757  0.49325961  0.12545273  1
  O2-  O159  1  0.69278017  0.49668939  0.62196663  1
  O2-  O160  1  0.69082776  0.82634662  0.12606615  1
  O2-  O161  1  0.69341744  0.82714136  0.62274946  1
  O2-  O162  1  0.14149484  0.32628291  0.12448302  1
  O2-  O163  1  0.14974428  0.32594150  0.62511195  1
  O2-  O164  1  0.14160919  0.66105984  0.12330290  1
  O2-  O165  1  0.15158533  0.66357920  0.62821111  1
  O2-  O166  1  0.13971882  0.99562355  0.12157216  1
  O2-  O167  1  0.14358179  0.99413538  0.62728090  1
  O2-  O168  1  0.47592142  0.32697146  0.12448951  1
  O2-  O169  1  0.47309486  0.32797656  0.62399875  1
  O2-  O170  1  0.47482500  0.66213522  0.12341629  1
  O2-  O171  1  0.47385704  0.65813198  0.62896787  1
  O2-  O172  1  0.47606470  0.99696534  0.12467686  1
  O2-  O173  1  0.47504330  0.99527517  0.62517250  1
  O2-  O174  1  0.80764575  0.32610637  0.12776796  1
  O2-  O175  1  0.80875567  0.32802712  0.62294863  1
  O2-  O176  1  0.80338789  0.65923136  0.12344518  1
  O2-  O177  1  0.80641261  0.65979679  0.62419870  1
  O2-  O178  1  0.80407159  0.99725181  0.12743402  1
  O2-  O179  1  0.80418599  0.99203404  0.62198121  1
  O2-  O180  1  0.30573392  0.16308359  0.37448986  1
  O2-  O181  1  0.30972671  0.17484266  0.87585176  1
  O2-  O182  1  0.31652802  0.50743029  0.37383776  1
  O2-  O183  1  0.30737316  0.50513282  0.87638661  1
  O2-  O184  1  0.31555137  0.83822980  0.37415569  1
  O2-  O185  1  0.31026727  0.84041457  0.87532732  1
  O2-  O186  1  0.63896032  0.17285804  0.37631192  1
  O2-  O187  1  0.64193873  0.17197073  0.87258047  1
  O2-  O188  1  0.63690314  0.50874892  0.37560065  1
  O2-  O189  1  0.63793850  0.50504507  0.87715593  1
  O2-  O190  1  0.63694877  0.83751956  0.37672495  1
  O2-  O191  1  0.64430206  0.84278213  0.87462980  1
  O2-  O192  1  0.97580445  0.17156841  0.37511300  1
  O2-  O193  1  0.97253000  0.16447888  0.87642004  1
  O2-  O194  1  0.97587899  0.50576153  0.37367994  1
  O2-  O195  1  0.97357767  0.50620557  0.87686648  1
  O2-  O196  1  0.97340520  0.84030706  0.37207004  1
  O2-  O197  1  0.97170714  0.84189839  0.87601330  1
  O2-  O198  1  0.19160249  0.00535232  0.37558835  1
  O2-  O199  1  0.19656280  0.00633653  0.87494000  1
  O2-  O200  1  0.18477138  0.33938915  0.37398726  1
  O2-  O201  1  0.19725503  0.33935718  0.87514280  1
  O2-  O202  1  0.19100351  0.66888782  0.37288102  1
  O2-  O203  1  0.19455862  0.67435525  0.87595010  1
  O2-  O204  1  0.52489724  0.00812248  0.37575759  1
  O2-  O205  1  0.52861663  0.00432995  0.87442847  1
  O2-  O206  1  0.52421285  0.34194841  0.37689504  1
  O2-  O207  1  0.51947270  0.33605750  0.87458807  1
  O2-  O208  1  0.52334160  0.67304915  0.37410896  1
  O2-  O209  1  0.52708177  0.67634712  0.87416730  1
  O2-  O210  1  0.86176233  0.00706712  0.37532125  1
  O2-  O211  1  0.85635224  0.00351455  0.87498971  1
  O2-  O212  1  0.86176002  0.33997317  0.37390128  1
  O2-  O213  1  0.84819421  0.33515475  0.87600337  1
  O2-  O214  1  0.85811648  0.67056599  0.37440494  1
  O2-  O215  1  0.85713802  0.67703851  0.87786621  1
  O2-  O216  1  0.23896886  0.09444069  0.02108960  1
  O2-  O217  1  0.24028002  0.09297991  0.52297724  1
  O2-  O218  1  0.23921745  0.42801164  0.02229554  1
  O2-  O219  1  0.23972967  0.42912982  0.52289504  1
  O2-  O220  1  0.23765574  0.76113528  0.02120583  1
  O2-  O221  1  0.24242849  0.76194304  0.52122623  1
  O2-  O222  1  0.56887092  0.09724085  0.01767015  1
  O2-  O223  1  0.57026794  0.09405995  0.52005268  1
  O2-  O224  1  0.57169253  0.42705719  0.02154562  1
  O2-  O225  1  0.57378225  0.42978330  0.52146508  1
  O2-  O226  1  0.57136382  0.76698110  0.01692150  1
  O2-  O227  1  0.57119872  0.76246774  0.52444883  1
  O2-  O228  1  0.90131854  0.09334426  0.01890958  1
  O2-  O229  1  0.90486829  0.09172929  0.52144255  1
  O2-  O230  1  0.90609380  0.42469283  0.02188090  1
  O2-  O231  1  0.90218482  0.43000315  0.51794515  1
  O2-  O232  1  0.90274994  0.76179759  0.02346587  1
  O2-  O233  1  0.90301769  0.76014434  0.51763518  1
  O2-  O234  1  0.26106536  0.25889231  0.22762975  1
  O2-  O235  1  0.26309233  0.25986069  0.72939021  1
  O2-  O236  1  0.26144434  0.59286067  0.22708037  1
  O2-  O237  1  0.26759711  0.59581547  0.73637196  1
  O2-  O238  1  0.26207239  0.92740256  0.22905031  1
  O2-  O239  1  0.26145012  0.92454915  0.72711677  1
  O2-  O240  1  0.59467980  0.26371764  0.23165986  1
  O2-  O241  1  0.59358841  0.25953379  0.72510022  1
  O2-  O242  1  0.59566135  0.59753829  0.22783036  1
  O2-  O243  1  0.59624034  0.59576726  0.72965732  1
  O2-  O244  1  0.59838473  0.93095150  0.23010488  1
  O2-  O245  1  0.59717202  0.93054437  0.72791526  1
  O2-  O246  1  0.93088306  0.25971196  0.22958311  1
  O2-  O247  1  0.92265596  0.25589341  0.73177202  1
  O2-  O248  1  0.92400997  0.59477200  0.22807217  1
  O2-  O249  1  0.92565499  0.59283749  0.73453876  1
  O2-  O250  1  0.92822452  0.92986015  0.22620527  1
  O2-  O251  1  0.92763220  0.92764123  0.72929192  1
  O2-  O252  1  0.09596367  0.23648635  0.26980576  1
  O2-  O253  1  0.09954212  0.23964949  0.76769314  1
  O2-  O254  1  0.09039265  0.57506739  0.26567977  1
  O2-  O255  1  0.09250779  0.57532901  0.77408395  1
  O2-  O256  1  0.09357272  0.90792750  0.26636130  1
  O2-  O257  1  0.09373754  0.90690689  0.77244292  1
  O2-  O258  1  0.42917100  0.23267358  0.26812545  1
  O2-  O259  1  0.43006855  0.23410153  0.76689106  1
  O2-  O260  1  0.43090038  0.57408238  0.26774609  1
  O2-  O261  1  0.42968231  0.56741162  0.77385383  1
  O2-  O262  1  0.43294811  0.90557302  0.26914648  1
  O2-  O263  1  0.43029253  0.90574983  0.77026852  1
  O2-  O264  1  0.76120870  0.23944556  0.27289742  1
  O2-  O265  1  0.76104432  0.23554021  0.76290338  1
  O2-  O266  1  0.75970905  0.57105355  0.27181271  1
  O2-  O267  1  0.76078940  0.57165997  0.77313470  1
  O2-  O268  1  0.76425619  0.90389776  0.27284108  1
  O2-  O269  1  0.76379559  0.90271282  0.76617102  1
  O2-  O270  1  0.06956705  0.07162390  0.48219067  1
  O2-  O271  1  0.07588582  0.07327339  0.97526537  1
  O2-  O272  1  0.06895306  0.40490456  0.48296163  1
  O2-  O273  1  0.07701355  0.40715752  0.98179062  1
  O2-  O274  1  0.07140154  0.74072505  0.48144064  1
  O2-  O275  1  0.06958018  0.74102392  0.97852061  1
  O2-  O276  1  0.40303896  0.06729278  0.48352192  1
  O2-  O277  1  0.40464029  0.06990291  0.97837513  1
  O2-  O278  1  0.40649583  0.40790491  0.48397628  1
  O2-  O279  1  0.40162290  0.39965035  0.98187167  1
  O2-  O280  1  0.40319475  0.73588172  0.48207852  1
  O2-  O281  1  0.40632810  0.73671649  0.97991411  1
  O2-  O282  1  0.74101764  0.07283243  0.47498605  1
  O2-  O283  1  0.73770765  0.07156705  0.97761936  1
  O2-  O284  1  0.73717552  0.40713982  0.47699386  1
  O2-  O285  1  0.73832419  0.40567489  0.98893404  1
  O2-  O286  1  0.73455659  0.73741596  0.48171778  1
  O2-  O287  1  0.73735477  0.74032960  0.97766674  1
  O2-  O288  1  0.09621858  0.23774825  0.48063076  1
  O2-  O289  1  0.09769525  0.23841683  0.98064100  1
  O2-  O290  1  0.08796429  0.57667624  0.48348053  1
  O2-  O291  1  0.09528151  0.57415069  0.97833828  1
  O2-  O292  1  0.09253697  0.90913106  0.48394586  1
  O2-  O293  1  0.09599927  0.90737928  0.97702790  1
  O2-  O294  1  0.42959423  0.23194175  0.48121561  1
  O2-  O295  1  0.43071048  0.23468462  0.98319550  1
  O2-  O296  1  0.42910643  0.57328619  0.48176320  1
  O2-  O297  1  0.43035138  0.56784418  0.97839956  1
  O2-  O298  1  0.43082428  0.90551721  0.47819474  1
  O2-  O299  1  0.43344392  0.90582753  0.98212715  1
  O2-  O300  1  0.76024651  0.23973647  0.47899848  1
  O2-  O301  1  0.76222748  0.23449315  0.98593749  1
  O2-  O302  1  0.75788441  0.57397958  0.47582975  1
  O2-  O303  1  0.76277145  0.56997938  0.97690694  1
  O2-  O304  1  0.76223575  0.90283603  0.47481292  1
  O2-  O305  1  0.76512440  0.90296560  0.98520438  1
  O2-  O306  1  0.07077521  0.07270768  0.26974549  1
  O2-  O307  1  0.07231438  0.07258742  0.77063041  1
  O2-  O308  1  0.06848679  0.40188714  0.26320442  1
  O2-  O309  1  0.07609471  0.40964420  0.77187760  1
  O2-  O310  1  0.06761964  0.73870547  0.26684403  1
  O2-  O311  1  0.07308402  0.74294379  0.77520535  1
  O2-  O312  1  0.40273698  0.06772454  0.26650810  1
  O2-  O313  1  0.40484501  0.06980070  0.77112268  1
  O2-  O314  1  0.40764406  0.40561979  0.26688269  1
  O2-  O315  1  0.40052302  0.40197759  0.76660433  1
  O2-  O316  1  0.40356512  0.73589512  0.26568540  1
  O2-  O317  1  0.40473927  0.73826216  0.77285281  1
  O2-  O318  1  0.74125719  0.07282497  0.27541774  1
  O2-  O319  1  0.73774146  0.07233594  0.77146028  1
  O2-  O320  1  0.73628243  0.40710184  0.27265754  1
  O2-  O321  1  0.73874156  0.40624167  0.76172341  1
  O2-  O322  1  0.73805672  0.73886404  0.27086835  1
  O2-  O323  1  0.73537136  0.73882249  0.76922650  1
  O2-  O324  1  0.23990733  0.09228090  0.22575630  1
  O2-  O325  1  0.23960368  0.09583768  0.72986799  1
  O2-  O326  1  0.23951643  0.42516667  0.22527503  1
  O2-  O327  1  0.23782206  0.43176063  0.72850761  1
  O2-  O328  1  0.23975342  0.76012691  0.22647377  1
  O2-  O329  1  0.24111524  0.76331542  0.73089327  1
  O2-  O330  1  0.57074818  0.09451456  0.23132437  1
  O2-  O331  1  0.56813313  0.09653227  0.73089066  1
  O2-  O332  1  0.57247161  0.43078480  0.23003307  1
  O2-  O333  1  0.57296531  0.42696119  0.72801126  1
  O2-  O334  1  0.57052994  0.76196048  0.23007788  1
  O2-  O335  1  0.57228883  0.76571773  0.72884042  1
  O2-  O336  1  0.90367522  0.09626463  0.23260662  1
  O2-  O337  1  0.90189512  0.08950459  0.72742014  1
  O2-  O338  1  0.90329869  0.42873618  0.22770344  1
  O2-  O339  1  0.90510335  0.42690065  0.73408132  1
  O2-  O340  1  0.90535452  0.76099717  0.22623013  1
  O2-  O341  1  0.90280773  0.76296844  0.73306598  1
  O2-  O342  1  0.26070427  0.25882007  0.02307218  1
  O2-  O343  1  0.26303902  0.25946157  0.52045089  1
  O2-  O344  1  0.26386811  0.59312413  0.02023886  1
  O2-  O345  1  0.26388369  0.59567256  0.51614770  1
  O2-  O346  1  0.25852990  0.92739550  0.02315526  1
  O2-  O347  1  0.26367377  0.92604989  0.52064741  1
  O2-  O348  1  0.59364687  0.26041242  0.02227278  1
  O2-  O349  1  0.59514795  0.26261461  0.52070496  1
  O2-  O350  1  0.59747783  0.59802644  0.02140427  1
  O2-  O351  1  0.59330015  0.59638626  0.52123358  1
  O2-  O352  1  0.59668152  0.92976904  0.02414033  1
  O2-  O353  1  0.59991888  0.93243925  0.51838399  1
  O2-  O354  1  0.92517880  0.25959622  0.02236120  1
  O2-  O355  1  0.92707459  0.25599446  0.51724079  1
  O2-  O356  1  0.92634261  0.59654782  0.02125729  1
  O2-  O357  1  0.92164319  0.59061232  0.51666618  1
  O2-  O358  1  0.92856894  0.93024978  0.02246533  1
  O2-  O359  1  0.92716257  0.92679210  0.52159287  1
