# generated using pymatgen
data_Sr7Ca15Pr50Mn72O216
_symmetry_space_group_name_H-M   'P 1'
_cell_length_a   16.55898418
_cell_length_b   16.60561336
_cell_length_c   15.59265013
_cell_angle_alpha   90.00227177
_cell_angle_beta   89.99428466
_cell_angle_gamma   89.99391598
_symmetry_Int_Tables_number   1
_chemical_formula_structural   Sr7Ca15Pr50Mn72O216
_chemical_formula_sum   'Sr7 Ca15 Pr50 Mn72 O216'
_cell_volume   4287.54352786
_cell_formula_units_Z   1
loop_
 _symmetry_equiv_pos_site_id
 _symmetry_equiv_pos_as_xyz
  1  'x, y, z'
loop_
 _atom_type_symbol
 _atom_type_oxidation_number
  Sr2+  2.0
  Ca2+  2.0
  Pr3+  3.0
  Mn3.30+  3.3
  O2-  -2.0
loop_
 _atom_site_type_symbol
 _atom_site_label
 _atom_site_symmetry_multiplicity
 _atom_site_fract_x
 _atom_site_fract_y
 _atom_site_fract_z
 _atom_site_occupancy
  Sr2+  Sr0  1  0.33301790  0.67588593  0.62373380  1
  Sr2+  Sr1  1  0.83409885  0.84633634  0.62384588  1
  Sr2+  Sr2  1  0.33593068  0.32587470  0.37210489  1
  Sr2+  Sr3  1  0.66902115  0.32472578  0.37211167  1
  Sr2+  Sr4  1  0.83294139  0.15722920  0.37435123  1
  Sr2+  Sr5  1  0.66897721  0.98896489  0.87529951  1
  Sr2+  Sr6  1  -0.00126646  0.67301852  0.12741575  1
  Ca2+  Ca7  1  0.66602533  0.34956212  0.12616793  1
  Ca2+  Ca8  1  -0.00473492  0.01469252  0.62299496  1
  Ca2+  Ca9  1  0.32738600  0.35351367  0.12503005  1
  Ca2+  Ca10  1  0.16308312  0.15168256  0.87557200  1
  Ca2+  Ca11  1  0.50450126  0.84740768  0.62286110  1
  Ca2+  Ca12  1  1.00205925  0.98617030  0.37860424  1
  Ca2+  Ca13  1  0.66941399  0.65333883  0.87503948  1
  Ca2+  Ca14  1  1.00245348  0.65178278  0.37433610  1
  Ca2+  Ca15  1  0.66832557  0.65261553  0.37515351  1
  Ca2+  Ca16  1  0.33571649  0.65224125  0.87565283  1
  Ca2+  Ca17  1  0.33560859  0.65140191  0.37473717  1
  Ca2+  Ca18  1  0.83560772  0.51592130  0.12674099  1
  Ca2+  Ca19  1  1.00603395  0.31635635  0.87645288  1
  Ca2+  Ca20  1  0.49399692  0.81491294  0.37767831  1
  Ca2+  Ca21  1  0.17099980  0.51606952  0.12561663  1
  Pr3+  Pr22  1  0.82602881  0.81908868  0.87362093  1
  Pr3+  Pr23  1  0.83160621  0.82034623  0.37640125  1
  Pr3+  Pr24  1  0.49755247  0.49068538  0.87604990  1
  Pr3+  Pr25  1  0.33807582  0.98545335  0.37578875  1
  Pr3+  Pr26  1  0.17289979  0.18273161  0.12351998  1
  Pr3+  Pr27  1  0.83642966  0.18019456  0.12497126  1
  Pr3+  Pr28  1  0.66573791  0.01143492  0.62509282  1
  Pr3+  Pr29  1  0.33630286  0.98697543  0.87417993  1
  Pr3+  Pr30  1  0.16227612  0.48783137  0.87648924  1
  Pr3+  Pr31  1  0.16622275  0.81970867  0.87341897  1
  Pr3+  Pr32  1  0.49704072  0.81727264  0.87323275  1
  Pr3+  Pr33  1  0.49803362  0.15681716  0.37451424  1
  Pr3+  Pr34  1  0.32736483  0.67691977  0.12629214  1
  Pr3+  Pr35  1  0.49797787  0.15165479  0.87557892  1
  Pr3+  Pr36  1  0.66574030  0.01147709  0.12517559  1
  Pr3+  Pr37  1  1.00342570  0.98748345  0.87302563  1
  Pr3+  Pr38  1  -0.00436233  0.67984785  0.62243718  1
  Pr3+  Pr39  1  0.49960555  0.51072771  0.12695266  1
  Pr3+  Pr40  1  0.32935446  0.01201831  0.12604363  1
  Pr3+  Pr41  1  0.65826336  0.68303648  0.62351616  1
  Pr3+  Pr42  1  0.33615308  0.32037154  0.87783167  1
  Pr3+  Pr43  1  0.33060224  0.34638873  0.62515101  1
  Pr3+  Pr44  1  0.83369207  0.15313061  0.87655131  1
  Pr3+  Pr45  1  0.33238273  0.01041894  0.62417546  1
  Pr3+  Pr46  1  -0.00268107  0.35075187  0.12321311  1
  Pr3+  Pr47  1  -0.00319618  0.34467460  0.62663935  1
  Pr3+  Pr48  1  0.66486369  0.67587888  0.12731746  1
  Pr3+  Pr49  1  0.82987475  0.49125191  0.87919874  1
  Pr3+  Pr50  1  0.16839070  0.84612570  0.62386804  1
  Pr3+  Pr51  1  0.49766762  0.48844927  0.37371648  1
  Pr3+  Pr52  1  0.50226537  0.51309795  0.62328212  1
  Pr3+  Pr53  1  0.99947508  0.65630705  0.87427721  1
  Pr3+  Pr54  1  0.16257040  0.15270909  0.37447497  1
  Pr3+  Pr55  1  1.00371270  0.32288801  0.37309991  1
  Pr3+  Pr56  1  0.83110019  0.49069142  0.37042595  1
  Pr3+  Pr57  1  0.83757771  0.17595629  0.62528766  1
  Pr3+  Pr58  1  0.16955535  0.51264269  0.62453931  1
  Pr3+  Pr59  1  0.16782274  0.17772346  0.62676603  1
  Pr3+  Pr60  1  0.66997775  0.32242547  0.87845553  1
  Pr3+  Pr61  1  0.50165621  0.84341892  0.12765002  1
  Pr3+  Pr62  1  0.83618400  0.84197428  0.12569352  1
  Pr3+  Pr63  1  -0.00152035  0.01117014  0.12637881  1
  Pr3+  Pr64  1  0.16824727  0.84414534  0.12602574  1
  Pr3+  Pr65  1  0.16471714  0.49039250  0.37267777  1
  Pr3+  Pr66  1  0.83409459  0.51280967  0.62338806  1
  Pr3+  Pr67  1  0.50366389  0.17866477  0.62556724  1
  Pr3+  Pr68  1  0.50333669  0.18225150  0.12456544  1
  Pr3+  Pr69  1  0.67025869  0.98950950  0.37489569  1
  Pr3+  Pr70  1  0.66599087  0.34574291  0.62398886  1
  Pr3+  Pr71  1  0.16224659  0.81706396  0.37610139  1
  Mn3.30+  Mn72  1  0.16701037  0.00058783  -0.00120518  1
  Mn3.30+  Mn73  1  0.16470118  -0.00070544  0.50062093  1
  Mn3.30+  Mn74  1  0.16690366  0.33460783  -0.00021262  1
  Mn3.30+  Mn75  1  0.16694720  0.33298022  0.49959384  1
  Mn3.30+  Mn76  1  0.16674779  0.66571043  -0.00085916  1
  Mn3.30+  Mn77  1  0.16611576  0.66618439  0.49880239  1
  Mn3.30+  Mn78  1  0.49984567  -0.00205519  0.00067887  1
  Mn3.30+  Mn79  1  0.50087172  -0.00212815  0.49933349  1
  Mn3.30+  Mn80  1  0.49997178  0.33490644  0.00247999  1
  Mn3.30+  Mn81  1  0.50013592  0.33321733  0.49886836  1
  Mn3.30+  Mn82  1  0.49881762  0.66563258  -0.00048106  1
  Mn3.30+  Mn83  1  0.49861753  0.66845067  0.49726736  1
  Mn3.30+  Mn84  1  0.83413989  -0.00132622  0.00069752  1
  Mn3.30+  Mn85  1  0.83627770  0.00012854  0.49860322  1
  Mn3.30+  Mn86  1  0.83533142  0.33595216  0.00072331  1
  Mn3.30+  Mn87  1  0.83341947  0.33319628  0.49917747  1
  Mn3.30+  Mn88  1  0.83169982  0.66619577  0.00137304  1
  Mn3.30+  Mn89  1  0.83135962  0.66741519  0.49772081  1
  Mn3.30+  Mn90  1  0.00186700  0.16604164  0.24964209  1
  Mn3.30+  Mn91  1  0.00259091  0.16656305  0.75184623  1
  Mn3.30+  Mn92  1  -0.00056733  0.50232685  0.24759842  1
  Mn3.30+  Mn93  1  -0.00097793  0.49897512  0.75106409  1
  Mn3.30+  Mn94  1  0.00014963  0.83205110  0.25187697  1
  Mn3.30+  Mn95  1  -0.00181771  0.83478458  0.74827159  1
  Mn3.30+  Mn96  1  0.33348369  0.16888308  0.24966855  1
  Mn3.30+  Mn97  1  0.33221764  0.16638106  0.75130919  1
  Mn3.30+  Mn98  1  0.33177598  0.50095874  0.24937313  1
  Mn3.30+  Mn99  1  0.33217436  0.50127248  0.75154871  1
  Mn3.30+  Mn100  1  0.33443056  0.83076095  0.25377288  1
  Mn3.30+  Mn101  1  0.33473591  0.83055534  0.74693859  1
  Mn3.30+  Mn102  1  0.66783950  0.16940229  0.24865851  1
  Mn3.30+  Mn103  1  0.66893737  0.16692271  0.75177860  1
  Mn3.30+  Mn104  1  0.66750451  0.50036503  0.24801677  1
  Mn3.30+  Mn105  1  0.66659907  0.50174029  0.75149882  1
  Mn3.30+  Mn106  1  0.66486193  0.83133499  0.25376531  1
  Mn3.30+  Mn107  1  0.66440468  0.83363210  0.74908439  1
  Mn3.30+  Mn108  1  0.16575069  -0.00140593  0.25213568  1
  Mn3.30+  Mn109  1  0.16588477  0.00064789  0.74866069  1
  Mn3.30+  Mn110  1  0.16890465  0.33573642  0.24764612  1
  Mn3.30+  Mn111  1  0.16504989  0.33173378  0.75266235  1
  Mn3.30+  Mn112  1  0.16526491  0.66556720  0.25107138  1
  Mn3.30+  Mn113  1  0.16753848  0.66653247  0.75011643  1
  Mn3.30+  Mn114  1  0.50024664  -0.00113098  0.25074720  1
  Mn3.30+  Mn115  1  0.50067594  -0.00277798  0.74929915  1
  Mn3.30+  Mn116  1  0.49985039  0.33412066  0.24698582  1
  Mn3.30+  Mn117  1  0.50061286  0.33386853  0.75162897  1
  Mn3.30+  Mn118  1  0.49827619  0.66671962  0.25314811  1
  Mn3.30+  Mn119  1  0.49915120  0.66713513  0.75026726  1
  Mn3.30+  Mn120  1  0.83506995  -0.00049017  0.25207527  1
  Mn3.30+  Mn121  1  0.83539034  -0.00041078  0.74894506  1
  Mn3.30+  Mn122  1  0.83298459  0.33532218  0.24616476  1
  Mn3.30+  Mn123  1  0.83576445  0.33408944  0.75420065  1
  Mn3.30+  Mn124  1  0.83307752  0.66653592  0.25266132  1
  Mn3.30+  Mn125  1  0.82992168  0.66724998  0.74800834  1
  Mn3.30+  Mn126  1  0.00417422  0.16765324  0.00019040  1
  Mn3.30+  Mn127  1  0.00045782  0.16529781  0.49909273  1
  Mn3.30+  Mn128  1  -0.00110953  0.50095722  0.00077993  1
  Mn3.30+  Mn129  1  -0.00039737  0.50023448  0.49942718  1
  Mn3.30+  Mn130  1  -0.00040873  0.83188486  -0.00041581  1
  Mn3.30+  Mn131  1  -0.00116561  0.83478256  0.49912755  1
  Mn3.30+  Mn132  1  0.33268579  0.16769854  -0.00014018  1
  Mn3.30+  Mn133  1  0.33332553  0.16702476  0.49961339  1
  Mn3.30+  Mn134  1  0.33040628  0.50101483  -0.00033135  1
  Mn3.30+  Mn135  1  0.33337480  0.50123902  0.49915772  1
  Mn3.30+  Mn136  1  0.33368782  0.83127491  -0.00075259  1
  Mn3.30+  Mn137  1  0.33563616  0.83040251  0.50058757  1
  Mn3.30+  Mn138  1  0.66792141  0.16807373  0.00126455  1
  Mn3.30+  Mn139  1  0.66861905  0.16760148  0.49907961  1
  Mn3.30+  Mn140  1  0.66635507  0.50126985  0.00279243  1
  Mn3.30+  Mn141  1  0.66745927  0.50142558  0.49767582  1
  Mn3.30+  Mn142  1  0.66591723  0.83128932  0.00010823  1
  Mn3.30+  Mn143  1  0.66299996  0.83328276  0.49728305  1
  O2-  O144  1  0.02923587  0.15864503  0.12541436  1
  O2-  O145  1  0.02426663  0.16304027  0.62538961  1
  O2-  O146  1  0.02875565  0.49756396  0.12241626  1
  O2-  O147  1  0.02585063  0.49270822  0.62686146  1
  O2-  O148  1  0.02420543  0.82923123  0.12590332  1
  O2-  O149  1  0.02448299  0.82534571  0.62381636  1
  O2-  O150  1  0.35911362  0.15729372  0.12374568  1
  O2-  O151  1  0.35939091  0.16082544  0.62569801  1
  O2-  O152  1  0.35516611  0.50018885  0.12378552  1
  O2-  O153  1  0.35661751  0.49407674  0.62688357  1
  O2-  O154  1  0.35710594  0.82603295  0.12801211  1
  O2-  O155  1  0.36154103  0.83100898  0.62370630  1
  O2-  O156  1  0.69226785  0.15862244  0.12382607  1
  O2-  O157  1  0.69189403  0.16155319  0.62738120  1
  O2-  O158  1  0.69340464  0.49698535  0.12493133  1
  O2-  O159  1  0.69023059  0.49394686  0.62379646  1
  O2-  O160  1  0.69188610  0.82464660  0.12855901  1
  O2-  O161  1  0.68491147  0.82933573  0.62277557  1
  O2-  O162  1  0.14027576  0.32746712  0.12258246  1
  O2-  O163  1  0.14028373  0.32672266  0.62801950  1
  O2-  O164  1  0.14872113  0.66480349  0.12534279  1
  O2-  O165  1  0.13933069  0.66107361  0.62485521  1
  O2-  O166  1  0.14315658  0.99254522  0.12673504  1
  O2-  O167  1  0.13807150  0.99414198  0.62461932  1
  O2-  O168  1  0.47019837  0.32958715  0.12308585  1
  O2-  O169  1  0.47543688  0.32771667  0.62790535  1
  O2-  O170  1  0.47125103  0.66166708  0.12605637  1
  O2-  O171  1  0.48143314  0.65845744  0.62333110  1
  O2-  O172  1  0.47277431  0.99208424  0.12660470  1
  O2-  O173  1  0.47591384  0.99577624  0.62453047  1
  O2-  O174  1  0.80759639  0.32618658  0.12256003  1
  O2-  O175  1  0.80950282  0.32653638  0.63087771  1
  O2-  O176  1  0.80928070  0.66849233  0.12836982  1
  O2-  O177  1  0.80433689  0.66090466  0.62292684  1
  O2-  O178  1  0.80975743  0.99161712  0.12630888  1
  O2-  O179  1  0.81021728  1.00448716  0.62474180  1
  O2-  O180  1  0.30791718  0.16993007  0.37518601  1
  O2-  O181  1  0.30618800  0.17264783  0.87589381  1
  O2-  O182  1  0.30962805  0.50298566  0.37464328  1
  O2-  O183  1  0.30729068  0.50537952  0.87433188  1
  O2-  O184  1  0.30566510  0.84074633  0.37675492  1
  O2-  O185  1  0.30879281  0.84134105  0.87164861  1
  O2-  O186  1  0.64222649  0.16858469  0.37178660  1
  O2-  O187  1  0.64178775  0.17343727  0.87740672  1
  O2-  O188  1  0.64204846  0.50461873  0.37326802  1
  O2-  O189  1  0.64125836  0.50664801  0.87806830  1
  O2-  O190  1  0.63496330  0.84445163  0.37426121  1
  O2-  O191  1  0.64104929  0.83693881  0.87488792  1
  O2-  O192  1  0.98238038  0.17670300  0.37259692  1
  O2-  O193  1  0.97669305  0.17135706  0.87744416  1
  O2-  O194  1  0.97610700  0.50114464  0.37569944  1
  O2-  O195  1  0.97323243  0.50873318  0.87422255  1
  O2-  O196  1  0.97569417  0.84288793  0.37583782  1
  O2-  O197  1  0.97244255  0.83898905  0.87278192  1
  O2-  O198  1  0.19427627  0.00488371  0.37616287  1
  O2-  O199  1  0.19318103  0.00492803  0.87248421  1
  O2-  O200  1  0.18570744  0.34095220  0.37272422  1
  O2-  O201  1  0.19403786  0.34140875  0.87642398  1
  O2-  O202  1  0.19295721  0.66952578  0.37596837  1
  O2-  O203  1  0.19323183  0.67243105  0.87291718  1
  O2-  O204  1  0.52618741  0.01084092  0.37453832  1
  O2-  O205  1  0.51874458  0.00387571  0.87429210  1
  O2-  O206  1  0.51884232  0.33770144  0.37210482  1
  O2-  O207  1  0.52557026  0.34084998  0.87672585  1
  O2-  O208  1  0.52727286  0.66960060  0.37424592  1
  O2-  O209  1  0.52793489  0.67017445  0.87634432  1
  O2-  O210  1  0.85930626  0.00165469  0.37347107  1
  O2-  O211  1  0.85872379  0.00359888  0.87560494  1
  O2-  O212  1  0.85968473  0.34156662  0.36951801  1
  O2-  O213  1  0.86369605  0.34414029  0.87722247  1
  O2-  O214  1  0.85998679  0.67049609  0.37595186  1
  O2-  O215  1  0.85480598  0.67053425  0.87213881  1
  O2-  O216  1  0.24014658  0.09426301  0.02211606  1
  O2-  O217  1  0.23849924  0.09285908  0.52141064  1
  O2-  O218  1  0.23359900  0.43235550  0.01810982  1
  O2-  O219  1  0.23848179  0.42514391  0.52114188  1
  O2-  O220  1  0.23912742  0.76306078  0.01878630  1
  O2-  O221  1  0.23493179  0.76334648  0.51824084  1
  O2-  O222  1  0.57160793  0.09319001  0.01984366  1
  O2-  O223  1  0.57262658  0.09500512  0.52130740  1
  O2-  O224  1  0.57120202  0.42991572  0.02009455  1
  O2-  O225  1  0.57440898  0.42703496  0.51919357  1
  O2-  O226  1  0.56988561  0.75994887  0.02226886  1
  O2-  O227  1  0.56844063  0.76227001  0.52060610  1
  O2-  O228  1  0.90859146  0.09489029  0.02045708  1
  O2-  O229  1  0.90711194  0.09765508  0.51890551  1
  O2-  O230  1  0.90452018  0.43112903  0.02462752  1
  O2-  O231  1  0.90726560  0.42669836  0.52164077  1
  O2-  O232  1  0.90122409  0.76272005  0.01364198  1
  O2-  O233  1  0.90560455  0.76000870  0.51683242  1
  O2-  O234  1  0.26199044  0.26373510  0.22538323  1
  O2-  O235  1  0.26240259  0.26182774  0.72979681  1
  O2-  O236  1  0.26125352  0.59538794  0.23323414  1
  O2-  O237  1  0.25535679  0.59062902  0.72952135  1
  O2-  O238  1  0.26220283  0.92818090  0.23100435  1
  O2-  O239  1  0.26084124  0.92747132  0.72726626  1
  O2-  O240  1  0.59362532  0.26163816  0.22400230  1
  O2-  O241  1  0.59647536  0.26124903  0.73090189  1
  O2-  O242  1  0.59110314  0.59144749  0.22726939  1
  O2-  O243  1  0.59457371  0.59428549  0.72862736  1
  O2-  O244  1  0.59484446  0.92744269  0.22767247  1
  O2-  O245  1  0.59449830  0.92821775  0.72948096  1
  O2-  O246  1  0.92882147  0.26315174  0.22674171  1
  O2-  O247  1  0.92908347  0.26006489  0.73082003  1
  O2-  O248  1  0.92480741  0.59108648  0.23480307  1
  O2-  O249  1  0.92541382  0.59546185  0.72734666  1
  O2-  O250  1  0.92742779  0.92539209  0.22767687  1
  O2-  O251  1  0.93193222  0.93324680  0.73133157  1
  O2-  O252  1  0.09822808  0.23889742  0.26730916  1
  O2-  O253  1  0.09930824  0.23497870  0.77015902  1
  O2-  O254  1  0.09397523  0.57233548  0.27019531  1
  O2-  O255  1  0.09231102  0.57249686  0.77063316  1
  O2-  O256  1  0.09763602  0.90172008  0.26765832  1
  O2-  O257  1  0.09674494  0.90558868  0.77145362  1
  O2-  O258  1  0.43204285  0.23535838  0.26521396  1
  O2-  O259  1  0.42968215  0.23880102  0.77253044  1
  O2-  O260  1  0.42890876  0.57158640  0.26921161  1
  O2-  O261  1  0.43130924  0.57159503  0.76764332  1
  O2-  O262  1  0.42797790  0.90195513  0.27292894  1
  O2-  O263  1  0.42672664  0.90581829  0.77108318  1
  O2-  O264  1  0.76254742  0.23843190  0.26203139  1
  O2-  O265  1  0.76472219  0.24282461  0.77662742  1
  O2-  O266  1  0.75892466  0.57527394  0.26923892  1
  O2-  O267  1  0.76330886  0.56973487  0.76730251  1
  O2-  O268  1  0.76068691  0.90474631  0.27134945  1
  O2-  O269  1  0.76249173  0.90550637  0.76639898  1
  O2-  O270  1  0.07355860  0.07319987  0.47675879  1
  O2-  O271  1  0.07109388  0.06947134  0.98165303  1
  O2-  O272  1  0.07154932  0.40575350  0.48140273  1
  O2-  O273  1  0.06902797  0.40326680  0.97747585  1
  O2-  O274  1  0.07017614  0.73679309  0.47889166  1
  O2-  O275  1  0.07336065  0.74088471  0.97562258  1
  O2-  O276  1  0.40637637  0.07123630  0.48041697  1
  O2-  O277  1  0.40319317  0.07278069  0.97937058  1
  O2-  O278  1  0.40833152  0.40811435  0.48511553  1
  O2-  O279  1  0.40372602  0.40846969  0.97850664  1
  O2-  O280  1  0.40257619  0.73619386  0.47606357  1
  O2-  O281  1  0.40470688  0.73708126  0.97819014  1
  O2-  O282  1  0.73744630  0.07082734  0.48293605  1
  O2-  O283  1  0.74305115  0.07486321  0.98381256  1
  O2-  O284  1  0.74203459  0.40928761  0.48328976  1
  O2-  O285  1  0.73863604  0.40889113  0.97725540  1
  O2-  O286  1  0.73350155  0.74044500  0.47684028  1
  O2-  O287  1  0.73546780  0.73742173  0.97971317  1
  O2-  O288  1  0.09595934  0.23856605  0.48129596  1
  O2-  O289  1  0.10118747  0.23485572  0.98173302  1
  O2-  O290  1  0.09430151  0.56963185  0.48211050  1
  O2-  O291  1  0.09110328  0.57409072  0.97590483  1
  O2-  O292  1  0.09797219  0.90269068  0.48155169  1
  O2-  O293  1  0.09525356  0.90501925  0.97856209  1
  O2-  O294  1  0.43072458  0.23610712  0.48455843  1
  O2-  O295  1  0.42975298  0.23702541  0.97819644  1
  O2-  O296  1  0.43069860  0.57150440  0.48184869  1
  O2-  O297  1  0.42863106  0.57102484  0.98106673  1
  O2-  O298  1  0.42817730  0.90596917  0.47651232  1
  O2-  O299  1  0.42719688  0.90236957  0.98070725  1
  O2-  O300  1  0.76156217  0.23971718  0.48735963  1
  O2-  O301  1  0.76454625  0.24122843  0.97771415  1
  O2-  O302  1  0.76270563  0.57074328  0.47972750  1
  O2-  O303  1  0.75930053  0.57384925  0.98294496  1
  O2-  O304  1  0.75831597  0.90618551  0.47799975  1
  O2-  O305  1  0.76234823  0.90111563  0.98441256  1
  O2-  O306  1  0.07337021  0.06799655  0.27234470  1
  O2-  O307  1  0.07266973  0.07214046  0.77050336  1
  O2-  O308  1  0.07061661  0.40526206  0.26736193  1
  O2-  O309  1  0.07189300  0.40218871  0.77324211  1
  O2-  O310  1  0.07174316  0.73866651  0.27459699  1
  O2-  O311  1  0.07238555  0.73886626  0.76939438  1
  O2-  O312  1  0.40550007  0.07071951  0.27029446  1
  O2-  O313  1  0.40551307  0.07191771  0.76978099  1
  O2-  O314  1  0.40858227  0.41089615  0.26495023  1
  O2-  O315  1  0.40446942  0.40565470  0.77161139  1
  O2-  O316  1  0.40185388  0.73538625  0.27099054  1
  O2-  O317  1  0.40500873  0.73723237  0.77486404  1
  O2-  O318  1  0.73788267  0.06912582  0.26445845  1
  O2-  O319  1  0.74357679  0.07561417  0.76968188  1
  O2-  O320  1  0.74320981  0.41085065  0.26835070  1
  O2-  O321  1  0.73875806  0.40625198  0.77203919  1
  O2-  O322  1  0.73609558  0.73945923  0.27572297  1
  O2-  O323  1  0.73502271  0.73794211  0.76899077  1
  O2-  O324  1  0.23809774  0.09500602  0.23028937  1
  O2-  O325  1  0.23951935  0.09094585  0.72571498  1
  O2-  O326  1  0.23522991  0.43171591  0.23045995  1
  O2-  O327  1  0.23640140  0.42506661  0.72968685  1
  O2-  O328  1  0.23714242  0.76245942  0.23170696  1
  O2-  O329  1  0.23597272  0.76366147  0.73059256  1
  O2-  O330  1  0.57305312  0.09521134  0.22695352  1
  O2-  O331  1  0.57121064  0.09262579  0.73141506  1
  O2-  O332  1  0.57251687  0.42791537  0.23049626  1
  O2-  O333  1  0.57271376  0.42797759  0.72990062  1
  O2-  O334  1  0.57130567  0.75769644  0.22721351  1
  O2-  O335  1  0.56709147  0.76265672  0.72988337  1
  O2-  O336  1  0.90749735  0.09313062  0.22563941  1
  O2-  O337  1  0.90614259  0.09774902  0.73592570  1
  O2-  O338  1  0.90692324  0.42908744  0.22536558  1
  O2-  O339  1  0.90449510  0.42768037  0.72776029  1
  O2-  O340  1  0.90177587  0.76391564  0.23641958  1
  O2-  O341  1  0.90484985  0.75828916  0.73178176  1
  O2-  O342  1  0.26606304  0.26524145  0.02154469  1
  O2-  O343  1  0.25959944  0.25927080  0.52415690  1
  O2-  O344  1  0.26170155  0.59549147  0.01720357  1
  O2-  O345  1  0.25626964  0.58999089  0.51886809  1
  O2-  O346  1  0.26201909  0.92758803  0.01952695  1
  O2-  O347  1  0.26233486  0.92741707  0.52155699  1
  O2-  O348  1  0.59695057  0.26219028  0.02219412  1
  O2-  O349  1  0.59386886  0.25968323  0.52266501  1
  O2-  O350  1  0.59128349  0.59279158  0.02587296  1
  O2-  O351  1  0.59455697  0.59361700  0.51955328  1
  O2-  O352  1  0.59495936  0.92316001  0.02455282  1
  O2-  O353  1  0.59666129  0.93174878  0.51853726  1
  O2-  O354  1  0.93098016  0.25964096  0.02265240  1
  O2-  O355  1  0.92982150  0.26133277  0.51953394  1
  O2-  O356  1  0.92506655  0.59555988  0.01354252  1
  O2-  O357  1  0.92746420  0.59072425  0.52303511  1
  O2-  O358  1  0.92960614  0.92752761  0.02026431  1
  O2-  O359  1  0.93037664  0.93052938  0.51897718  1
