# generated using pymatgen
data_Sr7Ca15Pr50Mn72O216
_symmetry_space_group_name_H-M   'P 1'
_cell_length_a   16.56003509
_cell_length_b   16.60346876
_cell_length_c   15.59387242
_cell_angle_alpha   90.00257840
_cell_angle_beta   89.99984191
_cell_angle_gamma   89.98502162
_symmetry_Int_Tables_number   1
_chemical_formula_structural   Sr7Ca15Pr50Mn72O216
_chemical_formula_sum   'Sr7 Ca15 Pr50 Mn72 O216'
_cell_volume   4287.59784086
_cell_formula_units_Z   1
loop_
 _symmetry_equiv_pos_site_id
 _symmetry_equiv_pos_as_xyz
  1  'x, y, z'
loop_
 _atom_type_symbol
 _atom_type_oxidation_number
  Sr2+  2.0
  Ca2+  2.0
  Pr3+  3.0
  Mn3.30+  3.3
  O2-  -2.0
loop_
 _atom_site_type_symbol
 _atom_site_label
 _atom_site_symmetry_multiplicity
 _atom_site_fract_x
 _atom_site_fract_y
 _atom_site_fract_z
 _atom_site_occupancy
  Sr2+  Sr0  1  0.66687844  0.65654112  0.87737954  1
  Sr2+  Sr1  1  0.17015125  0.84128067  0.62675866  1
  Sr2+  Sr2  1  -0.00104532  0.67614266  0.62595134  1
  Sr2+  Sr3  1  0.33507115  0.65746210  0.37715639  1
  Sr2+  Sr4  1  0.33340938  0.99052996  0.87262101  1
  Sr2+  Sr5  1  0.16861924  0.15756754  0.87468208  1
  Sr2+  Sr6  1  0.33337187  0.32542054  0.37506563  1
  Ca2+  Ca7  1  0.66226644  0.68140341  0.12407435  1
  Ca2+  Ca8  1  0.83052168  0.81653055  0.37527996  1
  Ca2+  Ca9  1  0.33453770  0.32000645  0.87441381  1
  Ca2+  Ca10  1  0.66290813  0.01453259  0.62469116  1
  Ca2+  Ca11  1  0.66228798  0.34832778  0.12537381  1
  Ca2+  Ca12  1  1.00591101  0.31922084  0.37380869  1
  Ca2+  Ca13  1  0.49730099  0.51421459  0.62381669  1
  Ca2+  Ca14  1  -0.00298596  0.34813663  0.12428413  1
  Ca2+  Ca15  1  0.32905709  0.68014205  0.62593251  1
  Ca2+  Ca16  1  0.32906865  0.01363633  0.62678498  1
  Ca2+  Ca17  1  1.00581060  0.65332961  0.87386568  1
  Ca2+  Ca18  1  0.16484533  0.81674018  0.87285896  1
  Ca2+  Ca19  1  0.32924677  0.67886247  0.12367293  1
  Ca2+  Ca20  1  0.32856549  0.34687782  0.62633176  1
  Ca2+  Ca21  1  0.17042818  0.51737790  0.12461431  1
  Pr3+  Pr22  1  -0.00046145  0.34458816  0.62533404  1
  Pr3+  Pr23  1  0.32754988  0.34989947  0.12410948  1
  Pr3+  Pr24  1  0.83300931  0.81805131  0.87547574  1
  Pr3+  Pr25  1  0.50368061  0.18351294  0.12448911  1
  Pr3+  Pr26  1  0.50030290  0.84174873  0.12445911  1
  Pr3+  Pr27  1  0.33129602  0.01343105  0.12409463  1
  Pr3+  Pr28  1  0.83668038  0.51379316  0.62512624  1
  Pr3+  Pr29  1  0.66454362  0.67692974  0.62672031  1
  Pr3+  Pr30  1  0.16642071  0.81809703  0.37661480  1
  Pr3+  Pr31  1  0.83224617  0.15480453  0.37556581  1
  Pr3+  Pr32  1  0.17444524  0.17989802  0.62626249  1
  Pr3+  Pr33  1  0.50013079  0.84604558  0.62574669  1
  Pr3+  Pr34  1  0.49822225  0.17804789  0.62600880  1
  Pr3+  Pr35  1  1.00369076  0.65360803  0.37467880  1
  Pr3+  Pr36  1  0.49601822  0.81997132  0.87440172  1
  Pr3+  Pr37  1  0.49613958  0.15560313  0.37534379  1
  Pr3+  Pr38  1  0.66889763  0.98724511  0.87236702  1
  Pr3+  Pr39  1  0.50274595  0.51500840  0.12614703  1
  Pr3+  Pr40  1  0.16784327  0.18091191  0.12344972  1
  Pr3+  Pr41  1  0.83272722  0.51087729  0.12461040  1
  Pr3+  Pr42  1  -0.00184739  0.01167044  0.12466016  1
  Pr3+  Pr43  1  0.66796851  0.32267331  0.87573170  1
  Pr3+  Pr44  1  0.17138530  0.51388549  0.62525039  1
  Pr3+  Pr45  1  0.33657426  0.98833779  0.37756213  1
  Pr3+  Pr46  1  0.16405369  0.15504242  0.37512352  1
  Pr3+  Pr47  1  1.00909377  0.98485442  0.87475657  1
  Pr3+  Pr48  1  0.83305809  0.48744468  0.37501355  1
  Pr3+  Pr49  1  0.00079934  0.67606978  0.12339842  1
  Pr3+  Pr50  1  0.16436507  0.48661032  0.37308466  1
  Pr3+  Pr51  1  0.49380900  0.48697677  0.87418173  1
  Pr3+  Pr52  1  0.49693054  0.81932270  0.37652842  1
  Pr3+  Pr53  1  0.67198806  0.98409747  0.37744387  1
  Pr3+  Pr54  1  0.66391315  0.01127077  0.12475630  1
  Pr3+  Pr55  1  0.49431032  0.15428803  0.87495537  1
  Pr3+  Pr56  1  0.16349224  0.49153575  0.87645812  1
  Pr3+  Pr57  1  0.83514197  0.84283079  0.12476399  1
  Pr3+  Pr58  1  0.83759868  0.18314112  0.12496659  1
  Pr3+  Pr59  1  0.17300095  0.84120660  0.12365550  1
  Pr3+  Pr60  1  0.65999766  0.34945196  0.62525116  1
  Pr3+  Pr61  1  0.83499964  0.17800787  0.62455495  1
  Pr3+  Pr62  1  0.66784064  0.32170265  0.37442190  1
  Pr3+  Pr63  1  1.00343372  0.32019837  0.87583899  1
  Pr3+  Pr64  1  1.00274082  0.98475022  0.37505235  1
  Pr3+  Pr65  1  0.66881930  0.65464878  0.37340593  1
  Pr3+  Pr66  1  0.83139214  0.15390765  0.87421107  1
  Pr3+  Pr67  1  0.00121449  0.00853181  0.62510226  1
  Pr3+  Pr68  1  0.83935490  0.84318097  0.62498686  1
  Pr3+  Pr69  1  0.83150408  0.49042695  0.87485248  1
  Pr3+  Pr70  1  0.33381099  0.65755032  0.87316046  1
  Pr3+  Pr71  1  0.49328773  0.48874188  0.37592804  1
  Mn3.30+  Mn72  1  0.16747692  -0.00180494  -0.00137698  1
  Mn3.30+  Mn73  1  0.16915908  -0.00089649  0.50115348  1
  Mn3.30+  Mn74  1  0.16539951  0.33627570  0.00090738  1
  Mn3.30+  Mn75  1  0.16699201  0.33336179  0.49911333  1
  Mn3.30+  Mn76  1  0.16701990  0.66653875  -0.00059813  1
  Mn3.30+  Mn77  1  0.16888300  0.66550891  0.50113168  1
  Mn3.30+  Mn78  1  0.49960441  -0.00061544  0.00003507  1
  Mn3.30+  Mn79  1  0.50114114  0.00092819  0.50238988  1
  Mn3.30+  Mn80  1  0.49864109  0.33523682  -0.00042150  1
  Mn3.30+  Mn81  1  0.49662759  0.33551997  0.50281573  1
  Mn3.30+  Mn82  1  0.49912166  0.66610307  0.00057442  1
  Mn3.30+  Mn83  1  0.49847952  0.66606211  0.50328843  1
  Mn3.30+  Mn84  1  0.83448756  -0.00035807  -0.00104810  1
  Mn3.30+  Mn85  1  0.83248569  -0.00221925  0.50079955  1
  Mn3.30+  Mn86  1  0.83280427  0.33477232  0.00195225  1
  Mn3.30+  Mn87  1  0.83415943  0.33304546  0.49884882  1
  Mn3.30+  Mn88  1  0.83319553  0.66537572  0.00112128  1
  Mn3.30+  Mn89  1  0.83391368  0.66704566  0.49809611  1
  Mn3.30+  Mn90  1  -0.00037786  0.16900406  0.25020288  1
  Mn3.30+  Mn91  1  0.00211684  0.16506804  0.74902033  1
  Mn3.30+  Mn92  1  0.00101560  0.49721148  0.24681859  1
  Mn3.30+  Mn93  1  0.00021602  0.50101407  0.75120742  1
  Mn3.30+  Mn94  1  0.00020136  0.83147798  0.25006464  1
  Mn3.30+  Mn95  1  0.00312614  0.83062343  0.75043113  1
  Mn3.30+  Mn96  1  0.33304735  0.16900374  0.24964023  1
  Mn3.30+  Mn97  1  0.33400704  0.16736106  0.75047944  1
  Mn3.30+  Mn98  1  0.33147621  0.50321391  0.24884441  1
  Mn3.30+  Mn99  1  0.33310681  0.49898387  0.74857639  1
  Mn3.30+  Mn100  1  0.33474393  0.83197303  0.24982194  1
  Mn3.30+  Mn101  1  0.33152584  0.83406866  0.75015991  1
  Mn3.30+  Mn102  1  0.66709775  0.16761120  0.24958348  1
  Mn3.30+  Mn103  1  0.66533064  0.16669647  0.74890485  1
  Mn3.30+  Mn104  1  0.66564141  0.49984423  0.24910809  1
  Mn3.30+  Mn105  1  0.66305831  0.50154061  0.75039490  1
  Mn3.30+  Mn106  1  0.66803512  0.83172996  0.25032604  1
  Mn3.30+  Mn107  1  0.66787135  0.83367406  0.74872727  1
  Mn3.30+  Mn108  1  0.16700867  -0.00102141  0.24973186  1
  Mn3.30+  Mn109  1  0.16976778  -0.00190249  0.75034235  1
  Mn3.30+  Mn110  1  0.16315666  0.33539226  0.24760928  1
  Mn3.30+  Mn111  1  0.16924742  0.33431369  0.75204082  1
  Mn3.30+  Mn112  1  0.16912220  0.66466895  0.24952286  1
  Mn3.30+  Mn113  1  0.16720071  0.66760885  0.74964150  1
  Mn3.30+  Mn114  1  0.50121867  -0.00026179  0.25088828  1
  Mn3.30+  Mn115  1  0.50005620  0.00013681  0.74774042  1
  Mn3.30+  Mn116  1  0.49980805  0.33529225  0.24967869  1
  Mn3.30+  Mn117  1  0.49564638  0.33539133  0.74836234  1
  Mn3.30+  Mn118  1  0.49973587  0.66738648  0.24843612  1
  Mn3.30+  Mn119  1  0.49806960  0.66527751  0.74833705  1
  Mn3.30+  Mn120  1  0.83305441  -0.00143466  0.25065402  1
  Mn3.30+  Mn121  1  0.83372271  -0.00100382  0.74893461  1
  Mn3.30+  Mn122  1  0.83504799  0.33397385  0.25019454  1
  Mn3.30+  Mn123  1  0.83223341  0.33348240  0.74933967  1
  Mn3.30+  Mn124  1  0.83259767  0.66638837  0.24789304  1
  Mn3.30+  Mn125  1  0.83461268  0.66587009  0.75254219  1
  Mn3.30+  Mn126  1  0.00062849  0.16713147  0.00025396  1
  Mn3.30+  Mn127  1  0.00118985  0.16655958  0.50033784  1
  Mn3.30+  Mn128  1  0.00061098  0.50000000  0.00239738  1
  Mn3.30+  Mn129  1  0.00045986  0.49758805  0.49900519  1
  Mn3.30+  Mn130  1  0.00359961  0.83044663  -0.00059083  1
  Mn3.30+  Mn131  1  -0.00066482  0.83124596  0.49929971  1
  Mn3.30+  Mn132  1  0.33393746  0.16863843  -0.00028900  1
  Mn3.30+  Mn133  1  0.33299713  0.16843153  0.49998369  1
  Mn3.30+  Mn134  1  0.33066894  0.50194883  0.00018809  1
  Mn3.30+  Mn135  1  0.33370252  0.50025260  0.50226396  1
  Mn3.30+  Mn136  1  0.33234581  0.83270182  -0.00227366  1
  Mn3.30+  Mn137  1  0.33347901  0.83349617  0.50284479  1
  Mn3.30+  Mn138  1  0.66663332  0.16823176  0.00031652  1
  Mn3.30+  Mn139  1  0.66554595  0.16637781  0.50127260  1
  Mn3.30+  Mn140  1  0.66484369  0.50036595  0.00047733  1
  Mn3.30+  Mn141  1  0.66410812  0.50115218  0.50021163  1
  Mn3.30+  Mn142  1  0.66696185  0.83238511  -0.00007001  1
  Mn3.30+  Mn143  1  0.66870582  0.83284273  0.50147383  1
  O2-  O144  1  0.02377453  0.15815602  0.12613109  1
  O2-  O145  1  0.02822851  0.15902614  0.62478345  1
  O2-  O146  1  0.02768289  0.49245724  0.12520205  1
  O2-  O147  1  0.02481742  0.49209642  0.62357994  1
  O2-  O148  1  0.02877352  0.82639161  0.12490468  1
  O2-  O149  1  0.01795445  0.83427453  0.62431824  1
  O2-  O150  1  0.35823447  0.16278669  0.12578937  1
  O2-  O151  1  0.35480801  0.15904479  0.62468025  1
  O2-  O152  1  0.35874403  0.49494540  0.12306447  1
  O2-  O153  1  0.35714722  0.48815188  0.62755889  1
  O2-  O154  1  0.35554967  0.82632300  0.12425255  1
  O2-  O155  1  0.35673614  0.82528279  0.62540628  1
  O2-  O156  1  0.69436952  0.15756838  0.12338898  1
  O2-  O157  1  0.69197208  0.16187621  0.62303862  1
  O2-  O158  1  0.68978749  0.49037478  0.12530983  1
  O2-  O159  1  0.69266302  0.49705326  0.62425712  1
  O2-  O160  1  0.69091077  0.83144563  0.12364607  1
  O2-  O161  1  0.69620318  0.82390833  0.62437807  1
  O2-  O162  1  0.13742070  0.32669105  0.12424135  1
  O2-  O163  1  0.14263994  0.32968122  0.62510469  1
  O2-  O164  1  0.14446108  0.66967360  0.12507283  1
  O2-  O165  1  0.14691881  0.66223141  0.62462580  1
  O2-  O166  1  0.14153947  0.99032070  0.12559660  1
  O2-  O167  1  0.14432364  0.99918275  0.62341338  1
  O2-  O168  1  0.47332482  0.33053420  0.12343892  1
  O2-  O169  1  0.46991637  0.32468726  0.62565166  1
  O2-  O170  1  0.47184072  0.66368737  0.12392008  1
  O2-  O171  1  0.47278633  0.66139976  0.62593129  1
  O2-  O172  1  0.47592056  0.99085678  0.12782805  1
  O2-  O173  1  0.47259491  0.99482250  0.62505627  1
  O2-  O174  1  0.80393103  0.32937139  0.12682949  1
  O2-  O175  1  0.80530289  0.32747249  0.62499087  1
  O2-  O176  1  0.80437470  0.66027298  0.12545303  1
  O2-  O177  1  0.80987649  0.66197651  0.62597359  1
  O2-  O178  1  0.80772242  0.99199455  0.12585848  1
  O2-  O179  1  0.80523964  0.99044278  0.62514183  1
  O2-  O180  1  0.30873078  0.16956021  0.37215566  1
  O2-  O181  1  0.31775604  0.17344763  0.87712270  1
  O2-  O182  1  0.30929852  0.50387917  0.37387705  1
  O2-  O183  1  0.30681610  0.51017769  0.87578875  1
  O2-  O184  1  0.31160741  0.84145529  0.37619231  1
  O2-  O185  1  0.30934866  0.83539362  0.87447039  1
  O2-  O186  1  0.64044428  0.17365006  0.37707340  1
  O2-  O187  1  0.63925450  0.17427665  0.87630185  1
  O2-  O188  1  0.63865855  0.50635638  0.37493638  1
  O2-  O189  1  0.63913205  0.50066976  0.87559141  1
  O2-  O190  1  0.64045220  0.83680562  0.37775673  1
  O2-  O191  1  0.64119614  0.83991178  0.87459823  1
  O2-  O192  1  0.97528235  0.17370115  0.37483562  1
  O2-  O193  1  0.97535288  0.17073200  0.87418871  1
  O2-  O194  1  0.97632911  0.50718228  0.37245831  1
  O2-  O195  1  0.97560298  0.50674472  0.87835471  1
  O2-  O196  1  0.97279670  0.83721340  0.37344481  1
  O2-  O197  1  0.97517783  0.84015288  0.87641431  1
  O2-  O198  1  0.19209199  0.00593093  0.37467637  1
  O2-  O199  1  0.18427118  0.00387627  0.87627812  1
  O2-  O200  1  0.18552187  0.33752170  0.37329654  1
  O2-  O201  1  0.19253694  0.34266186  0.87708739  1
  O2-  O202  1  0.18467899  0.66714467  0.37490238  1
  O2-  O203  1  0.18948575  0.66330617  0.87473178  1
  O2-  O204  1  0.52759913  0.00680921  0.37504352  1
  O2-  O205  1  0.52564844  0.00520197  0.87282351  1
  O2-  O206  1  0.52425812  0.33970097  0.37684739  1
  O2-  O207  1  0.52521080  0.33851608  0.87452483  1
  O2-  O208  1  0.52523731  0.67124767  0.37592174  1
  O2-  O209  1  0.51855551  0.67113999  0.87446115  1
  O2-  O210  1  0.85967768  0.00794657  0.37468005  1
  O2-  O211  1  0.86299665  0.00706557  0.87367486  1
  O2-  O212  1  0.86282644  0.33873258  0.37466254  1
  O2-  O213  1  0.85835873  0.33984271  0.87371098  1
  O2-  O214  1  0.85923843  0.67010993  0.37019590  1
  O2-  O215  1  0.86123651  0.66898582  0.87806272  1
  O2-  O216  1  0.24003431  0.09258021  0.02275757  1
  O2-  O217  1  0.23728292  0.09928627  0.51468062  1
  O2-  O218  1  0.23570553  0.43173919  0.02359505  1
  O2-  O219  1  0.23435126  0.43004911  0.51463450  1
  O2-  O220  1  0.23723239  0.76231074  0.01440668  1
  O2-  O221  1  0.24102525  0.76206330  0.51093649  1
  O2-  O222  1  0.57379385  0.09571673  0.02121131  1
  O2-  O223  1  0.56948989  0.09495596  0.52019744  1
  O2-  O224  1  0.56762457  0.43020176  0.01743619  1
  O2-  O225  1  0.57009385  0.42872462  0.52312941  1
  O2-  O226  1  0.56996349  0.76107498  0.01807865  1
  O2-  O227  1  0.57352690  0.76135587  0.52315168  1
  O2-  O228  1  0.90319374  0.09427590  0.02102340  1
  O2-  O229  1  0.90513147  0.09243548  0.52194886  1
  O2-  O230  1  0.90365947  0.42916290  0.01893683  1
  O2-  O231  1  0.90403951  0.42631140  0.52155405  1
  O2-  O232  1  0.90761952  0.76046365  0.02283277  1
  O2-  O233  1  0.90369590  0.76115230  0.51623487  1
  O2-  O234  1  0.25656772  0.26359435  0.22573724  1
  O2-  O235  1  0.26131161  0.26125186  0.72986278  1
  O2-  O236  1  0.26190630  0.59662162  0.22748701  1
  O2-  O237  1  0.26281871  0.59369108  0.72853593  1
  O2-  O238  1  0.26468890  0.92715592  0.23021068  1
  O2-  O239  1  0.26433985  0.92975228  0.72973554  1
  O2-  O240  1  0.59814739  0.26205775  0.22913447  1
  O2-  O241  1  0.59307520  0.26400838  0.72868654  1
  O2-  O242  1  0.59496905  0.59764607  0.22772857  1
  O2-  O243  1  0.59308240  0.59424732  0.72978636  1
  O2-  O244  1  0.59610592  0.92870724  0.23162376  1
  O2-  O245  1  0.59703237  0.92948409  0.72725343  1
  O2-  O246  1  0.92744687  0.26137150  0.22491646  1
  O2-  O247  1  0.92714992  0.25832385  0.72893595  1
  O2-  O248  1  0.92784138  0.59197985  0.22740785  1
  O2-  O249  1  0.92416716  0.58937722  0.73101424  1
  O2-  O250  1  0.92908461  0.92637360  0.22805215  1
  O2-  O251  1  0.92837464  0.92774664  0.73068075  1
  O2-  O252  1  0.09572445  0.23540567  0.26713349  1
  O2-  O253  1  0.09357645  0.24376279  0.76757867  1
  O2-  O254  1  0.09316876  0.57273555  0.26758185  1
  O2-  O255  1  0.09624462  0.57058245  0.76576416  1
  O2-  O256  1  0.09601845  0.90518644  0.27247318  1
  O2-  O257  1  0.09431572  0.90416880  0.77066398  1
  O2-  O258  1  0.43332969  0.23871625  0.26582591  1
  O2-  O259  1  0.43124521  0.23769149  0.76740216  1
  O2-  O260  1  0.43202762  0.57180186  0.26651040  1
  O2-  O261  1  0.42468985  0.57211546  0.77175214  1
  O2-  O262  1  0.43098740  0.90679224  0.27150618  1
  O2-  O263  1  0.43273478  0.90290909  0.76608012  1
  O2-  O264  1  0.76452450  0.23915513  0.27234626  1
  O2-  O265  1  0.76003741  0.23914331  0.77056288  1
  O2-  O266  1  0.76121500  0.57100628  0.27138227  1
  O2-  O267  1  0.76256931  0.57183375  0.76763929  1
  O2-  O268  1  0.76229310  0.90400883  0.27235845  1
  O2-  O269  1  0.76389470  0.90628499  0.77364633  1
  O2-  O270  1  0.07133235  0.07112738  0.47793959  1
  O2-  O271  1  0.06990419  0.06743090  0.98652835  1
  O2-  O272  1  0.06873842  0.40209378  0.48006618  1
  O2-  O273  1  0.07109793  0.40705178  0.97572898  1
  O2-  O274  1  0.07210165  0.73993396  0.47825894  1
  O2-  O275  1  0.06949668  0.73373334  0.98060557  1
  O2-  O276  1  0.40616234  0.07521527  0.47738614  1
  O2-  O277  1  0.40962274  0.07228056  0.98531087  1
  O2-  O278  1  0.40714449  0.40927635  0.47987869  1
  O2-  O279  1  0.40086631  0.40489490  0.97830471  1
  O2-  O280  1  0.41163290  0.74394051  0.48207301  1
  O2-  O281  1  0.40552083  0.73997869  0.97857073  1
  O2-  O282  1  0.74256854  0.07082707  0.47781650  1
  O2-  O283  1  0.73704133  0.07336574  0.97681260  1
  O2-  O284  1  0.73728948  0.40650369  0.47870248  1
  O2-  O285  1  0.73867898  0.40674504  0.97750679  1
  O2-  O286  1  0.73651161  0.73625399  0.48027807  1
  O2-  O287  1  0.74430796  0.74353089  0.98139974  1
  O2-  O288  1  0.09815364  0.23681768  0.48335722  1
  O2-  O289  1  0.09231029  0.24103355  0.98151706  1
  O2-  O290  1  0.09389704  0.56934865  0.48063738  1
  O2-  O291  1  0.09500662  0.57196623  0.98559438  1
  O2-  O292  1  0.09187397  0.90574881  0.47711673  1
  O2-  O293  1  0.09702046  0.90106002  0.97948267  1
  O2-  O294  1  0.43018093  0.23649232  0.48257910  1
  O2-  O295  1  0.43320232  0.23852383  0.98477221  1
  O2-  O296  1  0.43030332  0.57153952  0.48341626  1
  O2-  O297  1  0.42807561  0.57133356  0.97994391  1
  O2-  O298  1  0.43126109  0.90694146  0.48049276  1
  O2-  O299  1  0.42994646  0.90172682  0.98370244  1
  O2-  O300  1  0.76202391  0.24045146  0.47832725  1
  O2-  O301  1  0.76192712  0.23796962  0.97807333  1
  O2-  O302  1  0.76139502  0.57262338  0.47872661  1
  O2-  O303  1  0.76187212  0.56845520  0.98225647  1
  O2-  O304  1  0.76359236  0.90263602  0.47630591  1
  O2-  O305  1  0.76323620  0.90807449  0.97770234  1
  O2-  O306  1  0.06967273  0.07175120  0.27042658  1
  O2-  O307  1  0.07009931  0.06841045  0.76510471  1
  O2-  O308  1  0.07033045  0.40501519  0.27376505  1
  O2-  O309  1  0.07039396  0.40616843  0.77107152  1
  O2-  O310  1  0.07255634  0.73756699  0.27045908  1
  O2-  O311  1  0.07168684  0.73751580  0.77076976  1
  O2-  O312  1  0.40795277  0.07043133  0.26993239  1
  O2-  O313  1  0.41066611  0.07636827  0.76809921  1
  O2-  O314  1  0.40478761  0.40959561  0.26541059  1
  O2-  O315  1  0.40300355  0.40542386  0.77655288  1
  O2-  O316  1  0.40985160  0.74355146  0.27000339  1
  O2-  O317  1  0.40747210  0.74159150  0.77044632  1
  O2-  O318  1  0.73684581  0.07208169  0.27152809  1
  O2-  O319  1  0.74172048  0.07301772  0.77260508  1
  O2-  O320  1  0.74126538  0.40592293  0.27554632  1
  O2-  O321  1  0.73567731  0.40674734  0.76927939  1
  O2-  O322  1  0.73851521  0.73876322  0.26922221  1
  O2-  O323  1  0.74253400  0.74035483  0.76959258  1
  O2-  O324  1  0.23691383  0.09329784  0.22787402  1
  O2-  O325  1  0.24005121  0.09524424  0.73315486  1
  O2-  O326  1  0.23523837  0.43031366  0.22881533  1
  O2-  O327  1  0.23529430  0.43090788  0.73292130  1
  O2-  O328  1  0.23660073  0.76309614  0.23754895  1
  O2-  O329  1  0.24111216  0.75809130  0.73717544  1
  O2-  O330  1  0.57080587  0.09408910  0.22763231  1
  O2-  O331  1  0.57267846  0.09588588  0.73058421  1
  O2-  O332  1  0.57018374  0.42938745  0.23232850  1
  O2-  O333  1  0.56693324  0.42796705  0.72705970  1
  O2-  O334  1  0.57123954  0.76275667  0.23148697  1
  O2-  O335  1  0.57289344  0.76067766  0.72859567  1
  O2-  O336  1  0.90422108  0.09537024  0.23002941  1
  O2-  O337  1  0.90372320  0.09221559  0.72623576  1
  O2-  O338  1  0.90222229  0.42943256  0.23009723  1
  O2-  O339  1  0.90502947  0.42582543  0.72897617  1
  O2-  O340  1  0.90712402  0.75716347  0.22390312  1
  O2-  O341  1  0.90373880  0.76276629  0.73531666  1
  O2-  O342  1  0.25821107  0.26245380  0.02209413  1
  O2-  O343  1  0.26153386  0.26234369  0.52220494  1
  O2-  O344  1  0.26327982  0.59907422  0.01882476  1
  O2-  O345  1  0.26329808  0.59157369  0.52418944  1
  O2-  O346  1  0.26184449  0.92710959  0.02329565  1
  O2-  O347  1  0.26628229  0.93240381  0.51642129  1
  O2-  O348  1  0.59736181  0.26312100  0.02232169  1
  O2-  O349  1  0.59139836  0.26486801  0.52164239  1
  O2-  O350  1  0.59375993  0.59405832  0.02408509  1
  O2-  O351  1  0.59649850  0.59782891  0.51835678  1
  O2-  O352  1  0.59487537  0.92867524  0.01932773  1
  O2-  O353  1  0.59856188  0.92791727  0.52191334  1
  O2-  O354  1  0.92633236  0.26242378  0.02036922  1
  O2-  O355  1  0.92729331  0.25769886  0.52525925  1
  O2-  O356  1  0.92602357  0.59101450  0.02651646  1
  O2-  O357  1  0.92550816  0.59009537  0.51563759  1
  O2-  O358  1  0.93078956  0.92512737  0.02142341  1
  O2-  O359  1  0.92720566  0.92840524  0.51911993  1
