# generated using pymatgen
data_Sr7Ca15Pr50Mn72O216
_symmetry_space_group_name_H-M   'P 1'
_cell_length_a   16.55527942
_cell_length_b   16.60017469
_cell_length_c   15.59071546
_cell_angle_alpha   89.99281174
_cell_angle_beta   89.99763050
_cell_angle_gamma   90.00339603
_symmetry_Int_Tables_number   1
_chemical_formula_structural   Sr7Ca15Pr50Mn72O216
_chemical_formula_sum   'Sr7 Ca15 Pr50 Mn72 O216'
_cell_volume   4284.64864773
_cell_formula_units_Z   1
loop_
 _symmetry_equiv_pos_site_id
 _symmetry_equiv_pos_as_xyz
  1  'x, y, z'
loop_
 _atom_type_symbol
 _atom_type_oxidation_number
  Sr2+  2.0
  Ca2+  2.0
  Pr3+  3.0
  Mn3.30+  3.3
  O2-  -2.0
loop_
 _atom_site_type_symbol
 _atom_site_label
 _atom_site_symmetry_multiplicity
 _atom_site_fract_x
 _atom_site_fract_y
 _atom_site_fract_z
 _atom_site_occupancy
  Sr2+  Sr0  1  0.32971275  0.33966893  0.12315764  1
  Sr2+  Sr1  1  0.16840870  0.17471631  0.62792464  1
  Sr2+  Sr2  1  1.00301346  0.99352832  0.87642581  1
  Sr2+  Sr3  1  0.66816727  0.98931143  0.37644335  1
  Sr2+  Sr4  1  0.33038124  0.01101686  0.12523519  1
  Sr2+  Sr5  1  0.49944662  0.15864031  0.87563604  1
  Sr2+  Sr6  1  0.16341630  0.15734635  0.87681998  1
  Ca2+  Ca7  1  0.66160360  0.34725705  0.62858446  1
  Ca2+  Ca8  1  0.83736928  0.17979967  0.12358918  1
  Ca2+  Ca9  1  0.67038576  0.65224863  0.37514802  1
  Ca2+  Ca10  1  0.33121441  0.68013331  0.62594554  1
  Ca2+  Ca11  1  1.00409339  0.65349864  0.87805750  1
  Ca2+  Ca12  1  -0.00361783  0.01883647  0.12295136  1
  Ca2+  Ca13  1  0.32905352  0.01686802  0.62585762  1
  Ca2+  Ca14  1  0.16826814  0.17903380  0.12140110  1
  Ca2+  Ca15  1  0.84016451  0.51760519  0.12338369  1
  Ca2+  Ca16  1  1.00289441  0.31662387  0.87699543  1
  Ca2+  Ca17  1  -0.00456393  0.67858031  0.12297730  1
  Ca2+  Ca18  1  0.16324340  0.48452349  0.37423899  1
  Ca2+  Ca19  1  0.67172757  0.65171579  0.87442028  1
  Ca2+  Ca20  1  0.66282357  0.01548537  0.62498478  1
  Ca2+  Ca21  1  0.67063733  0.31660604  0.87375851  1
  Pr3+  Pr22  1  0.50259862  0.51183275  0.62582659  1
  Pr3+  Pr23  1  1.00183983  0.98718866  0.37377135  1
  Pr3+  Pr24  1  0.50150900  0.51064821  0.12383248  1
  Pr3+  Pr25  1  0.82726871  0.81661108  0.37460579  1
  Pr3+  Pr26  1  0.50204008  0.84895747  0.62529991  1
  Pr3+  Pr27  1  0.50055307  0.48830928  0.37428665  1
  Pr3+  Pr28  1  0.33451152  0.31827597  0.87678194  1
  Pr3+  Pr29  1  0.49706946  0.15383433  0.37453511  1
  Pr3+  Pr30  1  0.33058245  0.67852023  0.12440232  1
  Pr3+  Pr31  1  0.33731701  0.98759413  0.37621306  1
  Pr3+  Pr32  1  0.66371306  0.67804348  0.62580895  1
  Pr3+  Pr33  1  0.33414965  0.99253770  0.87386481  1
  Pr3+  Pr34  1  0.66424245  0.01364871  0.12521740  1
  Pr3+  Pr35  1  -0.00091956  0.01444135  0.62571816  1
  Pr3+  Pr36  1  0.83350022  0.51079559  0.62627026  1
  Pr3+  Pr37  1  0.16844234  0.51020397  0.12545794  1
  Pr3+  Pr38  1  0.17215577  0.84729624  0.62522192  1
  Pr3+  Pr39  1  0.49947305  0.81998044  0.37471372  1
  Pr3+  Pr40  1  0.67057259  0.32070071  0.37589047  1
  Pr3+  Pr41  1  0.16457455  0.15475770  0.37327880  1
  Pr3+  Pr42  1  0.16540921  0.82127019  0.37445090  1
  Pr3+  Pr43  1  0.50122934  0.17956175  0.12367984  1
  Pr3+  Pr44  1  0.83486430  0.84715588  0.62476758  1
  Pr3+  Pr45  1  0.33592422  0.65250445  0.37567995  1
  Pr3+  Pr46  1  -0.00280854  0.67942806  0.62690916  1
  Pr3+  Pr47  1  0.33351249  0.32133861  0.37345661  1
  Pr3+  Pr48  1  0.49840625  0.82300362  0.87511157  1
  Pr3+  Pr49  1  0.66751887  0.67758591  0.12367864  1
  Pr3+  Pr50  1  0.16143146  0.82307871  0.87569435  1
  Pr3+  Pr51  1  0.16004021  0.48497994  0.87603020  1
  Pr3+  Pr52  1  0.82987454  0.15298291  0.37290620  1
  Pr3+  Pr53  1  0.33571318  0.65518427  0.87471559  1
  Pr3+  Pr54  1  0.50356523  0.84705717  0.12422679  1
  Pr3+  Pr55  1  0.50369267  0.18054576  0.62628185  1
  Pr3+  Pr56  1  0.67143321  0.98923825  0.87318095  1
  Pr3+  Pr57  1  0.83221097  0.81831528  0.87484087  1
  Pr3+  Pr58  1  0.83099466  0.48498878  0.87686958  1
  Pr3+  Pr59  1  0.50076118  0.48781873  0.87538716  1
  Pr3+  Pr60  1  0.16450889  0.84507255  0.12480906  1
  Pr3+  Pr61  1  0.83350733  0.17857186  0.62515570  1
  Pr3+  Pr62  1  0.66677678  0.34476605  0.12154284  1
  Pr3+  Pr63  1  -0.00424734  0.34433653  0.12171430  1
  Pr3+  Pr64  1  0.83986769  0.84652327  0.12519070  1
  Pr3+  Pr65  1  0.83170876  0.15563600  0.87709593  1
  Pr3+  Pr66  1  -0.00170377  0.34376068  0.62865270  1
  Pr3+  Pr67  1  1.00508033  0.65038170  0.37382260  1
  Pr3+  Pr68  1  0.82930118  0.48904167  0.37291391  1
  Pr3+  Pr69  1  1.00199086  0.32235119  0.37433754  1
  Pr3+  Pr70  1  0.17117908  0.51409793  0.62495895  1
  Pr3+  Pr71  1  0.32890906  0.34284583  0.62770137  1
  Mn3.30+  Mn72  1  0.16429087  0.00175491  0.00292303  1
  Mn3.30+  Mn73  1  0.16904698  0.00044209  0.49945105  1
  Mn3.30+  Mn74  1  0.16316581  0.33139121  0.00040579  1
  Mn3.30+  Mn75  1  0.16632576  0.33402038  0.50016666  1
  Mn3.30+  Mn76  1  0.16294710  0.66644373  0.00097649  1
  Mn3.30+  Mn77  1  0.16841255  0.66581431  0.50000776  1
  Mn3.30+  Mn78  1  0.50065389  0.00166525  -0.00116839  1
  Mn3.30+  Mn79  1  0.50013173  0.00083059  0.50231505  1
  Mn3.30+  Mn80  1  0.50105501  0.33362692  -0.00121217  1
  Mn3.30+  Mn81  1  0.50066321  0.33422216  0.50058192  1
  Mn3.30+  Mn82  1  0.50246357  0.66692639  -0.00155182  1
  Mn3.30+  Mn83  1  0.50039803  0.66633000  0.50026483  1
  Mn3.30+  Mn84  1  0.83624752  0.00072441  0.00091440  1
  Mn3.30+  Mn85  1  0.83157811  -0.00007070  0.50082943  1
  Mn3.30+  Mn86  1  0.83329097  0.33254776  -0.00118341  1
  Mn3.30+  Mn87  1  0.83157306  0.33433687  0.50227103  1
  Mn3.30+  Mn88  1  0.83581348  0.66518452  -0.00175869  1
  Mn3.30+  Mn89  1  0.83238646  0.66516148  0.50028582  1
  Mn3.30+  Mn90  1  -0.00097823  0.16698865  0.24760985  1
  Mn3.30+  Mn91  1  0.00005594  0.16805661  0.75082646  1
  Mn3.30+  Mn92  1  -0.00065186  0.50011257  0.24824857  1
  Mn3.30+  Mn93  1  -0.00013581  0.50047294  0.75185695  1
  Mn3.30+  Mn94  1  -0.00146835  0.83252674  0.24951616  1
  Mn3.30+  Mn95  1  0.00064793  0.83365878  0.75097924  1
  Mn3.30+  Mn96  1  0.33004071  0.16640175  0.24808091  1
  Mn3.30+  Mn97  1  0.33410089  0.16525590  0.75069778  1
  Mn3.30+  Mn98  1  0.33157400  0.49864634  0.25049314  1
  Mn3.30+  Mn99  1  0.33290857  0.50107016  0.75068342  1
  Mn3.30+  Mn100  1  0.33260749  0.83315901  0.24939172  1
  Mn3.30+  Mn101  1  0.33309226  0.83389733  0.74929030  1
  Mn3.30+  Mn102  1  0.66886343  0.16705227  0.24842321  1
  Mn3.30+  Mn103  1  0.66644049  0.16725963  0.74979895  1
  Mn3.30+  Mn104  1  0.66958764  0.50100123  0.24669636  1
  Mn3.30+  Mn105  1  0.66734417  0.49839089  0.75223908  1
  Mn3.30+  Mn106  1  0.66865099  0.83185994  0.25058364  1
  Mn3.30+  Mn107  1  0.66668704  0.83311376  0.74951063  1
  Mn3.30+  Mn108  1  0.16508257  0.00117379  0.24784543  1
  Mn3.30+  Mn109  1  0.16805717  0.00099030  0.75056878  1
  Mn3.30+  Mn110  1  0.16524486  0.33307432  0.24948199  1
  Mn3.30+  Mn111  1  0.16397817  0.33233395  0.75086552  1
  Mn3.30+  Mn112  1  0.16484105  0.66469792  0.24939791  1
  Mn3.30+  Mn113  1  0.16664213  0.66720007  0.75088206  1
  Mn3.30+  Mn114  1  0.50019491  0.00011938  0.25001152  1
  Mn3.30+  Mn115  1  0.50077820  0.00189773  0.74860761  1
  Mn3.30+  Mn116  1  0.50090521  0.33390913  0.24865080  1
  Mn3.30+  Mn117  1  0.50123498  0.33358694  0.75165256  1
  Mn3.30+  Mn118  1  0.50212215  0.66612490  0.25011198  1
  Mn3.30+  Mn119  1  0.50034334  0.66716263  0.75051122  1
  Mn3.30+  Mn120  1  0.83476423  0.00076318  0.24822947  1
  Mn3.30+  Mn121  1  0.83311638  0.00007757  0.74897068  1
  Mn3.30+  Mn122  1  0.83397079  0.33430849  0.24744257  1
  Mn3.30+  Mn123  1  0.83058523  0.33284294  0.75097556  1
  Mn3.30+  Mn124  1  0.83466957  0.66519499  0.24849787  1
  Mn3.30+  Mn125  1  0.83368050  0.66513106  0.75247543  1
  Mn3.30+  Mn126  1  0.00014961  0.16702308  0.00231892  1
  Mn3.30+  Mn127  1  -0.00058913  0.16734522  0.49970090  1
  Mn3.30+  Mn128  1  -0.00235205  0.50143724  -0.00032176  1
  Mn3.30+  Mn129  1  0.00121794  0.49904007  0.50080024  1
  Mn3.30+  Mn130  1  -0.00074173  0.83336302  0.00004646  1
  Mn3.30+  Mn131  1  -0.00031793  0.83295175  0.49977086  1
  Mn3.30+  Mn132  1  0.33112090  0.16541590  0.00116857  1
  Mn3.30+  Mn133  1  0.33285910  0.16637631  0.50106202  1
  Mn3.30+  Mn134  1  0.33179480  0.49940941  -0.00008819  1
  Mn3.30+  Mn135  1  0.33290303  0.49979191  0.49985063  1
  Mn3.30+  Mn136  1  0.33147978  0.83492708  -0.00025233  1
  Mn3.30+  Mn137  1  0.33426758  0.83220271  0.50164302  1
  Mn3.30+  Mn138  1  0.66857367  0.16732558  -0.00068196  1
  Mn3.30+  Mn139  1  0.66628953  0.16709622  0.50164763  1
  Mn3.30+  Mn140  1  0.67036288  0.49983299  -0.00035129  1
  Mn3.30+  Mn141  1  0.66648485  0.49984442  0.50028804  1
  Mn3.30+  Mn142  1  0.66924648  0.83186025  -0.00131086  1
  Mn3.30+  Mn143  1  0.66653633  0.83381578  0.50028734  1
  O2-  O144  1  0.02576061  0.16564308  0.12755416  1
  O2-  O145  1  0.01813961  0.16394597  0.62293095  1
  O2-  O146  1  0.02575200  0.49151314  0.12415107  1
  O2-  O147  1  0.02663501  0.49310835  0.62767634  1
  O2-  O148  1  0.02137038  0.82127630  0.12662639  1
  O2-  O149  1  0.02611434  0.82681488  0.62417598  1
  O2-  O150  1  0.35732526  0.16634443  0.12605903  1
  O2-  O151  1  0.35822988  0.16544085  0.62553855  1
  O2-  O152  1  0.35719862  0.49851177  0.12459889  1
  O2-  O153  1  0.35936534  0.49008865  0.62547291  1
  O2-  O154  1  0.35926219  0.82673996  0.12492107  1
  O2-  O155  1  0.35898045  0.82279989  0.62528189  1
  O2-  O156  1  0.69373574  0.16177062  0.12393796  1
  O2-  O157  1  0.69035588  0.16003325  0.62463428  1
  O2-  O158  1  0.69729094  0.49174059  0.12312026  1
  O2-  O159  1  0.68950310  0.49295416  0.62900555  1
  O2-  O160  1  0.69448454  0.82519263  0.12456898  1
  O2-  O161  1  0.69209746  0.82383379  0.62587683  1
  O2-  O162  1  0.14103852  0.32876277  0.12542648  1
  O2-  O163  1  0.14338078  0.33212597  0.62543372  1
  O2-  O164  1  0.13777258  0.65840871  0.12621684  1
  O2-  O165  1  0.14035339  0.66168958  0.62563799  1
  O2-  O166  1  0.13778866  0.99073594  0.12781367  1
  O2-  O167  1  0.14279137  0.99423712  0.62176466  1
  O2-  O168  1  0.48092626  0.33123126  0.12449865  1
  O2-  O169  1  0.47352394  0.33121608  0.62617944  1
  O2-  O170  1  0.47478935  0.66085844  0.12496702  1
  O2-  O171  1  0.47311284  0.65943560  0.62707836  1
  O2-  O172  1  0.48149495  0.99468964  0.12426609  1
  O2-  O173  1  0.47076697  0.99585398  0.62468315  1
  O2-  O174  1  0.80854653  0.32373845  0.12410159  1
  O2-  O175  1  0.80298248  0.32812591  0.62605653  1
  O2-  O176  1  0.81032119  0.66493975  0.12162415  1
  O2-  O177  1  0.80780236  0.66018785  0.62581853  1
  O2-  O178  1  0.80625995  0.99217092  0.12333698  1
  O2-  O179  1  0.80593296  0.99488574  0.62386138  1
  O2-  O180  1  0.31016671  0.17211676  0.37371801  1
  O2-  O181  1  0.31487195  0.16815994  0.87564069  1
  O2-  O182  1  0.30586789  0.50615865  0.37608017  1
  O2-  O183  1  0.30524050  0.50826417  0.87475510  1
  O2-  O184  1  0.30986696  0.83859349  0.37536163  1
  O2-  O185  1  0.30695046  0.84191841  0.87456592  1
  O2-  O186  1  0.64184599  0.17344846  0.37627713  1
  O2-  O187  1  0.64871749  0.16890015  0.87436649  1
  O2-  O188  1  0.64463410  0.50669743  0.37114873  1
  O2-  O189  1  0.64321426  0.50934588  0.87547976  1
  O2-  O190  1  0.64275683  0.83663041  0.37579052  1
  O2-  O191  1  0.64206058  0.84199427  0.87256866  1
  O2-  O192  1  0.97311062  0.17238313  0.37530143  1
  O2-  O193  1  0.97570830  0.16924987  0.87483040  1
  O2-  O194  1  0.97316502  0.50288816  0.37397813  1
  O2-  O195  1  0.97420475  0.51028364  0.87468012  1
  O2-  O196  1  0.97207121  0.83961211  0.37588618  1
  O2-  O197  1  0.97575496  0.84050888  0.87339945  1
  O2-  O198  1  0.19271095  0.00448615  0.37414617  1
  O2-  O199  1  0.18881428  -0.00271961  0.87700744  1
  O2-  O200  1  0.18930208  0.33987920  0.37604093  1
  O2-  O201  1  0.19000408  0.33884730  0.87427852  1
  O2-  O202  1  0.19340211  0.67426986  0.37376178  1
  O2-  O203  1  0.19291904  0.67357475  0.87548363  1
  O2-  O204  1  0.51870163  0.00531943  0.37600918  1
  O2-  O205  1  0.52722150  0.00124826  0.87465598  1
  O2-  O206  1  0.52695417  0.33850005  0.37344707  1
  O2-  O207  1  0.52745294  0.33909913  0.87583131  1
  O2-  O208  1  0.52854474  0.67126411  0.37287125  1
  O2-  O209  1  0.52873812  0.67461479  0.87439557  1
  O2-  O210  1  0.85838439  0.00468895  0.37569209  1
  O2-  O211  1  0.85281560  0.00603336  0.87592831  1
  O2-  O212  1  0.85789671  0.34201095  0.37470405  1
  O2-  O213  1  0.86093097  0.33731664  0.87461925  1
  O2-  O214  1  0.86006701  0.66782725  0.37727409  1
  O2-  O215  1  0.86245126  0.67106897  0.87436696  1
  O2-  O216  1  0.23719897  0.09291301  0.02017821  1
  O2-  O217  1  0.23865425  0.09474295  0.51373148  1
  O2-  O218  1  0.23302508  0.42761580  0.01604823  1
  O2-  O219  1  0.24079732  0.42798348  0.52249532  1
  O2-  O220  1  0.23641506  0.75848839  0.02237411  1
  O2-  O221  1  0.23663708  0.76252511  0.51741835  1
  O2-  O222  1  0.57438751  0.09371388  0.02222939  1
  O2-  O223  1  0.56837323  0.09764150  0.51767930  1
  O2-  O224  1  0.57371117  0.42912778  0.02002567  1
  O2-  O225  1  0.56815093  0.43048494  0.51584496  1
  O2-  O226  1  0.57225652  0.76122907  0.02121076  1
  O2-  O227  1  0.57122758  0.76228558  0.52176047  1
  O2-  O228  1  0.90311703  0.09744061  0.01944498  1
  O2-  O229  1  0.90526672  0.09289187  0.51980732  1
  O2-  O230  1  0.90214076  0.42979650  0.02035280  1
  O2-  O231  1  0.90348306  0.42632458  0.52315311  1
  O2-  O232  1  0.90221219  0.76491021  0.01458244  1
  O2-  O233  1  0.90298111  0.75927608  0.52141621  1
  O2-  O234  1  0.25951518  0.26153758  0.23787621  1
  O2-  O235  1  0.26209584  0.26228170  0.73631336  1
  O2-  O236  1  0.26116653  0.59514116  0.22877500  1
  O2-  O237  1  0.26357223  0.59672535  0.72823552  1
  O2-  O238  1  0.25674663  0.92482185  0.23351193  1
  O2-  O239  1  0.26415319  0.92738834  0.72710136  1
  O2-  O240  1  0.59606041  0.26051067  0.22852889  1
  O2-  O241  1  0.59347908  0.26099054  0.72776989  1
  O2-  O242  1  0.59572883  0.59129998  0.22385293  1
  O2-  O243  1  0.59403141  0.59350944  0.72847483  1
  O2-  O244  1  0.59623425  0.92474710  0.22817369  1
  O2-  O245  1  0.59387942  0.93014404  0.72697660  1
  O2-  O246  1  0.92981788  0.26527174  0.23349448  1
  O2-  O247  1  0.92173146  0.26051189  0.72711821  1
  O2-  O248  1  0.93371255  0.59790596  0.23173805  1
  O2-  O249  1  0.92714105  0.59246277  0.72573061  1
  O2-  O250  1  0.92911732  0.93195493  0.22862605  1
  O2-  O251  1  0.92583564  0.92742557  0.72498410  1
  O2-  O252  1  0.09194162  0.24073942  0.27429023  1
  O2-  O253  1  0.08936197  0.24308907  0.76641845  1
  O2-  O254  1  0.09648038  0.56919672  0.27323377  1
  O2-  O255  1  0.09928938  0.57117126  0.76774284  1
  O2-  O256  1  0.09292900  0.90477373  0.27213572  1
  O2-  O257  1  0.09857400  0.90264694  0.76374450  1
  O2-  O258  1  0.42771741  0.23948191  0.26901363  1
  O2-  O259  1  0.42581440  0.24314587  0.76753895  1
  O2-  O260  1  0.42839212  0.57330152  0.27091399  1
  O2-  O261  1  0.42980621  0.57372847  0.77335160  1
  O2-  O262  1  0.42880261  0.90551965  0.26958857  1
  O2-  O263  1  0.42930098  0.90576356  0.77045565  1
  O2-  O264  1  0.76116612  0.24183071  0.27349684  1
  O2-  O265  1  0.76320086  0.23612700  0.76812050  1
  O2-  O266  1  0.76424250  0.57105296  0.26587227  1
  O2-  O267  1  0.76495374  0.56897961  0.76790920  1
  O2-  O268  1  0.76403056  0.90016383  0.26677739  1
  O2-  O269  1  0.76304886  0.90466645  0.76939958  1
  O2-  O270  1  0.07283371  0.07101841  0.47894141  1
  O2-  O271  1  0.07132249  0.07296212  0.98797331  1
  O2-  O272  1  0.06916993  0.40483200  0.48273701  1
  O2-  O273  1  0.06733977  0.40595523  0.97868193  1
  O2-  O274  1  0.07037540  0.73847469  0.47872628  1
  O2-  O275  1  0.07215128  0.73916847  0.97738204  1
  O2-  O276  1  0.40587240  0.07353777  0.47890539  1
  O2-  O277  1  0.40585203  0.07174175  0.98268361  1
  O2-  O278  1  0.40527785  0.40531330  0.47743205  1
  O2-  O279  1  0.40786016  0.40933727  0.97634899  1
  O2-  O280  1  0.40845285  0.73810623  0.47592975  1
  O2-  O281  1  0.40453358  0.74146329  0.97883166  1
  O2-  O282  1  0.74347904  0.07514373  0.48054744  1
  O2-  O283  1  0.73832773  0.07073385  0.98105796  1
  O2-  O284  1  0.73937482  0.40654172  0.47806236  1
  O2-  O285  1  0.73673940  0.40243732  0.97708700  1
  O2-  O286  1  0.73862272  0.73439882  0.47956509  1
  O2-  O287  1  0.73900805  0.73592354  0.97621433  1
  O2-  O288  1  0.09246633  0.24055244  0.47751303  1
  O2-  O289  1  0.08979605  0.24193227  0.98355059  1
  O2-  O290  1  0.09836448  0.57163479  0.47926303  1
  O2-  O291  1  0.09675168  0.56997049  0.98122591  1
  O2-  O292  1  0.09659289  0.90587117  0.47845419  1
  O2-  O293  1  0.09503230  0.90115721  0.98608255  1
  O2-  O294  1  0.42992002  0.23984231  0.47918591  1
  O2-  O295  1  0.42498531  0.24287496  0.98501254  1
  O2-  O296  1  0.42853560  0.57016203  0.47775049  1
  O2-  O297  1  0.42965854  0.57540122  0.97826925  1
  O2-  O298  1  0.42972897  0.90399037  0.48000456  1
  O2-  O299  1  0.42899272  0.90777457  0.97947203  1
  O2-  O300  1  0.76256132  0.24011175  0.47858474  1
  O2-  O301  1  0.76154494  0.23897497  0.97948394  1
  O2-  O302  1  0.76480423  0.56960524  0.48443514  1
  O2-  O303  1  0.76461259  0.57090930  0.97990271  1
  O2-  O304  1  0.76528114  0.90141640  0.48326369  1
  O2-  O305  1  0.76290994  0.90418542  0.97880135  1
  O2-  O306  1  0.07153547  0.07335126  0.27437068  1
  O2-  O307  1  0.07430149  0.07125928  0.75999160  1
  O2-  O308  1  0.06831161  0.40384514  0.26709817  1
  O2-  O309  1  0.06886238  0.40602943  0.77277025  1
  O2-  O310  1  0.07444339  0.73883229  0.27458909  1
  O2-  O311  1  0.07112827  0.73615962  0.77101244  1
  O2-  O312  1  0.40407317  0.07419055  0.27062247  1
  O2-  O313  1  0.40727346  0.07111742  0.76846042  1
  O2-  O314  1  0.40805611  0.40880554  0.27334491  1
  O2-  O315  1  0.40434496  0.40693256  0.77363080  1
  O2-  O316  1  0.40559184  0.73875992  0.27085369  1
  O2-  O317  1  0.40589188  0.74173408  0.77474506  1
  O2-  O318  1  0.74040226  0.07270796  0.26741586  1
  O2-  O319  1  0.74056425  0.07275914  0.76907589  1
  O2-  O320  1  0.73759457  0.40475822  0.26981374  1
  O2-  O321  1  0.73866213  0.40395610  0.77554305  1
  O2-  O322  1  0.73679573  0.73517927  0.27122789  1
  O2-  O323  1  0.73952938  0.73565958  0.77148080  1
  O2-  O324  1  0.23296981  0.09773511  0.23219006  1
  O2-  O325  1  0.24374618  0.09023952  0.73458395  1
  O2-  O326  1  0.23618771  0.42737822  0.23208149  1
  O2-  O327  1  0.23682167  0.42765462  0.73084781  1
  O2-  O328  1  0.23792413  0.75865777  0.22767928  1
  O2-  O329  1  0.23584837  0.76268677  0.73255336  1
  O2-  O330  1  0.57176869  0.09506555  0.23057655  1
  O2-  O331  1  0.57228067  0.09548563  0.72880096  1
  O2-  O332  1  0.57507977  0.42933922  0.22840884  1
  O2-  O333  1  0.56814744  0.43023978  0.73348323  1
  O2-  O334  1  0.57258007  0.76147425  0.22750562  1
  O2-  O335  1  0.57010185  0.76125623  0.72798309  1
  O2-  O336  1  0.90397243  0.09995377  0.23135903  1
  O2-  O337  1  0.90486355  0.09342922  0.72930337  1
  O2-  O338  1  0.90295230  0.43016907  0.22702152  1
  O2-  O339  1  0.90300362  0.42630404  0.72875686  1
  O2-  O340  1  0.90139475  0.76350335  0.23566724  1
  O2-  O341  1  0.90429105  0.76072399  0.72879670  1
  O2-  O342  1  0.25832141  0.25900364  0.01207154  1
  O2-  O343  1  0.26461434  0.26416484  0.51527226  1
  O2-  O344  1  0.26025755  0.59527892  0.02081856  1
  O2-  O345  1  0.26565710  0.59571712  0.52302272  1
  O2-  O346  1  0.25704939  0.92441031  0.02004258  1
  O2-  O347  1  0.26337276  0.92886341  0.52045311  1
  O2-  O348  1  0.59370742  0.25844224  0.02115616  1
  O2-  O349  1  0.59464396  0.26462323  0.52250813  1
  O2-  O350  1  0.59624763  0.59143348  0.02319941  1
  O2-  O351  1  0.59327060  0.59433001  0.52209483  1
  O2-  O352  1  0.59619841  0.92684134  0.01967502  1
  O2-  O353  1  0.59258452  0.92940715  0.52414687  1
  O2-  O354  1  0.92689585  0.26094676  0.01835349  1
  O2-  O355  1  0.92471522  0.26333212  0.52089194  1
  O2-  O356  1  0.93027965  0.59658190  0.02119667  1
  O2-  O357  1  0.93026253  0.59366037  0.52119547  1
  O2-  O358  1  0.92809223  0.92844350  0.02427751  1
  O2-  O359  1  0.92858821  0.92822909  0.52143751  1
