# generated using pymatgen
data_Sr7Ca15Pr50Mn72O216
_symmetry_space_group_name_H-M   'P 1'
_cell_length_a   16.55982289
_cell_length_b   16.60448312
_cell_length_c   15.59186216
_cell_angle_alpha   90.00068561
_cell_angle_beta   89.99997898
_cell_angle_gamma   90.00147522
_symmetry_Int_Tables_number   1
_chemical_formula_structural   Sr7Ca15Pr50Mn72O216
_chemical_formula_sum   'Sr7 Ca15 Pr50 Mn72 O216'
_cell_volume   4287.25223254
_cell_formula_units_Z   1
loop_
 _symmetry_equiv_pos_site_id
 _symmetry_equiv_pos_as_xyz
  1  'x, y, z'
loop_
 _atom_type_symbol
 _atom_type_oxidation_number
  Sr2+  2.0
  Ca2+  2.0
  Pr3+  3.0
  Mn3.30+  3.3
  O2-  -2.0
loop_
 _atom_site_type_symbol
 _atom_site_label
 _atom_site_symmetry_multiplicity
 _atom_site_fract_x
 _atom_site_fract_y
 _atom_site_fract_z
 _atom_site_occupancy
  Sr2+  Sr0  1  0.16345435  0.50775505  0.62451230  1
  Sr2+  Sr1  1  0.66545887  0.34312993  0.62552972  1
  Sr2+  Sr2  1  0.33071844  0.34130273  0.12497656  1
  Sr2+  Sr3  1  0.83678964  0.50785889  0.62668360  1
  Sr2+  Sr4  1  -0.00442432  0.67680318  0.62276619  1
  Sr2+  Sr5  1  0.16439568  0.49142738  0.37618090  1
  Sr2+  Sr6  1  0.33174191  0.01009444  0.62309335  1
  Ca2+  Ca7  1  0.16340616  0.15423943  0.37500131  1
  Ca2+  Ca8  1  0.50514425  0.84971181  0.12763301  1
  Ca2+  Ca9  1  0.82899355  0.48209596  0.87185036  1
  Ca2+  Ca10  1  0.82761012  0.14955308  0.37617623  1
  Ca2+  Ca11  1  0.67157990  0.98199062  0.37510901  1
  Ca2+  Ca12  1  0.67187462  0.31850547  0.87210852  1
  Ca2+  Ca13  1  0.17101749  0.18113730  0.12816749  1
  Ca2+  Ca14  1  0.82631827  0.81690411  0.37759664  1
  Ca2+  Ca15  1  0.83804741  0.84562247  0.62130624  1
  Ca2+  Ca16  1  -0.00672697  0.35044533  0.62506993  1
  Ca2+  Ca17  1  1.00445288  0.98311562  0.87394798  1
  Ca2+  Ca18  1  0.66894835  0.65496081  0.37569990  1
  Ca2+  Ca19  1  0.50472436  0.18106930  0.62430072  1
  Ca2+  Ca20  1  0.16174273  0.82158815  0.87290377  1
  Ca2+  Ca21  1  0.49961856  0.82074219  0.37484491  1
  Pr3+  Pr22  1  0.83303752  0.82237158  0.87334405  1
  Pr3+  Pr23  1  0.33302590  0.67999022  0.12589856  1
  Pr3+  Pr24  1  0.16688454  0.17790169  0.62280388  1
  Pr3+  Pr25  1  0.33431997  0.65480776  0.87456065  1
  Pr3+  Pr26  1  0.49770116  0.82212982  0.87525996  1
  Pr3+  Pr27  1  -0.00472465  0.00843117  0.62460935  1
  Pr3+  Pr28  1  0.33422346  0.34254510  0.62508397  1
  Pr3+  Pr29  1  0.67284802  0.31834679  0.37699561  1
  Pr3+  Pr30  1  -0.00137169  0.68029191  0.12610946  1
  Pr3+  Pr31  1  1.00203961  0.65523255  0.87413096  1
  Pr3+  Pr32  1  0.66322188  0.01082592  0.12707470  1
  Pr3+  Pr33  1  0.99954316  0.32289566  0.87016201  1
  Pr3+  Pr34  1  1.00053959  0.65463715  0.37543192  1
  Pr3+  Pr35  1  0.17024444  0.84702341  0.12521450  1
  Pr3+  Pr36  1  0.83568526  0.51323161  0.12310462  1
  Pr3+  Pr37  1  0.16147414  0.15219519  0.87593035  1
  Pr3+  Pr38  1  0.50705438  0.51276226  0.62474330  1
  Pr3+  Pr39  1  0.83204680  0.49003408  0.37719496  1
  Pr3+  Pr40  1  0.83497630  0.17950386  0.12727711  1
  Pr3+  Pr41  1  0.66879103  0.98752230  0.87441885  1
  Pr3+  Pr42  1  0.33177997  0.32228935  0.37585821  1
  Pr3+  Pr43  1  0.99887330  0.98912259  0.37496929  1
  Pr3+  Pr44  1  0.66105370  0.68396940  0.12691003  1
  Pr3+  Pr45  1  0.50235230  0.84546942  0.62270550  1
  Pr3+  Pr46  1  0.67280873  0.65175382  0.87515054  1
  Pr3+  Pr47  1  0.33447622  0.31982737  0.87411525  1
  Pr3+  Pr48  1  0.16749010  0.84489511  0.62514512  1
  Pr3+  Pr49  1  0.17146085  0.51184668  0.12509875  1
  Pr3+  Pr50  1  -0.00168657  0.01584215  0.12500210  1
  Pr3+  Pr51  1  0.83583865  0.84754040  0.12734662  1
  Pr3+  Pr52  1  0.33710547  0.98683593  0.37649911  1
  Pr3+  Pr53  1  0.16396205  0.48676197  0.87397727  1
  Pr3+  Pr54  1  0.16445621  0.82212967  0.37596397  1
  Pr3+  Pr55  1  0.50184977  0.17944391  0.12637064  1
  Pr3+  Pr56  1  0.50344827  0.51352087  0.12535358  1
  Pr3+  Pr57  1  0.49857647  0.15648237  0.87247944  1
  Pr3+  Pr58  1  0.83045558  0.15494939  0.87383975  1
  Pr3+  Pr59  1  0.32805868  0.67773943  0.62440431  1
  Pr3+  Pr60  1  0.66842909  0.67742641  0.62252264  1
  Pr3+  Pr61  1  1.00558754  0.32094943  0.37919792  1
  Pr3+  Pr62  1  0.33116863  0.01474897  0.12688668  1
  Pr3+  Pr63  1  0.66468938  0.01222799  0.62267839  1
  Pr3+  Pr64  1  0.33708871  0.65336304  0.37556759  1
  Pr3+  Pr65  1  0.33510258  0.98839862  0.87398278  1
  Pr3+  Pr66  1  0.49913762  0.48802172  0.37569031  1
  Pr3+  Pr67  1  0.66218288  0.34631322  0.12464414  1
  Pr3+  Pr68  1  0.49894826  0.48569440  0.87415093  1
  Pr3+  Pr69  1  0.83845793  0.18172327  0.62294921  1
  Pr3+  Pr70  1  0.49779420  0.15530573  0.37791483  1
  Pr3+  Pr71  1  -0.00030840  0.34408458  0.12382313  1
  Mn3.30+  Mn72  1  0.16532754  -0.00014505  0.00050523  1
  Mn3.30+  Mn73  1  0.16572205  0.00121707  0.49820851  1
  Mn3.30+  Mn74  1  0.16613477  0.33125186  -0.00028004  1
  Mn3.30+  Mn75  1  0.16499245  0.33363170  0.50163786  1
  Mn3.30+  Mn76  1  0.16701425  0.66884360  -0.00088928  1
  Mn3.30+  Mn77  1  0.16503511  0.66601327  0.50114816  1
  Mn3.30+  Mn78  1  0.49937382  0.00004211  0.00090179  1
  Mn3.30+  Mn79  1  0.50275538  0.00002122  0.49886736  1
  Mn3.30+  Mn80  1  0.50135859  0.33293860  -0.00113738  1
  Mn3.30+  Mn81  1  0.50228991  0.33213145  0.50051211  1
  Mn3.30+  Mn82  1  0.50120412  0.66839427  -0.00018740  1
  Mn3.30+  Mn83  1  0.50172805  0.66865753  0.49828825  1
  Mn3.30+  Mn84  1  0.83515546  0.00046567  -0.00099907  1
  Mn3.30+  Mn85  1  0.83006811  -0.00201481  0.49825270  1
  Mn3.30+  Mn86  1  0.83083274  0.33336454  -0.00067126  1
  Mn3.30+  Mn87  1  0.83603432  0.33277396  0.49940228  1
  Mn3.30+  Mn88  1  0.83346467  0.66691048  0.00038241  1
  Mn3.30+  Mn89  1  0.83192989  0.66754661  0.49894175  1
  Mn3.30+  Mn90  1  0.00031982  0.16774209  0.25183546  1
  Mn3.30+  Mn91  1  -0.00063031  0.16517563  0.74963584  1
  Mn3.30+  Mn92  1  0.00042169  0.49936549  0.24832388  1
  Mn3.30+  Mn93  1  -0.00308951  0.50048438  0.75078851  1
  Mn3.30+  Mn94  1  -0.00195680  0.83482111  0.25197312  1
  Mn3.30+  Mn95  1  -0.00084696  0.83358278  0.74956998  1
  Mn3.30+  Mn96  1  0.33023572  0.16712551  0.25265446  1
  Mn3.30+  Mn97  1  0.33281505  0.16528960  0.74691435  1
  Mn3.30+  Mn98  1  0.33409868  0.49842376  0.25003642  1
  Mn3.30+  Mn99  1  0.33380368  0.49956959  0.74902739  1
  Mn3.30+  Mn100  1  0.33787140  0.83406703  0.24947741  1
  Mn3.30+  Mn101  1  0.33102293  0.83406636  0.75159256  1
  Mn3.30+  Mn102  1  0.66789870  0.16395223  0.25253416  1
  Mn3.30+  Mn103  1  0.66620245  0.16734975  0.74867625  1
  Mn3.30+  Mn104  1  0.66799772  0.50189148  0.25098305  1
  Mn3.30+  Mn105  1  0.66971746  0.49842040  0.75022907  1
  Mn3.30+  Mn106  1  0.66591550  0.83365019  0.25430566  1
  Mn3.30+  Mn107  1  0.66888007  0.83280286  0.74720695  1
  Mn3.30+  Mn108  1  0.16651067  0.00316205  0.25136302  1
  Mn3.30+  Mn109  1  0.16456749  -0.00166264  0.75050839  1
  Mn3.30+  Mn110  1  0.16590489  0.33196935  0.25145778  1
  Mn3.30+  Mn111  1  0.16522641  0.33267659  0.74723005  1
  Mn3.30+  Mn112  1  0.16698727  0.66742588  0.25017780  1
  Mn3.30+  Mn113  1  0.16511299  0.66783897  0.74953615  1
  Mn3.30+  Mn114  1  0.50163653  -0.00177494  0.25342368  1
  Mn3.30+  Mn115  1  0.50049839  0.00145946  0.74702318  1
  Mn3.30+  Mn116  1  0.50051772  0.33317657  0.25073729  1
  Mn3.30+  Mn117  1  0.50305824  0.33195099  0.75071942  1
  Mn3.30+  Mn118  1  0.50220434  0.67011441  0.25179615  1
  Mn3.30+  Mn119  1  0.50094227  0.66750125  0.74998042  1
  Mn3.30+  Mn120  1  0.83089724  -0.00004279  0.25237944  1
  Mn3.30+  Mn121  1  0.83441646  -0.00138850  0.74984844  1
  Mn3.30+  Mn122  1  0.83404313  0.33243750  0.25089625  1
  Mn3.30+  Mn123  1  0.83272880  0.33379845  0.74969195  1
  Mn3.30+  Mn124  1  0.83020157  0.66811403  0.25020112  1
  Mn3.30+  Mn125  1  0.83486367  0.66641165  0.74932614  1
  Mn3.30+  Mn126  1  0.00028850  0.16696309  0.00054916  1
  Mn3.30+  Mn127  1  -0.00123498  0.16609213  0.49776659  1
  Mn3.30+  Mn128  1  -0.00104312  0.49968043  -0.00146400  1
  Mn3.30+  Mn129  1  -0.00125065  0.50016114  0.50136529  1
  Mn3.30+  Mn130  1  0.00203468  0.83532648  -0.00000821  1
  Mn3.30+  Mn131  1  -0.00489428  0.83312909  0.49794100  1
  Mn3.30+  Mn132  1  0.33059015  0.16648834  -0.00001636  1
  Mn3.30+  Mn133  1  0.33236707  0.16603979  0.50063023  1
  Mn3.30+  Mn134  1  0.33407010  0.49924250  0.00012282  1
  Mn3.30+  Mn135  1  0.33398668  0.49902679  0.50087335  1
  Mn3.30+  Mn136  1  0.33388209  0.83482001  0.00076526  1
  Mn3.30+  Mn137  1  0.33489433  0.83302350  0.49858501  1
  Mn3.30+  Mn138  1  0.66656604  0.16653859  -0.00013370  1
  Mn3.30+  Mn139  1  0.66729399  0.16442630  0.49962020  1
  Mn3.30+  Mn140  1  0.66917956  0.49865590  -0.00160915  1
  Mn3.30+  Mn141  1  0.66802221  0.50102573  0.49977510  1
  Mn3.30+  Mn142  1  0.66561796  0.83422372  0.00028864  1
  Mn3.30+  Mn143  1  0.66921536  0.83262769  0.49792496  1
  O2-  O144  1  0.02806206  0.16365140  0.12613306  1
  O2-  O145  1  0.02451101  0.15490829  0.62553020  1
  O2-  O146  1  0.02679697  0.49376129  0.12252391  1
  O2-  O147  1  0.01398986  0.49653075  0.62911110  1
  O2-  O148  1  0.02612335  0.82907430  0.12728915  1
  O2-  O149  1  0.02335134  0.83537645  0.62189149  1
  O2-  O150  1  0.35832822  0.16264822  0.12708725  1
  O2-  O151  1  0.36024857  0.16747220  0.62465810  1
  O2-  O152  1  0.35920267  0.49767104  0.12417899  1
  O2-  O153  1  0.36282380  0.49462471  0.62514669  1
  O2-  O154  1  0.36343929  0.82866776  0.12555278  1
  O2-  O155  1  0.35742996  0.82617996  0.62305000  1
  O2-  O156  1  0.69078072  0.15918647  0.12580085  1
  O2-  O157  1  0.69434736  0.16018477  0.62195377  1
  O2-  O158  1  0.69211879  0.49334262  0.12381636  1
  O2-  O159  1  0.68558223  0.50124142  0.62565494  1
  O2-  O160  1  0.69184197  0.83176104  0.12629458  1
  O2-  O161  1  0.69593931  0.82593190  0.62512978  1
  O2-  O162  1  0.14270215  0.32588555  0.12572984  1
  O2-  O163  1  0.13717152  0.32542113  0.62618220  1
  O2-  O164  1  0.14340079  0.66163385  0.12443793  1
  O2-  O165  1  0.14736665  0.66643207  0.62622874  1
  O2-  O166  1  0.14124164  0.99234751  0.12615372  1
  O2-  O167  1  0.14015005  0.99315711  0.62243043  1
  O2-  O168  1  0.48144551  0.32849865  0.12534503  1
  O2-  O169  1  0.47825738  0.32953137  0.62572819  1
  O2-  O170  1  0.47604282  0.65950526  0.12461083  1
  O2-  O171  1  0.47307868  0.66114190  0.62640041  1
  O2-  O172  1  0.47530435  0.99476279  0.12911405  1
  O2-  O173  1  0.48024963  0.99117410  0.62397969  1
  O2-  O174  1  0.80562507  0.32764585  0.12654402  1
  O2-  O175  1  0.81448414  0.32909360  0.62471080  1
  O2-  O176  1  0.80572231  0.66150100  0.12403849  1
  O2-  O177  1  0.81074030  0.66153244  0.62541526  1
  O2-  O178  1  0.80761310  0.99526905  0.12524190  1
  O2-  O179  1  0.80867731  0.99203274  0.62292151  1
  O2-  O180  1  0.30577541  0.17296843  0.37674641  1
  O2-  O181  1  0.30689585  0.17003800  0.87198921  1
  O2-  O182  1  0.31506769  0.50433783  0.37562969  1
  O2-  O183  1  0.30874365  0.50546998  0.87507892  1
  O2-  O184  1  0.30867079  0.83653313  0.37382655  1
  O2-  O185  1  0.30522942  0.84072135  0.87855610  1
  O2-  O186  1  0.64161268  0.17246786  0.37612035  1
  O2-  O187  1  0.64311928  0.16977304  0.87654883  1
  O2-  O188  1  0.64278848  0.50663944  0.37403623  1
  O2-  O189  1  0.64097879  0.50705900  0.87595070  1
  O2-  O190  1  0.63903264  0.83951315  0.37569764  1
  O2-  O191  1  0.64138683  0.83851710  0.87338005  1
  O2-  O192  1  0.96899306  0.17428485  0.37407013  1
  O2-  O193  1  0.97322449  0.17502327  0.87424812  1
  O2-  O194  1  0.97708651  0.50428497  0.36978985  1
  O2-  O195  1  0.97294642  0.50604290  0.87827900  1
  O2-  O196  1  0.96955740  0.84050869  0.37245923  1
  O2-  O197  1  0.97590710  0.83817438  0.87763156  1
  O2-  O198  1  0.19285061  0.00695712  0.37366032  1
  O2-  O199  1  0.19284792  0.00671579  0.87791882  1
  O2-  O200  1  0.18851922  0.33893792  0.37716058  1
  O2-  O201  1  0.19056597  0.33761876  0.87130617  1
  O2-  O202  1  0.19140550  0.67236506  0.37394090  1
  O2-  O203  1  0.19099736  0.67450139  0.87621573  1
  O2-  O204  1  0.52882787  0.00987596  0.37622727  1
  O2-  O205  1  0.52481096  0.00749719  0.87137911  1
  O2-  O206  1  0.52748760  0.33831283  0.37412480  1
  O2-  O207  1  0.52864580  0.33703793  0.87572968  1
  O2-  O208  1  0.52676735  0.67447195  0.37407672  1
  O2-  O209  1  0.52781538  0.67493528  0.87491522  1
  O2-  O210  1  0.85692746  0.00826351  0.37447960  1
  O2-  O211  1  0.86100627  0.00721653  0.87742728  1
  O2-  O212  1  0.86079483  0.34165478  0.37213929  1
  O2-  O213  1  0.85541993  0.33161347  0.87639556  1
  O2-  O214  1  0.85669295  0.67119221  0.37097070  1
  O2-  O215  1  0.85777732  0.67684493  0.87780217  1
  O2-  O216  1  0.23592898  0.09456314  0.02237796  1
  O2-  O217  1  0.23755496  0.09486324  0.51982491  1
  O2-  O218  1  0.23512910  0.42943348  0.01559929  1
  O2-  O219  1  0.24573909  0.42236916  0.52204840  1
  O2-  O220  1  0.24343183  0.76192051  0.02567079  1
  O2-  O221  1  0.23825402  0.75978450  0.51833349  1
  O2-  O222  1  0.57125896  0.09542543  0.02031599  1
  O2-  O223  1  0.57141311  0.09606245  0.52296364  1
  O2-  O224  1  0.57194407  0.43020854  0.02030464  1
  O2-  O225  1  0.57238211  0.43153174  0.51486941  1
  O2-  O226  1  0.57011473  0.76406368  0.02166669  1
  O2-  O227  1  0.57297149  0.76060540  0.52420264  1
  O2-  O228  1  0.90572549  0.09659732  0.02322893  1
  O2-  O229  1  0.90373106  0.09294056  0.52062766  1
  O2-  O230  1  0.90536079  0.42600232  0.02169162  1
  O2-  O231  1  0.90658307  0.42692531  0.51173367  1
  O2-  O232  1  0.90677206  0.76357479  0.02228807  1
  O2-  O233  1  0.90135454  0.76328281  0.51592485  1
  O2-  O234  1  0.26049892  0.26137023  0.23684038  1
  O2-  O235  1  0.26018082  0.25934591  0.72797046  1
  O2-  O236  1  0.26292019  0.59358233  0.22987699  1
  O2-  O237  1  0.26325179  0.59608294  0.73459780  1
  O2-  O238  1  0.26440930  0.92700153  0.23036436  1
  O2-  O239  1  0.25962552  0.92586504  0.73149312  1
  O2-  O240  1  0.59555854  0.26051079  0.23162463  1
  O2-  O241  1  0.59217474  0.25842902  0.73353223  1
  O2-  O242  1  0.59321697  0.59603959  0.22729170  1
  O2-  O243  1  0.59641215  0.59535691  0.73134263  1
  O2-  O244  1  0.59711928  0.92887751  0.23125279  1
  O2-  O245  1  0.59671398  0.92635687  0.72965376  1
  O2-  O246  1  0.92807901  0.26182672  0.22601550  1
  O2-  O247  1  0.93004094  0.26057445  0.72943318  1
  O2-  O248  1  0.92686935  0.59432585  0.22788232  1
  O2-  O249  1  0.92833388  0.59846693  0.73922638  1
  O2-  O250  1  0.92837706  0.92966440  0.22820186  1
  O2-  O251  1  0.92884248  0.92880533  0.73357685  1
  O2-  O252  1  0.09259508  0.23967251  0.27577419  1
  O2-  O253  1  0.09394986  0.23681454  0.77088208  1
  O2-  O254  1  0.09074943  0.57514219  0.26481266  1
  O2-  O255  1  0.09424796  0.57485467  0.77376254  1
  O2-  O256  1  0.09557964  0.90752170  0.27199635  1
  O2-  O257  1  0.09659318  0.90258716  0.76753650  1
  O2-  O258  1  0.42671273  0.23783837  0.27136957  1
  O2-  O259  1  0.42511802  0.24202974  0.77314375  1
  O2-  O260  1  0.43103874  0.57419048  0.27016966  1
  O2-  O261  1  0.42922018  0.57345226  0.77226348  1
  O2-  O262  1  0.42923828  0.90685914  0.27665556  1
  O2-  O263  1  0.42806721  0.90679988  0.77009728  1
  O2-  O264  1  0.76318243  0.23615834  0.27167133  1
  O2-  O265  1  0.76345016  0.23612452  0.76584238  1
  O2-  O266  1  0.76452283  0.56902820  0.26574020  1
  O2-  O267  1  0.76097552  0.57210301  0.77439828  1
  O2-  O268  1  0.76361668  0.89855658  0.26893311  1
  O2-  O269  1  0.75970330  0.90698792  0.77436568  1
  O2-  O270  1  0.06782771  0.07215767  0.47932480  1
  O2-  O271  1  0.07016993  0.06864548  0.97875250  1
  O2-  O272  1  0.07268951  0.40576449  0.48479721  1
  O2-  O273  1  0.07112616  0.40440110  0.97806287  1
  O2-  O274  1  0.07000934  0.74474131  0.47505643  1
  O2-  O275  1  0.06919365  0.73787670  0.98423841  1
  O2-  O276  1  0.40564842  0.07434125  0.47657779  1
  O2-  O277  1  0.40379201  0.07286722  0.98095544  1
  O2-  O278  1  0.40794318  0.40606525  0.48005779  1
  O2-  O279  1  0.40691396  0.40659256  0.97587035  1
  O2-  O280  1  0.40472665  0.73667087  0.48145996  1
  O2-  O281  1  0.40406631  0.74039707  0.97747003  1
  O2-  O282  1  0.73439881  0.06610348  0.48162914  1
  O2-  O283  1  0.73741465  0.07217021  0.97946090  1
  O2-  O284  1  0.74163216  0.40591912  0.47746470  1
  O2-  O285  1  0.73450838  0.39987994  0.98155655  1
  O2-  O286  1  0.73375144  0.73448627  0.48030062  1
  O2-  O287  1  0.73702523  0.73907618  0.98117049  1
  O2-  O288  1  0.09474499  0.23590491  0.47918063  1
  O2-  O289  1  0.09021252  0.24037440  0.97603860  1
  O2-  O290  1  0.08945456  0.57786195  0.48225366  1
  O2-  O291  1  0.09475271  0.57108231  0.97913253  1
  O2-  O292  1  0.09219020  0.90718293  0.47636253  1
  O2-  O293  1  0.09965302  0.90130551  0.98285048  1
  O2-  O294  1  0.42319899  0.24146363  0.47753910  1
  O2-  O295  1  0.42756730  0.23851308  0.97882984  1
  O2-  O296  1  0.43062386  0.57333493  0.47953328  1
  O2-  O297  1  0.42979516  0.57360620  0.97848250  1
  O2-  O298  1  0.42933293  0.90535329  0.47863213  1
  O2-  O299  1  0.42624528  0.90729430  0.97605160  1
  O2-  O300  1  0.76373095  0.23659829  0.47879941  1
  O2-  O301  1  0.76255808  0.23418732  0.98394994  1
  O2-  O302  1  0.75974342  0.57268993  0.47941354  1
  O2-  O303  1  0.76342417  0.56745459  0.97859202  1
  O2-  O304  1  0.76283935  0.90161683  0.47788598  1
  O2-  O305  1  0.76208827  0.90542500  0.97946207  1
  O2-  O306  1  0.06769809  0.07269266  0.26966567  1
  O2-  O307  1  0.06989506  0.07001780  0.77297384  1
  O2-  O308  1  0.06864591  0.40176885  0.26496232  1
  O2-  O309  1  0.07457167  0.40882947  0.77196942  1
  O2-  O310  1  0.07126425  0.74220755  0.27115684  1
  O2-  O311  1  0.06997288  0.74002296  0.76958622  1
  O2-  O312  1  0.40435112  0.07245831  0.27212244  1
  O2-  O313  1  0.40551016  0.07457886  0.77190880  1
  O2-  O314  1  0.40810111  0.40624115  0.27278801  1
  O2-  O315  1  0.40760848  0.40490455  0.77125499  1
  O2-  O316  1  0.40340224  0.73605896  0.26799237  1
  O2-  O317  1  0.40472773  0.74129367  0.77233715  1
  O2-  O318  1  0.73467090  0.06685375  0.26822794  1
  O2-  O319  1  0.73894031  0.07112821  0.76965392  1
  O2-  O320  1  0.74018445  0.40340969  0.27051122  1
  O2-  O321  1  0.73749934  0.40433153  0.77105669  1
  O2-  O322  1  0.73243395  0.73488773  0.26686954  1
  O2-  O323  1  0.73823373  0.73754546  0.77101680  1
  O2-  O324  1  0.23932089  0.09395520  0.22668505  1
  O2-  O325  1  0.23384323  0.09499497  0.73199548  1
  O2-  O326  1  0.23613617  0.42721432  0.23118144  1
  O2-  O327  1  0.24292053  0.42365362  0.73086644  1
  O2-  O328  1  0.24034771  0.76211519  0.22932168  1
  O2-  O329  1  0.23900971  0.75977948  0.72914867  1
  O2-  O330  1  0.56915074  0.09497190  0.22963971  1
  O2-  O331  1  0.57222914  0.09478285  0.72794715  1
  O2-  O332  1  0.57414277  0.42990286  0.23019392  1
  O2-  O333  1  0.56944576  0.43141654  0.73460215  1
  O2-  O334  1  0.57054683  0.76359710  0.22605952  1
  O2-  O335  1  0.57240536  0.76192949  0.72790277  1
  O2-  O336  1  0.90696540  0.09481181  0.22749919  1
  O2-  O337  1  0.90357377  0.09520016  0.72851725  1
  O2-  O338  1  0.90570453  0.42844230  0.22592896  1
  O2-  O339  1  0.90655836  0.42351004  0.74099079  1
  O2-  O340  1  0.90509767  0.75861451  0.22596412  1
  O2-  O341  1  0.90164756  0.76661262  0.73407464  1
  O2-  O342  1  0.26015842  0.25992688  0.01224880  1
  O2-  O343  1  0.25975810  0.26053374  0.52237146  1
  O2-  O344  1  0.26266860  0.59489921  0.01960937  1
  O2-  O345  1  0.26583493  0.59343731  0.51628994  1
  O2-  O346  1  0.26358639  0.92945232  0.02406278  1
  O2-  O347  1  0.25796697  0.92314385  0.51478336  1
  O2-  O348  1  0.59464678  0.25804221  0.02297362  1
  O2-  O349  1  0.59466999  0.25959697  0.51382348  1
  O2-  O350  1  0.59795589  0.59510480  0.02006557  1
  O2-  O351  1  0.59202147  0.59595875  0.52089721  1
  O2-  O352  1  0.59645316  0.93040186  0.01583721  1
  O2-  O353  1  0.59743083  0.92429501  0.52299825  1
  O2-  O354  1  0.92552218  0.26188873  0.02140117  1
  O2-  O355  1  0.93161056  0.26115432  0.52181145  1
  O2-  O356  1  0.92927088  0.59590005  0.02327631  1
  O2-  O357  1  0.92440308  0.59567049  0.50745736  1
  O2-  O358  1  0.92936783  0.92714714  0.02358396  1
  O2-  O359  1  0.92863262  0.93090201  0.51562452  1
