# generated using pymatgen
data_Sr7Ca15Pr50Mn72O216
_symmetry_space_group_name_H-M   'P 1'
_cell_length_a   16.55888000
_cell_length_b   16.60358996
_cell_length_c   15.59512298
_cell_angle_alpha   89.99739600
_cell_angle_beta   89.99985394
_cell_angle_gamma   90.00691188
_symmetry_Int_Tables_number   1
_chemical_formula_structural   Sr7Ca15Pr50Mn72O216
_chemical_formula_sum   'Sr7 Ca15 Pr50 Mn72 O216'
_cell_volume   4287.67400833
_cell_formula_units_Z   1
loop_
 _symmetry_equiv_pos_site_id
 _symmetry_equiv_pos_as_xyz
  1  'x, y, z'
loop_
 _atom_type_symbol
 _atom_type_oxidation_number
  Sr2+  2.0
  Ca2+  2.0
  Pr3+  3.0
  Mn3.30+  3.3
  O2-  -2.0
loop_
 _atom_site_type_symbol
 _atom_site_label
 _atom_site_symmetry_multiplicity
 _atom_site_fract_x
 _atom_site_fract_y
 _atom_site_fract_z
 _atom_site_occupancy
  Sr2+  Sr0  1  0.16677705  0.16240532  0.37438086  1
  Sr2+  Sr1  1  0.49889452  0.49014171  0.87341821  1
  Sr2+  Sr2  1  0.16635347  0.49145899  0.37823969  1
  Sr2+  Sr3  1  1.00352769  0.32334751  0.37625435  1
  Sr2+  Sr4  1  0.33040127  0.67227375  0.62350702  1
  Sr2+  Sr5  1  0.33341165  0.01150808  0.12377766  1
  Sr2+  Sr6  1  0.32982920  0.34505932  0.62285084  1
  Ca2+  Ca7  1  0.83756276  0.51201746  0.62436436  1
  Ca2+  Ca8  1  0.16970903  0.51220816  0.62236939  1
  Ca2+  Ca9  1  0.33239464  0.32071621  0.37788573  1
  Ca2+  Ca10  1  0.83075827  0.81953726  0.37782879  1
  Ca2+  Ca11  1  -0.00268637  0.35230413  0.62202986  1
  Ca2+  Ca12  1  0.66324624  0.34729722  0.12630276  1
  Ca2+  Ca13  1  0.33514173  0.65094840  0.37831576  1
  Ca2+  Ca14  1  0.67392654  0.31515878  0.37487092  1
  Ca2+  Ca15  1  0.33711650  0.98628209  0.87655135  1
  Ca2+  Ca16  1  0.16338409  0.48722926  0.86858692  1
  Ca2+  Ca17  1  0.83327279  0.15563889  0.37585180  1
  Ca2+  Ca18  1  -0.00287286  0.01671069  0.12616273  1
  Ca2+  Ca19  1  0.83735862  0.84679824  0.62236948  1
  Ca2+  Ca20  1  0.82894362  0.48464341  0.87284006  1
  Ca2+  Ca21  1  0.67085600  0.98454298  0.87463242  1
  Pr3+  Pr22  1  -0.00286792  0.01192055  0.62564784  1
  Pr3+  Pr23  1  -0.00134574  0.34535088  0.12744999  1
  Pr3+  Pr24  1  0.16499153  0.82016011  0.87579683  1
  Pr3+  Pr25  1  0.82894823  0.82060601  0.87283492  1
  Pr3+  Pr26  1  0.82818625  0.15077353  0.87406568  1
  Pr3+  Pr27  1  0.67344521  0.98706569  0.37526357  1
  Pr3+  Pr28  1  0.49551671  0.81787897  0.37466617  1
  Pr3+  Pr29  1  0.83907855  0.18177250  0.62407588  1
  Pr3+  Pr30  1  0.66522412  0.67863188  0.62527550  1
  Pr3+  Pr31  1  0.83597694  0.17969275  0.12598971  1
  Pr3+  Pr32  1  0.66599808  0.01254384  0.62643307  1
  Pr3+  Pr33  1  0.33171640  0.34353978  0.12723815  1
  Pr3+  Pr34  1  0.67172308  0.64913839  0.87464027  1
  Pr3+  Pr35  1  0.83021004  0.48376601  0.37731072  1
  Pr3+  Pr36  1  0.50385680  0.51079752  0.12398772  1
  Pr3+  Pr37  1  0.33400356  0.65159469  0.87346024  1
  Pr3+  Pr38  1  -0.00328066  0.67787338  0.12716005  1
  Pr3+  Pr39  1  0.49986368  0.51265014  0.62637784  1
  Pr3+  Pr40  1  0.33568777  0.32465826  0.87287041  1
  Pr3+  Pr41  1  0.16517924  0.82301203  0.37452157  1
  Pr3+  Pr42  1  0.49763844  0.15667320  0.37585472  1
  Pr3+  Pr43  1  0.50211556  0.18138224  0.62444475  1
  Pr3+  Pr44  1  0.83804148  0.84929730  0.12794471  1
  Pr3+  Pr45  1  0.50179858  0.84485671  0.62514706  1
  Pr3+  Pr46  1  0.67000920  0.65350879  0.37560567  1
  Pr3+  Pr47  1  0.16812170  0.50990561  0.12612265  1
  Pr3+  Pr48  1  1.00275952  0.98615181  0.87650286  1
  Pr3+  Pr49  1  0.66470632  0.34723686  0.62271610  1
  Pr3+  Pr50  1  1.00249109  0.65027575  0.87418122  1
  Pr3+  Pr51  1  0.17024384  0.84217930  0.62485119  1
  Pr3+  Pr52  1  0.16758276  0.18181988  0.62370772  1
  Pr3+  Pr53  1  0.49645203  0.15389915  0.87419263  1
  Pr3+  Pr54  1  0.16772252  0.17846385  0.12619619  1
  Pr3+  Pr55  1  0.16623246  0.15484832  0.87455866  1
  Pr3+  Pr56  1  0.49874729  0.82296958  0.87558351  1
  Pr3+  Pr57  1  1.00063990  0.65491539  0.37544049  1
  Pr3+  Pr58  1  0.33468859  0.98972573  0.37351189  1
  Pr3+  Pr59  1  1.00153987  0.32392094  0.87343957  1
  Pr3+  Pr60  1  1.00146851  0.99394506  0.37413379  1
  Pr3+  Pr61  1  0.16836619  0.84843253  0.12517753  1
  Pr3+  Pr62  1  0.66279534  0.01414420  0.12369431  1
  Pr3+  Pr63  1  0.50536097  0.18309569  0.12560075  1
  Pr3+  Pr64  1  0.49354339  0.48469633  0.37574415  1
  Pr3+  Pr65  1  0.67063941  0.32408495  0.87523550  1
  Pr3+  Pr66  1  0.66351401  0.67939245  0.12520278  1
  Pr3+  Pr67  1  0.33042909  0.67730282  0.12583117  1
  Pr3+  Pr68  1  0.50333640  0.84796747  0.12476808  1
  Pr3+  Pr69  1  -0.00273139  0.67660233  0.62239307  1
  Pr3+  Pr70  1  0.32936732  0.01188229  0.62614272  1
  Pr3+  Pr71  1  0.83422784  0.51060581  0.12528524  1
  Mn3.30+  Mn72  1  0.16748450  0.00068300  -0.00009419  1
  Mn3.30+  Mn73  1  0.16591209  0.00103182  0.49952284  1
  Mn3.30+  Mn74  1  0.16695815  0.33502473  -0.00191846  1
  Mn3.30+  Mn75  1  0.16482537  0.33577114  0.50098586  1
  Mn3.30+  Mn76  1  0.16505096  0.66461080  0.00036974  1
  Mn3.30+  Mn77  1  0.16723566  0.66566001  0.49834996  1
  Mn3.30+  Mn78  1  0.50080230  0.00125193  -0.00250904  1
  Mn3.30+  Mn79  1  0.50095990  0.00018440  0.50058176  1
  Mn3.30+  Mn80  1  0.50200574  0.33441983  -0.00039196  1
  Mn3.30+  Mn81  1  0.50075726  0.33357498  0.49834660  1
  Mn3.30+  Mn82  1  0.49948277  0.66642567  -0.00084460  1
  Mn3.30+  Mn83  1  0.49906325  0.66581493  0.50039546  1
  Mn3.30+  Mn84  1  0.83298537  -0.00024576  0.00030327  1
  Mn3.30+  Mn85  1  0.83385098  -0.00015528  0.49974572  1
  Mn3.30+  Mn86  1  0.83272303  0.33413759  0.00093878  1
  Mn3.30+  Mn87  1  0.83385395  0.33260801  0.49951850  1
  Mn3.30+  Mn88  1  0.83337415  0.66561544  -0.00038389  1
  Mn3.30+  Mn89  1  0.83268655  0.66664023  0.50093679  1
  Mn3.30+  Mn90  1  -0.00096512  0.16709025  0.25080643  1
  Mn3.30+  Mn91  1  -0.00043572  0.16857225  0.75053817  1
  Mn3.30+  Mn92  1  -0.00014121  0.49972233  0.25115429  1
  Mn3.30+  Mn93  1  -0.00103525  0.49948954  0.74828691  1
  Mn3.30+  Mn94  1  -0.00160822  0.83631064  0.25146187  1
  Mn3.30+  Mn95  1  -0.00197482  0.83169303  0.74872051  1
  Mn3.30+  Mn96  1  0.33466920  0.16742796  0.25030476  1
  Mn3.30+  Mn97  1  0.33270604  0.16661447  0.75023458  1
  Mn3.30+  Mn98  1  0.33420332  0.49826112  0.25207167  1
  Mn3.30+  Mn99  1  0.32929170  0.49909563  0.74885715  1
  Mn3.30+  Mn100  1  0.33313248  0.83214541  0.24996839  1
  Mn3.30+  Mn101  1  0.33320976  0.83320753  0.75131225  1
  Mn3.30+  Mn102  1  0.66895502  0.16845659  0.25125253  1
  Mn3.30+  Mn103  1  0.66742460  0.16666626  0.75018286  1
  Mn3.30+  Mn104  1  0.66571874  0.49664568  0.25193469  1
  Mn3.30+  Mn105  1  0.67087830  0.49925933  0.74836645  1
  Mn3.30+  Mn106  1  0.66880428  0.83344619  0.25171092  1
  Mn3.30+  Mn107  1  0.66822171  0.83387031  0.74889241  1
  Mn3.30+  Mn108  1  0.16594358  0.00286661  0.24853161  1
  Mn3.30+  Mn109  1  0.16747254  -0.00122729  0.75232333  1
  Mn3.30+  Mn110  1  0.16664213  0.33409080  0.25260066  1
  Mn3.30+  Mn111  1  0.16519549  0.33692155  0.74794049  1
  Mn3.30+  Mn112  1  0.16713652  0.66669386  0.25131702  1
  Mn3.30+  Mn113  1  0.16538331  0.66388799  0.74924711  1
  Mn3.30+  Mn114  1  0.50202351  0.00125548  0.25016186  1
  Mn3.30+  Mn115  1  0.49982401  0.00001524  0.75151042  1
  Mn3.30+  Mn116  1  0.50269851  0.33293103  0.25279607  1
  Mn3.30+  Mn117  1  0.50074954  0.33506816  0.74896405  1
  Mn3.30+  Mn118  1  0.49853293  0.66520530  0.25061929  1
  Mn3.30+  Mn119  1  0.49961293  0.66702324  0.75032687  1
  Mn3.30+  Mn120  1  0.83444925  0.00184269  0.25091392  1
  Mn3.30+  Mn121  1  0.83239847  -0.00220391  0.74944766  1
  Mn3.30+  Mn122  1  0.82999640  0.33116869  0.25134570  1
  Mn3.30+  Mn123  1  0.83621518  0.33639531  0.74776981  1
  Mn3.30+  Mn124  1  0.83181983  0.66715399  0.25164066  1
  Mn3.30+  Mn125  1  0.83399638  0.66464659  0.74813985  1
  Mn3.30+  Mn126  1  -0.00088732  0.16664309  -0.00069935  1
  Mn3.30+  Mn127  1  -0.00030117  0.16927336  0.49951881  1
  Mn3.30+  Mn128  1  -0.00078899  0.49913853  -0.00227435  1
  Mn3.30+  Mn129  1  -0.00016719  0.49967118  0.50233795  1
  Mn3.30+  Mn130  1  -0.00145488  0.83371680  0.00148300  1
  Mn3.30+  Mn131  1  -0.00242268  0.83444389  0.49851735  1
  Mn3.30+  Mn132  1  0.33412371  0.16670089  0.00006527  1
  Mn3.30+  Mn133  1  0.33274841  0.16796621  0.49907764  1
  Mn3.30+  Mn134  1  0.33264929  0.49839315  -0.00087608  1
  Mn3.30+  Mn135  1  0.33085981  0.49864877  0.49932509  1
  Mn3.30+  Mn136  1  0.33278860  0.83433065  -0.00039254  1
  Mn3.30+  Mn137  1  0.33338108  0.83133745  0.49990560  1
  Mn3.30+  Mn138  1  0.66685955  0.16745600  -0.00128679  1
  Mn3.30+  Mn139  1  0.66954978  0.16724531  0.49940098  1
  Mn3.30+  Mn140  1  0.66860849  0.49728902  0.00006589  1
  Mn3.30+  Mn141  1  0.66705650  0.49874434  0.49965750  1
  Mn3.30+  Mn142  1  0.66811230  0.83400228  -0.00059630  1
  Mn3.30+  Mn143  1  0.66946614  0.83337048  0.50085691  1
  O2-  O144  1  0.02298527  0.16257634  0.12104581  1
  O2-  O145  1  0.02385061  0.15767303  0.62848458  1
  O2-  O146  1  0.02288193  0.49757370  0.12366117  1
  O2-  O147  1  0.02599441  0.50259166  0.62553067  1
  O2-  O148  1  0.02533067  0.82460918  0.12535331  1
  O2-  O149  1  0.02704411  0.82715506  0.62211622  1
  O2-  O150  1  0.36006587  0.16832701  0.12400243  1
  O2-  O151  1  0.35755321  0.15962128  0.62541272  1
  O2-  O152  1  0.36016794  0.49278716  0.12616130  1
  O2-  O153  1  0.35636011  0.49967810  0.62359204  1
  O2-  O154  1  0.35961959  0.82530420  0.12506307  1
  O2-  O155  1  0.35737450  0.83027515  0.62591728  1
  O2-  O156  1  0.69244743  0.15880521  0.12255532  1
  O2-  O157  1  0.69393609  0.15987749  0.62527731  1
  O2-  O158  1  0.69063517  0.49421126  0.12760036  1
  O2-  O159  1  0.69469572  0.49478580  0.62344777  1
  O2-  O160  1  0.69278731  0.82759738  0.12661273  1
  O2-  O161  1  0.69431680  0.82708689  0.62460566  1
  O2-  O162  1  0.14362582  0.32833472  0.12256385  1
  O2-  O163  1  0.13945012  0.32637917  0.62704235  1
  O2-  O164  1  0.14008457  0.65950730  0.12430650  1
  O2-  O165  1  0.14245671  0.66641940  0.62379992  1
  O2-  O166  1  0.13950476  0.99617478  0.12326657  1
  O2-  O167  1  0.14132397  0.99081880  0.62750206  1
  O2-  O168  1  0.47609260  0.33072252  0.12715398  1
  O2-  O169  1  0.48083072  0.32976873  0.62469861  1
  O2-  O170  1  0.47536127  0.66106967  0.12302605  1
  O2-  O171  1  0.48153787  0.66351843  0.62467154  1
  O2-  O172  1  0.48375180  0.99595575  0.12477804  1
  O2-  O173  1  0.47301963  0.99357664  0.62647387  1
  O2-  O174  1  0.80447806  0.32668136  0.12880287  1
  O2-  O175  1  0.80661883  0.32638134  0.62289735  1
  O2-  O176  1  0.80720029  0.65951842  0.12667316  1
  O2-  O177  1  0.80746070  0.65514008  0.62465099  1
  O2-  O178  1  0.80575372  0.99534803  0.12557021  1
  O2-  O179  1  0.80952470  0.99339228  0.62545126  1
  O2-  O180  1  0.31766847  0.17072118  0.37477814  1
  O2-  O181  1  0.30996459  0.17719968  0.87549830  1
  O2-  O182  1  0.31614950  0.50724805  0.37381714  1
  O2-  O183  1  0.30662739  0.50291353  0.87591405  1
  O2-  O184  1  0.30968209  0.84230975  0.37390462  1
  O2-  O185  1  0.30822898  0.84124464  0.87588538  1
  O2-  O186  1  0.64156504  0.16953638  0.37745959  1
  O2-  O187  1  0.64066679  0.17750862  0.87469073  1
  O2-  O188  1  0.63782286  0.50833511  0.37555119  1
  O2-  O189  1  0.64872891  0.50088616  0.87336699  1
  O2-  O190  1  0.64042253  0.83823947  0.37570686  1
  O2-  O191  1  0.64374296  0.83820751  0.87373120  1
  O2-  O192  1  0.97591843  0.16519614  0.37580858  1
  O2-  O193  1  0.97249937  0.17455963  0.87435999  1
  O2-  O194  1  0.97436105  0.50568525  0.37523484  1
  O2-  O195  1  0.97034695  0.50317533  0.87570611  1
  O2-  O196  1  0.97132719  0.84401700  0.37489897  1
  O2-  O197  1  0.97235001  0.83840379  0.87799324  1
  O2-  O198  1  0.19092649  0.00332908  0.37441954  1
  O2-  O199  1  0.19495894  0.00562149  0.87504047  1
  O2-  O200  1  0.18914502  0.33540122  0.37443732  1
  O2-  O201  1  0.19149625  0.34119146  0.87502306  1
  O2-  O202  1  0.19352660  0.67573215  0.37252887  1
  O2-  O203  1  0.19034564  0.67410168  0.87828998  1
  O2-  O204  1  0.52785514  0.00660696  0.37507288  1
  O2-  O205  1  0.52959090  0.00549072  0.87355548  1
  O2-  O206  1  0.53108553  0.33706966  0.37606868  1
  O2-  O207  1  0.52562481  0.33462466  0.87199187  1
  O2-  O208  1  0.52648572  0.67028932  0.37652909  1
  O2-  O209  1  0.52638021  0.67302927  0.87635962  1
  O2-  O210  1  0.85773014  0.01091533  0.37520622  1
  O2-  O211  1  0.85880879  0.00229768  0.87435572  1
  O2-  O212  1  0.85477247  0.33821677  0.37598828  1
  O2-  O213  1  0.85819024  0.34063536  0.87226345  1
  O2-  O214  1  0.85619109  0.67336488  0.37512662  1
  O2-  O215  1  0.85892468  0.67568745  0.87351223  1
  O2-  O216  1  0.23777488  0.09939653  0.01728142  1
  O2-  O217  1  0.23882261  0.09078298  0.52346961  1
  O2-  O218  1  0.24013664  0.42625691  0.02442576  1
  O2-  O219  1  0.23697515  0.42849136  0.51905383  1
  O2-  O220  1  0.23700763  0.75920441  0.02187058  1
  O2-  O221  1  0.23566128  0.76409372  0.51550729  1
  O2-  O222  1  0.57146685  0.09740582  0.01861301  1
  O2-  O223  1  0.57247711  0.09470434  0.52275125  1
  O2-  O224  1  0.57192361  0.42689823  0.01857493  1
  O2-  O225  1  0.57069438  0.42979153  0.52152957  1
  O2-  O226  1  0.57248273  0.76168182  0.02148083  1
  O2-  O227  1  0.57191132  0.76173208  0.51937983  1
  O2-  O228  1  0.90052934  0.09575474  0.01570970  1
  O2-  O229  1  0.90612613  0.09350121  0.52303260  1
  O2-  O230  1  0.90684643  0.42709206  0.02517179  1
  O2-  O231  1  0.90105561  0.43134472  0.51784697  1
  O2-  O232  1  0.90353234  0.76195448  0.02281129  1
  O2-  O233  1  0.90554329  0.76065894  0.52208069  1
  O2-  O234  1  0.25962804  0.25916386  0.23005629  1
  O2-  O235  1  0.25656772  0.26015483  0.73301774  1
  O2-  O236  1  0.25923055  0.59175011  0.22663642  1
  O2-  O237  1  0.25877944  0.59530432  0.73708950  1
  O2-  O238  1  0.25764693  0.92569924  0.23162311  1
  O2-  O239  1  0.26081659  0.92572082  0.72827589  1
  O2-  O240  1  0.59718181  0.26237886  0.22772056  1
  O2-  O241  1  0.59664567  0.26020488  0.72765882  1
  O2-  O242  1  0.59495428  0.59505638  0.22847229  1
  O2-  O243  1  0.59777157  0.59221638  0.73172843  1
  O2-  O244  1  0.59722082  0.92807030  0.23078949  1
  O2-  O245  1  0.59242778  0.92730210  0.72636802  1
  O2-  O246  1  0.92604419  0.25952465  0.22692688  1
  O2-  O247  1  0.92803894  0.26561637  0.72735950  1
  O2-  O248  1  0.92484953  0.59392594  0.23074041  1
  O2-  O249  1  0.93220527  0.59826809  0.73260729  1
  O2-  O250  1  0.92950868  0.93102058  0.22681338  1
  O2-  O251  1  0.93177665  0.92755489  0.73237914  1
  O2-  O252  1  0.09254116  0.24040637  0.26039955  1
  O2-  O253  1  0.09454161  0.23978070  0.77261775  1
  O2-  O254  1  0.09145454  0.57884187  0.26845409  1
  O2-  O255  1  0.09179401  0.57301068  0.77398493  1
  O2-  O256  1  0.09355468  0.90708822  0.27037491  1
  O2-  O257  1  0.09599041  0.90544887  0.77337035  1
  O2-  O258  1  0.43484934  0.23767674  0.26646212  1
  O2-  O259  1  0.42873803  0.23929018  0.76786573  1
  O2-  O260  1  0.43091962  0.56813698  0.26519649  1
  O2-  O261  1  0.42320759  0.57530150  0.76651417  1
  O2-  O262  1  0.42904535  0.90467773  0.26888165  1
  O2-  O263  1  0.43095040  0.90496669  0.76966377  1
  O2-  O264  1  0.76471034  0.23282110  0.27046116  1
  O2-  O265  1  0.76426464  0.23903289  0.76978124  1
  O2-  O266  1  0.75905943  0.56899826  0.27172267  1
  O2-  O267  1  0.76325119  0.57157759  0.77324958  1
  O2-  O268  1  0.76606985  0.90432372  0.27221061  1
  O2-  O269  1  0.76158338  0.90428545  0.76919557  1
  O2-  O270  1  0.07003430  0.07009524  0.48593752  1
  O2-  O271  1  0.07357218  0.07411555  0.97533079  1
  O2-  O272  1  0.07060851  0.40815506  0.48667850  1
  O2-  O273  1  0.06905159  0.40385572  0.98318678  1
  O2-  O274  1  0.07125312  0.74247376  0.47563562  1
  O2-  O275  1  0.06956411  0.73784869  0.98037028  1
  O2-  O276  1  0.40598086  0.07107270  0.48059112  1
  O2-  O277  1  0.40577341  0.07426277  0.97566821  1
  O2-  O278  1  0.40657360  0.40445474  0.47707490  1
  O2-  O279  1  0.40290250  0.40354867  0.98249770  1
  O2-  O280  1  0.40692212  0.73856373  0.47664265  1
  O2-  O281  1  0.40361327  0.74028583  0.97829283  1
  O2-  O282  1  0.73607818  0.06834819  0.48467354  1
  O2-  O283  1  0.73516351  0.07053775  0.97697536  1
  O2-  O284  1  0.73504061  0.40202611  0.47870502  1
  O2-  O285  1  0.74000548  0.40384123  0.98216100  1
  O2-  O286  1  0.73671014  0.73490221  0.48306667  1
  O2-  O287  1  0.73714224  0.73700492  0.97982235  1
  O2-  O288  1  0.09348374  0.23794359  0.48771113  1
  O2-  O289  1  0.09560995  0.24042579  0.97821008  1
  O2-  O290  1  0.08818458  0.57986701  0.47946049  1
  O2-  O291  1  0.09451817  0.56920900  0.97766165  1
  O2-  O292  1  0.09485768  0.90710063  0.47857096  1
  O2-  O293  1  0.09323796  0.90399803  0.97861837  1
  O2-  O294  1  0.43269341  0.23793243  0.48465984  1
  O2-  O295  1  0.42988094  0.23984722  0.98007929  1
  O2-  O296  1  0.43045856  0.57020006  0.48496205  1
  O2-  O297  1  0.42331752  0.57409771  0.98127308  1
  O2-  O298  1  0.42886729  0.90515336  0.47911769  1
  O2-  O299  1  0.43150406  0.90526067  0.98280707  1
  O2-  O300  1  0.76541685  0.23366148  0.48240333  1
  O2-  O301  1  0.76204878  0.23705343  0.97760936  1
  O2-  O302  1  0.75902804  0.57139300  0.47566593  1
  O2-  O303  1  0.76377948  0.57069267  0.98060440  1
  O2-  O304  1  0.76289605  0.90594801  0.47655495  1
  O2-  O305  1  0.76611027  0.90224023  0.98332412  1
  O2-  O306  1  0.07044823  0.07298532  0.26564308  1
  O2-  O307  1  0.07316688  0.07092557  0.77283717  1
  O2-  O308  1  0.07321139  0.40820972  0.26072857  1
  O2-  O309  1  0.06869428  0.40600147  0.77025464  1
  O2-  O310  1  0.07145991  0.74252625  0.27179177  1
  O2-  O311  1  0.06982979  0.73862091  0.77084466  1
  O2-  O312  1  0.40833120  0.07254318  0.27088739  1
  O2-  O313  1  0.40517208  0.07020560  0.77238134  1
  O2-  O314  1  0.40562109  0.40060209  0.27323697  1
  O2-  O315  1  0.40406654  0.40660260  0.76707897  1
  O2-  O316  1  0.40392434  0.73499210  0.27175046  1
  O2-  O317  1  0.40520261  0.74344425  0.77532759  1
  O2-  O318  1  0.73536191  0.06840198  0.26645448  1
  O2-  O319  1  0.73579777  0.07116470  0.77169844  1
  O2-  O320  1  0.73692307  0.40433843  0.27459960  1
  O2-  O321  1  0.73740445  0.40145163  0.76550526  1
  O2-  O322  1  0.73562206  0.73605705  0.26763539  1
  O2-  O323  1  0.73825181  0.73499909  0.76996425  1
  O2-  O324  1  0.23836620  0.09387630  0.22977059  1
  O2-  O325  1  0.23675095  0.09339285  0.72941574  1
  O2-  O326  1  0.24173062  0.42595807  0.22733590  1
  O2-  O327  1  0.23386245  0.43050564  0.73016364  1
  O2-  O328  1  0.23720218  0.76033306  0.22649127  1
  O2-  O329  1  0.23512567  0.76257267  0.73612149  1
  O2-  O330  1  0.57399940  0.09790514  0.23021750  1
  O2-  O331  1  0.56931007  0.09474435  0.72839942  1
  O2-  O332  1  0.56802416  0.43088460  0.23262455  1
  O2-  O333  1  0.57515296  0.42768254  0.72718330  1
  O2-  O334  1  0.56979935  0.76134522  0.23039311  1
  O2-  O335  1  0.57385312  0.76235063  0.73001094  1
  O2-  O336  1  0.90417824  0.09479827  0.22861673  1
  O2-  O337  1  0.90388877  0.09434549  0.73196344  1
  O2-  O338  1  0.90259108  0.42590175  0.23021709  1
  O2-  O339  1  0.90422965  0.43124288  0.72637632  1
  O2-  O340  1  0.90759329  0.76162447  0.22906609  1
  O2-  O341  1  0.90168760  0.76058743  0.72593207  1
  O2-  O342  1  0.26210376  0.26192848  0.01900537  1
  O2-  O343  1  0.25699703  0.25715902  0.51765156  1
  O2-  O344  1  0.26102262  0.59281072  0.02242830  1
  O2-  O345  1  0.25704971  0.59293165  0.51336930  1
  O2-  O346  1  0.25785008  0.92336831  0.02095748  1
  O2-  O347  1  0.26101202  0.92798207  0.51931981  1
  O2-  O348  1  0.59677227  0.26208015  0.02211345  1
  O2-  O349  1  0.59639519  0.25913665  0.52190186  1
  O2-  O350  1  0.59609113  0.59293659  0.01883764  1
  O2-  O351  1  0.59540116  0.59448641  0.52169080  1
  O2-  O352  1  0.59682130  0.92599972  0.01988125  1
  O2-  O353  1  0.59513362  0.92809594  0.52232599  1
  O2-  O354  1  0.92645204  0.26279505  0.02092398  1
  O2-  O355  1  0.92820546  0.26175901  0.52414896  1
  O2-  O356  1  0.92916759  0.59583574  0.02066482  1
  O2-  O357  1  0.92731720  0.59706557  0.51598436  1
  O2-  O358  1  0.93073401  0.92931233  0.02331563  1
  O2-  O359  1  0.93012823  0.93022480  0.51959045  1
