# generated using pymatgen
data_Sr7Ca15Pr50Mn72O216
_symmetry_space_group_name_H-M   'P 1'
_cell_length_a   16.55823426
_cell_length_b   16.60550124
_cell_length_c   15.59348860
_cell_angle_alpha   90.00676330
_cell_angle_beta   89.99660362
_cell_angle_gamma   89.99575554
_symmetry_Int_Tables_number   1
_chemical_formula_structural   Sr7Ca15Pr50Mn72O216
_chemical_formula_sum   'Sr7 Ca15 Pr50 Mn72 O216'
_cell_volume   4287.55095279
_cell_formula_units_Z   1
loop_
 _symmetry_equiv_pos_site_id
 _symmetry_equiv_pos_as_xyz
  1  'x, y, z'
loop_
 _atom_type_symbol
 _atom_type_oxidation_number
  Sr2+  2.0
  Ca2+  2.0
  Pr3+  3.0
  Mn3.30+  3.3
  O2-  -2.0
loop_
 _atom_site_type_symbol
 _atom_site_label
 _atom_site_symmetry_multiplicity
 _atom_site_fract_x
 _atom_site_fract_y
 _atom_site_fract_z
 _atom_site_occupancy
  Sr2+  Sr0  1  0.33346945  0.33961624  0.12813831  1
  Sr2+  Sr1  1  0.50139235  0.50339491  0.12643258  1
  Sr2+  Sr2  1  0.50226726  0.17481322  0.12801631  1
  Sr2+  Sr3  1  -0.00257688  0.34173107  0.12739625  1
  Sr2+  Sr4  1  0.66401259  0.00996162  0.12710804  1
  Sr2+  Sr5  1  0.66407939  0.33924022  0.12631479  1
  Sr2+  Sr6  1  0.33061966  0.67579192  0.62267988  1
  Ca2+  Ca7  1  0.17095274  0.51683776  0.62282658  1
  Ca2+  Ca8  1  -0.00253944  0.01344455  0.62138705  1
  Ca2+  Ca9  1  0.33106431  0.01382404  0.61935813  1
  Ca2+  Ca10  1  0.49511937  0.15164032  0.37307861  1
  Ca2+  Ca11  1  0.66150448  0.34742317  0.62338076  1
  Ca2+  Ca12  1  0.33756336  0.98677295  0.37483585  1
  Ca2+  Ca13  1  1.00330960  0.98658727  0.37702354  1
  Ca2+  Ca14  1  0.50239224  0.18108974  0.62107467  1
  Ca2+  Ca15  1  0.34093091  0.31520674  0.37510808  1
  Ca2+  Ca16  1  0.33277095  0.67900889  0.12781328  1
  Ca2+  Ca17  1  1.00185522  0.65255151  0.37437444  1
  Ca2+  Ca18  1  0.83157254  0.82123718  0.37354489  1
  Ca2+  Ca19  1  0.83100589  0.48524169  0.37475706  1
  Ca2+  Ca20  1  0.50295890  0.84689665  0.12765526  1
  Ca2+  Ca21  1  0.83377547  0.18240402  0.12805359  1
  Pr3+  Pr22  1  0.16405268  0.82060117  0.37485703  1
  Pr3+  Pr23  1  0.17015786  0.17540786  0.62314617  1
  Pr3+  Pr24  1  0.33661001  0.31940349  0.87483398  1
  Pr3+  Pr25  1  0.83584250  0.50772127  0.12971151  1
  Pr3+  Pr26  1  0.66787830  0.98823769  0.37305034  1
  Pr3+  Pr27  1  0.33673727  0.65417009  0.37426891  1
  Pr3+  Pr28  1  0.67117691  0.65245283  0.37485769  1
  Pr3+  Pr29  1  0.83384024  0.51270196  0.62077960  1
  Pr3+  Pr30  1  0.33652984  0.98741603  0.87478319  1
  Pr3+  Pr31  1  1.00413053  0.98731271  0.87324771  1
  Pr3+  Pr32  1  0.66779860  0.98895671  0.87666814  1
  Pr3+  Pr33  1  0.17255205  0.51203828  0.12728455  1
  Pr3+  Pr34  1  0.66134835  0.67776982  0.12647763  1
  Pr3+  Pr35  1  0.66735552  0.31995062  0.87476577  1
  Pr3+  Pr36  1  1.00373915  0.65322306  0.87534869  1
  Pr3+  Pr37  1  1.00249786  0.31956057  0.87438925  1
  Pr3+  Pr38  1  0.49517580  0.48327330  0.37541916  1
  Pr3+  Pr39  1  0.99974005  0.32267898  0.37541302  1
  Pr3+  Pr40  1  0.16903491  0.84577833  0.12681992  1
  Pr3+  Pr41  1  0.83549286  0.17993347  0.62319643  1
  Pr3+  Pr42  1  0.49713115  0.48511505  0.87422623  1
  Pr3+  Pr43  1  0.17112679  0.18130243  0.12703311  1
  Pr3+  Pr44  1  0.32956727  0.34647176  0.62253410  1
  Pr3+  Pr45  1  0.66911029  0.65287401  0.87531196  1
  Pr3+  Pr46  1  0.16580068  0.15262890  0.37490217  1
  Pr3+  Pr47  1  0.66723176  0.32099698  0.37470206  1
  Pr3+  Pr48  1  0.50299445  0.51355859  0.62344413  1
  Pr3+  Pr49  1  0.16515030  0.81959409  0.87547802  1
  Pr3+  Pr50  1  0.49649606  0.82351654  0.37160185  1
  Pr3+  Pr51  1  0.49791577  0.82156539  0.87773449  1
  Pr3+  Pr52  1  0.33612064  0.65339747  0.87519577  1
  Pr3+  Pr53  1  0.83036416  0.82057160  0.87555478  1
  Pr3+  Pr54  1  0.33359689  0.01249561  0.12898183  1
  Pr3+  Pr55  1  0.66176224  0.01450816  0.62314116  1
  Pr3+  Pr56  1  -0.00592290  0.01561923  0.12815296  1
  Pr3+  Pr57  1  0.49962407  0.84646739  0.62300596  1
  Pr3+  Pr58  1  0.66323227  0.68145927  0.62333094  1
  Pr3+  Pr59  1  -0.00000632  0.67866365  0.62104219  1
  Pr3+  Pr60  1  0.16416312  0.48714139  0.87262835  1
  Pr3+  Pr61  1  -0.00345699  0.67807459  0.12844244  1
  Pr3+  Pr62  1  0.49855831  0.15502231  0.87635348  1
  Pr3+  Pr63  1  0.17211811  0.84849868  0.62336238  1
  Pr3+  Pr64  1  0.83865106  0.84859700  0.62222567  1
  Pr3+  Pr65  1  0.83018796  0.15609942  0.37368424  1
  Pr3+  Pr66  1  0.16621914  0.48854214  0.37807711  1
  Pr3+  Pr67  1  0.83580693  0.84651093  0.12793323  1
  Pr3+  Pr68  1  0.83026161  0.15488605  0.87614674  1
  Pr3+  Pr69  1  0.16500314  0.15453151  0.87512315  1
  Pr3+  Pr70  1  -0.00067538  0.34777234  0.62279310  1
  Pr3+  Pr71  1  0.83102836  0.48621925  0.87449439  1
  Mn3.30+  Mn72  1  0.16638477  -0.00000552  0.00159457  1
  Mn3.30+  Mn73  1  0.16727357  -0.00028118  0.49858068  1
  Mn3.30+  Mn74  1  0.16657370  0.33441549  0.00088231  1
  Mn3.30+  Mn75  1  0.16896692  0.33275539  0.49883235  1
  Mn3.30+  Mn76  1  0.16855220  0.66616079  0.00231896  1
  Mn3.30+  Mn77  1  0.16570150  0.66665175  0.49831455  1
  Mn3.30+  Mn78  1  0.50114006  -0.00118905  0.00152347  1
  Mn3.30+  Mn79  1  0.49655106  0.00282914  0.50002450  1
  Mn3.30+  Mn80  1  0.50070638  0.33193135  0.00154943  1
  Mn3.30+  Mn81  1  0.49930243  0.32986652  0.50109896  1
  Mn3.30+  Mn82  1  0.49875289  0.66553519  0.00336309  1
  Mn3.30+  Mn83  1  0.50036966  0.66814197  0.49853391  1
  Mn3.30+  Mn84  1  0.83398489  0.00158448  0.00197342  1
  Mn3.30+  Mn85  1  0.83523419  -0.00011861  0.49734297  1
  Mn3.30+  Mn86  1  0.83362479  0.33265418  0.00123291  1
  Mn3.30+  Mn87  1  0.83100810  0.33465830  0.50099777  1
  Mn3.30+  Mn88  1  0.83304882  0.66530630  0.00176953  1
  Mn3.30+  Mn89  1  0.83460702  0.66762695  0.49619689  1
  Mn3.30+  Mn90  1  -0.00148855  0.16669336  0.25209870  1
  Mn3.30+  Mn91  1  -0.00004788  0.16509850  0.74753080  1
  Mn3.30+  Mn92  1  0.00071252  0.50001930  0.25347201  1
  Mn3.30+  Mn93  1  0.00049312  0.50094195  0.74651647  1
  Mn3.30+  Mn94  1  -0.00123892  0.83345389  0.25446129  1
  Mn3.30+  Mn95  1  0.00075060  0.83444727  0.74764608  1
  Mn3.30+  Mn96  1  0.33473560  0.16644144  0.25372682  1
  Mn3.30+  Mn97  1  0.33547408  0.16491634  0.74596836  1
  Mn3.30+  Mn98  1  0.33422524  0.49857862  0.24929098  1
  Mn3.30+  Mn99  1  0.33138011  0.49987316  0.74854271  1
  Mn3.30+  Mn100  1  0.33393576  0.83341905  0.24846098  1
  Mn3.30+  Mn101  1  0.33321353  0.83416848  0.74898411  1
  Mn3.30+  Mn102  1  0.66427945  0.16581136  0.25097960  1
  Mn3.30+  Mn103  1  0.66488082  0.16795546  0.74718566  1
  Mn3.30+  Mn104  1  0.66704502  0.49812996  0.25145447  1
  Mn3.30+  Mn105  1  0.66624144  0.49897501  0.74809788  1
  Mn3.30+  Mn106  1  0.66639692  0.83273986  0.25055468  1
  Mn3.30+  Mn107  1  0.66727457  0.83503546  0.74919404  1
  Mn3.30+  Mn108  1  0.16544644  -0.00060197  0.25256470  1
  Mn3.30+  Mn109  1  0.16805335  0.00054962  0.74717609  1
  Mn3.30+  Mn110  1  0.16875565  0.33377789  0.25380034  1
  Mn3.30+  Mn111  1  0.16710672  0.33336096  0.74720011  1
  Mn3.30+  Mn112  1  0.16658129  0.66652855  0.25089537  1
  Mn3.30+  Mn113  1  0.16756533  0.66634167  0.74849779  1
  Mn3.30+  Mn114  1  0.49965764  -0.00019197  0.25175605  1
  Mn3.30+  Mn115  1  0.49829657  0.00223685  0.74685278  1
  Mn3.30+  Mn116  1  0.49955132  0.33034567  0.25125230  1
  Mn3.30+  Mn117  1  0.50052480  0.33122993  0.74640708  1
  Mn3.30+  Mn118  1  0.49941326  0.66563136  0.24736582  1
  Mn3.30+  Mn119  1  0.49997045  0.66786835  0.74989816  1
  Mn3.30+  Mn120  1  0.83452945  0.00062000  0.25220790  1
  Mn3.30+  Mn121  1  0.83427361  0.00095965  0.74840391  1
  Mn3.30+  Mn122  1  0.83294795  0.33360730  0.25101579  1
  Mn3.30+  Mn123  1  0.83194254  0.33371282  0.74706954  1
  Mn3.30+  Mn124  1  0.83355478  0.66587012  0.25365799  1
  Mn3.30+  Mn125  1  0.83398345  0.66699688  0.74810581  1
  Mn3.30+  Mn126  1  -0.00206454  0.16741052  0.00140793  1
  Mn3.30+  Mn127  1  0.00047134  0.16423683  0.49964635  1
  Mn3.30+  Mn128  1  0.00047103  0.49875445  0.00169662  1
  Mn3.30+  Mn129  1  0.00011489  0.50182768  0.49831217  1
  Mn3.30+  Mn130  1  -0.00013135  0.83325590  0.00110216  1
  Mn3.30+  Mn131  1  -0.00027006  0.83469537  0.49703080  1
  Mn3.30+  Mn132  1  0.33283321  0.16627715  0.00078730  1
  Mn3.30+  Mn133  1  0.33719547  0.16489045  0.49959241  1
  Mn3.30+  Mn134  1  0.33337449  0.49965812  0.00217168  1
  Mn3.30+  Mn135  1  0.33203184  0.49881853  0.49958997  1
  Mn3.30+  Mn136  1  0.33447718  0.83214188  0.00368252  1
  Mn3.30+  Mn137  1  0.33278625  0.83541163  0.49864333  1
  Mn3.30+  Mn138  1  0.66669983  0.16597786  0.00256994  1
  Mn3.30+  Mn139  1  0.66272850  0.16789906  0.49993091  1
  Mn3.30+  Mn140  1  0.66617989  0.49839837  0.00097726  1
  Mn3.30+  Mn141  1  0.66715243  0.49866016  0.49940508  1
  Mn3.30+  Mn142  1  0.66498126  0.83300292  0.00166799  1
  Mn3.30+  Mn143  1  0.66858364  0.83484466  0.49837752  1
  O2-  O144  1  0.02694239  0.16263999  0.12826566  1
  O2-  O145  1  0.02550633  0.15991136  0.62377571  1
  O2-  O146  1  0.02685497  0.49781520  0.12962674  1
  O2-  O147  1  0.02817552  0.49624981  0.62350586  1
  O2-  O148  1  0.02434027  0.82669382  0.12782724  1
  O2-  O149  1  0.02763104  0.82508305  0.62327635  1
  O2-  O150  1  0.35011918  0.16118063  0.12831339  1
  O2-  O151  1  0.36071212  0.15767298  0.62428178  1
  O2-  O152  1  0.35137016  0.49297507  0.12476824  1
  O2-  O153  1  0.35940803  0.49533682  0.62315566  1
  O2-  O154  1  0.36050098  0.82587610  0.12437814  1
  O2-  O155  1  0.35657958  0.82804514  0.62348223  1
  O2-  O156  1  0.69093556  0.16509017  0.12492709  1
  O2-  O157  1  0.69335052  0.15930938  0.62447403  1
  O2-  O158  1  0.69125526  0.49828112  0.12703980  1
  O2-  O159  1  0.69001355  0.49511452  0.62475358  1
  O2-  O160  1  0.69262864  0.82690538  0.12510621  1
  O2-  O161  1  0.69352626  0.83062324  0.62297861  1
  O2-  O162  1  0.14779634  0.32974002  0.12847399  1
  O2-  O163  1  0.14175868  0.32261321  0.62303056  1
  O2-  O164  1  0.13998507  0.66085594  0.12680467  1
  O2-  O165  1  0.14357123  0.66374354  0.62188862  1
  O2-  O166  1  0.13823517  0.99440072  0.12730678  1
  O2-  O167  1  0.13947234  0.99609593  0.62395248  1
  O2-  O168  1  0.48381821  0.33154959  0.12459687  1
  O2-  O169  1  0.47259479  0.32702677  0.62443263  1
  O2-  O170  1  0.47348700  0.65693501  0.12439167  1
  O2-  O171  1  0.48139492  0.66313924  0.62414936  1
  O2-  O172  1  0.47730475  0.99429564  0.12545959  1
  O2-  O173  1  0.47187255  0.99127679  0.62480702  1
  O2-  O174  1  0.81527352  0.33186087  0.12506670  1
  O2-  O175  1  0.80442626  0.32835972  0.62447197  1
  O2-  O176  1  0.80680973  0.65725672  0.12838586  1
  O2-  O177  1  0.80666461  0.66104772  0.62349911  1
  O2-  O178  1  0.81385921  0.99234541  0.12587937  1
  O2-  O179  1  0.80580106  0.99465744  0.62149682  1
  O2-  O180  1  0.30846395  0.17250529  0.37682916  1
  O2-  O181  1  0.30900051  0.17005754  0.87209686  1
  O2-  O182  1  0.31046992  0.50695611  0.37543094  1
  O2-  O183  1  0.30803065  0.50478221  0.87586203  1
  O2-  O184  1  0.30868942  0.84010367  0.37372203  1
  O2-  O185  1  0.30793534  0.84009626  0.87748186  1
  O2-  O186  1  0.63935907  0.17207681  0.37920094  1
  O2-  O187  1  0.64295020  0.16985984  0.87098899  1
  O2-  O188  1  0.64052623  0.50526408  0.37682782  1
  O2-  O189  1  0.64258183  0.50610875  0.87159189  1
  O2-  O190  1  0.64132686  0.83738187  0.37607671  1
  O2-  O191  1  0.64348795  0.83834818  0.87544684  1
  O2-  O192  1  0.97424362  0.17455934  0.37688322  1
  O2-  O193  1  0.97488569  0.17076158  0.87195666  1
  O2-  O194  1  0.97325602  0.50509629  0.37687641  1
  O2-  O195  1  0.97483254  0.50629324  0.87057794  1
  O2-  O196  1  0.97228960  0.84439626  0.37594283  1
  O2-  O197  1  0.97452455  0.83923232  0.87346519  1
  O2-  O198  1  0.19518874  0.00357824  0.37464357  1
  O2-  O199  1  0.19243557  0.00609276  0.87479475  1
  O2-  O200  1  0.19680613  0.33992690  0.37876652  1
  O2-  O201  1  0.19149018  0.33877986  0.87092485  1
  O2-  O202  1  0.19288262  0.67217495  0.37371069  1
  O2-  O203  1  0.19080933  0.67129676  0.87753920  1
  O2-  O204  1  0.52370775  0.00283676  0.37763324  1
  O2-  O205  1  0.52361780  0.00520362  0.87222728  1
  O2-  O206  1  0.52360438  0.33803576  0.37930533  1
  O2-  O207  1  0.52207573  0.33617788  0.87104679  1
  O2-  O208  1  0.52596847  0.67424118  0.37454887  1
  O2-  O209  1  0.52600334  0.67338554  0.87574305  1
  O2-  O210  1  0.86234821  0.01052989  0.37530529  1
  O2-  O211  1  0.86068689  0.00646290  0.87678763  1
  O2-  O212  1  0.85591477  0.33661885  0.37863945  1
  O2-  O213  1  0.85925237  0.33839113  0.87143519  1
  O2-  O214  1  0.86081714  0.67773345  0.37535372  1
  O2-  O215  1  0.86005393  0.67274799  0.87305633  1
  O2-  O216  1  0.23616929  0.09308688  0.02059328  1
  O2-  O217  1  0.23653743  0.09621406  0.51729818  1
  O2-  O218  1  0.23489161  0.43171060  0.01364352  1
  O2-  O219  1  0.23681508  0.42847573  0.52380777  1
  O2-  O220  1  0.23655018  0.76400910  0.01868424  1
  O2-  O221  1  0.23563506  0.76428383  0.51438557  1
  O2-  O222  1  0.57297502  0.09311364  0.01138220  1
  O2-  O223  1  0.57099024  0.09419349  0.52437166  1
  O2-  O224  1  0.57307400  0.42719223  0.00847438  1
  O2-  O225  1  0.56645861  0.42908291  0.51840702  1
  O2-  O226  1  0.56959785  0.76001944  0.02250639  1
  O2-  O227  1  0.57345732  0.76298097  0.52041586  1
  O2-  O228  1  0.90400231  0.09692847  0.02321037  1
  O2-  O229  1  0.90281853  0.09583393  0.51960647  1
  O2-  O230  1  0.90299261  0.43100240  0.01535097  1
  O2-  O231  1  0.90726643  0.42669189  0.52301065  1
  O2-  O232  1  0.90279171  0.76033772  0.02103353  1
  O2-  O233  1  0.90647153  0.76085002  0.52352621  1
  O2-  O234  1  0.25674874  0.25661529  0.23492245  1
  O2-  O235  1  0.26387155  0.25953686  0.72824007  1
  O2-  O236  1  0.26362539  0.59507788  0.23056557  1
  O2-  O237  1  0.25983862  0.59488423  0.73560347  1
  O2-  O238  1  0.26000120  0.92570876  0.22508769  1
  O2-  O239  1  0.26255610  0.93115951  0.72876349  1
  O2-  O240  1  0.59458027  0.26011593  0.23898910  1
  O2-  O241  1  0.59869273  0.26565103  0.73090171  1
  O2-  O242  1  0.59800202  0.59616931  0.23501211  1
  O2-  O243  1  0.59604791  0.59592942  0.73012867  1
  O2-  O244  1  0.59387224  0.92481460  0.23753330  1
  O2-  O245  1  0.59307762  0.93135563  0.72938372  1
  O2-  O246  1  0.92601841  0.26028659  0.23821567  1
  O2-  O247  1  0.92796698  0.26231684  0.72661921  1
  O2-  O248  1  0.92703087  0.59324727  0.22891364  1
  O2-  O249  1  0.92834025  0.59613746  0.72668934  1
  O2-  O250  1  0.92855083  0.92667989  0.22838681  1
  O2-  O251  1  0.93025002  0.92944410  0.72790680  1
  O2-  O252  1  0.09342182  0.23986914  0.27280198  1
  O2-  O253  1  0.09460813  0.23904918  0.77037765  1
  O2-  O254  1  0.09667482  0.57116289  0.27113796  1
  O2-  O255  1  0.09235294  0.57408942  0.77098859  1
  O2-  O256  1  0.09692722  0.90418390  0.26937743  1
  O2-  O257  1  0.09753194  0.90577731  0.77098859  1
  O2-  O258  1  0.42723412  0.23684814  0.27079258  1
  O2-  O259  1  0.42748461  0.23897228  0.77106306  1
  O2-  O260  1  0.42786096  0.57270072  0.27387131  1
  O2-  O261  1  0.42766601  0.57199609  0.76953036  1
  O2-  O262  1  0.42722346  0.90566320  0.26763303  1
  O2-  O263  1  0.42857307  0.90491658  0.77133773  1
  O2-  O264  1  0.75814070  0.24064855  0.27164755  1
  O2-  O265  1  0.76135452  0.23690698  0.77064832  1
  O2-  O266  1  0.76344196  0.57135349  0.27481554  1
  O2-  O267  1  0.76371525  0.57324097  0.76915009  1
  O2-  O268  1  0.76380521  0.90665427  0.27108583  1
  O2-  O269  1  0.76312053  0.90634476  0.77081915  1
  O2-  O270  1  0.07482777  0.07111630  0.47602938  1
  O2-  O271  1  0.06958321  0.07287558  0.98002163  1
  O2-  O272  1  0.07161608  0.40551904  0.47987532  1
  O2-  O273  1  0.07231683  0.40586562  0.97636761  1
  O2-  O274  1  0.06938955  0.73843913  0.47622410  1
  O2-  O275  1  0.07153151  0.73804853  0.98070661  1
  O2-  O276  1  0.40171293  0.06828663  0.47815851  1
  O2-  O277  1  0.40603726  0.07097154  0.98178132  1
  O2-  O278  1  0.40262176  0.40178975  0.48096439  1
  O2-  O279  1  0.40653190  0.40663331  0.97687579  1
  O2-  O280  1  0.40614862  0.74160049  0.47660030  1
  O2-  O281  1  0.40573173  0.73978316  0.97650853  1
  O2-  O282  1  0.73734160  0.07210175  0.47879277  1
  O2-  O283  1  0.74119789  0.07341896  0.97630882  1
  O2-  O284  1  0.73750567  0.40627023  0.48049171  1
  O2-  O285  1  0.74161654  0.40638167  0.97630206  1
  O2-  O286  1  0.73833579  0.73601361  0.48225389  1
  O2-  O287  1  0.73874172  0.73826247  0.97960007  1
  O2-  O288  1  0.09501778  0.23932646  0.47826605  1
  O2-  O289  1  0.09323887  0.23872109  0.97983572  1
  O2-  O290  1  0.09341450  0.57389235  0.47946593  1
  O2-  O291  1  0.09519987  0.57137781  0.97948476  1
  O2-  O292  1  0.09766402  0.90301451  0.48119181  1
  O2-  O293  1  0.09644384  0.90643595  0.97924426  1
  O2-  O294  1  0.43139920  0.23385841  0.48088944  1
  O2-  O295  1  0.42528052  0.24066573  0.97838116  1
  O2-  O296  1  0.42842935  0.57186019  0.48074036  1
  O2-  O297  1  0.42676914  0.57321607  0.97442866  1
  O2-  O298  1  0.43077194  0.90314578  0.48171452  1
  O2-  O299  1  0.42620266  0.90666427  0.97820700  1
  O2-  O300  1  0.76054839  0.23753394  0.47977423  1
  O2-  O301  1  0.75958314  0.24107822  0.97751687  1
  O2-  O302  1  0.76499073  0.57261652  0.47875500  1
  O2-  O303  1  0.76223780  0.57239381  0.97817436  1
  O2-  O304  1  0.76342343  0.90588773  0.47580009  1
  O2-  O305  1  0.76321376  0.90666864  0.97963870  1
  O2-  O306  1  0.06964196  0.07152383  0.27305378  1
  O2-  O307  1  0.07488188  0.07274165  0.77237308  1
  O2-  O308  1  0.07487069  0.40672775  0.27728467  1
  O2-  O309  1  0.06955857  0.40568041  0.76841736  1
  O2-  O310  1  0.06859915  0.73928558  0.27257008  1
  O2-  O311  1  0.07117852  0.73851562  0.77072952  1
  O2-  O312  1  0.40153107  0.06886954  0.26735641  1
  O2-  O313  1  0.40644759  0.07283907  0.77424919  1
  O2-  O314  1  0.40645607  0.40461655  0.27266687  1
  O2-  O315  1  0.40314649  0.40421091  0.76836737  1
  O2-  O316  1  0.40549979  0.73954946  0.27169776  1
  O2-  O317  1  0.40739090  0.74058861  0.77315733  1
  O2-  O318  1  0.74033007  0.07418680  0.27438984  1
  O2-  O319  1  0.73736944  0.07129879  0.76977034  1
  O2-  O320  1  0.74011636  0.40616976  0.27072812  1
  O2-  O321  1  0.73969556  0.40707378  0.77205696  1
  O2-  O322  1  0.73665442  0.73662875  0.26810245  1
  O2-  O323  1  0.74061288  0.73762403  0.77001165  1
  O2-  O324  1  0.23524002  0.09341840  0.23168586  1
  O2-  O325  1  0.23716581  0.09630210  0.73124525  1
  O2-  O326  1  0.23587295  0.43179100  0.23642374  1
  O2-  O327  1  0.23644609  0.42858633  0.72683702  1
  O2-  O328  1  0.23634560  0.76259894  0.23171020  1
  O2-  O329  1  0.23578951  0.76517873  0.73516912  1
  O2-  O330  1  0.57325115  0.09086527  0.23762672  1
  O2-  O331  1  0.56995938  0.09744167  0.72733034  1
  O2-  O332  1  0.57314073  0.42674810  0.24167140  1
  O2-  O333  1  0.56688097  0.42957328  0.73105478  1
  O2-  O334  1  0.56960022  0.75880537  0.22736799  1
  O2-  O335  1  0.57338090  0.76354695  0.72943046  1
  O2-  O336  1  0.90389681  0.09617261  0.22809179  1
  O2-  O337  1  0.90202743  0.09596186  0.73044001  1
  O2-  O338  1  0.90634063  0.42825746  0.23563026  1
  O2-  O339  1  0.90596643  0.43000783  0.72602801  1
  O2-  O340  1  0.90449587  0.75937819  0.22715293  1
  O2-  O341  1  0.90408078  0.76163403  0.72787474  1
  O2-  O342  1  0.25698274  0.25977070  0.01379693  1
  O2-  O343  1  0.26314036  0.25742811  0.52337527  1
  O2-  O344  1  0.26277930  0.59699734  0.02191094  1
  O2-  O345  1  0.25963125  0.59341216  0.51265697  1
  O2-  O346  1  0.26271145  0.92732555  0.02328455  1
  O2-  O347  1  0.26046022  0.92807193  0.52288249  1
  O2-  O348  1  0.59419426  0.25921475  0.00873463  1
  O2-  O349  1  0.59788788  0.26542999  0.52145291  1
  O2-  O350  1  0.59712992  0.59686910  0.01502943  1
  O2-  O351  1  0.59700653  0.59479977  0.51926242  1
  O2-  O352  1  0.59369892  0.92684035  0.01347597  1
  O2-  O353  1  0.59361392  0.93003330  0.51970405  1
  O2-  O354  1  0.92763233  0.26149595  0.01195149  1
  O2-  O355  1  0.92665344  0.26202931  0.52186370  1
  O2-  O356  1  0.92899912  0.59482634  0.02026144  1
  O2-  O357  1  0.92630275  0.59452589  0.52340012  1
  O2-  O358  1  0.92930588  0.92910276  0.01971433  1
  O2-  O359  1  0.92902410  0.92784580  0.52439886  1
