# generated using pymatgen
data_Sr7Ca15Pr50Mn72O216
_symmetry_space_group_name_H-M   'P 1'
_cell_length_a   16.55871849
_cell_length_b   16.60575386
_cell_length_c   15.59256939
_cell_angle_alpha   89.99992826
_cell_angle_beta   89.99148533
_cell_angle_gamma   90.00201256
_symmetry_Int_Tables_number   1
_chemical_formula_structural   Sr7Ca15Pr50Mn72O216
_chemical_formula_sum   'Sr7 Ca15 Pr50 Mn72 O216'
_cell_volume   4287.48881036
_cell_formula_units_Z   1
loop_
 _symmetry_equiv_pos_site_id
 _symmetry_equiv_pos_as_xyz
  1  'x, y, z'
loop_
 _atom_type_symbol
 _atom_type_oxidation_number
  Sr2+  2.0
  Ca2+  2.0
  Pr3+  3.0
  Mn3.30+  3.3
  O2-  -2.0
loop_
 _atom_site_type_symbol
 _atom_site_label
 _atom_site_symmetry_multiplicity
 _atom_site_fract_x
 _atom_site_fract_y
 _atom_site_fract_z
 _atom_site_occupancy
  Sr2+  Sr0  1  0.17119272  0.50848265  0.12749037  1
  Sr2+  Sr1  1  0.49883480  0.82480110  0.37584540  1
  Sr2+  Sr2  1  0.33071297  0.34480182  0.62294698  1
  Sr2+  Sr3  1  0.33127604  0.67360250  0.12612548  1
  Sr2+  Sr4  1  0.33321376  0.34246637  0.12698433  1
  Sr2+  Sr5  1  1.00270506  0.65819061  0.37690569  1
  Sr2+  Sr6  1  0.66850161  0.65561384  0.87242073  1
  Ca2+  Ca7  1  0.50534992  0.18664131  0.12774273  1
  Ca2+  Ca8  1  -0.00413668  0.01536247  0.12812141  1
  Ca2+  Ca9  1  0.16440029  0.15325369  0.87584280  1
  Ca2+  Ca10  1  0.16937713  0.51142047  0.62124285  1
  Ca2+  Ca11  1  0.49777134  0.48528767  0.37479139  1
  Ca2+  Ca12  1  0.66070770  0.68501167  0.62439273  1
  Ca2+  Ca13  1  0.16387704  0.81789659  0.37514981  1
  Ca2+  Ca14  1  0.50243221  0.84732120  0.62322606  1
  Ca2+  Ca15  1  0.33008229  0.01334296  0.62293935  1
  Ca2+  Ca16  1  0.66094591  0.34690956  0.12921207  1
  Ca2+  Ca17  1  0.83229985  0.15296204  0.37464794  1
  Ca2+  Ca18  1  0.67127824  0.31620850  0.37416801  1
  Ca2+  Ca19  1  -0.00289722  0.34716658  0.62190634  1
  Ca2+  Ca20  1  1.00426744  0.98495129  0.37248430  1
  Ca2+  Ca21  1  1.00342417  0.31945289  0.37541855  1
  Pr3+  Pr22  1  0.82954342  0.81931413  0.87388897  1
  Pr3+  Pr23  1  0.83575899  0.18052324  0.12768096  1
  Pr3+  Pr24  1  -0.00245640  0.34716017  0.12815633  1
  Pr3+  Pr25  1  0.49957490  0.17850934  0.62288949  1
  Pr3+  Pr26  1  0.33210906  0.67872696  0.62381325  1
  Pr3+  Pr27  1  0.83116385  0.82165854  0.37628431  1
  Pr3+  Pr28  1  0.83444633  0.84447140  0.62398327  1
  Pr3+  Pr29  1  0.82987135  0.48639274  0.87412551  1
  Pr3+  Pr30  1  0.00084950  0.67850564  0.62274271  1
  Pr3+  Pr31  1  0.50495976  0.51502845  0.62164817  1
  Pr3+  Pr32  1  0.67036762  0.65402666  0.37769814  1
  Pr3+  Pr33  1  0.33370603  0.98912413  0.87405784  1
  Pr3+  Pr34  1  0.66896021  0.32172321  0.87553225  1
  Pr3+  Pr35  1  1.00428069  0.31833138  0.87466485  1
  Pr3+  Pr36  1  -0.00312601  0.01244930  0.62239052  1
  Pr3+  Pr37  1  0.16639412  0.48727202  0.87435050  1
  Pr3+  Pr38  1  1.00234259  0.65257074  0.87317238  1
  Pr3+  Pr39  1  1.00444959  0.98861724  0.87638862  1
  Pr3+  Pr40  1  0.83396490  0.51121803  0.12653775  1
  Pr3+  Pr41  1  0.82993681  0.15404912  0.87550883  1
  Pr3+  Pr42  1  0.16909847  0.84308296  0.12837013  1
  Pr3+  Pr43  1  0.49595341  0.15597715  0.87652227  1
  Pr3+  Pr44  1  0.66331063  0.34442919  0.62163101  1
  Pr3+  Pr45  1  0.33767001  0.65189971  0.87456884  1
  Pr3+  Pr46  1  0.50009232  0.84426262  0.12662167  1
  Pr3+  Pr47  1  0.33102626  0.01125303  0.12712984  1
  Pr3+  Pr48  1  0.83550777  0.51136292  0.62402611  1
  Pr3+  Pr49  1  0.66324737  0.01080347  0.62298841  1
  Pr3+  Pr50  1  0.49683289  0.81977715  0.87368704  1
  Pr3+  Pr51  1  0.49730003  0.15718686  0.37376479  1
  Pr3+  Pr52  1  0.83236284  0.48451365  0.37589431  1
  Pr3+  Pr53  1  0.66190330  0.01665074  0.12680346  1
  Pr3+  Pr54  1  0.00031129  0.67678470  0.12736273  1
  Pr3+  Pr55  1  0.33717238  0.65323836  0.37506248  1
  Pr3+  Pr56  1  0.16904273  0.17854548  0.62472354  1
  Pr3+  Pr57  1  0.33434571  0.32035435  0.87539047  1
  Pr3+  Pr58  1  0.50242473  0.51070472  0.12809987  1
  Pr3+  Pr59  1  0.83987946  0.84829770  0.12618989  1
  Pr3+  Pr60  1  0.16218329  0.48661229  0.37574025  1
  Pr3+  Pr61  1  0.49781510  0.48680612  0.87438600  1
  Pr3+  Pr62  1  0.33487365  0.32428246  0.37419219  1
  Pr3+  Pr63  1  0.17178512  0.84896104  0.62155209  1
  Pr3+  Pr64  1  0.83816131  0.18159094  0.62247792  1
  Pr3+  Pr65  1  0.16227327  0.15552448  0.37410227  1
  Pr3+  Pr66  1  0.16487982  0.81948251  0.87370225  1
  Pr3+  Pr67  1  0.66884320  0.98735034  0.87531354  1
  Pr3+  Pr68  1  0.33482369  0.98644970  0.37637547  1
  Pr3+  Pr69  1  0.16676504  0.17826132  0.12513937  1
  Pr3+  Pr70  1  0.66287188  0.67862261  0.12502568  1
  Pr3+  Pr71  1  0.66898518  0.98868930  0.37494194  1
  Mn3.30+  Mn72  1  0.16486304  0.00009683  0.00217134  1
  Mn3.30+  Mn73  1  0.16512940  0.00013448  0.49740761  1
  Mn3.30+  Mn74  1  0.16724876  0.33183902  -0.00045618  1
  Mn3.30+  Mn75  1  0.16372080  0.33391398  0.50161852  1
  Mn3.30+  Mn76  1  0.16781678  0.66502044  -0.00031512  1
  Mn3.30+  Mn77  1  0.16781652  0.66617076  0.50018129  1
  Mn3.30+  Mn78  1  0.49960119  0.00202245  0.00078040  1
  Mn3.30+  Mn79  1  0.49752179  -0.00010108  0.50147667  1
  Mn3.30+  Mn80  1  0.50153177  0.33329408  0.00267980  1
  Mn3.30+  Mn81  1  0.50100214  0.33472706  0.49702370  1
  Mn3.30+  Mn82  1  0.50035551  0.66571070  0.00036680  1
  Mn3.30+  Mn83  1  0.50221617  0.66841163  0.49935439  1
  Mn3.30+  Mn84  1  0.83450223  0.00092165  0.00173299  1
  Mn3.30+  Mn85  1  0.83472309  0.00103853  0.49714107  1
  Mn3.30+  Mn86  1  0.83179910  0.33325607  0.00262929  1
  Mn3.30+  Mn87  1  0.83521756  0.33112600  0.49641683  1
  Mn3.30+  Mn88  1  0.83266968  0.66618495  0.00000481  1
  Mn3.30+  Mn89  1  0.83275510  0.66588269  0.50178684  1
  Mn3.30+  Mn90  1  -0.00245819  0.16594853  0.25269624  1
  Mn3.30+  Mn91  1  0.00148761  0.16706761  0.74950549  1
  Mn3.30+  Mn92  1  0.00005096  0.50044712  0.25229655  1
  Mn3.30+  Mn93  1  0.00159829  0.49765878  0.74685283  1
  Mn3.30+  Mn94  1  0.00256144  0.83470714  0.25150291  1
  Mn3.30+  Mn95  1  0.00064455  0.83384426  0.74880085  1
  Mn3.30+  Mn96  1  0.33357023  0.16736072  0.24845967  1
  Mn3.30+  Mn97  1  0.33065534  0.16557255  0.75018290  1
  Mn3.30+  Mn98  1  0.33444615  0.49902376  0.25197630  1
  Mn3.30+  Mn99  1  0.33230623  0.49893617  0.74616997  1
  Mn3.30+  Mn100  1  0.33211615  0.83167899  0.25212576  1
  Mn3.30+  Mn101  1  0.33463613  0.83519533  0.74680128  1
  Mn3.30+  Mn102  1  0.66729717  0.16917678  0.25146434  1
  Mn3.30+  Mn103  1  0.66614703  0.16674169  0.74899690  1
  Mn3.30+  Mn104  1  0.66629091  0.49694552  0.25334339  1
  Mn3.30+  Mn105  1  0.66694211  0.50128172  0.74789873  1
  Mn3.30+  Mn106  1  0.66771927  0.83382694  0.25007275  1
  Mn3.30+  Mn107  1  0.66427722  0.83333694  0.74825942  1
  Mn3.30+  Mn108  1  0.16280243  -0.00141862  0.25024333  1
  Mn3.30+  Mn109  1  0.16752603  0.00166068  0.74966399  1
  Mn3.30+  Mn110  1  0.16555896  0.33264368  0.25109048  1
  Mn3.30+  Mn111  1  0.16555629  0.33332392  0.74745585  1
  Mn3.30+  Mn112  1  0.16741212  0.66626354  0.25180112  1
  Mn3.30+  Mn113  1  0.16812568  0.66494283  0.74800001  1
  Mn3.30+  Mn114  1  0.49919141  0.00221442  0.24966268  1
  Mn3.30+  Mn115  1  0.49812508  -0.00002963  0.74815610  1
  Mn3.30+  Mn116  1  0.50358990  0.33449071  0.25230214  1
  Mn3.30+  Mn117  1  0.49928318  0.33358040  0.74794176  1
  Mn3.30+  Mn118  1  0.50072336  0.66649713  0.25255129  1
  Mn3.30+  Mn119  1  0.50172850  0.66754856  0.74803598  1
  Mn3.30+  Mn120  1  0.83571538  0.00155258  0.25161026  1
  Mn3.30+  Mn121  1  0.83333147  0.00056795  0.74945450  1
  Mn3.30+  Mn122  1  0.83104241  0.33148913  0.25289624  1
  Mn3.30+  Mn123  1  0.83542977  0.33320936  0.74845833  1
  Mn3.30+  Mn124  1  0.83323546  0.66614228  0.25143335  1
  Mn3.30+  Mn125  1  0.83182102  0.66593468  0.74670644  1
  Mn3.30+  Mn126  1  0.00010065  0.16547466  0.00123697  1
  Mn3.30+  Mn127  1  -0.00128735  0.16772418  0.49665506  1
  Mn3.30+  Mn128  1  -0.00013874  0.49980538  0.00030636  1
  Mn3.30+  Mn129  1  0.00146038  0.49791016  0.50092443  1
  Mn3.30+  Mn130  1  0.00045319  0.83368669  0.00045808  1
  Mn3.30+  Mn131  1  0.00274112  0.83474074  0.49823359  1
  Mn3.30+  Mn132  1  0.33284912  0.16632491  0.00194539  1
  Mn3.30+  Mn133  1  0.33124309  0.16664456  0.49955136  1
  Mn3.30+  Mn134  1  0.33299183  0.49794763  0.00067976  1
  Mn3.30+  Mn135  1  0.33403207  0.49958682  0.50014163  1
  Mn3.30+  Mn136  1  0.33228097  0.83252777  0.00023102  1
  Mn3.30+  Mn137  1  0.33469297  0.83430591  0.50076405  1
  Mn3.30+  Mn138  1  0.66448123  0.16938912  0.00227342  1
  Mn3.30+  Mn139  1  0.66909640  0.16686287  0.49776709  1
  Mn3.30+  Mn140  1  0.66677871  0.49898849  0.00070348  1
  Mn3.30+  Mn141  1  0.66632615  0.49878744  0.49766171  1
  Mn3.30+  Mn142  1  0.66776482  0.83384192  0.00086402  1
  Mn3.30+  Mn143  1  0.66412829  0.83304796  0.50071555  1
  O2-  O144  1  0.02312502  0.16088927  0.12670430  1
  O2-  O145  1  0.02553299  0.15747118  0.62414900  1
  O2-  O146  1  0.01967922  0.49613707  0.12560765  1
  O2-  O147  1  0.02748498  0.49115594  0.62524529  1
  O2-  O148  1  0.02525833  0.82389638  0.12417261  1
  O2-  O149  1  0.02648008  0.83056503  0.62510104  1
  O2-  O150  1  0.36159452  0.15946331  0.12616610  1
  O2-  O151  1  0.35594272  0.15977936  0.62427121  1
  O2-  O152  1  0.35725720  0.49868919  0.12794395  1
  O2-  O153  1  0.36032307  0.50000759  0.62340320  1
  O2-  O154  1  0.35625442  0.83165527  0.12461373  1
  O2-  O155  1  0.36188880  0.82582531  0.62514059  1
  O2-  O156  1  0.69300209  0.16167818  0.12711895  1
  O2-  O157  1  0.69294676  0.16007987  0.62323844  1
  O2-  O158  1  0.69093172  0.49230040  0.12822321  1
  O2-  O159  1  0.69231918  0.48936451  0.62277392  1
  O2-  O160  1  0.69439155  0.82845115  0.12594219  1
  O2-  O161  1  0.69067170  0.83623194  0.62490803  1
  O2-  O162  1  0.14147299  0.32773478  0.12559914  1
  O2-  O163  1  0.13770355  0.32400085  0.62553849  1
  O2-  O164  1  0.14438393  0.66467215  0.12266468  1
  O2-  O165  1  0.14451640  0.65911809  0.62606745  1
  O2-  O166  1  0.13670336  0.98987528  0.12620546  1
  O2-  O167  1  0.13979169  0.99620684  0.62180420  1
  O2-  O168  1  0.48212946  0.33164684  0.12656395  1
  O2-  O169  1  0.48119538  0.32701960  0.62291467  1
  O2-  O170  1  0.48193303  0.66050291  0.12735239  1
  O2-  O171  1  0.47499903  0.66044502  0.62399659  1
  O2-  O172  1  0.47532409  0.99164015  0.12451353  1
  O2-  O173  1  0.47292515  0.99413114  0.62608150  1
  O2-  O174  1  0.80378807  0.32822353  0.12892761  1
  O2-  O175  1  0.80687780  0.32835085  0.62252593  1
  O2-  O176  1  0.80722161  0.66064640  0.12710137  1
  O2-  O177  1  0.80506016  0.66077897  0.62421776  1
  O2-  O178  1  0.80644720  0.99511595  0.12535354  1
  O2-  O179  1  0.80837708  0.99454020  0.62375489  1
  O2-  O180  1  0.30828660  0.17324192  0.37345456  1
  O2-  O181  1  0.30789457  0.17113608  0.87609563  1
  O2-  O182  1  0.30830335  0.50337122  0.37730971  1
  O2-  O183  1  0.31162163  0.50318519  0.87093523  1
  O2-  O184  1  0.30665817  0.83913637  0.37709368  1
  O2-  O185  1  0.30778964  0.84103254  0.87325450  1
  O2-  O186  1  0.64086151  0.16831149  0.37486837  1
  O2-  O187  1  0.64048782  0.17336381  0.87519723  1
  O2-  O188  1  0.63881408  0.50974618  0.37660684  1
  O2-  O189  1  0.64270436  0.50065520  0.87217112  1
  O2-  O190  1  0.64871814  0.83966900  0.37510264  1
  O2-  O191  1  0.64186882  0.83985075  0.87444544  1
  O2-  O192  1  0.97216985  0.17737858  0.37461040  1
  O2-  O193  1  0.97247365  0.17100302  0.87461775  1
  O2-  O194  1  0.97579554  0.50529493  0.37610177  1
  O2-  O195  1  0.97322423  0.50453693  0.87388682  1
  O2-  O196  1  0.97429650  0.83834779  0.37599245  1
  O2-  O197  1  0.97415424  0.83941940  0.87425538  1
  O2-  O198  1  0.19266361  0.00886644  0.37365521  1
  O2-  O199  1  0.19071745  0.00592227  0.87778167  1
  O2-  O200  1  0.18957702  0.33501050  0.37637832  1
  O2-  O201  1  0.19063753  0.33965108  0.87244962  1
  O2-  O202  1  0.19128444  0.67266541  0.37876179  1
  O2-  O203  1  0.19222314  0.67208753  0.87215540  1
  O2-  O204  1  0.52456509  0.00800191  0.37392762  1
  O2-  O205  1  0.52615562  0.00835005  0.87605066  1
  O2-  O206  1  0.52827419  0.33718517  0.37595547  1
  O2-  O207  1  0.52511563  0.33753684  0.87387996  1
  O2-  O208  1  0.52826793  0.67376178  0.37603278  1
  O2-  O209  1  0.51945011  0.67110203  0.87255807  1
  O2-  O210  1  0.86010031  0.00480921  0.37574285  1
  O2-  O211  1  0.85900415  0.00585637  0.87587364  1
  O2-  O212  1  0.86346035  0.33991669  0.37491077  1
  O2-  O213  1  0.85962055  0.33827048  0.87448445  1
  O2-  O214  1  0.85177628  0.67235850  0.37742451  1
  O2-  O215  1  0.85788722  0.67127657  0.87157881  1
  O2-  O216  1  0.23828300  0.08992883  0.02622339  1
  O2-  O217  1  0.23384088  0.09491130  0.51598159  1
  O2-  O218  1  0.24008174  0.42636579  0.01168778  1
  O2-  O219  1  0.23395580  0.42948541  0.51644081  1
  O2-  O220  1  0.23506531  0.76417312  0.01429295  1
  O2-  O221  1  0.24208291  0.76104473  0.52420856  1
  O2-  O222  1  0.57065353  0.09978172  0.02297751  1
  O2-  O223  1  0.57001635  0.09283709  0.52122017  1
  O2-  O224  1  0.56954628  0.43152366  0.01593619  1
  O2-  O225  1  0.57333017  0.42783501  0.52148545  1
  O2-  O226  1  0.57300240  0.76234436  0.02005085  1
  O2-  O227  1  0.57168042  0.76367662  0.52279375  1
  O2-  O228  1  0.90176535  0.09769392  0.01810130  1
  O2-  O229  1  0.90571195  0.09440540  0.52256155  1
  O2-  O230  1  0.90322089  0.42685119  0.02143129  1
  O2-  O231  1  0.90241816  0.42887632  0.51823239  1
  O2-  O232  1  0.90563822  0.76140367  0.01974453  1
  O2-  O233  1  0.90789978  0.76148943  0.52146693  1
  O2-  O234  1  0.25703440  0.25577826  0.23172479  1
  O2-  O235  1  0.25776123  0.26082849  0.73128604  1
  O2-  O236  1  0.26220885  0.59408832  0.24007813  1
  O2-  O237  1  0.26593490  0.59664909  0.73346455  1
  O2-  O238  1  0.25961409  0.92783887  0.23005712  1
  O2-  O239  1  0.26343831  0.92909546  0.72717815  1
  O2-  O240  1  0.59797002  0.26309275  0.23275539  1
  O2-  O241  1  0.59537703  0.26030151  0.72918969  1
  O2-  O242  1  0.59728595  0.59451677  0.23068664  1
  O2-  O243  1  0.59679082  0.59436784  0.72502769  1
  O2-  O244  1  0.59407291  0.92827385  0.22981621  1
  O2-  O245  1  0.59598851  0.93210978  0.73347947  1
  O2-  O246  1  0.92609014  0.26096552  0.22555659  1
  O2-  O247  1  0.93026705  0.26213051  0.72816662  1
  O2-  O248  1  0.92454517  0.59392224  0.22861046  1
  O2-  O249  1  0.93044870  0.59281135  0.72713697  1
  O2-  O250  1  0.92976270  0.92726312  0.22720612  1
  O2-  O251  1  0.92796540  0.92710313  0.72916072  1
  O2-  O252  1  0.09291314  0.23676935  0.26658537  1
  O2-  O253  1  0.09417647  0.23557675  0.77318344  1
  O2-  O254  1  0.09591982  0.57311503  0.26880854  1
  O2-  O255  1  0.09199360  0.57179260  0.77238857  1
  O2-  O256  1  0.09765450  0.90160318  0.27153964  1
  O2-  O257  1  0.09692491  0.90665223  0.76997238  1
  O2-  O258  1  0.42839922  0.24365499  0.27191585  1
  O2-  O259  1  0.42611625  0.23834633  0.76948541  1
  O2-  O260  1  0.43023759  0.57235012  0.27321459  1
  O2-  O261  1  0.42947758  0.57155601  0.76808858  1
  O2-  O262  1  0.42305024  0.90821391  0.26668540  1
  O2-  O263  1  0.42800168  0.90761391  0.77510399  1
  O2-  O264  1  0.76539414  0.23429872  0.27251944  1
  O2-  O265  1  0.76374758  0.24038375  0.76981113  1
  O2-  O266  1  0.76001986  0.56891205  0.27121401  1
  O2-  O267  1  0.76462580  0.56775358  0.76636592  1
  O2-  O268  1  0.76457751  0.90664757  0.27019527  1
  O2-  O269  1  0.76079950  0.90666724  0.77086869  1
  O2-  O270  1  0.06733503  0.07136562  0.47628857  1
  O2-  O271  1  0.07156764  0.07068298  0.98125142  1
  O2-  O272  1  0.07073204  0.40389111  0.47590599  1
  O2-  O273  1  0.07112804  0.40487183  0.98016905  1
  O2-  O274  1  0.07384081  0.73988977  0.48828492  1
  O2-  O275  1  0.07172960  0.73728819  0.97768155  1
  O2-  O276  1  0.40647694  0.07507962  0.47745182  1
  O2-  O277  1  0.40381488  0.07178800  0.97881788  1
  O2-  O278  1  0.40491986  0.40592712  0.47943290  1
  O2-  O279  1  0.40812770  0.40535184  0.97787145  1
  O2-  O280  1  0.40379899  0.73641327  0.48209647  1
  O2-  O281  1  0.40464760  0.74216383  0.97834502  1
  O2-  O282  1  0.73697749  0.06926358  0.48111575  1
  O2-  O283  1  0.73605393  0.07277866  0.98067727  1
  O2-  O284  1  0.73829221  0.40145938  0.47705268  1
  O2-  O285  1  0.73923480  0.40612385  0.97741514  1
  O2-  O286  1  0.73903902  0.74163212  0.48235635  1
  O2-  O287  1  0.74182854  0.73976721  0.98153569  1
  O2-  O288  1  0.09491745  0.23488824  0.48146435  1
  O2-  O289  1  0.09355307  0.23739001  0.97952075  1
  O2-  O290  1  0.09599369  0.57010720  0.48398619  1
  O2-  O291  1  0.09287320  0.57418265  0.97597386  1
  O2-  O292  1  0.09802350  0.90383123  0.47996581  1
  O2-  O293  1  0.09577274  0.90436647  0.97718833  1
  O2-  O294  1  0.42768807  0.24100143  0.47959191  1
  O2-  O295  1  0.42820231  0.24156623  0.97914354  1
  O2-  O296  1  0.43200389  0.57217857  0.47876072  1
  O2-  O297  1  0.42755678  0.57084598  0.98023739  1
  O2-  O298  1  0.42468927  0.91011923  0.47942542  1
  O2-  O299  1  0.42700485  0.90520873  0.97942460  1
  O2-  O300  1  0.76754058  0.23568247  0.48046083  1
  O2-  O301  1  0.76185383  0.23834237  0.97883365  1
  O2-  O302  1  0.76070272  0.56827706  0.47945241  1
  O2-  O303  1  0.76341389  0.56826950  0.98390546  1
  O2-  O304  1  0.76203225  0.90626818  0.48067910  1
  O2-  O305  1  0.76266772  0.90574627  0.97907962  1
  O2-  O306  1  0.07075657  0.07262443  0.27325690  1
  O2-  O307  1  0.06799464  0.07002729  0.76795988  1
  O2-  O308  1  0.07107833  0.40403289  0.26964041  1
  O2-  O309  1  0.07224165  0.40504444  0.77429072  1
  O2-  O310  1  0.07194505  0.73865874  0.26363435  1
  O2-  O311  1  0.07183909  0.73886020  0.76911189  1
  O2-  O312  1  0.40360982  0.07343197  0.27179238  1
  O2-  O313  1  0.40710098  0.07308355  0.77336628  1
  O2-  O314  1  0.40815585  0.40646925  0.27165799  1
  O2-  O315  1  0.40542653  0.40606688  0.77049251  1
  O2-  O316  1  0.40587790  0.73890742  0.26934398  1
  O2-  O317  1  0.40344716  0.73989181  0.77055555  1
  O2-  O318  1  0.73443607  0.07009235  0.26721131  1
  O2-  O319  1  0.73741591  0.07326945  0.77147442  1
  O2-  O320  1  0.73929349  0.40407625  0.27748507  1
  O2-  O321  1  0.73900532  0.40425115  0.76894465  1
  O2-  O322  1  0.73947914  0.73803254  0.26993708  1
  O2-  O323  1  0.74078807  0.74489259  0.76654524  1
  O2-  O324  1  0.23605031  0.09104727  0.22713754  1
  O2-  O325  1  0.23702467  0.09379095  0.73071136  1
  O2-  O326  1  0.23980833  0.42424920  0.24005695  1
  O2-  O327  1  0.23513040  0.43224193  0.73076944  1
  O2-  O328  1  0.23806861  0.76148285  0.23335024  1
  O2-  O329  1  0.23926354  0.76410151  0.72853086  1
  O2-  O330  1  0.57107475  0.09828092  0.22865728  1
  O2-  O331  1  0.56885499  0.09370590  0.72767948  1
  O2-  O332  1  0.57169573  0.42996982  0.23171347  1
  O2-  O333  1  0.57260300  0.42906031  0.72913276  1
  O2-  O334  1  0.57433268  0.76037193  0.22705724  1
  O2-  O335  1  0.56915237  0.76591057  0.73100451  1
  O2-  O336  1  0.90316057  0.09549624  0.23010968  1
  O2-  O337  1  0.90457857  0.09581351  0.72955295  1
  O2-  O338  1  0.90252525  0.42675337  0.23033512  1
  O2-  O339  1  0.90373811  0.42884263  0.73072953  1
  O2-  O340  1  0.90658088  0.76250554  0.23102261  1
  O2-  O341  1  0.90629714  0.75971570  0.72733883  1
  O2-  O342  1  0.25908711  0.25695287  0.01883793  1
  O2-  O343  1  0.25702279  0.25949437  0.51738815  1
  O2-  O344  1  0.26074119  0.59440619  0.00953481  1
  O2-  O345  1  0.26557329  0.59652679  0.51649076  1
  O2-  O346  1  0.26074998  0.92753246  0.02098869  1
  O2-  O347  1  0.26275080  0.92896518  0.52174918  1
  O2-  O348  1  0.59866203  0.26679681  0.01800583  1
  O2-  O349  1  0.59470838  0.25797015  0.51959821  1
  O2-  O350  1  0.59668632  0.59139341  0.02132432  1
  O2-  O351  1  0.59730508  0.59804903  0.52229357  1
  O2-  O352  1  0.59504671  0.92974269  0.02020590  1
  O2-  O353  1  0.59517710  0.93040967  0.51587113  1
  O2-  O354  1  0.92732924  0.26278010  0.02194821  1
  O2-  O355  1  0.92933854  0.26083069  0.52507843  1
  O2-  O356  1  0.92763871  0.59574270  0.01893401  1
  O2-  O357  1  0.92773089  0.59161238  0.52478953  1
  O2-  O358  1  0.92958060  0.92924820  0.02247228  1
  O2-  O359  1  0.92595993  0.92602185  0.52189267  1
