# generated using pymatgen
data_Sr7Ca15Pr50Mn72O216
_symmetry_space_group_name_H-M   'P 1'
_cell_length_a   16.56107554
_cell_length_b   16.61025271
_cell_length_c   15.59347045
_cell_angle_alpha   89.99785262
_cell_angle_beta   89.99897666
_cell_angle_gamma   89.99391983
_symmetry_Int_Tables_number   1
_chemical_formula_structural   Sr7Ca15Pr50Mn72O216
_chemical_formula_sum   'Sr7 Ca15 Pr50 Mn72 O216'
_cell_volume   4289.50874021
_cell_formula_units_Z   1
loop_
 _symmetry_equiv_pos_site_id
 _symmetry_equiv_pos_as_xyz
  1  'x, y, z'
loop_
 _atom_type_symbol
 _atom_type_oxidation_number
  Sr2+  2.0
  Ca2+  2.0
  Pr3+  3.0
  Mn3.30+  3.3
  O2-  -2.0
loop_
 _atom_site_type_symbol
 _atom_site_label
 _atom_site_symmetry_multiplicity
 _atom_site_fract_x
 _atom_site_fract_y
 _atom_site_fract_z
 _atom_site_occupancy
  Sr2+  Sr0  1  0.66361345  0.65825822  0.87714363  1
  Sr2+  Sr1  1  0.16630378  0.50909888  0.62721796  1
  Sr2+  Sr2  1  0.17006974  0.17472560  0.12288956  1
  Sr2+  Sr3  1  0.33586849  0.98857587  0.87808491  1
  Sr2+  Sr4  1  0.33457327  0.32444881  0.37525422  1
  Sr2+  Sr5  1  1.00148828  0.32536019  0.87564015  1
  Sr2+  Sr6  1  0.16511300  0.49149800  0.87684694  1
  Ca2+  Ca7  1  1.00637634  0.65155285  0.87648306  1
  Ca2+  Ca8  1  1.00522276  0.98936108  0.87680280  1
  Ca2+  Ca9  1  0.32850843  0.68149861  0.12269818  1
  Ca2+  Ca10  1  0.32858240  0.01499813  0.12236395  1
  Ca2+  Ca11  1  0.66981242  0.65231201  0.37209305  1
  Ca2+  Ca12  1  0.17323714  0.85022487  0.12368680  1
  Ca2+  Ca13  1  0.67385405  0.31728456  0.87780606  1
  Ca2+  Ca14  1  0.33386686  0.32059208  0.87696936  1
  Ca2+  Ca15  1  0.50245768  0.51410320  0.12488289  1
  Ca2+  Ca16  1  0.49392079  0.81822136  0.87787509  1
  Ca2+  Ca17  1  0.83799618  0.18331279  0.62900865  1
  Ca2+  Ca18  1  0.82803829  0.81520680  0.37362178  1
  Ca2+  Ca19  1  0.17142475  0.51501137  0.12091819  1
  Ca2+  Ca20  1  0.65879408  0.35057709  0.12195881  1
  Ca2+  Ca21  1  0.83138037  0.15343683  0.87441799  1
  Pr3+  Pr22  1  0.66917068  0.32073972  0.37257804  1
  Pr3+  Pr23  1  0.50335606  0.84540501  0.62767324  1
  Pr3+  Pr24  1  0.33032727  0.34711071  0.62699806  1
  Pr3+  Pr25  1  1.00273222  0.32089096  0.37408434  1
  Pr3+  Pr26  1  0.33488622  0.98921107  0.37172367  1
  Pr3+  Pr27  1  0.16264871  0.82101752  0.87816063  1
  Pr3+  Pr28  1  0.50150788  0.17953917  0.12244624  1
  Pr3+  Pr29  1  0.66195343  0.67714653  0.12456180  1
  Pr3+  Pr30  1  0.66610697  0.01423253  0.62673485  1
  Pr3+  Pr31  1  0.32846025  0.34688367  0.12333418  1
  Pr3+  Pr32  1  0.16815679  0.18012087  0.62723201  1
  Pr3+  Pr33  1  -0.00222786  0.67750433  0.62836069  1
  Pr3+  Pr34  1  0.33580323  0.65306979  0.37229833  1
  Pr3+  Pr35  1  0.50255842  0.18034149  0.62777857  1
  Pr3+  Pr36  1  0.49782685  0.15548598  0.87533614  1
  Pr3+  Pr37  1  0.00054806  0.01214057  0.12162922  1
  Pr3+  Pr38  1  0.16499545  0.48685548  0.37188095  1
  Pr3+  Pr39  1  0.66418170  0.01240224  0.12360908  1
  Pr3+  Pr40  1  -0.00550275  0.01633456  0.62760478  1
  Pr3+  Pr41  1  0.16364149  0.81977552  0.37175689  1
  Pr3+  Pr42  1  0.49841674  0.48664953  0.37238379  1
  Pr3+  Pr43  1  0.82822968  0.48807510  0.37302443  1
  Pr3+  Pr44  1  0.00144422  0.34582943  0.12145994  1
  Pr3+  Pr45  1  0.16830418  0.84493176  0.62559796  1
  Pr3+  Pr46  1  1.00126734  0.65405423  0.37297339  1
  Pr3+  Pr47  1  0.83663241  0.51287584  0.62710973  1
  Pr3+  Pr48  1  0.00057796  0.67855521  0.12143335  1
  Pr3+  Pr49  1  0.33677631  0.65621289  0.87798010  1
  Pr3+  Pr50  1  0.83350608  0.51237239  0.12298382  1
  Pr3+  Pr51  1  0.32901209  0.67826280  0.62582270  1
  Pr3+  Pr52  1  0.82991956  0.15329536  0.37573541  1
  Pr3+  Pr53  1  0.49762593  0.81908920  0.37363885  1
  Pr3+  Pr54  1  0.49482561  0.48545889  0.87782782  1
  Pr3+  Pr55  1  0.49705263  0.15576863  0.37510011  1
  Pr3+  Pr56  1  0.49958741  0.84525774  0.12245716  1
  Pr3+  Pr57  1  -0.00343538  0.34733143  0.62793454  1
  Pr3+  Pr58  1  0.50182867  0.51187627  0.62490884  1
  Pr3+  Pr59  1  0.66440665  0.67809299  0.62566802  1
  Pr3+  Pr60  1  0.66854578  0.98835247  0.87585374  1
  Pr3+  Pr61  1  0.83650908  0.17973494  0.12233545  1
  Pr3+  Pr62  1  0.83551535  0.84456765  0.12364174  1
  Pr3+  Pr63  1  1.00257195  0.98586272  0.37381009  1
  Pr3+  Pr64  1  0.16334070  0.15428470  0.87714068  1
  Pr3+  Pr65  1  0.82944135  0.48693143  0.87665933  1
  Pr3+  Pr66  1  0.83652103  0.84441578  0.62596410  1
  Pr3+  Pr67  1  0.66583061  0.34594588  0.62800254  1
  Pr3+  Pr68  1  0.83463747  0.82120878  0.87602714  1
  Pr3+  Pr69  1  0.67206698  0.98377203  0.37448003  1
  Pr3+  Pr70  1  0.16453557  0.15450305  0.37317630  1
  Pr3+  Pr71  1  0.33050825  0.01298301  0.62697649  1
  Mn3.30+  Mn72  1  0.16882166  -0.00093694  -0.00014912  1
  Mn3.30+  Mn73  1  0.16533787  -0.00019344  0.50059810  1
  Mn3.30+  Mn74  1  0.16792164  0.33420108  -0.00111380  1
  Mn3.30+  Mn75  1  0.16637569  0.33327880  0.49973286  1
  Mn3.30+  Mn76  1  0.16792559  0.66741763  0.00200287  1
  Mn3.30+  Mn77  1  0.16608010  0.66592615  0.49928020  1
  Mn3.30+  Mn78  1  0.49768280  -0.00089495  0.00047303  1
  Mn3.30+  Mn79  1  0.50126486  -0.00015491  0.49999095  1
  Mn3.30+  Mn80  1  0.50116243  0.33407367  -0.00080972  1
  Mn3.30+  Mn81  1  0.50065774  0.33350763  0.50093678  1
  Mn3.30+  Mn82  1  0.49692574  0.66560010  0.00283511  1
  Mn3.30+  Mn83  1  0.50127546  0.66631679  0.49813838  1
  Mn3.30+  Mn84  1  0.83511466  0.00111965  -0.00310488  1
  Mn3.30+  Mn85  1  0.83378067  -0.00101588  0.50050003  1
  Mn3.30+  Mn86  1  0.82990777  0.33254134  0.00016730  1
  Mn3.30+  Mn87  1  0.83336017  0.33274767  0.50014639  1
  Mn3.30+  Mn88  1  0.83384139  0.66619772  -0.00176176  1
  Mn3.30+  Mn89  1  0.83136416  0.66716793  0.49861306  1
  Mn3.30+  Mn90  1  -0.00080809  0.16637497  0.24808578  1
  Mn3.30+  Mn91  1  -0.00270105  0.16767808  0.75356231  1
  Mn3.30+  Mn92  1  0.00062653  0.50046750  0.24679036  1
  Mn3.30+  Mn93  1  0.00048146  0.50141679  0.75266340  1
  Mn3.30+  Mn94  1  0.00003833  0.83272970  0.24824113  1
  Mn3.30+  Mn95  1  0.00088577  0.83451316  0.75236697  1
  Mn3.30+  Mn96  1  0.33369490  0.16745444  0.24925227  1
  Mn3.30+  Mn97  1  0.33336891  0.16787111  0.75170276  1
  Mn3.30+  Mn98  1  0.33396378  0.50140974  0.24546287  1
  Mn3.30+  Mn99  1  0.33249959  0.49946197  0.75265429  1
  Mn3.30+  Mn100  1  0.33148071  0.83345129  0.24750956  1
  Mn3.30+  Mn101  1  0.33449122  0.83363518  0.75198575  1
  Mn3.30+  Mn102  1  0.66633404  0.16765854  0.24815845  1
  Mn3.30+  Mn103  1  0.67062402  0.16793165  0.75119290  1
  Mn3.30+  Mn104  1  0.66434354  0.50002936  0.24765556  1
  Mn3.30+  Mn105  1  0.66605943  0.49912404  0.75367363  1
  Mn3.30+  Mn106  1  0.66724869  0.83098734  0.24976069  1
  Mn3.30+  Mn107  1  0.66684394  0.83281167  0.75276528  1
  Mn3.30+  Mn108  1  0.16922047  -0.00062494  0.24801829  1
  Mn3.30+  Mn109  1  0.16473872  -0.00047923  0.75163086  1
  Mn3.30+  Mn110  1  0.16759051  0.33311490  0.24781572  1
  Mn3.30+  Mn111  1  0.16671507  0.33441245  0.75331925  1
  Mn3.30+  Mn112  1  0.16907698  0.66666707  0.24671869  1
  Mn3.30+  Mn113  1  0.16530345  0.66659137  0.75148653  1
  Mn3.30+  Mn114  1  0.49954707  0.00011063  0.24862853  1
  Mn3.30+  Mn115  1  0.49972761  -0.00121837  0.75151024  1
  Mn3.30+  Mn116  1  0.50014891  0.33442230  0.24693964  1
  Mn3.30+  Mn117  1  0.50105730  0.33340034  0.75423218  1
  Mn3.30+  Mn118  1  0.49921271  0.66542413  0.24825482  1
  Mn3.30+  Mn119  1  0.49896567  0.66677010  0.75151479  1
  Mn3.30+  Mn120  1  0.83387247  -0.00200176  0.24949225  1
  Mn3.30+  Mn121  1  0.83526446  0.00210397  0.75281641  1
  Mn3.30+  Mn122  1  0.83163747  0.33375922  0.24603660  1
  Mn3.30+  Mn123  1  0.83171648  0.33085494  0.75329896  1
  Mn3.30+  Mn124  1  0.83194016  0.66728869  0.24893314  1
  Mn3.30+  Mn125  1  0.83328648  0.66627541  0.75380841  1
  Mn3.30+  Mn126  1  -0.00066270  0.16716456  -0.00271568  1
  Mn3.30+  Mn127  1  -0.00251621  0.16743382  0.50098476  1
  Mn3.30+  Mn128  1  0.00251311  0.50135935  0.00050805  1
  Mn3.30+  Mn129  1  -0.00126207  0.50079472  0.49920184  1
  Mn3.30+  Mn130  1  0.00289640  0.83433514  0.00082353  1
  Mn3.30+  Mn131  1  -0.00203353  0.83247440  0.49821358  1
  Mn3.30+  Mn132  1  0.33369337  0.16724525  -0.00092408  1
  Mn3.30+  Mn133  1  0.33319855  0.16733249  0.50027606  1
  Mn3.30+  Mn134  1  0.33336181  0.50068495  0.00184650  1
  Mn3.30+  Mn135  1  0.33325749  0.50014508  0.49939478  1
  Mn3.30+  Mn136  1  0.33194664  0.83345316  0.00187836  1
  Mn3.30+  Mn137  1  0.33365035  0.83380829  0.49922989  1
  Mn3.30+  Mn138  1  0.66850569  0.16890456  -0.00092191  1
  Mn3.30+  Mn139  1  0.66835181  0.16691693  0.50204113  1
  Mn3.30+  Mn140  1  0.66328448  0.49860578  -0.00030164  1
  Mn3.30+  Mn141  1  0.66746106  0.50058564  0.49980351  1
  Mn3.30+  Mn142  1  0.66523534  0.83269847  -0.00173236  1
  Mn3.30+  Mn143  1  0.66866969  0.83085360  0.49919891  1
  O2-  O144  1  0.01980159  0.16086500  0.12447613  1
  O2-  O145  1  0.02467865  0.16328279  0.62720318  1
  O2-  O146  1  0.02707076  0.49480930  0.12570544  1
  O2-  O147  1  0.01518107  0.49711290  0.62487219  1
  O2-  O148  1  0.02941146  0.82686593  0.12526807  1
  O2-  O149  1  0.02428766  0.82536543  0.62543413  1
  O2-  O150  1  0.35677003  0.16113418  0.12547703  1
  O2-  O151  1  0.35761821  0.16087723  0.62533743  1
  O2-  O152  1  0.36231580  0.49192039  0.12445514  1
  O2-  O153  1  0.35754561  0.49624675  0.62722149  1
  O2-  O154  1  0.35810840  0.82508090  0.12711899  1
  O2-  O155  1  0.35909534  0.82666904  0.62370376  1
  O2-  O156  1  0.69354348  0.15779176  0.12394901  1
  O2-  O157  1  0.69604955  0.16139800  0.62616230  1
  O2-  O158  1  0.69025532  0.49543929  0.12371263  1
  O2-  O159  1  0.69251028  0.49383816  0.62796756  1
  O2-  O160  1  0.69105938  0.82792799  0.12403358  1
  O2-  O161  1  0.69262322  0.82676958  0.62687374  1
  O2-  O162  1  0.14481392  0.32809243  0.12556422  1
  O2-  O163  1  0.14147321  0.32822554  0.62531883  1
  O2-  O164  1  0.14236572  0.65925271  0.12625832  1
  O2-  O165  1  0.14208335  0.66749337  0.62284499  1
  O2-  O166  1  0.14386831  0.99693905  0.12484210  1
  O2-  O167  1  0.13959334  0.99397120  0.62450542  1
  O2-  O168  1  0.47255397  0.32540248  0.12324999  1
  O2-  O169  1  0.47536892  0.32933973  0.62866773  1
  O2-  O170  1  0.47149176  0.65965080  0.12774181  1
  O2-  O171  1  0.47352642  0.66048237  0.62363242  1
  O2-  O172  1  0.47271358  0.99413735  0.12459559  1
  O2-  O173  1  0.47510744  0.99328518  0.62483665  1
  O2-  O174  1  0.80188843  0.32687857  0.12445260  1
  O2-  O175  1  0.80893023  0.32934570  0.62770155  1
  O2-  O176  1  0.80727205  0.66313481  0.12345551  1
  O2-  O177  1  0.80889329  0.66229380  0.62776220  1
  O2-  O178  1  0.80753629  0.99296041  0.12420165  1
  O2-  O179  1  0.80809196  0.98996615  0.62629842  1
  O2-  O180  1  0.30941677  0.16890508  0.37754164  1
  O2-  O181  1  0.30947106  0.17355307  0.87231553  1
  O2-  O182  1  0.30889648  0.50516843  0.37145071  1
  O2-  O183  1  0.31432356  0.50918487  0.87643930  1
  O2-  O184  1  0.30746671  0.84138234  0.37357123  1
  O2-  O185  1  0.30760787  0.83243952  0.87579239  1
  O2-  O186  1  0.64125889  0.17260716  0.37455756  1
  O2-  O187  1  0.64118785  0.17040373  0.87573268  1
  O2-  O188  1  0.64309983  0.50514097  0.37299028  1
  O2-  O189  1  0.63889832  0.50511154  0.87560070  1
  O2-  O190  1  0.64028420  0.83919137  0.37389504  1
  O2-  O191  1  0.63786552  0.83999164  0.87543988  1
  O2-  O192  1  0.97286186  0.17224500  0.37318545  1
  O2-  O193  1  0.97254296  0.17202464  0.87514345  1
  O2-  O194  1  0.97247038  0.50489115  0.37125119  1
  O2-  O195  1  0.97520914  0.50510854  0.87800524  1
  O2-  O196  1  0.97109320  0.83896114  0.37236775  1
  O2-  O197  1  0.97687690  0.84490907  0.87590756  1
  O2-  O198  1  0.19002367  0.00503643  0.37643969  1
  O2-  O199  1  0.18632064  0.00353957  0.87428973  1
  O2-  O200  1  0.18439368  0.33809028  0.37292896  1
  O2-  O201  1  0.19155107  0.33479422  0.87533799  1
  O2-  O202  1  0.19162893  0.67268813  0.37278432  1
  O2-  O203  1  0.19256871  0.67424894  0.87773421  1
  O2-  O204  1  0.52802053  0.00712779  0.37570986  1
  O2-  O205  1  0.52497229  0.00752561  0.87552866  1
  O2-  O206  1  0.52545997  0.33722508  0.37314437  1
  O2-  O207  1  0.53111546  0.33815570  0.87542650  1
  O2-  O208  1  0.52779433  0.67245925  0.37423028  1
  O2-  O209  1  0.51459108  0.67300482  0.87501984  1
  O2-  O210  1  0.85954526  0.00771009  0.37485681  1
  O2-  O211  1  0.86275218  0.00732229  0.87434909  1
  O2-  O212  1  0.85855256  0.33995109  0.37044919  1
  O2-  O213  1  0.85292268  0.34158342  0.87706486  1
  O2-  O214  1  0.85763678  0.66991287  0.37155003  1
  O2-  O215  1  0.86238258  0.67177062  0.87690736  1
  O2-  O216  1  0.23963640  0.09285462  0.01133222  1
  O2-  O217  1  0.23723964  0.09370618  0.52138869  1
  O2-  O218  1  0.24146715  0.42990977  0.02299942  1
  O2-  O219  1  0.24163644  0.42519284  0.51589039  1
  O2-  O220  1  0.23412883  0.76573787  0.02002001  1
  O2-  O221  1  0.23841447  0.76201249  0.51829426  1
  O2-  O222  1  0.57451615  0.09387533  0.02047604  1
  O2-  O223  1  0.57237082  0.09442055  0.52294755  1
  O2-  O224  1  0.56640555  0.43048537  0.02031142  1
  O2-  O225  1  0.57422677  0.42768906  0.52004359  1
  O2-  O226  1  0.57012737  0.75615266  0.02318457  1
  O2-  O227  1  0.57158263  0.76162079  0.52185687  1
  O2-  O228  1  0.90583007  0.09228748  0.02264949  1
  O2-  O229  1  0.90340171  0.09751066  0.52195583  1
  O2-  O230  1  0.90388191  0.42614051  0.02153884  1
  O2-  O231  1  0.90311221  0.42841803  0.51860081  1
  O2-  O232  1  0.90826779  0.76226810  0.02070843  1
  O2-  O233  1  0.90457331  0.76007796  0.52120058  1
  O2-  O234  1  0.26435784  0.26222133  0.23264026  1
  O2-  O235  1  0.25973247  0.25985122  0.72709466  1
  O2-  O236  1  0.26650717  0.59982792  0.23130504  1
  O2-  O237  1  0.26202424  0.59762856  0.73371855  1
  O2-  O238  1  0.26617558  0.93167683  0.23166727  1
  O2-  O239  1  0.26241200  0.92536466  0.72690657  1
  O2-  O240  1  0.59551267  0.26393832  0.22761485  1
  O2-  O241  1  0.59558817  0.25941179  0.72724446  1
  O2-  O242  1  0.59502864  0.59495369  0.22958486  1
  O2-  O243  1  0.59276342  0.59255770  0.72756284  1
  O2-  O244  1  0.59587584  0.92694673  0.22959980  1
  O2-  O245  1  0.59616537  0.92802732  0.72859791  1
  O2-  O246  1  0.92681156  0.26182828  0.22738351  1
  O2-  O247  1  0.92862738  0.26238776  0.72941583  1
  O2-  O248  1  0.92908644  0.59436792  0.22711698  1
  O2-  O249  1  0.92425461  0.59407059  0.72976984  1
  O2-  O250  1  0.93025261  0.92788896  0.22630703  1
  O2-  O251  1  0.92750881  0.92693171  0.72736253  1
  O2-  O252  1  0.09014900  0.23843222  0.27190543  1
  O2-  O253  1  0.09677533  0.23590643  0.76716000  1
  O2-  O254  1  0.09483396  0.57417443  0.27239987  1
  O2-  O255  1  0.09134675  0.57768572  0.76647419  1
  O2-  O256  1  0.09281344  0.90614479  0.27208009  1
  O2-  O257  1  0.09718728  0.90260156  0.76594702  1
  O2-  O258  1  0.43227147  0.23616907  0.26619328  1
  O2-  O259  1  0.43262795  0.23831205  0.76787075  1
  O2-  O260  1  0.42839811  0.57338504  0.27467475  1
  O2-  O261  1  0.42924144  0.57040809  0.76804379  1
  O2-  O262  1  0.42941220  0.90543018  0.27151116  1
  O2-  O263  1  0.43087728  0.89904156  0.76738260  1
  O2-  O264  1  0.76205063  0.23765932  0.27117888  1
  O2-  O265  1  0.76343060  0.23611877  0.77197776  1
  O2-  O266  1  0.76245582  0.56920803  0.26488714  1
  O2-  O267  1  0.76192488  0.56863949  0.76880620  1
  O2-  O268  1  0.76404899  0.90353845  0.27088720  1
  O2-  O269  1  0.76339362  0.90701356  0.77355802  1
  O2-  O270  1  0.06926520  0.07252699  0.47962612  1
  O2-  O271  1  0.07159555  0.07216021  0.98078810  1
  O2-  O272  1  0.07024018  0.40664007  0.48026226  1
  O2-  O273  1  0.07269164  0.40562001  0.98739160  1
  O2-  O274  1  0.07072858  0.73903728  0.47722985  1
  O2-  O275  1  0.07020882  0.73901058  0.97849016  1
  O2-  O276  1  0.40463188  0.07224062  0.48047927  1
  O2-  O277  1  0.41123943  0.07631898  0.98083850  1
  O2-  O278  1  0.41007292  0.40870089  0.48416820  1
  O2-  O279  1  0.40501966  0.40292470  0.97705497  1
  O2-  O280  1  0.40538125  0.73963237  0.47742709  1
  O2-  O281  1  0.40210901  0.73847959  0.98517567  1
  O2-  O282  1  0.73824024  0.06904928  0.47919721  1
  O2-  O283  1  0.73787122  0.07019790  0.98123510  1
  O2-  O284  1  0.73824748  0.40429200  0.47947219  1
  O2-  O285  1  0.73670870  0.40581947  0.97882812  1
  O2-  O286  1  0.73485291  0.73343683  0.48149602  1
  O2-  O287  1  0.74417267  0.74230432  0.98077599  1
  O2-  O288  1  0.09376807  0.23780368  0.48004430  1
  O2-  O289  1  0.09408383  0.23800721  0.98159555  1
  O2-  O290  1  0.09247995  0.57290935  0.47559850  1
  O2-  O291  1  0.09328492  0.57727228  0.98450600  1
  O2-  O292  1  0.09408860  0.90436270  0.47863002  1
  O2-  O293  1  0.09593952  0.90585862  0.98299416  1
  O2-  O294  1  0.43211655  0.23678574  0.48518934  1
  O2-  O295  1  0.43264312  0.23841065  0.98144940  1
  O2-  O296  1  0.42896622  0.57276392  0.47794449  1
  O2-  O297  1  0.42766161  0.57196910  0.97982264  1
  O2-  O298  1  0.42936363  0.90587550  0.47852513  1
  O2-  O299  1  0.43119003  0.90074435  0.98302463  1
  O2-  O300  1  0.76157960  0.24055062  0.47684374  1
  O2-  O301  1  0.76480811  0.23423503  0.98026179  1
  O2-  O302  1  0.76418720  0.56861408  0.48357895  1
  O2-  O303  1  0.76124329  0.56949937  0.98347298  1
  O2-  O304  1  0.76307430  0.90105329  0.47803517  1
  O2-  O305  1  0.76385634  0.90862700  0.97715822  1
  O2-  O306  1  0.07165269  0.07204191  0.27009859  1
  O2-  O307  1  0.06813232  0.07268233  0.77009667  1
  O2-  O308  1  0.07004263  0.40636782  0.26947615  1
  O2-  O309  1  0.07332010  0.40655693  0.76223287  1
  O2-  O310  1  0.07009810  0.73838628  0.27090081  1
  O2-  O311  1  0.07129866  0.74015730  0.77235345  1
  O2-  O312  1  0.40788121  0.07462745  0.27347640  1
  O2-  O313  1  0.40814914  0.07343828  0.76584638  1
  O2-  O314  1  0.40752917  0.40718226  0.26804209  1
  O2-  O315  1  0.40707376  0.40346461  0.77273939  1
  O2-  O316  1  0.40600649  0.74117065  0.27386438  1
  O2-  O317  1  0.40108388  0.73566212  0.76431628  1
  O2-  O318  1  0.73865458  0.07041491  0.27054096  1
  O2-  O319  1  0.73666378  0.06881570  0.76927169  1
  O2-  O320  1  0.73846049  0.40661850  0.27140829  1
  O2-  O321  1  0.73588937  0.40301399  0.77095455  1
  O2-  O322  1  0.73480241  0.73657181  0.26807113  1
  O2-  O323  1  0.74279337  0.74093361  0.77057427  1
  O2-  O324  1  0.24040890  0.09568637  0.23865516  1
  O2-  O325  1  0.23698173  0.09268254  0.72982919  1
  O2-  O326  1  0.23905719  0.43303177  0.22885130  1
  O2-  O327  1  0.24417504  0.42446340  0.73067846  1
  O2-  O328  1  0.23400144  0.76649810  0.23260892  1
  O2-  O329  1  0.23810542  0.76216388  0.72937635  1
  O2-  O330  1  0.57241614  0.09469284  0.22794147  1
  O2-  O331  1  0.57549380  0.09502907  0.72957920  1
  O2-  O332  1  0.56914173  0.43044208  0.23140141  1
  O2-  O333  1  0.57117746  0.42794863  0.72851955  1
  O2-  O334  1  0.56916737  0.76039871  0.22739663  1
  O2-  O335  1  0.57276520  0.75714002  0.72758839  1
  O2-  O336  1  0.90467601  0.09378604  0.22961719  1
  O2-  O337  1  0.90394662  0.09474992  0.72540171  1
  O2-  O338  1  0.90420937  0.42685872  0.22540134  1
  O2-  O339  1  0.90302707  0.42671431  0.73334289  1
  O2-  O340  1  0.90719369  0.76046048  0.22507619  1
  O2-  O341  1  0.90723469  0.76274584  0.73141472  1
  O2-  O342  1  0.26344730  0.26345728  0.01636278  1
  O2-  O343  1  0.26052223  0.25881682  0.52329092  1
  O2-  O344  1  0.26429559  0.59823239  0.01896312  1
  O2-  O345  1  0.26341745  0.59654672  0.51539450  1
  O2-  O346  1  0.26453943  0.92814667  0.02108115  1
  O2-  O347  1  0.26212473  0.92789541  0.52112832  1
  O2-  O348  1  0.59514258  0.26110194  0.02329339  1
  O2-  O349  1  0.59571213  0.26190605  0.52186482  1
  O2-  O350  1  0.59343953  0.59414126  0.02025328  1
  O2-  O351  1  0.59464523  0.59237254  0.52307658  1
  O2-  O352  1  0.59360078  0.92879626  0.02173530  1
  O2-  O353  1  0.59754715  0.92699722  0.52080261  1
  O2-  O354  1  0.92533629  0.26122145  0.02393994  1
  O2-  O355  1  0.93017237  0.26521789  0.51696426  1
  O2-  O356  1  0.92542161  0.59220190  0.02395632  1
  O2-  O357  1  0.92757318  0.59666882  0.51866812  1
  O2-  O358  1  0.92747699  0.92564737  0.02373145  1
  O2-  O359  1  0.92947250  0.92958320  0.52109283  1
