# generated using pymatgen
data_Sr7Ca15Pr50Mn72O216
_symmetry_space_group_name_H-M   'P 1'
_cell_length_a   16.55831524
_cell_length_b   16.60461955
_cell_length_c   15.59443260
_cell_angle_alpha   90.00294445
_cell_angle_beta   90.00340410
_cell_angle_gamma   90.00559363
_symmetry_Int_Tables_number   1
_chemical_formula_structural   Sr7Ca15Pr50Mn72O216
_chemical_formula_sum   'Sr7 Ca15 Pr50 Mn72 O216'
_cell_volume   4287.60382807
_cell_formula_units_Z   1
loop_
 _symmetry_equiv_pos_site_id
 _symmetry_equiv_pos_as_xyz
  1  'x, y, z'
loop_
 _atom_type_symbol
 _atom_type_oxidation_number
  Sr2+  2.0
  Ca2+  2.0
  Pr3+  3.0
  Mn3.30+  3.3
  O2-  -2.0
loop_
 _atom_site_type_symbol
 _atom_site_label
 _atom_site_symmetry_multiplicity
 _atom_site_fract_x
 _atom_site_fract_y
 _atom_site_fract_z
 _atom_site_occupancy
  Sr2+  Sr0  1  0.33580007  0.98988560  0.37236039  1
  Sr2+  Sr1  1  0.83210056  0.17442879  0.12208182  1
  Sr2+  Sr2  1  0.83495321  0.17717749  0.62763995  1
  Sr2+  Sr3  1  0.66607226  0.01162738  0.12474501  1
  Sr2+  Sr4  1  0.16665222  0.82671271  0.37611179  1
  Sr2+  Sr5  1  -0.00545005  0.34285953  0.62675623  1
  Sr2+  Sr6  1  0.33459515  0.67598531  0.12478969  1
  Ca2+  Ca7  1  0.83674941  0.51193555  0.62512352  1
  Ca2+  Ca8  1  0.49818700  0.15108758  0.37241026  1
  Ca2+  Ca9  1  0.50239857  0.51400852  0.12353107  1
  Ca2+  Ca10  1  0.49680351  0.82032849  0.87912566  1
  Ca2+  Ca11  1  1.00150452  0.98934904  0.87480665  1
  Ca2+  Ca12  1  0.49912262  0.15270451  0.87826655  1
  Ca2+  Ca13  1  0.50292566  0.85083377  0.12392551  1
  Ca2+  Ca14  1  1.00706786  0.98560549  0.37520333  1
  Ca2+  Ca15  1  0.99883453  0.31760807  0.87433104  1
  Ca2+  Ca16  1  0.66942961  0.31745665  0.37388251  1
  Ca2+  Ca17  1  0.83415050  0.51443845  0.12452695  1
  Ca2+  Ca18  1  0.83266807  0.15629495  0.87494823  1
  Ca2+  Ca19  1  0.33478097  0.01135107  0.12640294  1
  Ca2+  Ca20  1  0.17020066  0.84910059  0.62421301  1
  Ca2+  Ca21  1  0.67119596  0.31523932  0.87590658  1
  Pr3+  Pr22  1  0.50308394  0.84811207  0.62665324  1
  Pr3+  Pr23  1  -0.00060670  0.01189836  0.62561428  1
  Pr3+  Pr24  1  0.32996837  0.01301102  0.62412296  1
  Pr3+  Pr25  1  0.16686312  0.51101399  0.62518779  1
  Pr3+  Pr26  1  0.17255334  0.84790236  0.12515785  1
  Pr3+  Pr27  1  0.83499773  0.84737903  0.12382321  1
  Pr3+  Pr28  1  0.33651379  0.65450384  0.87629369  1
  Pr3+  Pr29  1  1.00083879  0.65266086  0.87540686  1
  Pr3+  Pr30  1  0.16059078  0.48421878  0.87679644  1
  Pr3+  Pr31  1  0.16208567  0.15149154  0.87500110  1
  Pr3+  Pr32  1  -0.00782209  0.34550875  0.12257805  1
  Pr3+  Pr33  1  0.32723446  0.68279375  0.62548161  1
  Pr3+  Pr34  1  0.82586897  0.48397469  0.37449776  1
  Pr3+  Pr35  1  0.50489593  0.17875382  0.62471009  1
  Pr3+  Pr36  1  0.83147564  0.82361844  0.87553445  1
  Pr3+  Pr37  1  0.33429654  0.65796748  0.37309026  1
  Pr3+  Pr38  1  0.66907922  0.65521016  0.37458668  1
  Pr3+  Pr39  1  0.82684558  0.48427651  0.87505687  1
  Pr3+  Pr40  1  -0.00412779  0.01227827  0.12441194  1
  Pr3+  Pr41  1  0.16865363  0.17980943  0.62521034  1
  Pr3+  Pr42  1  0.66804027  0.65587588  0.87500678  1
  Pr3+  Pr43  1  0.16856936  0.51270378  0.12443866  1
  Pr3+  Pr44  1  0.66753292  0.99248567  0.87679625  1
  Pr3+  Pr45  1  0.16431410  0.82202432  0.87438052  1
  Pr3+  Pr46  1  0.66528628  0.67917023  0.62559873  1
  Pr3+  Pr47  1  0.49807279  0.48803757  0.37255239  1
  Pr3+  Pr48  1  1.00099948  0.31988076  0.37498485  1
  Pr3+  Pr49  1  0.33840782  0.31701202  0.37400291  1
  Pr3+  Pr50  1  0.33792771  0.31653625  0.87592256  1
  Pr3+  Pr51  1  0.32991364  0.34513758  0.62527512  1
  Pr3+  Pr52  1  0.83284502  0.82337804  0.37459363  1
  Pr3+  Pr53  1  0.66741640  0.34521979  0.62580358  1
  Pr3+  Pr54  1  0.16321750  0.14964267  0.37518414  1
  Pr3+  Pr55  1  0.65970749  0.68080715  0.12424461  1
  Pr3+  Pr56  1  0.49479480  0.82339552  0.37220331  1
  Pr3+  Pr57  1  0.83244983  0.15562745  0.37576663  1
  Pr3+  Pr58  1  0.34044648  0.98518787  0.87705015  1
  Pr3+  Pr59  1  1.00248075  0.65388719  0.37450244  1
  Pr3+  Pr60  1  0.17119046  0.17637991  0.12496473  1
  Pr3+  Pr61  1  0.66651173  0.99133304  0.37368343  1
  Pr3+  Pr62  1  0.66388620  0.34689420  0.12430121  1
  Pr3+  Pr63  1  0.33315573  0.34415922  0.12439458  1
  Pr3+  Pr64  1  -0.00394879  0.68000452  0.12474813  1
  Pr3+  Pr65  1  0.66574611  0.01622526  0.62564289  1
  Pr3+  Pr66  1  0.16333582  0.48863077  0.37297499  1
  Pr3+  Pr67  1  0.50219106  0.51283194  0.62590649  1
  Pr3+  Pr68  1  0.83659085  0.84654082  0.62620567  1
  Pr3+  Pr69  1  0.50570651  0.17503568  0.12587779  1
  Pr3+  Pr70  1  -0.00299015  0.67815252  0.62511833  1
  Pr3+  Pr71  1  0.49934872  0.48642172  0.87787484  1
  Mn3.30+  Mn72  1  0.16840974  -0.00006981  -0.00025728  1
  Mn3.30+  Mn73  1  0.16584722  -0.00181494  0.50044741  1
  Mn3.30+  Mn74  1  0.16427204  0.33109039  -0.00006437  1
  Mn3.30+  Mn75  1  0.16639623  0.33359377  0.49949851  1
  Mn3.30+  Mn76  1  0.16708309  0.66701392  0.00008923  1
  Mn3.30+  Mn77  1  0.16537307  0.66834836  0.50002108  1
  Mn3.30+  Mn78  1  0.50030722  -0.00012145  0.00066743  1
  Mn3.30+  Mn79  1  0.49926597  0.00135122  0.49943097  1
  Mn3.30+  Mn80  1  0.50212688  0.33193576  -0.00083952  1
  Mn3.30+  Mn81  1  0.50150338  0.33250678  0.49786216  1
  Mn3.30+  Mn82  1  0.49987037  0.66829347  0.00051357  1
  Mn3.30+  Mn83  1  0.49931645  0.66735655  0.50070522  1
  Mn3.30+  Mn84  1  0.83498408  0.00258329  -0.00248019  1
  Mn3.30+  Mn85  1  0.83612760  0.00045047  0.49880348  1
  Mn3.30+  Mn86  1  0.83129184  0.33156829  -0.00154279  1
  Mn3.30+  Mn87  1  0.83227120  0.33298534  0.50070258  1
  Mn3.30+  Mn88  1  0.83152530  0.66615943  0.00093400  1
  Mn3.30+  Mn89  1  0.83370139  0.66581714  0.50031398  1
  Mn3.30+  Mn90  1  0.00023902  0.16559335  0.24909771  1
  Mn3.30+  Mn91  1  -0.00154658  0.16689780  0.75275295  1
  Mn3.30+  Mn92  1  -0.00404485  0.49932291  0.24861304  1
  Mn3.30+  Mn93  1  -0.00356203  0.49695271  0.75051736  1
  Mn3.30+  Mn94  1  0.00165795  0.83452006  0.25045238  1
  Mn3.30+  Mn95  1  0.00203561  0.83434656  0.74983509  1
  Mn3.30+  Mn96  1  0.33639805  0.16414322  0.24932048  1
  Mn3.30+  Mn97  1  0.33544199  0.16558887  0.75125996  1
  Mn3.30+  Mn98  1  0.33369375  0.49993333  0.24840970  1
  Mn3.30+  Mn99  1  0.33283406  0.49900289  0.75164576  1
  Mn3.30+  Mn100  1  0.33498592  0.83432789  0.24695648  1
  Mn3.30+  Mn101  1  0.33354998  0.83403930  0.75073781  1
  Mn3.30+  Mn102  1  0.66675138  0.16800811  0.25112966  1
  Mn3.30+  Mn103  1  0.66748579  0.16879461  0.75325326  1
  Mn3.30+  Mn104  1  0.66544559  0.49960575  0.24855857  1
  Mn3.30+  Mn105  1  0.66769023  0.49844504  0.74975637  1
  Mn3.30+  Mn106  1  0.66445701  0.83536088  0.24925686  1
  Mn3.30+  Mn107  1  0.66547929  0.83529114  0.75174252  1
  Mn3.30+  Mn108  1  0.16701754  -0.00073282  0.24917057  1
  Mn3.30+  Mn109  1  0.16698503  -0.00114934  0.75103828  1
  Mn3.30+  Mn110  1  0.16629695  0.33189786  0.24916233  1
  Mn3.30+  Mn111  1  0.16443554  0.33237904  0.75123587  1
  Mn3.30+  Mn112  1  0.16641149  0.66836612  0.24963080  1
  Mn3.30+  Mn113  1  0.16581829  0.66703925  0.75006672  1
  Mn3.30+  Mn114  1  0.49978878  0.00030417  0.24830270  1
  Mn3.30+  Mn115  1  0.49986828  0.00102412  0.75197608  1
  Mn3.30+  Mn116  1  0.50205857  0.33332043  0.25071381  1
  Mn3.30+  Mn117  1  0.50166197  0.33141742  0.75221763  1
  Mn3.30+  Mn118  1  0.50044152  0.66729419  0.24742681  1
  Mn3.30+  Mn119  1  0.49897975  0.66813373  0.75100404  1
  Mn3.30+  Mn120  1  0.83588857  0.00072853  0.25159565  1
  Mn3.30+  Mn121  1  0.83523205  0.00232896  0.75235830  1
  Mn3.30+  Mn122  1  0.83086578  0.33254825  0.24802287  1
  Mn3.30+  Mn123  1  0.83324097  0.33179428  0.75259443  1
  Mn3.30+  Mn124  1  0.83198068  0.66640906  0.24859857  1
  Mn3.30+  Mn125  1  0.83351319  0.66535927  0.74986747  1
  Mn3.30+  Mn126  1  -0.00059291  0.16645423  -0.00243533  1
  Mn3.30+  Mn127  1  -0.00061408  0.16570496  0.50035849  1
  Mn3.30+  Mn128  1  -0.00422470  0.49804639  -0.00007019  1
  Mn3.30+  Mn129  1  -0.00353827  0.49846625  0.50026268  1
  Mn3.30+  Mn130  1  0.00141918  0.83479225  -0.00156930  1
  Mn3.30+  Mn131  1  0.00228752  0.83411636  0.50152279  1
  Mn3.30+  Mn132  1  0.33565283  0.16394644  0.00060953  1
  Mn3.30+  Mn133  1  0.33614228  0.16592320  0.49892134  1
  Mn3.30+  Mn134  1  0.33364325  0.49897398  0.00081508  1
  Mn3.30+  Mn135  1  0.33326404  0.50023619  0.49916598  1
  Mn3.30+  Mn136  1  0.33643644  0.83377279  0.00276394  1
  Mn3.30+  Mn137  1  0.33218262  0.83469130  0.49953503  1
  Mn3.30+  Mn138  1  0.66726180  0.16787167  -0.00188997  1
  Mn3.30+  Mn139  1  0.66631518  0.16925943  0.49805455  1
  Mn3.30+  Mn140  1  0.66609626  0.49967667  0.00107875  1
  Mn3.30+  Mn141  1  0.66720517  0.49861268  0.50082835  1
  Mn3.30+  Mn142  1  0.66285859  0.83545792  -0.00106852  1
  Mn3.30+  Mn143  1  0.66667042  0.83493635  0.50022199  1
  O2-  O144  1  0.02704199  0.16030491  0.12448758  1
  O2-  O145  1  0.02518589  0.16075914  0.62707159  1
  O2-  O146  1  0.02508370  0.49328550  0.12443612  1
  O2-  O147  1  0.02388569  0.49806506  0.62631848  1
  O2-  O148  1  0.02616045  0.82692475  0.12167268  1
  O2-  O149  1  0.02757944  0.82474008  0.62690885  1
  O2-  O150  1  0.35975205  0.16179301  0.12461431  1
  O2-  O151  1  0.35964549  0.16288203  0.62654432  1
  O2-  O152  1  0.35899266  0.49199328  0.12481369  1
  O2-  O153  1  0.35815203  0.49340359  0.62633693  1
  O2-  O154  1  0.36169413  0.82883546  0.12310323  1
  O2-  O155  1  0.35995378  0.82986862  0.62649406  1
  O2-  O156  1  0.68346980  0.16678488  0.12497169  1
  O2-  O157  1  0.68521578  0.16404482  0.62482580  1
  O2-  O158  1  0.69322226  0.49522111  0.12472989  1
  O2-  O159  1  0.69425175  0.49375967  0.62546045  1
  O2-  O160  1  0.69170392  0.82930979  0.12337536  1
  O2-  O161  1  0.69240710  0.82930094  0.62505230  1
  O2-  O162  1  0.13836508  0.32473374  0.12526301  1
  O2-  O163  1  0.14740869  0.32879609  0.62534954  1
  O2-  O164  1  0.14011199  0.66164673  0.12424795  1
  O2-  O165  1  0.14043813  0.65725093  0.62566359  1
  O2-  O166  1  0.14040079  0.99781487  0.12354537  1
  O2-  O167  1  0.14425599  0.99738701  0.62714842  1
  O2-  O168  1  0.47522899  0.32280005  0.12436776  1
  O2-  O169  1  0.47270556  0.32641543  0.62453468  1
  O2-  O170  1  0.48269967  0.65620259  0.12399919  1
  O2-  O171  1  0.47203191  0.66009450  0.62733821  1
  O2-  O172  1  0.47730967  0.99714278  0.12392008  1
  O2-  O173  1  0.47525194  0.99555019  0.62699897  1
  O2-  O174  1  0.80744184  0.32770529  0.12362241  1
  O2-  O175  1  0.80958291  0.32946563  0.62738950  1
  O2-  O176  1  0.80532384  0.66293470  0.12467926  1
  O2-  O177  1  0.80900176  0.66102789  0.62556493  1
  O2-  O178  1  0.81627910  0.99512711  0.12470759  1
  O2-  O179  1  0.80901265  0.99427615  0.62507755  1
  O2-  O180  1  0.30768470  0.17101925  0.37359348  1
  O2-  O181  1  0.30683245  0.16978988  0.87496356  1
  O2-  O182  1  0.30816232  0.50588610  0.37342246  1
  O2-  O183  1  0.30639652  0.50371528  0.87550223  1
  O2-  O184  1  0.31701790  0.83145126  0.37479337  1
  O2-  O185  1  0.30777129  0.83806196  0.87553783  1
  O2-  O186  1  0.64049166  0.17085855  0.37627961  1
  O2-  O187  1  0.63885759  0.16965341  0.87400524  1
  O2-  O188  1  0.64055876  0.50857756  0.37548943  1
  O2-  O189  1  0.64112207  0.50872441  0.87430076  1
  O2-  O190  1  0.64040238  0.83972101  0.37700221  1
  O2-  O191  1  0.63926208  0.84142258  0.87449647  1
  O2-  O192  1  0.97746694  0.17282718  0.37345890  1
  O2-  O193  1  0.97657677  0.17328807  0.87533016  1
  O2-  O194  1  0.97077096  0.50574425  0.37254050  1
  O2-  O195  1  0.97118266  0.50760242  0.87623123  1
  O2-  O196  1  0.97601507  0.83874219  0.37768537  1
  O2-  O197  1  0.97572216  0.83960178  0.87436347  1
  O2-  O198  1  0.18607359  0.00249814  0.37493828  1
  O2-  O199  1  0.19599939  0.00333925  0.87502228  1
  O2-  O200  1  0.19289794  0.34008247  0.37366664  1
  O2-  O201  1  0.19343887  0.33706015  0.87555897  1
  O2-  O202  1  0.18938403  0.66754975  0.37523742  1
  O2-  O203  1  0.19183078  0.67247728  0.87458375  1
  O2-  O204  1  0.52234172  0.00236786  0.37529360  1
  O2-  O205  1  0.52320051  0.00828337  0.87395538  1
  O2-  O206  1  0.52841177  0.34445196  0.37462422  1
  O2-  O207  1  0.52845062  0.34184665  0.87646552  1
  O2-  O208  1  0.52521604  0.67455220  0.37468561  1
  O2-  O209  1  0.52427454  0.67362441  0.87373946  1
  O2-  O210  1  0.86371770  0.00480576  0.37644316  1
  O2-  O211  1  0.85934432  0.00488028  0.87390774  1
  O2-  O212  1  0.85768051  0.33873647  0.37222599  1
  O2-  O213  1  0.85929122  0.34210108  0.87645254  1
  O2-  O214  1  0.85820439  0.67504422  0.37415928  1
  O2-  O215  1  0.85698572  0.67437035  0.87543963  1
  O2-  O216  1  0.23718481  0.09598346  0.01796259  1
  O2-  O217  1  0.23761669  0.09439133  0.51976372  1
  O2-  O218  1  0.23548361  0.42417294  0.02161136  1
  O2-  O219  1  0.23857658  0.42854501  0.51952975  1
  O2-  O220  1  0.23802018  0.76473955  0.01673754  1
  O2-  O221  1  0.24002991  0.76190008  0.52352823  1
  O2-  O222  1  0.57035328  0.09574681  0.01586601  1
  O2-  O223  1  0.57444645  0.09330082  0.52007271  1
  O2-  O224  1  0.56994795  0.43111486  0.02238668  1
  O2-  O225  1  0.56997796  0.42869441  0.52272958  1
  O2-  O226  1  0.57128608  0.76208939  0.02224375  1
  O2-  O227  1  0.57144684  0.76042885  0.52304412  1
  O2-  O228  1  0.91197795  0.09134458  0.01867152  1
  O2-  O229  1  0.90778104  0.09129359  0.51947499  1
  O2-  O230  1  0.90076650  0.42978310  0.02234895  1
  O2-  O231  1  0.89987093  0.43224810  0.51572342  1
  O2-  O232  1  0.90398847  0.76085203  0.02003334  1
  O2-  O233  1  0.90525959  0.76180292  0.52130892  1
  O2-  O234  1  0.26444086  0.25910958  0.22867310  1
  O2-  O235  1  0.26465472  0.26044309  0.73096036  1
  O2-  O236  1  0.25652050  0.59051576  0.23196168  1
  O2-  O237  1  0.26009732  0.59532236  0.72978041  1
  O2-  O238  1  0.26086121  0.92749861  0.22622359  1
  O2-  O239  1  0.26514371  0.93011108  0.73225214  1
  O2-  O240  1  0.59360716  0.26387070  0.22932575  1
  O2-  O241  1  0.59381384  0.26151007  0.72757744  1
  O2-  O242  1  0.59804796  0.59807476  0.23452891  1
  O2-  O243  1  0.59464136  0.59440026  0.72859163  1
  O2-  O244  1  0.59519038  0.92941151  0.23647793  1
  O2-  O245  1  0.59571955  0.93034673  0.72828576  1
  O2-  O246  1  0.93262104  0.26312808  0.23334149  1
  O2-  O247  1  0.92786900  0.26108112  0.73704669  1
  O2-  O248  1  0.92842715  0.59625507  0.22950970  1
  O2-  O249  1  0.93023213  0.59637420  0.73353217  1
  O2-  O250  1  0.92733620  0.92510873  0.22860934  1
  O2-  O251  1  0.92828333  0.92409321  0.72714286  1
  O2-  O252  1  0.09680816  0.23772728  0.27163396  1
  O2-  O253  1  0.09796641  0.23531576  0.76681478  1
  O2-  O254  1  0.09086137  0.57075884  0.26919386  1
  O2-  O255  1  0.09330968  0.56971577  0.77201757  1
  O2-  O256  1  0.09468752  0.90522714  0.26214023  1
  O2-  O257  1  0.09610448  0.90507263  0.76936229  1
  O2-  O258  1  0.42988260  0.23940727  0.27268672  1
  O2-  O259  1  0.42927558  0.23494122  0.77346517  1
  O2-  O260  1  0.42704228  0.57518384  0.27219720  1
  O2-  O261  1  0.42729088  0.56994511  0.77261954  1
  O2-  O262  1  0.43018176  0.90446696  0.26589382  1
  O2-  O263  1  0.43135182  0.90230853  0.77137423  1
  O2-  O264  1  0.76194089  0.23889752  0.27121260  1
  O2-  O265  1  0.76114772  0.23844713  0.77279831  1
  O2-  O266  1  0.75964111  0.57314529  0.27246436  1
  O2-  O267  1  0.75836091  0.57334527  0.77235279  1
  O2-  O268  1  0.76230658  0.90731351  0.27110870  1
  O2-  O269  1  0.76151888  0.90726229  0.77151606  1
  O2-  O270  1  0.07269624  0.07142185  0.48113953  1
  O2-  O271  1  0.07347046  0.07002153  0.97730348  1
  O2-  O272  1  0.07064226  0.40809206  0.47644630  1
  O2-  O273  1  0.06749133  0.40462465  0.97877843  1
  O2-  O274  1  0.06822823  0.73542819  0.48283472  1
  O2-  O275  1  0.07101531  0.73854700  0.97818253  1
  O2-  O276  1  0.40504793  0.07243334  0.48608965  1
  O2-  O277  1  0.40462142  0.07051916  0.98128040  1
  O2-  O278  1  0.40619943  0.40362432  0.47903776  1
  O2-  O279  1  0.40577973  0.40263385  0.97927935  1
  O2-  O280  1  0.40421391  0.73736309  0.48249383  1
  O2-  O281  1  0.40450860  0.73811089  0.97860704  1
  O2-  O282  1  0.74053860  0.07355777  0.47937751  1
  O2-  O283  1  0.73874444  0.07574554  0.97929900  1
  O2-  O284  1  0.73608278  0.40306326  0.47819811  1
  O2-  O285  1  0.73484748  0.40427389  0.97837487  1
  O2-  O286  1  0.73889234  0.74061112  0.48047645  1
  O2-  O287  1  0.73674428  0.74205515  0.97852911  1
  O2-  O288  1  0.09623635  0.23773749  0.48060245  1
  O2-  O289  1  0.09770338  0.23495781  0.98191750  1
  O2-  O290  1  0.09242155  0.56961497  0.47893950  1
  O2-  O291  1  0.09204656  0.57048310  0.97972957  1
  O2-  O292  1  0.09233079  0.90668089  0.48719460  1
  O2-  O293  1  0.09968802  0.90391701  0.98225620  1
  O2-  O294  1  0.43197265  0.23862760  0.47620837  1
  O2-  O295  1  0.42856317  0.23711937  0.97783024  1
  O2-  O296  1  0.42803724  0.57221546  0.47898422  1
  O2-  O297  1  0.42786460  0.57428175  0.97707485  1
  O2-  O298  1  0.43134937  0.90190500  0.48557872  1
  O2-  O299  1  0.42893123  0.90534409  0.97663292  1
  O2-  O300  1  0.76105835  0.23942755  0.47951681  1
  O2-  O301  1  0.76188552  0.23889402  0.97663233  1
  O2-  O302  1  0.75956566  0.57406275  0.47715053  1
  O2-  O303  1  0.75951588  0.57367741  0.97768000  1
  O2-  O304  1  0.76316313  0.90828581  0.47804231  1
  O2-  O305  1  0.76123025  0.90752306  0.97900260  1
  O2-  O306  1  0.07217089  0.07174240  0.27019857  1
  O2-  O307  1  0.07394032  0.07076531  0.77236208  1
  O2-  O308  1  0.06920586  0.40685455  0.27024848  1
  O2-  O309  1  0.07012630  0.40611253  0.77438012  1
  O2-  O310  1  0.06857796  0.73681722  0.26645266  1
  O2-  O311  1  0.07080112  0.73777186  0.77259430  1
  O2-  O312  1  0.40809387  0.07375698  0.26510867  1
  O2-  O313  1  0.40172331  0.06803314  0.76652115  1
  O2-  O314  1  0.40509420  0.40396937  0.27073871  1
  O2-  O315  1  0.40630520  0.40238350  0.77121823  1
  O2-  O316  1  0.40768096  0.73851818  0.27053351  1
  O2-  O317  1  0.40041716  0.73642720  0.76754322  1
  O2-  O318  1  0.74370634  0.07397506  0.27459649  1
  O2-  O319  1  0.73653222  0.07268181  0.76653826  1
  O2-  O320  1  0.73363006  0.40532514  0.27102746  1
  O2-  O321  1  0.73539238  0.40320052  0.77263436  1
  O2-  O322  1  0.73766669  0.74093622  0.27035866  1
  O2-  O323  1  0.73892094  0.74105083  0.76989250  1
  O2-  O324  1  0.23669524  0.09477820  0.23338912  1
  O2-  O325  1  0.23915317  0.09597018  0.72879857  1
  O2-  O326  1  0.23696761  0.42529204  0.22744177  1
  O2-  O327  1  0.23795087  0.42807320  0.73073607  1
  O2-  O328  1  0.24056551  0.76217348  0.23050959  1
  O2-  O329  1  0.23748971  0.76416841  0.72849074  1
  O2-  O330  1  0.57237555  0.09495485  0.23539112  1
  O2-  O331  1  0.57254738  0.09380919  0.72887490  1
  O2-  O332  1  0.56870047  0.43199125  0.22702034  1
  O2-  O333  1  0.57177222  0.42966580  0.72816587  1
  O2-  O334  1  0.57036604  0.76244185  0.22824972  1
  O2-  O335  1  0.57416693  0.76030446  0.72659449  1
  O2-  O336  1  0.90870124  0.09308115  0.23169887  1
  O2-  O337  1  0.91113613  0.08972752  0.72997507  1
  O2-  O338  1  0.90138491  0.42921588  0.22773729  1
  O2-  O339  1  0.89920888  0.43288160  0.73323653  1
  O2-  O340  1  0.90449437  0.76225572  0.22892417  1
  O2-  O341  1  0.90606766  0.76148117  0.73042494  1
  O2-  O342  1  0.26448055  0.25905982  0.02070638  1
  O2-  O343  1  0.26504710  0.26023605  0.51878452  1
  O2-  O344  1  0.25658959  0.59115982  0.01801082  1
  O2-  O345  1  0.25952734  0.59540911  0.52040383  1
  O2-  O346  1  0.26426251  0.92931598  0.02215486  1
  O2-  O347  1  0.26178153  0.92784435  0.51999180  1
  O2-  O348  1  0.59466077  0.26175903  0.02086744  1
  O2-  O349  1  0.59366770  0.26269273  0.52284819  1
  O2-  O350  1  0.59740887  0.59761577  0.01448488  1
  O2-  O351  1  0.59401525  0.59510712  0.52199729  1
  O2-  O352  1  0.59480911  0.93000299  0.01467719  1
  O2-  O353  1  0.59615027  0.92924520  0.52125041  1
  O2-  O354  1  0.93006112  0.26247146  0.01779753  1
  O2-  O355  1  0.92757112  0.26204113  0.51076371  1
  O2-  O356  1  0.92944218  0.59574413  0.01920756  1
  O2-  O357  1  0.93029845  0.59667122  0.51707233  1
  O2-  O358  1  0.92867116  0.92434173  0.01987895  1
  O2-  O359  1  0.92721500  0.92419210  0.52555855  1
