# generated using pymatgen
data_Sr7Ca15Pr50Mn72O216
_symmetry_space_group_name_H-M   'P 1'
_cell_length_a   16.55798155
_cell_length_b   16.60498296
_cell_length_c   15.59435610
_cell_angle_alpha   89.99479363
_cell_angle_beta   89.99900047
_cell_angle_gamma   89.98960503
_symmetry_Int_Tables_number   1
_chemical_formula_structural   Sr7Ca15Pr50Mn72O216
_chemical_formula_sum   'Sr7 Ca15 Pr50 Mn72 O216'
_cell_volume   4287.59017019
_cell_formula_units_Z   1
loop_
 _symmetry_equiv_pos_site_id
 _symmetry_equiv_pos_as_xyz
  1  'x, y, z'
loop_
 _atom_type_symbol
 _atom_type_oxidation_number
  Sr2+  2.0
  Ca2+  2.0
  Pr3+  3.0
  Mn3.30+  3.3
  O2-  -2.0
loop_
 _atom_site_type_symbol
 _atom_site_label
 _atom_site_symmetry_multiplicity
 _atom_site_fract_x
 _atom_site_fract_y
 _atom_site_fract_z
 _atom_site_occupancy
  Sr2+  Sr0  1  0.49848200  0.15648687  0.37545899  1
  Sr2+  Sr1  1  0.33485417  0.32244376  0.37446091  1
  Sr2+  Sr2  1  0.16477183  0.82466832  0.37529300  1
  Sr2+  Sr3  1  1.00008373  0.32171828  0.87475761  1
  Sr2+  Sr4  1  0.66386313  0.67828372  0.12591901  1
  Sr2+  Sr5  1  0.82690820  0.82286822  0.87468198  1
  Sr2+  Sr6  1  0.50058323  0.15500016  0.87502215  1
  Ca2+  Ca7  1  0.16193557  0.14818701  0.37467402  1
  Ca2+  Ca8  1  0.66181822  0.01328876  0.62521008  1
  Ca2+  Ca9  1  0.83710301  0.18081685  0.12529603  1
  Ca2+  Ca10  1  0.49850177  0.82241784  0.37509302  1
  Ca2+  Ca11  1  0.33240396  0.68206283  0.12535330  1
  Ca2+  Ca12  1  0.50162176  0.82229403  0.87496689  1
  Ca2+  Ca13  1  0.66571942  0.65636667  0.37326131  1
  Ca2+  Ca14  1  1.00398880  0.98466199  0.37667958  1
  Ca2+  Ca15  1  0.49916531  0.48825379  0.87604975  1
  Ca2+  Ca16  1  0.66541818  0.65719300  0.87712800  1
  Ca2+  Ca17  1  0.66866868  0.98433777  0.87240630  1
  Ca2+  Ca18  1  0.66625838  0.98555528  0.37761648  1
  Ca2+  Ca19  1  0.50735929  0.85252673  0.62500504  1
  Ca2+  Ca20  1  0.17384201  0.51829054  0.12523191  1
  Ca2+  Ca21  1  -0.00375895  0.01301247  0.62191161  1
  Pr3+  Pr22  1  1.00115435  0.65518027  0.87485363  1
  Pr3+  Pr23  1  0.33609024  0.65882643  0.37315161  1
  Pr3+  Pr24  1  0.33347340  0.34365498  0.62363602  1
  Pr3+  Pr25  1  1.00657346  0.31677985  0.37495804  1
  Pr3+  Pr26  1  1.00492804  0.65669325  0.37464144  1
  Pr3+  Pr27  1  -0.00323874  0.34529400  0.62547716  1
  Pr3+  Pr28  1  0.17079533  0.51180698  0.62557449  1
  Pr3+  Pr29  1  0.99957430  0.98858323  0.87254592  1
  Pr3+  Pr30  1  0.66929816  0.32136847  0.87617643  1
  Pr3+  Pr31  1  0.34069172  0.98546050  0.87461952  1
  Pr3+  Pr32  1  0.16251641  0.15515500  0.87559318  1
  Pr3+  Pr33  1  0.82681464  0.15191737  0.87678637  1
  Pr3+  Pr34  1  0.83390216  0.85015164  0.62626792  1
  Pr3+  Pr35  1  0.50327995  0.17753244  0.62409802  1
  Pr3+  Pr36  1  -0.00258417  0.68033303  0.12403853  1
  Pr3+  Pr37  1  0.16849587  0.84873277  0.62332954  1
  Pr3+  Pr38  1  0.16865130  0.17854533  0.12728901  1
  Pr3+  Pr39  1  0.66059886  0.68278371  0.62489513  1
  Pr3+  Pr40  1  0.50265964  0.84336670  0.12544520  1
  Pr3+  Pr41  1  0.16370469  0.48594976  0.87661904  1
  Pr3+  Pr42  1  0.66489171  0.00890672  0.12516131  1
  Pr3+  Pr43  1  0.82982335  0.48952354  0.87619133  1
  Pr3+  Pr44  1  0.66533523  0.34527340  0.12527985  1
  Pr3+  Pr45  1  0.50150650  0.17847990  0.12603882  1
  Pr3+  Pr46  1  0.50444521  0.51264733  0.62503444  1
  Pr3+  Pr47  1  0.66388317  0.34493726  0.62469056  1
  Pr3+  Pr48  1  -0.00234734  0.34639156  0.12419648  1
  Pr3+  Pr49  1  0.82753761  0.14843722  0.37308878  1
  Pr3+  Pr50  1  0.83215143  0.84375678  0.12340115  1
  Pr3+  Pr51  1  0.32960162  0.34865997  0.12615444  1
  Pr3+  Pr52  1  -0.00579642  0.01307738  0.12684416  1
  Pr3+  Pr53  1  0.83501105  0.51352300  0.62558245  1
  Pr3+  Pr54  1  0.33169089  0.01090629  0.12618267  1
  Pr3+  Pr55  1  0.34117896  0.65322305  0.87656080  1
  Pr3+  Pr56  1  0.49847826  0.49025323  0.37364514  1
  Pr3+  Pr57  1  0.33811909  0.32055918  0.87557822  1
  Pr3+  Pr58  1  0.66965490  0.31903396  0.37416619  1
  Pr3+  Pr59  1  0.16522202  0.48898155  0.37355753  1
  Pr3+  Pr60  1  0.82864895  0.82174115  0.37595670  1
  Pr3+  Pr61  1  0.33417897  0.01176265  0.62363310  1
  Pr3+  Pr62  1  0.17043333  0.84554801  0.12612200  1
  Pr3+  Pr63  1  0.16509842  0.82070983  0.87411019  1
  Pr3+  Pr64  1  0.83082384  0.48823609  0.37372368  1
  Pr3+  Pr65  1  0.33459288  0.68209191  0.62539835  1
  Pr3+  Pr66  1  0.50353107  0.51533928  0.12472219  1
  Pr3+  Pr67  1  0.83529339  0.17576536  0.62457758  1
  Pr3+  Pr68  1  0.33712315  0.98714115  0.37540338  1
  Pr3+  Pr69  1  0.16723371  0.17717264  0.62279970  1
  Pr3+  Pr70  1  -0.00469808  0.68064857  0.62496901  1
  Pr3+  Pr71  1  0.83471003  0.51499144  0.12430108  1
  Mn3.30+  Mn72  1  0.16650375  0.00013833  -0.00067010  1
  Mn3.30+  Mn73  1  0.16394035  0.00082034  0.49938023  1
  Mn3.30+  Mn74  1  0.16653792  0.33424352  0.00165886  1
  Mn3.30+  Mn75  1  0.16660357  0.33156139  0.49839896  1
  Mn3.30+  Mn76  1  0.16993676  0.66619358  0.00040858  1
  Mn3.30+  Mn77  1  0.16722914  0.66813575  0.50119858  1
  Mn3.30+  Mn78  1  0.50162434  -0.00185383  -0.00189043  1
  Mn3.30+  Mn79  1  0.50325319  -0.00140703  0.49896206  1
  Mn3.30+  Mn80  1  0.49947396  0.33460006  0.00005729  1
  Mn3.30+  Mn81  1  0.49986589  0.33321405  0.49869662  1
  Mn3.30+  Mn82  1  0.50056899  0.66788053  -0.00141501  1
  Mn3.30+  Mn83  1  0.50160043  0.67072302  0.49889315  1
  Mn3.30+  Mn84  1  0.83049691  -0.00038006  0.00020870  1
  Mn3.30+  Mn85  1  0.83255751  -0.00078124  0.49944289  1
  Mn3.30+  Mn86  1  0.83359127  0.33233998  0.00130908  1
  Mn3.30+  Mn87  1  0.83453352  0.33180884  0.49886212  1
  Mn3.30+  Mn88  1  0.83056718  0.66800357  -0.00139600  1
  Mn3.30+  Mn89  1  0.83042172  0.66780875  0.49915124  1
  Mn3.30+  Mn90  1  -0.00111167  0.16430884  0.25154410  1
  Mn3.30+  Mn91  1  -0.00113766  0.16527258  0.74953151  1
  Mn3.30+  Mn92  1  0.00222041  0.50089182  0.24778349  1
  Mn3.30+  Mn93  1  0.00052852  0.50017339  0.75053419  1
  Mn3.30+  Mn94  1  0.00001517  0.83478908  0.25059892  1
  Mn3.30+  Mn95  1  -0.00149373  0.83506972  0.74972578  1
  Mn3.30+  Mn96  1  0.33242740  0.16617081  0.25263771  1
  Mn3.30+  Mn97  1  0.33419197  0.16548988  0.74982932  1
  Mn3.30+  Mn98  1  0.33228438  0.50331189  0.24850132  1
  Mn3.30+  Mn99  1  0.33612789  0.50012807  0.75123907  1
  Mn3.30+  Mn100  1  0.33472288  0.83265802  0.25100708  1
  Mn3.30+  Mn101  1  0.33762113  0.83402940  0.74879296  1
  Mn3.30+  Mn102  1  0.66816446  0.16353550  0.24902926  1
  Mn3.30+  Mn103  1  0.66612910  0.16348008  0.75065662  1
  Mn3.30+  Mn104  1  0.66684389  0.50180617  0.25074428  1
  Mn3.30+  Mn105  1  0.66546210  0.50195877  0.75215622  1
  Mn3.30+  Mn106  1  0.66477110  0.83281447  0.25352777  1
  Mn3.30+  Mn107  1  0.66392923  0.83488329  0.75035134  1
  Mn3.30+  Mn108  1  0.16379615  0.00001892  0.25189164  1
  Mn3.30+  Mn109  1  0.16699766  0.00103519  0.74890653  1
  Mn3.30+  Mn110  1  0.16639681  0.33283100  0.25088293  1
  Mn3.30+  Mn111  1  0.16681020  0.33251554  0.74957014  1
  Mn3.30+  Mn112  1  0.16865581  0.66740339  0.24847729  1
  Mn3.30+  Mn113  1  0.16830606  0.66703143  0.75008137  1
  Mn3.30+  Mn114  1  0.50102486  -0.00120335  0.25259515  1
  Mn3.30+  Mn115  1  0.50389068  -0.00188551  0.75078999  1
  Mn3.30+  Mn116  1  0.49884981  0.33347109  0.24955725  1
  Mn3.30+  Mn117  1  0.50070168  0.33424153  0.75161989  1
  Mn3.30+  Mn118  1  0.50018008  0.66937146  0.25109289  1
  Mn3.30+  Mn119  1  0.50176777  0.66920463  0.75197941  1
  Mn3.30+  Mn120  1  0.83244898  -0.00154552  0.25192177  1
  Mn3.30+  Mn121  1  0.83024989  0.00025027  0.74809700  1
  Mn3.30+  Mn122  1  0.83560129  0.33179937  0.24944114  1
  Mn3.30+  Mn123  1  0.83258246  0.33240559  0.75057161  1
  Mn3.30+  Mn124  1  0.83239951  0.66816230  0.25070555  1
  Mn3.30+  Mn125  1  0.82876094  0.66798145  0.75087207  1
  Mn3.30+  Mn126  1  -0.00229720  0.16651780  0.00041439  1
  Mn3.30+  Mn127  1  -0.00000068  0.16240451  0.49803050  1
  Mn3.30+  Mn128  1  0.00283305  0.50034510  0.00167657  1
  Mn3.30+  Mn129  1  -0.00005753  0.50059602  0.49966698  1
  Mn3.30+  Mn130  1  -0.00001886  0.83387964  -0.00218637  1
  Mn3.30+  Mn131  1  -0.00124075  0.83625067  0.50058413  1
  Mn3.30+  Mn132  1  0.33365617  0.16607681  0.00052661  1
  Mn3.30+  Mn133  1  0.33264241  0.16593599  0.49726059  1
  Mn3.30+  Mn134  1  0.33366246  0.50224790  0.00074477  1
  Mn3.30+  Mn135  1  0.33476931  0.50151664  0.50000692  1
  Mn3.30+  Mn136  1  0.33529897  0.83168875  -0.00051782  1
  Mn3.30+  Mn137  1  0.33715370  0.83453256  0.50068509  1
  Mn3.30+  Mn138  1  0.66750372  0.16446318  0.00198605  1
  Mn3.30+  Mn139  1  0.66708052  0.16235350  0.49881006  1
  Mn3.30+  Mn140  1  0.66443026  0.50226099  -0.00156906  1
  Mn3.30+  Mn141  1  0.66774938  0.50162662  0.49880146  1
  Mn3.30+  Mn142  1  0.66499405  0.83228231  -0.00210966  1
  Mn3.30+  Mn143  1  0.66370426  0.83527047  0.49908143  1
  O2-  O144  1  0.02519642  0.15953353  0.12608017  1
  O2-  O145  1  0.02341337  0.15873761  0.62195389  1
  O2-  O146  1  0.03029836  0.49459191  0.12549924  1
  O2-  O147  1  0.02569417  0.49493654  0.62649578  1
  O2-  O148  1  0.02547353  0.82844899  0.12089517  1
  O2-  O149  1  0.02397353  0.82608536  0.62681107  1
  O2-  O150  1  0.35641180  0.15961324  0.12560684  1
  O2-  O151  1  0.35795593  0.16116064  0.62437290  1
  O2-  O152  1  0.36066886  0.49525460  0.12357485  1
  O2-  O153  1  0.36057215  0.49335580  0.62503913  1
  O2-  O154  1  0.35752462  0.83086411  0.12581649  1
  O2-  O155  1  0.36303568  0.83073210  0.62595526  1
  O2-  O156  1  0.69590157  0.15765697  0.12603191  1
  O2-  O157  1  0.69149699  0.16188382  0.62333400  1
  O2-  O158  1  0.69061761  0.49454619  0.12637236  1
  O2-  O159  1  0.69163348  0.49358941  0.62459432  1
  O2-  O160  1  0.68858473  0.83150842  0.12765846  1
  O2-  O161  1  0.69205200  0.82583759  0.62325089  1
  O2-  O162  1  0.14053427  0.32500345  0.12765475  1
  O2-  O163  1  0.14018664  0.32721046  0.62284486  1
  O2-  O164  1  0.14071244  0.66294185  0.12164766  1
  O2-  O165  1  0.14013783  0.65935938  0.62699109  1
  O2-  O166  1  0.14059367  0.99452730  0.12421700  1
  O2-  O167  1  0.14017269  0.99687058  0.62565414  1
  O2-  O168  1  0.47484687  0.32899321  0.12476978  1
  O2-  O169  1  0.47877750  0.32968684  0.62581476  1
  O2-  O170  1  0.47502138  0.66238135  0.12485387  1
  O2-  O171  1  0.47651045  0.65736832  0.62554411  1
  O2-  O172  1  0.47468599  0.99190232  0.12544486  1
  O2-  O173  1  0.47643009  0.99698571  0.62466386  1
  O2-  O174  1  0.80944577  0.32904056  0.12583808  1
  O2-  O175  1  0.80821023  0.32692804  0.62418476  1
  O2-  O176  1  0.81435694  0.66421277  0.12512171  1
  O2-  O177  1  0.80591793  0.66037554  0.62498425  1
  O2-  O178  1  0.80903305  0.99167460  0.12686329  1
  O2-  O179  1  0.80517736  0.99969040  0.62346487  1
  O2-  O180  1  0.30628835  0.16638023  0.37487157  1
  O2-  O181  1  0.30733115  0.17195222  0.87541816  1
  O2-  O182  1  0.30802446  0.51014718  0.37550742  1
  O2-  O183  1  0.30611108  0.50574345  0.87655051  1
  O2-  O184  1  0.31306604  0.83697407  0.37675739  1
  O2-  O185  1  0.30796328  0.83828019  0.87185243  1
  O2-  O186  1  0.64769352  0.17373542  0.37323450  1
  O2-  O187  1  0.64820751  0.17571994  0.87752944  1
  O2-  O188  1  0.64389235  0.50496128  0.37454167  1
  O2-  O189  1  0.64155927  0.50756136  0.87455031  1
  O2-  O190  1  0.63972850  0.84327739  0.37699697  1
  O2-  O191  1  0.64197382  0.84244334  0.87274846  1
  O2-  O192  1  0.97038921  0.17345241  0.37495363  1
  O2-  O193  1  0.97281821  0.16705099  0.87699813  1
  O2-  O194  1  0.97479080  0.50789341  0.37300461  1
  O2-  O195  1  0.97552906  0.50592874  0.87459938  1
  O2-  O196  1  0.97458573  0.83709586  0.37817586  1
  O2-  O197  1  0.97842320  0.83979021  0.87335452  1
  O2-  O198  1  0.19153656  0.00347256  0.37589651  1
  O2-  O199  1  0.19477381  0.00740378  0.87391775  1
  O2-  O200  1  0.18613280  0.34238413  0.37436241  1
  O2-  O201  1  0.19352959  0.33741064  0.87550486  1
  O2-  O202  1  0.19064886  0.66790507  0.37718427  1
  O2-  O203  1  0.19602192  0.67301220  0.87350330  1
  O2-  O204  1  0.52543861  0.00559955  0.37515462  1
  O2-  O205  1  0.52654359  0.00402590  0.87492190  1
  O2-  O206  1  0.52512378  0.33990545  0.37324787  1
  O2-  O207  1  0.52492208  0.33994826  0.87585716  1
  O2-  O208  1  0.52432236  0.67449114  0.37699888  1
  O2-  O209  1  0.52467639  0.67734241  0.87328279  1
  O2-  O210  1  0.86174116  0.00098771  0.37476023  1
  O2-  O211  1  0.85682479  0.00469764  0.87457071  1
  O2-  O212  1  0.86184423  0.34053011  0.37411709  1
  O2-  O213  1  0.85098343  0.34019811  0.87649588  1
  O2-  O214  1  0.86113660  0.67200170  0.37494004  1
  O2-  O215  1  0.85705647  0.66444291  0.87435996  1
  O2-  O216  1  0.23717160  0.09493512  0.02062787  1
  O2-  O217  1  0.23895646  0.09245889  0.52198661  1
  O2-  O218  1  0.23879896  0.43193261  0.02248637  1
  O2-  O219  1  0.24096403  0.42791141  0.52067947  1
  O2-  O220  1  0.23589069  0.76431895  0.01679955  1
  O2-  O221  1  0.24100103  0.76071155  0.52486697  1
  O2-  O222  1  0.57304734  0.09265137  0.02463820  1
  O2-  O223  1  0.57099762  0.09533702  0.52021286  1
  O2-  O224  1  0.57349192  0.42674626  0.02246935  1
  O2-  O225  1  0.57533526  0.42844452  0.51881095  1
  O2-  O226  1  0.56843365  0.76279251  0.01768164  1
  O2-  O227  1  0.57036597  0.76351354  0.52410738  1
  O2-  O228  1  0.90308628  0.09517008  0.02177520  1
  O2-  O229  1  0.90104440  0.09678911  0.51654414  1
  O2-  O230  1  0.90575832  0.42767920  0.02132035  1
  O2-  O231  1  0.90639893  0.42860563  0.52105282  1
  O2-  O232  1  0.90749106  0.75947714  0.01893070  1
  O2-  O233  1  0.90274222  0.76194236  0.52172996  1
  O2-  O234  1  0.26020140  0.26048096  0.22770601  1
  O2-  O235  1  0.26031105  0.26180764  0.72822846  1
  O2-  O236  1  0.26418568  0.59852452  0.22969485  1
  O2-  O237  1  0.26275482  0.59399174  0.72820972  1
  O2-  O238  1  0.26130742  0.92622444  0.23090346  1
  O2-  O239  1  0.26252454  0.92814513  0.72834386  1
  O2-  O240  1  0.59629283  0.25907149  0.22821316  1
  O2-  O241  1  0.59585291  0.26011022  0.73033771  1
  O2-  O242  1  0.58928373  0.59180655  0.23386043  1
  O2-  O243  1  0.59474978  0.59419998  0.72741653  1
  O2-  O244  1  0.59347964  0.92635171  0.22836763  1
  O2-  O245  1  0.59712441  0.93012224  0.72723298  1
  O2-  O246  1  0.93243717  0.26384273  0.23178494  1
  O2-  O247  1  0.92857021  0.25807707  0.72713058  1
  O2-  O248  1  0.93125905  0.59417777  0.22830862  1
  O2-  O249  1  0.92698424  0.59466293  0.72940114  1
  O2-  O250  1  0.92512724  0.92591931  0.22682641  1
  O2-  O251  1  0.92701415  0.93187898  0.72825872  1
  O2-  O252  1  0.09421284  0.23341266  0.27206154  1
  O2-  O253  1  0.09724839  0.23669088  0.76604072  1
  O2-  O254  1  0.09544012  0.57292432  0.27122649  1
  O2-  O255  1  0.09661421  0.57349731  0.77200768  1
  O2-  O256  1  0.09273557  0.90537255  0.26450735  1
  O2-  O257  1  0.09862164  0.90798579  0.77015426  1
  O2-  O258  1  0.42675650  0.23882041  0.26288386  1
  O2-  O259  1  0.42486661  0.24132475  0.76710496  1
  O2-  O260  1  0.42826258  0.57497409  0.27180131  1
  O2-  O261  1  0.43075487  0.57158506  0.77232429  1
  O2-  O262  1  0.42809395  0.90572488  0.27143169  1
  O2-  O263  1  0.43002889  0.90597176  0.77329974  1
  O2-  O264  1  0.76200367  0.23901599  0.27058260  1
  O2-  O265  1  0.76081900  0.23819914  0.76893623  1
  O2-  O266  1  0.76524205  0.57112535  0.26672118  1
  O2-  O267  1  0.76407330  0.56799331  0.76636432  1
  O2-  O268  1  0.76247795  0.90242521  0.26807735  1
  O2-  O269  1  0.76169253  0.90413379  0.76236875  1
  O2-  O270  1  0.06823186  0.07102279  0.47721089  1
  O2-  O271  1  0.06946200  0.07165345  0.97918062  1
  O2-  O272  1  0.07144255  0.40544204  0.48086899  1
  O2-  O273  1  0.07440839  0.40647145  0.98089982  1
  O2-  O274  1  0.06783175  0.73731256  0.48547271  1
  O2-  O275  1  0.07403113  0.73789603  0.97707610  1
  O2-  O276  1  0.40299996  0.06932180  0.48387171  1
  O2-  O277  1  0.40430286  0.06792917  0.98422205  1
  O2-  O278  1  0.40811249  0.41127165  0.48093793  1
  O2-  O279  1  0.40117896  0.40563771  0.98211673  1
  O2-  O280  1  0.40240081  0.73622434  0.48430952  1
  O2-  O281  1  0.40364626  0.73739415  0.98176852  1
  O2-  O282  1  0.73921916  0.07004153  0.47483640  1
  O2-  O283  1  0.73694270  0.06972750  0.97813664  1
  O2-  O284  1  0.74054643  0.40307430  0.47875929  1
  O2-  O285  1  0.73633192  0.40751422  0.98156042  1
  O2-  O286  1  0.73462771  0.73748164  0.47719589  1
  O2-  O287  1  0.73474245  0.73876982  0.98100473  1
  O2-  O288  1  0.09336485  0.23455141  0.47834358  1
  O2-  O289  1  0.09570772  0.23475205  0.98379961  1
  O2-  O290  1  0.09457364  0.57081888  0.48064811  1
  O2-  O291  1  0.09662257  0.57523897  0.97539616  1
  O2-  O292  1  0.09442647  0.90504500  0.48700053  1
  O2-  O293  1  0.09568866  0.90655607  0.97755504  1
  O2-  O294  1  0.42507906  0.23965749  0.48758485  1
  O2-  O295  1  0.42533906  0.24071488  0.98288310  1
  O2-  O296  1  0.42883446  0.57442827  0.47893667  1
  O2-  O297  1  0.43047654  0.57119546  0.97732366  1
  O2-  O298  1  0.42938677  0.90731164  0.47775279  1
  O2-  O299  1  0.42846690  0.90392432  0.97814137  1
  O2-  O300  1  0.76251847  0.23675184  0.47908915  1
  O2-  O301  1  0.75982262  0.23989563  0.98191019  1
  O2-  O302  1  0.76466785  0.56860603  0.48185933  1
  O2-  O303  1  0.76312506  0.56942266  0.98477044  1
  O2-  O304  1  0.76456526  0.90156217  0.48338011  1
  O2-  O305  1  0.75968464  0.90478890  0.98793316  1
  O2-  O306  1  0.06515135  0.06897417  0.26906736  1
  O2-  O307  1  0.07258593  0.07409170  0.77300235  1
  O2-  O308  1  0.07017511  0.40518505  0.27083627  1
  O2-  O309  1  0.07642670  0.40657651  0.76761518  1
  O2-  O310  1  0.07010458  0.73636970  0.26526108  1
  O2-  O311  1  0.07350462  0.73798493  0.77080184  1
  O2-  O312  1  0.40289440  0.06903441  0.26577014  1
  O2-  O313  1  0.40384966  0.06835096  0.76616412  1
  O2-  O314  1  0.40661040  0.41189802  0.26745406  1
  O2-  O315  1  0.40357317  0.40478280  0.76920082  1
  O2-  O316  1  0.40471435  0.73904114  0.26850766  1
  O2-  O317  1  0.40170043  0.73464868  0.76602200  1
  O2-  O318  1  0.73716337  0.06743087  0.27300651  1
  O2-  O319  1  0.73819862  0.07255060  0.77361565  1
  O2-  O320  1  0.74117372  0.40445704  0.27050081  1
  O2-  O321  1  0.73579967  0.40682866  0.76995103  1
  O2-  O322  1  0.73734269  0.74103883  0.27524420  1
  O2-  O323  1  0.73169561  0.73434369  0.76723142  1
  O2-  O324  1  0.23776106  0.09223641  0.22900357  1
  O2-  O325  1  0.23753459  0.09455870  0.72842920  1
  O2-  O326  1  0.23923849  0.43164789  0.22922797  1
  O2-  O327  1  0.23953290  0.42666108  0.72877681  1
  O2-  O328  1  0.23847526  0.76161927  0.23009835  1
  O2-  O329  1  0.23783268  0.76181023  0.72718756  1
  O2-  O330  1  0.57235319  0.09221476  0.22565913  1
  O2-  O331  1  0.57103243  0.09563281  0.72972725  1
  O2-  O332  1  0.57376152  0.42631915  0.22944582  1
  O2-  O333  1  0.57452430  0.42788719  0.72841672  1
  O2-  O334  1  0.56932453  0.76266645  0.23304096  1
  O2-  O335  1  0.57013485  0.76353786  0.72574416  1
  O2-  O336  1  0.90166905  0.09650447  0.22893838  1
  O2-  O337  1  0.90123586  0.09540131  0.73318581  1
  O2-  O338  1  0.90710715  0.43007694  0.22701410  1
  O2-  O339  1  0.90535728  0.42628614  0.72950277  1
  O2-  O340  1  0.90569210  0.76200842  0.23041689  1
  O2-  O341  1  0.90205267  0.75784642  0.72823524  1
  O2-  O342  1  0.26031441  0.26327381  0.02137567  1
  O2-  O343  1  0.25928796  0.25918494  0.52298819  1
  O2-  O344  1  0.26576665  0.59928802  0.01950980  1
  O2-  O345  1  0.26209413  0.59295822  0.52424825  1
  O2-  O346  1  0.26236497  0.92708906  0.01940604  1
  O2-  O347  1  0.26231228  0.92665828  0.52095264  1
  O2-  O348  1  0.59544731  0.25908886  0.02283952  1
  O2-  O349  1  0.59654879  0.26002711  0.51835583  1
  O2-  O350  1  0.59161222  0.59237420  0.01977912  1
  O2-  O351  1  0.59302375  0.59515925  0.51977803  1
  O2-  O352  1  0.59272523  0.92574181  0.02288588  1
  O2-  O353  1  0.59793611  0.93075857  0.52181528  1
  O2-  O354  1  0.92972636  0.26020211  0.02135311  1
  O2-  O355  1  0.92970845  0.26116789  0.52057054  1
  O2-  O356  1  0.93020487  0.59306739  0.01979152  1
  O2-  O357  1  0.92813160  0.59505297  0.52106030  1
  O2-  O358  1  0.92674116  0.92945605  0.01881053  1
  O2-  O359  1  0.92607513  0.92818450  0.52503990  1
