# generated using pymatgen
data_Sr7Ca15Pr50Mn72O216
_symmetry_space_group_name_H-M   'P 1'
_cell_length_a   16.55829742
_cell_length_b   16.60435028
_cell_length_c   15.59417495
_cell_angle_alpha   89.99770437
_cell_angle_beta   89.99822068
_cell_angle_gamma   90.00450877
_symmetry_Int_Tables_number   1
_chemical_formula_structural   Sr7Ca15Pr50Mn72O216
_chemical_formula_sum   'Sr7 Ca15 Pr50 Mn72 O216'
_cell_volume   4287.45886089
_cell_formula_units_Z   1
loop_
 _symmetry_equiv_pos_site_id
 _symmetry_equiv_pos_as_xyz
  1  'x, y, z'
loop_
 _atom_type_symbol
 _atom_type_oxidation_number
  Sr2+  2.0
  Ca2+  2.0
  Pr3+  3.0
  Mn3.30+  3.3
  O2-  -2.0
loop_
 _atom_site_type_symbol
 _atom_site_label
 _atom_site_symmetry_multiplicity
 _atom_site_fract_x
 _atom_site_fract_y
 _atom_site_fract_z
 _atom_site_occupancy
  Sr2+  Sr0  1  0.83069908  0.49317392  0.87521342  1
  Sr2+  Sr1  1  0.66623382  0.34338672  0.62551745  1
  Sr2+  Sr2  1  0.16776575  0.17710783  0.12655440  1
  Sr2+  Sr3  1  0.50176227  0.84221014  0.62841025  1
  Sr2+  Sr4  1  0.16661604  0.51190358  0.62760972  1
  Sr2+  Sr5  1  0.50186717  0.84331167  0.12189752  1
  Sr2+  Sr6  1  -0.00111250  0.00980990  0.62718926  1
  Ca2+  Ca7  1  0.16092446  0.15274980  0.37441674  1
  Ca2+  Ca8  1  0.83061452  0.81785156  0.87360116  1
  Ca2+  Ca9  1  0.66875354  0.65465274  0.87392700  1
  Ca2+  Ca10  1  0.33288980  0.32372389  0.87519095  1
  Ca2+  Ca11  1  0.49724925  0.48492649  0.87381996  1
  Ca2+  Ca12  1  0.16448924  0.82056338  0.87320612  1
  Ca2+  Ca13  1  0.16279931  0.48486602  0.87387889  1
  Ca2+  Ca14  1  0.33712488  0.98295974  0.87611173  1
  Ca2+  Ca15  1  0.49638131  0.81892974  0.87509620  1
  Ca2+  Ca16  1  0.83192514  0.15260524  0.37517732  1
  Ca2+  Ca17  1  1.00379903  0.31381327  0.37506914  1
  Ca2+  Ca18  1  1.00423829  0.98332757  0.87390326  1
  Ca2+  Ca19  1  -0.00295377  0.68177368  0.62802246  1
  Ca2+  Ca20  1  1.00551556  0.65402880  0.37693448  1
  Ca2+  Ca21  1  0.83992821  0.18195975  0.12565429  1
  Pr3+  Pr22  1  0.66608491  0.34500988  0.12451063  1
  Pr3+  Pr23  1  0.16344298  0.15437890  0.87609892  1
  Pr3+  Pr24  1  0.33114314  0.68096083  0.12315923  1
  Pr3+  Pr25  1  1.00486253  0.65329208  0.87380074  1
  Pr3+  Pr26  1  0.66879991  0.32430489  0.87374870  1
  Pr3+  Pr27  1  0.50269544  0.17907439  0.62603984  1
  Pr3+  Pr28  1  0.50366597  0.51030208  0.62806112  1
  Pr3+  Pr29  1  0.32894140  0.34690624  0.62675827  1
  Pr3+  Pr30  1  0.32965895  0.01362476  0.12114918  1
  Pr3+  Pr31  1  0.49779216  0.82145751  0.37504959  1
  Pr3+  Pr32  1  0.49837410  0.15323838  0.37532988  1
  Pr3+  Pr33  1  0.16920753  0.51295536  0.12228065  1
  Pr3+  Pr34  1  0.83885377  0.51641424  0.62724082  1
  Pr3+  Pr35  1  0.83433047  0.82269350  0.37574954  1
  Pr3+  Pr36  1  0.83889549  0.84561239  0.62869281  1
  Pr3+  Pr37  1  -0.00183766  0.68073454  0.12344816  1
  Pr3+  Pr38  1  -0.00259719  0.34415305  0.12633628  1
  Pr3+  Pr39  1  0.32728104  0.34581087  0.12335231  1
  Pr3+  Pr40  1  0.33607692  0.65487460  0.87390718  1
  Pr3+  Pr41  1  1.00185162  0.99258229  0.37577360  1
  Pr3+  Pr42  1  1.00241044  0.32420064  0.87393634  1
  Pr3+  Pr43  1  0.66506827  0.67877665  0.12147611  1
  Pr3+  Pr44  1  0.67162302  0.31709421  0.37602251  1
  Pr3+  Pr45  1  0.83633121  0.51441446  0.12297302  1
  Pr3+  Pr46  1  0.16650852  0.84351418  0.62922150  1
  Pr3+  Pr47  1  0.33278411  0.31908352  0.37613521  1
  Pr3+  Pr48  1  0.83426940  0.48810581  0.37447255  1
  Pr3+  Pr49  1  0.66893147  0.98441270  0.87502326  1
  Pr3+  Pr50  1  0.49419761  0.15523931  0.87435488  1
  Pr3+  Pr51  1  -0.00357008  0.34640374  0.62323070  1
  Pr3+  Pr52  1  0.50062534  0.17836045  0.12376763  1
  Pr3+  Pr53  1  0.66584052  0.67757466  0.62869345  1
  Pr3+  Pr54  1  0.83694941  0.84675313  0.12121238  1
  Pr3+  Pr55  1  0.66386482  0.01037944  0.62719362  1
  Pr3+  Pr56  1  0.33254609  0.98984505  0.37333932  1
  Pr3+  Pr57  1  0.67165142  0.98734673  0.37474408  1
  Pr3+  Pr58  1  0.49678310  0.48624629  0.37597027  1
  Pr3+  Pr59  1  0.16637251  0.17793254  0.62339335  1
  Pr3+  Pr60  1  0.83778333  0.17971269  0.62377068  1
  Pr3+  Pr61  1  -0.00260999  0.01686140  0.12185094  1
  Pr3+  Pr62  1  0.33511167  0.65457244  0.37632590  1
  Pr3+  Pr63  1  0.17122658  0.84700745  0.12130943  1
  Pr3+  Pr64  1  0.32879801  0.01041127  0.62899724  1
  Pr3+  Pr65  1  0.16074751  0.81933588  0.37570949  1
  Pr3+  Pr66  1  0.66968592  0.65572073  0.37493079  1
  Pr3+  Pr67  1  0.66473620  0.01303820  0.12295586  1
  Pr3+  Pr68  1  0.15931142  0.48616852  0.37640523  1
  Pr3+  Pr69  1  0.33021079  0.68064223  0.62690059  1
  Pr3+  Pr70  1  0.83146434  0.15604259  0.87555465  1
  Pr3+  Pr71  1  0.50161640  0.51175125  0.12254906  1
  Mn3.30+  Mn72  1  0.16621365  -0.00073368  -0.00462159  1
  Mn3.30+  Mn73  1  0.16580448  0.00052843  0.50140527  1
  Mn3.30+  Mn74  1  0.16697569  0.33332031  -0.00123534  1
  Mn3.30+  Mn75  1  0.16373207  0.33220576  0.49906454  1
  Mn3.30+  Mn76  1  0.16724164  0.66719206  -0.00315852  1
  Mn3.30+  Mn77  1  0.16378196  0.66662771  0.50277890  1
  Mn3.30+  Mn78  1  0.49866324  -0.00150892  -0.00185499  1
  Mn3.30+  Mn79  1  0.49983545  -0.00146954  0.50094721  1
  Mn3.30+  Mn80  1  0.49747009  0.33396055  -0.00132282  1
  Mn3.30+  Mn81  1  0.50019258  0.33281787  0.50025237  1
  Mn3.30+  Mn82  1  0.50129675  0.66631850  -0.00357735  1
  Mn3.30+  Mn83  1  0.50086239  0.66617735  0.50140116  1
  Mn3.30+  Mn84  1  0.83494494  0.00017084  -0.00296058  1
  Mn3.30+  Mn85  1  0.83446387  0.00110743  0.50061043  1
  Mn3.30+  Mn86  1  0.83309348  0.33397094  0.00051548  1
  Mn3.30+  Mn87  1  0.83524034  0.33337033  0.49737240  1
  Mn3.30+  Mn88  1  0.83243554  0.66864738  -0.00249093  1
  Mn3.30+  Mn89  1  0.83757937  0.66778700  0.49894725  1
  Mn3.30+  Mn90  1  -0.00118588  0.16758313  0.25101864  1
  Mn3.30+  Mn91  1  -0.00037186  0.16552028  0.75080252  1
  Mn3.30+  Mn92  1  0.00015236  0.50021204  0.25103153  1
  Mn3.30+  Mn93  1  0.00170451  0.50137711  0.74976984  1
  Mn3.30+  Mn94  1  0.00113644  0.83492458  0.24849390  1
  Mn3.30+  Mn95  1  -0.00018843  0.83313512  0.75388821  1
  Mn3.30+  Mn96  1  0.33114821  0.16654192  0.25120062  1
  Mn3.30+  Mn97  1  0.33196973  0.16670865  0.75159482  1
  Mn3.30+  Mn98  1  0.33144494  0.50025776  0.25029944  1
  Mn3.30+  Mn99  1  0.33291697  0.49923368  0.75324739  1
  Mn3.30+  Mn100  1  0.33281451  0.83438756  0.24919530  1
  Mn3.30+  Mn101  1  0.33394250  0.83422204  0.75343947  1
  Mn3.30+  Mn102  1  0.67071765  0.16602316  0.24805239  1
  Mn3.30+  Mn103  1  0.66577249  0.16661551  0.75135497  1
  Mn3.30+  Mn104  1  0.66709278  0.49947074  0.25038466  1
  Mn3.30+  Mn105  1  0.66684580  0.50028478  0.75141835  1
  Mn3.30+  Mn106  1  0.66751709  0.83370558  0.24851317  1
  Mn3.30+  Mn107  1  0.66692972  0.83108201  0.75358334  1
  Mn3.30+  Mn108  1  0.16594865  0.00126213  0.24931771  1
  Mn3.30+  Mn109  1  0.16597122  -0.00128538  0.75360846  1
  Mn3.30+  Mn110  1  0.16353036  0.33149075  0.25170631  1
  Mn3.30+  Mn111  1  0.16768702  0.33419344  0.75098991  1
  Mn3.30+  Mn112  1  0.16537757  0.66628884  0.25022039  1
  Mn3.30+  Mn113  1  0.16597747  0.66692933  0.75071763  1
  Mn3.30+  Mn114  1  0.50098397  -0.00037489  0.24846196  1
  Mn3.30+  Mn115  1  0.49736559  -0.00232804  0.75203517  1
  Mn3.30+  Mn116  1  0.49906945  0.33257836  0.24970496  1
  Mn3.30+  Mn117  1  0.49799605  0.33408125  0.75195983  1
  Mn3.30+  Mn118  1  0.50043438  0.66636377  0.24918535  1
  Mn3.30+  Mn119  1  0.50146070  0.66582173  0.75343045  1
  Mn3.30+  Mn120  1  0.83460544  0.00297591  0.24759807  1
  Mn3.30+  Mn121  1  0.83514668  -0.00123735  0.75382447  1
  Mn3.30+  Mn122  1  0.83508184  0.33106627  0.25193821  1
  Mn3.30+  Mn123  1  0.83329662  0.33567843  0.74988751  1
  Mn3.30+  Mn124  1  0.83656754  0.66785268  0.25111861  1
  Mn3.30+  Mn125  1  0.83352295  0.66824791  0.75203657  1
  Mn3.30+  Mn126  1  -0.00144811  0.16741180  -0.00032761  1
  Mn3.30+  Mn127  1  0.00004356  0.16627329  0.49802518  1
  Mn3.30+  Mn128  1  0.00178966  0.49944055  -0.00121271  1
  Mn3.30+  Mn129  1  -0.00036643  0.50281434  0.49993884  1
  Mn3.30+  Mn130  1  0.00152464  0.83478216  -0.00409009  1
  Mn3.30+  Mn131  1  -0.00009668  0.83271425  0.50109876  1
  Mn3.30+  Mn132  1  0.33141188  0.16767528  -0.00253552  1
  Mn3.30+  Mn133  1  0.33192129  0.16532366  0.50000950  1
  Mn3.30+  Mn134  1  0.33354248  0.49905384  -0.00411281  1
  Mn3.30+  Mn135  1  0.33109616  0.50039986  0.50129613  1
  Mn3.30+  Mn136  1  0.33457406  0.83428643  -0.00348627  1
  Mn3.30+  Mn137  1  0.33231988  0.83469430  0.50077453  1
  Mn3.30+  Mn138  1  0.66772360  0.16753947  0.00066139  1
  Mn3.30+  Mn139  1  0.66836294  0.16484437  0.49974106  1
  Mn3.30+  Mn140  1  0.66579442  0.50104295  -0.00233466  1
  Mn3.30+  Mn141  1  0.66812605  0.49943323  0.50052755  1
  Mn3.30+  Mn142  1  0.66690041  0.83158076  -0.00363616  1
  Mn3.30+  Mn143  1  0.66762635  0.83274225  0.50150004  1
  O2-  O144  1  0.01983756  0.16539503  0.12421654  1
  O2-  O145  1  0.02228054  0.16630604  0.62612750  1
  O2-  O146  1  0.02530766  0.49365809  0.12526994  1
  O2-  O147  1  0.01841339  0.49296518  0.62459562  1
  O2-  O148  1  0.02754504  0.82837550  0.12317349  1
  O2-  O149  1  0.02230995  0.82814236  0.62815731  1
  O2-  O150  1  0.35638848  0.16197991  0.12464210  1
  O2-  O151  1  0.35953461  0.15819479  0.62492096  1
  O2-  O152  1  0.35773557  0.49386372  0.12495714  1
  O2-  O153  1  0.35966439  0.49483392  0.62801437  1
  O2-  O154  1  0.35210501  0.82924746  0.12382932  1
  O2-  O155  1  0.35211645  0.83034243  0.62637718  1
  O2-  O156  1  0.69703108  0.16070169  0.12420022  1
  O2-  O157  1  0.69200092  0.15925563  0.62607114  1
  O2-  O158  1  0.69180430  0.49346767  0.12666546  1
  O2-  O159  1  0.69299476  0.49869052  0.62219241  1
  O2-  O160  1  0.69317000  0.82760315  0.12215108  1
  O2-  O161  1  0.69440926  0.82743984  0.62803378  1
  O2-  O162  1  0.14200157  0.33259770  0.12796289  1
  O2-  O163  1  0.14062565  0.32618827  0.62328195  1
  O2-  O164  1  0.14241940  0.66092295  0.12236393  1
  O2-  O165  1  0.14052010  0.66867811  0.62577417  1
  O2-  O166  1  0.14261630  0.99434305  0.12052466  1
  O2-  O167  1  0.14776988  0.99334519  0.62728792  1
  O2-  O168  1  0.47216359  0.32728113  0.12558990  1
  O2-  O169  1  0.47397563  0.32860071  0.62521049  1
  O2-  O170  1  0.47454818  0.65930793  0.12315342  1
  O2-  O171  1  0.47473521  0.65838272  0.62613959  1
  O2-  O172  1  0.47407630  0.99959416  0.12455647  1
  O2-  O173  1  0.47301177  0.99695163  0.62867458  1
  O2-  O174  1  0.80927576  0.32687648  0.12846280  1
  O2-  O175  1  0.81607418  0.32800460  0.62353563  1
  O2-  O176  1  0.81015895  0.66481235  0.12487850  1
  O2-  O177  1  0.80976542  0.66535316  0.62378162  1
  O2-  O178  1  0.80760454  0.99190084  0.12154944  1
  O2-  O179  1  0.80804110  0.99389164  0.63049854  1
  O2-  O180  1  0.30506811  0.17083587  0.37676114  1
  O2-  O181  1  0.30702153  0.17956096  0.87369923  1
  O2-  O182  1  0.30484869  0.50764416  0.37394881  1
  O2-  O183  1  0.30327759  0.50866354  0.87441616  1
  O2-  O184  1  0.30620580  0.83959157  0.37470743  1
  O2-  O185  1  0.30643591  0.83463008  0.87540956  1
  O2-  O186  1  0.64161851  0.16797783  0.37328104  1
  O2-  O187  1  0.63980266  0.17451051  0.87640292  1
  O2-  O188  1  0.64088126  0.50772412  0.37453477  1
  O2-  O189  1  0.64144583  0.50460480  0.87737968  1
  O2-  O190  1  0.64199980  0.83890217  0.37465497  1
  O2-  O191  1  0.63738335  0.83946460  0.87535015  1
  O2-  O192  1  0.97369483  0.16411852  0.37386048  1
  O2-  O193  1  0.97466565  0.17707461  0.87497750  1
  O2-  O194  1  0.97625415  0.51261409  0.37465228  1
  O2-  O195  1  0.98037280  0.50279913  0.87470516  1
  O2-  O196  1  0.97725651  0.84425811  0.37231309  1
  O2-  O197  1  0.97238988  0.83848190  0.87633589  1
  O2-  O198  1  0.18802944  0.00455804  0.37720553  1
  O2-  O199  1  0.19538908  0.00873988  0.87452962  1
  O2-  O200  1  0.19125296  0.34063707  0.37542763  1
  O2-  O201  1  0.19023434  0.33821257  0.87322329  1
  O2-  O202  1  0.19215135  0.67165263  0.37646371  1
  O2-  O203  1  0.19216803  0.67558979  0.87537314  1
  O2-  O204  1  0.52796758  0.00603085  0.37242088  1
  O2-  O205  1  0.52597279  0.00997746  0.87470015  1
  O2-  O206  1  0.52576004  0.33782251  0.37377272  1
  O2-  O207  1  0.52490884  0.33544755  0.87644629  1
  O2-  O208  1  0.52425805  0.67123654  0.37579470  1
  O2-  O209  1  0.52659394  0.67480234  0.87513077  1
  O2-  O210  1  0.85715482  0.00460421  0.37104822  1
  O2-  O211  1  0.86232672  0.01035481  0.87592275  1
  O2-  O212  1  0.86148183  0.34222980  0.37385498  1
  O2-  O213  1  0.85729895  0.33649810  0.87343425  1
  O2-  O214  1  0.86399877  0.67460057  0.37488585  1
  O2-  O215  1  0.86046031  0.67039465  0.87655244  1
  O2-  O216  1  0.23934101  0.09426672  0.01642857  1
  O2-  O217  1  0.24022024  0.09220196  0.52349857  1
  O2-  O218  1  0.23872585  0.42768871  0.02121173  1
  O2-  O219  1  0.24034011  0.42574959  0.51804462  1
  O2-  O220  1  0.24000911  0.75948435  0.02133537  1
  O2-  O221  1  0.23623134  0.76147551  0.51954371  1
  O2-  O222  1  0.57317258  0.09556105  0.02105973  1
  O2-  O223  1  0.57060884  0.09218305  0.52105332  1
  O2-  O224  1  0.57185959  0.42555817  0.02266419  1
  O2-  O225  1  0.56892815  0.42935493  0.51644005  1
  O2-  O226  1  0.57642545  0.75632046  0.02092438  1
  O2-  O227  1  0.57621760  0.75795682  0.51766010  1
  O2-  O228  1  0.90351380  0.09769700  0.02068253  1
  O2-  O229  1  0.90379214  0.09602572  0.51832988  1
  O2-  O230  1  0.90580619  0.42675637  0.02288639  1
  O2-  O231  1  0.90389670  0.43241983  0.51750038  1
  O2-  O232  1  0.90748216  0.76105391  0.02166505  1
  O2-  O233  1  0.90314953  0.76513979  0.51749131  1
  O2-  O234  1  0.26314849  0.26601273  0.23457567  1
  O2-  O235  1  0.25849384  0.25828490  0.72436408  1
  O2-  O236  1  0.26295414  0.59613890  0.22853293  1
  O2-  O237  1  0.26520112  0.59756394  0.73217841  1
  O2-  O238  1  0.26129925  0.92821376  0.22943644  1
  O2-  O239  1  0.26044599  0.92667749  0.73161266  1
  O2-  O240  1  0.59787462  0.25784806  0.22855000  1
  O2-  O241  1  0.59053104  0.25839932  0.73216448  1
  O2-  O242  1  0.59590083  0.59278364  0.22881270  1
  O2-  O243  1  0.59338493  0.59137959  0.72765863  1
  O2-  O244  1  0.59633044  0.93089106  0.23083677  1
  O2-  O245  1  0.59863369  0.92844831  0.73373280  1
  O2-  O246  1  0.93004472  0.26250099  0.23217826  1
  O2-  O247  1  0.92782046  0.26238010  0.73077273  1
  O2-  O248  1  0.92714111  0.59461060  0.22531709  1
  O2-  O249  1  0.92954264  0.59640161  0.73119663  1
  O2-  O250  1  0.92827673  0.93103252  0.22657978  1
  O2-  O251  1  0.92563808  0.92519655  0.73247322  1
  O2-  O252  1  0.09432301  0.23647289  0.27259691  1
  O2-  O253  1  0.09440669  0.23885847  0.77010048  1
  O2-  O254  1  0.09925675  0.56975219  0.26578948  1
  O2-  O255  1  0.09611147  0.57309632  0.77308710  1
  O2-  O256  1  0.09520521  0.90480158  0.26846947  1
  O2-  O257  1  0.09679094  0.90312453  0.76961318  1
  O2-  O258  1  0.42763733  0.23784234  0.27161411  1
  O2-  O259  1  0.42834044  0.23652339  0.76567379  1
  O2-  O260  1  0.42665306  0.57097033  0.27078689  1
  O2-  O261  1  0.42893924  0.57058769  0.77360641  1
  O2-  O262  1  0.42796193  0.90837616  0.27345530  1
  O2-  O263  1  0.42847498  0.90445991  0.77375977  1
  O2-  O264  1  0.76205150  0.23909140  0.27603275  1
  O2-  O265  1  0.76080234  0.24087691  0.76939481  1
  O2-  O266  1  0.76260110  0.57325299  0.27086093  1
  O2-  O267  1  0.76203517  0.57543847  0.76281755  1
  O2-  O268  1  0.76310808  0.90575738  0.26886328  1
  O2-  O269  1  0.76147131  0.90442796  0.77438393  1
  O2-  O270  1  0.07194180  0.07205969  0.48275995  1
  O2-  O271  1  0.07002608  0.07089088  0.97855698  1
  O2-  O272  1  0.06797176  0.40514456  0.47875210  1
  O2-  O273  1  0.07219504  0.40289098  0.98263659  1
  O2-  O274  1  0.07241902  0.74020066  0.47668901  1
  O2-  O275  1  0.06910204  0.73644940  0.98212403  1
  O2-  O276  1  0.40498955  0.07306385  0.47707327  1
  O2-  O277  1  0.40331565  0.07303532  0.97872569  1
  O2-  O278  1  0.40459599  0.40563906  0.47890958  1
  O2-  O279  1  0.40084946  0.40428347  0.98030518  1
  O2-  O280  1  0.40568103  0.74066829  0.48000863  1
  O2-  O281  1  0.40433096  0.73671121  0.98257781  1
  O2-  O282  1  0.73710420  0.06940620  0.48314834  1
  O2-  O283  1  0.73728979  0.07290705  0.97693493  1
  O2-  O284  1  0.73919224  0.40698948  0.47522074  1
  O2-  O285  1  0.73521431  0.40411763  0.98490743  1
  O2-  O286  1  0.74099682  0.73888878  0.47779770  1
  O2-  O287  1  0.73730833  0.73705540  0.97937912  1
  O2-  O288  1  0.09646112  0.23453038  0.48031005  1
  O2-  O289  1  0.09292092  0.23993478  0.97820023  1
  O2-  O290  1  0.09555953  0.57151938  0.48075254  1
  O2-  O291  1  0.09802338  0.57144469  0.97960489  1
  O2-  O292  1  0.09439303  0.90569630  0.48203192  1
  O2-  O293  1  0.09839017  0.90159193  0.97853668  1
  O2-  O294  1  0.42650898  0.23779998  0.47933431  1
  O2-  O295  1  0.42990060  0.23585979  0.98366011  1
  O2-  O296  1  0.42726366  0.57191710  0.47906184  1
  O2-  O297  1  0.42909230  0.57022234  0.97745008  1
  O2-  O298  1  0.42758616  0.90869408  0.47578796  1
  O2-  O299  1  0.42805454  0.90385385  0.97802305  1
  O2-  O300  1  0.76191560  0.23792012  0.47862800  1
  O2-  O301  1  0.75867192  0.24151772  0.97733180  1
  O2-  O302  1  0.76399701  0.57482937  0.47740270  1
  O2-  O303  1  0.75973837  0.57360665  0.98847909  1
  O2-  O304  1  0.76148293  0.90526032  0.48006483  1
  O2-  O305  1  0.76311346  0.90362744  0.97641781  1
  O2-  O306  1  0.06861875  0.07050484  0.26438030  1
  O2-  O307  1  0.07292256  0.07259430  0.77388569  1
  O2-  O308  1  0.06984650  0.40341229  0.27337134  1
  O2-  O309  1  0.07139333  0.40407227  0.76501365  1
  O2-  O310  1  0.07168779  0.73620799  0.27014959  1
  O2-  O311  1  0.07142097  0.73923196  0.77125231  1
  O2-  O312  1  0.40837512  0.07285671  0.27131477  1
  O2-  O313  1  0.40173961  0.07223151  0.77338875  1
  O2-  O314  1  0.40124132  0.40718169  0.27302492  1
  O2-  O315  1  0.40237072  0.40267291  0.77029391  1
  O2-  O316  1  0.40489150  0.74049034  0.27046125  1
  O2-  O317  1  0.40490883  0.73700249  0.76691035  1
  O2-  O318  1  0.73623129  0.06935173  0.26685665  1
  O2-  O319  1  0.73855725  0.07196167  0.77280594  1
  O2-  O320  1  0.73764064  0.40455624  0.27127503  1
  O2-  O321  1  0.73731147  0.40621791  0.76835607  1
  O2-  O322  1  0.74267631  0.73908955  0.27195661  1
  O2-  O323  1  0.73712705  0.73722215  0.77106220  1
  O2-  O324  1  0.24327756  0.09008492  0.23189899  1
  O2-  O325  1  0.23738580  0.09531315  0.72963489  1
  O2-  O326  1  0.23707919  0.43007915  0.23009052  1
  O2-  O327  1  0.24163402  0.42434161  0.72954543  1
  O2-  O328  1  0.23568992  0.76028041  0.23061108  1
  O2-  O329  1  0.24006576  0.75993192  0.72963357  1
  O2-  O330  1  0.57229467  0.09468020  0.22735556  1
  O2-  O331  1  0.57031069  0.09246815  0.72966805  1
  O2-  O332  1  0.57006214  0.42679001  0.22936858  1
  O2-  O333  1  0.56933321  0.42727362  0.73368382  1
  O2-  O334  1  0.57661607  0.75861042  0.23271430  1
  O2-  O335  1  0.57652372  0.75564732  0.72904785  1
  O2-  O336  1  0.90417736  0.09471476  0.22530381  1
  O2-  O337  1  0.90179963  0.09877545  0.73333460  1
  O2-  O338  1  0.90321311  0.42919290  0.22946203  1
  O2-  O339  1  0.90646261  0.42782579  0.72940272  1
  O2-  O340  1  0.90750741  0.76526517  0.22794905  1
  O2-  O341  1  0.90436691  0.76139887  0.73286859  1
  O2-  O342  1  0.26098671  0.26305118  0.01866453  1
  O2-  O343  1  0.26285840  0.25978396  0.52123420  1
  O2-  O344  1  0.26395317  0.59474488  0.02091088  1
  O2-  O345  1  0.26332707  0.59840447  0.51860076  1
  O2-  O346  1  0.26173189  0.92763948  0.01989623  1
  O2-  O347  1  0.26118920  0.92883864  0.51875908  1
  O2-  O348  1  0.59510693  0.25988867  0.02335083  1
  O2-  O349  1  0.59235959  0.25692676  0.51602454  1
  O2-  O350  1  0.59261811  0.59124554  0.02443231  1
  O2-  O351  1  0.59637230  0.59331207  0.52042009  1
  O2-  O352  1  0.59901137  0.92967647  0.01658074  1
  O2-  O353  1  0.59716723  0.92821454  0.51868678  1
  O2-  O354  1  0.92863815  0.26399469  0.01739458  1
  O2-  O355  1  0.92991590  0.26052507  0.51807022  1
  O2-  O356  1  0.92845765  0.59464710  0.01978283  1
  O2-  O357  1  0.92805627  0.59697580  0.52452174  1
  O2-  O358  1  0.93041296  0.92747741  0.02223901  1
  O2-  O359  1  0.92550222  0.92678391  0.51656494  1
