# generated using pymatgen
data_Sr7Ca15Pr50Mn72O216
_symmetry_space_group_name_H-M   'P 1'
_cell_length_a   16.55823806
_cell_length_b   16.60549818
_cell_length_c   15.59246517
_cell_angle_alpha   89.99335279
_cell_angle_beta   89.99305548
_cell_angle_gamma   90.00095676
_symmetry_Int_Tables_number   1
_chemical_formula_structural   Sr7Ca15Pr50Mn72O216
_chemical_formula_sum   'Sr7 Ca15 Pr50 Mn72 O216'
_cell_volume   4287.26973466
_cell_formula_units_Z   1
loop_
 _symmetry_equiv_pos_site_id
 _symmetry_equiv_pos_as_xyz
  1  'x, y, z'
loop_
 _atom_type_symbol
 _atom_type_oxidation_number
  Sr2+  2.0
  Ca2+  2.0
  Pr3+  3.0
  Mn3.30+  3.3
  O2-  -2.0
loop_
 _atom_site_type_symbol
 _atom_site_label
 _atom_site_symmetry_multiplicity
 _atom_site_fract_x
 _atom_site_fract_y
 _atom_site_fract_z
 _atom_site_occupancy
  Sr2+  Sr0  1  -0.00013100  0.33958957  0.62279854  1
  Sr2+  Sr1  1  0.16608245  0.84303890  0.62437301  1
  Sr2+  Sr2  1  0.50085252  0.17613593  0.62586933  1
  Sr2+  Sr3  1  0.49747539  0.15901780  0.87268090  1
  Sr2+  Sr4  1  0.83445448  0.82474646  0.87453048  1
  Sr2+  Sr5  1  0.33456747  0.65850032  0.87324161  1
  Sr2+  Sr6  1  0.16634819  0.50610377  0.62484109  1
  Ca2+  Ca7  1  0.67041909  0.31717364  0.37556353  1
  Ca2+  Ca8  1  0.83653770  0.18146415  0.62351656  1
  Ca2+  Ca9  1  0.66512636  0.68006947  0.62300970  1
  Ca2+  Ca10  1  0.16882186  0.18053755  0.62497011  1
  Ca2+  Ca11  1  0.33526063  0.31926309  0.37676174  1
  Ca2+  Ca12  1  0.33568641  0.31960901  0.87311230  1
  Ca2+  Ca13  1  0.82760406  0.81562570  0.37562830  1
  Ca2+  Ca14  1  -0.00322907  0.01733254  0.62602788  1
  Ca2+  Ca15  1  -0.00456105  0.01522481  0.12328864  1
  Ca2+  Ca16  1  0.67326651  0.65157495  0.37581018  1
  Ca2+  Ca17  1  0.66508774  0.01599240  0.62532578  1
  Ca2+  Ca18  1  1.00251849  0.98604085  0.87226858  1
  Ca2+  Ca19  1  1.00190992  0.31800111  0.37848271  1
  Ca2+  Ca20  1  0.66311087  0.34755947  0.12730590  1
  Ca2+  Ca21  1  0.83250685  0.51381701  0.12640127  1
  Pr3+  Pr22  1  1.00280258  0.65541504  0.87395253  1
  Pr3+  Pr23  1  0.16517313  0.48660021  0.87406319  1
  Pr3+  Pr24  1  0.50366808  0.51106673  0.62444407  1
  Pr3+  Pr25  1  0.16694477  0.84757990  0.12594652  1
  Pr3+  Pr26  1  0.33085881  0.01450272  0.12468499  1
  Pr3+  Pr27  1  0.66756955  0.67885638  0.12674193  1
  Pr3+  Pr28  1  0.49834003  0.82109511  0.87394296  1
  Pr3+  Pr29  1  0.32800028  0.34209524  0.62639921  1
  Pr3+  Pr30  1  0.16591285  0.17834063  0.12462503  1
  Pr3+  Pr31  1  0.16216555  0.15744684  0.37787432  1
  Pr3+  Pr32  1  0.67050071  0.65408053  0.87373324  1
  Pr3+  Pr33  1  0.66490829  0.34098879  0.62217717  1
  Pr3+  Pr34  1  0.50063401  0.48410178  0.37526416  1
  Pr3+  Pr35  1  0.83908833  0.84976425  0.12657844  1
  Pr3+  Pr36  1  0.67006797  0.98840741  0.87083147  1
  Pr3+  Pr37  1  -0.00253857  0.67804469  0.62385856  1
  Pr3+  Pr38  1  0.16398081  0.82059820  0.37721557  1
  Pr3+  Pr39  1  0.49458004  0.48621497  0.87516364  1
  Pr3+  Pr40  1  0.16891120  0.51275405  0.12618064  1
  Pr3+  Pr41  1  0.83593578  0.17832077  0.12548397  1
  Pr3+  Pr42  1  0.33604927  0.98933085  0.87339638  1
  Pr3+  Pr43  1  0.83027920  0.48762328  0.87606379  1
  Pr3+  Pr44  1  0.16189343  0.82198439  0.87285983  1
  Pr3+  Pr45  1  0.67339062  0.98740038  0.37865108  1
  Pr3+  Pr46  1  0.83130352  0.15350699  0.87088640  1
  Pr3+  Pr47  1  0.50425531  0.84608132  0.12498194  1
  Pr3+  Pr48  1  0.83683124  0.51170058  0.62383617  1
  Pr3+  Pr49  1  0.33153581  0.67947797  0.12567205  1
  Pr3+  Pr50  1  0.83838968  0.84676143  0.62365065  1
  Pr3+  Pr51  1  0.66853911  0.31922146  0.87485142  1
  Pr3+  Pr52  1  0.32722709  0.01662313  0.62544229  1
  Pr3+  Pr53  1  0.66595151  0.01193067  0.12482379  1
  Pr3+  Pr54  1  0.50379315  0.51111257  0.12563876  1
  Pr3+  Pr55  1  0.33690771  0.65278592  0.37731097  1
  Pr3+  Pr56  1  1.00152234  0.31973060  0.87322351  1
  Pr3+  Pr57  1  0.16218480  0.15188572  0.87221983  1
  Pr3+  Pr58  1  0.16167816  0.48270137  0.37663703  1
  Pr3+  Pr59  1  1.00166015  0.98964750  0.37623130  1
  Pr3+  Pr60  1  0.33587813  0.98902659  0.37671651  1
  Pr3+  Pr61  1  -0.00675856  0.34834956  0.12692383  1
  Pr3+  Pr62  1  0.50515097  0.18281626  0.12434341  1
  Pr3+  Pr63  1  0.82816371  0.48420750  0.37338781  1
  Pr3+  Pr64  1  0.99927809  0.65437007  0.37655295  1
  Pr3+  Pr65  1  0.49906448  0.15685675  0.37698339  1
  Pr3+  Pr66  1  0.50066636  0.81924853  0.37604662  1
  Pr3+  Pr67  1  0.50617837  0.84668075  0.62524338  1
  Pr3+  Pr68  1  0.83320054  0.15844048  0.37982065  1
  Pr3+  Pr69  1  0.33104867  0.34460238  0.12454073  1
  Pr3+  Pr70  1  -0.00591611  0.67958308  0.12597479  1
  Pr3+  Pr71  1  0.33020591  0.67836901  0.62509419  1
  Mn3.30+  Mn72  1  0.16358593  -0.00003662  0.00036727  1
  Mn3.30+  Mn73  1  0.16494440  0.00157063  0.50238106  1
  Mn3.30+  Mn74  1  0.16589452  0.33272977  -0.00041497  1
  Mn3.30+  Mn75  1  0.16646990  0.33131194  0.49977158  1
  Mn3.30+  Mn76  1  0.16605817  0.66670998  0.00045659  1
  Mn3.30+  Mn77  1  0.16730503  0.66476848  0.50044594  1
  Mn3.30+  Mn78  1  0.50028641  0.00150306  -0.00097601  1
  Mn3.30+  Mn79  1  0.50311452  0.00046061  0.50134823  1
  Mn3.30+  Mn80  1  0.49957314  0.33389908  0.00008624  1
  Mn3.30+  Mn81  1  0.49926301  0.33192490  0.49860832  1
  Mn3.30+  Mn82  1  0.50055556  0.66625667  0.00069586  1
  Mn3.30+  Mn83  1  0.50496058  0.66524260  0.49945570  1
  Mn3.30+  Mn84  1  0.83602855  0.00041044  -0.00223797  1
  Mn3.30+  Mn85  1  0.83475574  0.00103641  0.50321842  1
  Mn3.30+  Mn86  1  0.83114720  0.33447304  0.00274486  1
  Mn3.30+  Mn87  1  0.83316005  0.33230572  0.49829394  1
  Mn3.30+  Mn88  1  0.83349797  0.66668186  -0.00021208  1
  Mn3.30+  Mn89  1  0.82945844  0.66742578  0.49967375  1
  Mn3.30+  Mn90  1  -0.00101519  0.16709606  0.25001774  1
  Mn3.30+  Mn91  1  -0.00124828  0.16446228  0.74710482  1
  Mn3.30+  Mn92  1  -0.00294896  0.49930122  0.25089902  1
  Mn3.30+  Mn93  1  -0.00106213  0.49904386  0.74880555  1
  Mn3.30+  Mn94  1  -0.00222883  0.83523095  0.25279872  1
  Mn3.30+  Mn95  1  -0.00026811  0.83614086  0.74833321  1
  Mn3.30+  Mn96  1  0.33327770  0.16833702  0.25072838  1
  Mn3.30+  Mn97  1  0.33123021  0.16833089  0.75045282  1
  Mn3.30+  Mn98  1  0.33387124  0.49756240  0.25162798  1
  Mn3.30+  Mn99  1  0.33357868  0.49939853  0.75029766  1
  Mn3.30+  Mn100  1  0.33417783  0.83366584  0.25104580  1
  Mn3.30+  Mn101  1  0.33348841  0.83425743  0.74870228  1
  Mn3.30+  Mn102  1  0.66774171  0.16852556  0.25083720  1
  Mn3.30+  Mn103  1  0.66700838  0.16572597  0.74737466  1
  Mn3.30+  Mn104  1  0.66790837  0.49831168  0.25017849  1
  Mn3.30+  Mn105  1  0.66636440  0.49968480  0.74881282  1
  Mn3.30+  Mn106  1  0.67012805  0.83251891  0.25226220  1
  Mn3.30+  Mn107  1  0.66914256  0.83299795  0.74709932  1
  Mn3.30+  Mn108  1  0.16510376  0.00149954  0.24974506  1
  Mn3.30+  Mn109  1  0.16330165  0.00043293  0.74711283  1
  Mn3.30+  Mn110  1  0.16450656  0.33216066  0.25077708  1
  Mn3.30+  Mn111  1  0.16728905  0.33160990  0.75061753  1
  Mn3.30+  Mn112  1  0.16589201  0.66616164  0.25131329  1
  Mn3.30+  Mn113  1  0.16747886  0.66534772  0.74874182  1
  Mn3.30+  Mn114  1  0.50161385  0.00080237  0.25103765  1
  Mn3.30+  Mn115  1  0.50178069  0.00143922  0.74872908  1
  Mn3.30+  Mn116  1  0.50137441  0.33310042  0.25205486  1
  Mn3.30+  Mn117  1  0.49776291  0.33259797  0.74902797  1
  Mn3.30+  Mn118  1  0.50294172  0.66524983  0.25240058  1
  Mn3.30+  Mn119  1  0.50226230  0.66641457  0.74786066  1
  Mn3.30+  Mn120  1  0.83537447  0.00067720  0.25205402  1
  Mn3.30+  Mn121  1  0.83520238  0.00074080  0.74663832  1
  Mn3.30+  Mn122  1  0.83043371  0.33361273  0.24959049  1
  Mn3.30+  Mn123  1  0.83379662  0.33250540  0.74872282  1
  Mn3.30+  Mn124  1  0.83166367  0.66612368  0.25110981  1
  Mn3.30+  Mn125  1  0.83155663  0.66797689  0.74904119  1
  Mn3.30+  Mn126  1  -0.00095148  0.16400959  -0.00135826  1
  Mn3.30+  Mn127  1  -0.00102457  0.16718115  0.50343609  1
  Mn3.30+  Mn128  1  -0.00217089  0.50043127  0.00110939  1
  Mn3.30+  Mn129  1  -0.00152030  0.49776916  0.49965264  1
  Mn3.30+  Mn130  1  -0.00041442  0.83586226  -0.00025858  1
  Mn3.30+  Mn131  1  -0.00246688  0.83543704  0.49917068  1
  Mn3.30+  Mn132  1  0.33342066  0.16832260  -0.00070346  1
  Mn3.30+  Mn133  1  0.33151958  0.16846231  0.49943701  1
  Mn3.30+  Mn134  1  0.33339614  0.49992263  -0.00046688  1
  Mn3.30+  Mn135  1  0.33389804  0.49685768  0.49884440  1
  Mn3.30+  Mn136  1  0.33329768  0.83416103  0.00052956  1
  Mn3.30+  Mn137  1  0.33446088  0.83402469  0.50034180  1
  Mn3.30+  Mn138  1  0.66743742  0.16714761  -0.00063949  1
  Mn3.30+  Mn139  1  0.66704980  0.16666073  0.50166648  1
  Mn3.30+  Mn140  1  0.66664292  0.49864510  0.00209066  1
  Mn3.30+  Mn141  1  0.66778269  0.49980641  0.49881371  1
  Mn3.30+  Mn142  1  0.66887393  0.83357900  -0.00034428  1
  Mn3.30+  Mn143  1  0.67020634  0.83179814  0.50084808  1
  O2-  O144  1  0.02253859  0.16008755  0.12190033  1
  O2-  O145  1  0.02716603  0.16239198  0.62633542  1
  O2-  O146  1  0.02520810  0.49597366  0.12683167  1
  O2-  O147  1  0.01542945  0.49884706  0.62419731  1
  O2-  O148  1  0.02447785  0.82577766  0.12875612  1
  O2-  O149  1  0.01754993  0.82417222  0.62229063  1
  O2-  O150  1  0.35949703  0.16143348  0.12612169  1
  O2-  O151  1  0.35121125  0.16406511  0.62434350  1
  O2-  O152  1  0.35906858  0.49233201  0.12681522  1
  O2-  O153  1  0.35931174  0.48996460  0.62260130  1
  O2-  O154  1  0.35961062  0.82854096  0.12741782  1
  O2-  O155  1  0.36029755  0.82834745  0.62304116  1
  O2-  O156  1  0.69267705  0.15791215  0.12493513  1
  O2-  O157  1  0.69296301  0.16531027  0.62497971  1
  O2-  O158  1  0.69110339  0.49166327  0.12548228  1
  O2-  O159  1  0.69333120  0.48771950  0.62315750  1
  O2-  O160  1  0.69392771  0.82859105  0.12752690  1
  O2-  O161  1  0.69516076  0.82241019  0.62338899  1
  O2-  O162  1  0.13763150  0.32801103  0.12405474  1
  O2-  O163  1  0.15014064  0.32852974  0.62608308  1
  O2-  O164  1  0.13932352  0.66112951  0.12713330  1
  O2-  O165  1  0.14275056  0.66278606  0.62299441  1
  O2-  O166  1  0.13772543  0.99479320  0.12552760  1
  O2-  O167  1  0.13945956  0.99550616  0.62397743  1
  O2-  O168  1  0.47484875  0.33246598  0.12735455  1
  O2-  O169  1  0.47386576  0.33606287  0.62265254  1
  O2-  O170  1  0.47472419  0.66052653  0.12886330  1
  O2-  O171  1  0.47413937  0.66080507  0.62339219  1
  O2-  O172  1  0.47543881  0.99395877  0.12583486  1
  O2-  O173  1  0.47278726  0.99394283  0.62443761  1
  O2-  O174  1  0.80399906  0.32397525  0.12515226  1
  O2-  O175  1  0.80910855  0.33070575  0.62439124  1
  O2-  O176  1  0.81128990  0.66143363  0.12535220  1
  O2-  O177  1  0.80710682  0.65928353  0.62460861  1
  O2-  O178  1  0.80944370  0.99748434  0.12680719  1
  O2-  O179  1  0.80465935  0.99139541  0.62370566  1
  O2-  O180  1  0.30707862  0.17101147  0.37316116  1
  O2-  O181  1  0.30755032  0.17068655  0.87653427  1
  O2-  O182  1  0.30629937  0.50728930  0.37381139  1
  O2-  O183  1  0.30838223  0.50681385  0.87759635  1
  O2-  O184  1  0.30910729  0.83946930  0.37470234  1
  O2-  O185  1  0.30778363  0.84025524  0.87529036  1
  O2-  O186  1  0.64282356  0.17017826  0.37510245  1
  O2-  O187  1  0.64744472  0.17057341  0.87413011  1
  O2-  O188  1  0.64266356  0.50994255  0.37510307  1
  O2-  O189  1  0.63940086  0.50700228  0.87530929  1
  O2-  O190  1  0.64263484  0.84175405  0.37601236  1
  O2-  O191  1  0.64222529  0.83967506  0.87288922  1
  O2-  O192  1  0.97766744  0.17058234  0.37685361  1
  O2-  O193  1  0.97434083  0.17321412  0.87499288  1
  O2-  O194  1  0.97300032  0.50673620  0.37372952  1
  O2-  O195  1  0.97477725  0.50574670  0.87565702  1
  O2-  O196  1  0.96995459  0.84236846  0.37506052  1
  O2-  O197  1  0.98353238  0.83879385  0.87387776  1
  O2-  O198  1  0.19240044  0.00859530  0.37465846  1
  O2-  O199  1  0.19238739  0.00324112  0.87560608  1
  O2-  O200  1  0.19228161  0.33503641  0.37227614  1
  O2-  O201  1  0.19194622  0.33845520  0.87811583  1
  O2-  O202  1  0.19222342  0.67196345  0.37494963  1
  O2-  O203  1  0.18426689  0.67315237  0.87546978  1
  O2-  O204  1  0.52732758  0.00650715  0.37540232  1
  O2-  O205  1  0.52473077  0.00074901  0.87453241  1
  O2-  O206  1  0.52869005  0.33562155  0.37445846  1
  O2-  O207  1  0.52522492  0.33914233  0.87485276  1
  O2-  O208  1  0.53127394  0.67201381  0.37510183  1
  O2-  O209  1  0.52658773  0.67184325  0.87294254  1
  O2-  O210  1  0.85917052  0.01078973  0.37793304  1
  O2-  O211  1  0.86044244  0.00579408  0.87058250  1
  O2-  O212  1  0.86005442  0.33653403  0.37220773  1
  O2-  O213  1  0.85723773  0.33987217  0.87789080  1
  O2-  O214  1  0.85630966  0.67030646  0.37512476  1
  O2-  O215  1  0.85785969  0.66694333  0.87464444  1
  O2-  O216  1  0.23608715  0.09311758  0.02108600  1
  O2-  O217  1  0.23625121  0.09621883  0.51992917  1
  O2-  O218  1  0.23831613  0.42930357  0.02222802  1
  O2-  O219  1  0.24019844  0.42479688  0.51489587  1
  O2-  O220  1  0.23881586  0.76099130  0.02274576  1
  O2-  O221  1  0.24404328  0.75880722  0.51623769  1
  O2-  O222  1  0.57383037  0.09304130  0.02231880  1
  O2-  O223  1  0.57381722  0.09322014  0.51599677  1
  O2-  O224  1  0.56872065  0.43055350  0.01718165  1
  O2-  O225  1  0.57216096  0.42802846  0.51780141  1
  O2-  O226  1  0.57382899  0.76165150  0.02101822  1
  O2-  O227  1  0.57070140  0.76413964  0.51833624  1
  O2-  O228  1  0.90284576  0.09770665  0.01687219  1
  O2-  O229  1  0.90386672  0.09679146  0.52137454  1
  O2-  O230  1  0.90167444  0.42935605  0.02335365  1
  O2-  O231  1  0.90062100  0.42972496  0.51445121  1
  O2-  O232  1  0.90692242  0.76291655  0.02182314  1
  O2-  O233  1  0.90307587  0.75909311  0.51884239  1
  O2-  O234  1  0.25880555  0.25990516  0.22558028  1
  O2-  O235  1  0.26060035  0.26084020  0.73384684  1
  O2-  O236  1  0.26339012  0.59364382  0.22888836  1
  O2-  O237  1  0.26394768  0.59247259  0.72974342  1
  O2-  O238  1  0.25899694  0.93031954  0.22968317  1
  O2-  O239  1  0.26295686  0.93206284  0.73179414  1
  O2-  O240  1  0.59381199  0.26183885  0.22594165  1
  O2-  O241  1  0.59502348  0.26366821  0.73317831  1
  O2-  O242  1  0.59496185  0.59240251  0.22583011  1
  O2-  O243  1  0.59695964  0.59489357  0.72653917  1
  O2-  O244  1  0.59714503  0.92749574  0.22996084  1
  O2-  O245  1  0.59678634  0.92543468  0.72675554  1
  O2-  O246  1  0.92567429  0.26142097  0.22709616  1
  O2-  O247  1  0.92714033  0.26139020  0.73694896  1
  O2-  O248  1  0.92963036  0.59848955  0.23408464  1
  O2-  O249  1  0.92575471  0.59650214  0.73036724  1
  O2-  O250  1  0.93081764  0.93184852  0.22800332  1
  O2-  O251  1  0.92742492  0.92883788  0.72545068  1
  O2-  O252  1  0.09562320  0.23651449  0.26601072  1
  O2-  O253  1  0.09237898  0.23926279  0.77275525  1
  O2-  O254  1  0.09614146  0.57164417  0.27175835  1
  O2-  O255  1  0.09206363  0.57324028  0.77159128  1
  O2-  O256  1  0.09638912  0.90534332  0.27286807  1
  O2-  O257  1  0.09683756  0.90547090  0.76854112  1
  O2-  O258  1  0.43206817  0.23786555  0.26732106  1
  O2-  O259  1  0.42453927  0.24362264  0.76583548  1
  O2-  O260  1  0.43088274  0.57223409  0.27330389  1
  O2-  O261  1  0.43219669  0.56993276  0.76481689  1
  O2-  O262  1  0.43005921  0.90659806  0.27173618  1
  O2-  O263  1  0.42839469  0.90641155  0.77049791  1
  O2-  O264  1  0.76388991  0.23600363  0.26979473  1
  O2-  O265  1  0.75982683  0.24184484  0.77042525  1
  O2-  O266  1  0.76256860  0.56954401  0.26650872  1
  O2-  O267  1  0.76084753  0.57048135  0.77034537  1
  O2-  O268  1  0.76655787  0.90466561  0.27169723  1
  O2-  O269  1  0.76052952  0.90772488  0.76753164  1
  O2-  O270  1  0.07199892  0.07363886  0.47782126  1
  O2-  O271  1  0.07154161  0.07025134  0.97552405  1
  O2-  O272  1  0.07402911  0.40486659  0.47774445  1
  O2-  O273  1  0.06997578  0.40561480  0.98012123  1
  O2-  O274  1  0.07013750  0.74218976  0.47800607  1
  O2-  O275  1  0.06970901  0.73943813  0.98211797  1
  O2-  O276  1  0.40368652  0.07426062  0.47994215  1
  O2-  O277  1  0.40207669  0.07078744  0.98352051  1
  O2-  O278  1  0.40658675  0.40536507  0.47416297  1
  O2-  O279  1  0.40247709  0.40492520  0.97911679  1
  O2-  O280  1  0.40991233  0.73703664  0.47802438  1
  O2-  O281  1  0.40848296  0.74214149  0.98381686  1
  O2-  O282  1  0.74132599  0.07320567  0.47904544  1
  O2-  O283  1  0.73999006  0.07081694  0.97853375  1
  O2-  O284  1  0.73678496  0.40400865  0.47640978  1
  O2-  O285  1  0.73707476  0.40640664  0.97650721  1
  O2-  O286  1  0.73638000  0.73576941  0.47809019  1
  O2-  O287  1  0.73669440  0.73593431  0.98345726  1
  O2-  O288  1  0.09442175  0.23887430  0.48227256  1
  O2-  O289  1  0.09245034  0.23590813  0.97878089  1
  O2-  O290  1  0.09110466  0.57250507  0.47685766  1
  O2-  O291  1  0.09548224  0.57139513  0.98071295  1
  O2-  O292  1  0.09464441  0.90795365  0.47499647  1
  O2-  O293  1  0.09962806  0.90095697  0.98518534  1
  O2-  O294  1  0.42714698  0.23916190  0.47872402  1
  O2-  O295  1  0.42870461  0.24116629  0.98766907  1
  O2-  O296  1  0.43084515  0.57098563  0.47837068  1
  O2-  O297  1  0.42975630  0.56932988  0.98457270  1
  O2-  O298  1  0.43035557  0.90605575  0.47826667  1
  O2-  O299  1  0.42792482  0.90651627  0.98003230  1
  O2-  O300  1  0.75962334  0.24055424  0.48103245  1
  O2-  O301  1  0.76296533  0.23855220  0.97852687  1
  O2-  O302  1  0.76444100  0.56833403  0.48190151  1
  O2-  O303  1  0.75852580  0.57168379  0.97956335  1
  O2-  O304  1  0.76529162  0.90337470  0.47809491  1
  O2-  O305  1  0.76031673  0.90827717  0.98333343  1
  O2-  O306  1  0.07370242  0.07316940  0.27196661  1
  O2-  O307  1  0.07023601  0.07122011  0.77372755  1
  O2-  O308  1  0.06929327  0.40309221  0.27161358  1
  O2-  O309  1  0.07533778  0.40593927  0.77233082  1
  O2-  O310  1  0.07005681  0.74072757  0.27389983  1
  O2-  O311  1  0.07172402  0.74048517  0.76655573  1
  O2-  O312  1  0.40535673  0.07285258  0.27151984  1
  O2-  O313  1  0.40022375  0.07279477  0.76559858  1
  O2-  O314  1  0.40414512  0.40284318  0.27282956  1
  O2-  O315  1  0.40533139  0.40663826  0.77278918  1
  O2-  O316  1  0.40847871  0.73643048  0.27239967  1
  O2-  O317  1  0.41115726  0.74144709  0.76662134  1
  O2-  O318  1  0.73919424  0.06976703  0.27030743  1
  O2-  O319  1  0.74208644  0.07239096  0.77085269  1
  O2-  O320  1  0.73626046  0.40372911  0.27478003  1
  O2-  O321  1  0.73735841  0.40573989  0.77174733  1
  O2-  O322  1  0.73570638  0.73398049  0.26814568  1
  O2-  O323  1  0.73823876  0.73734994  0.76982597  1
  O2-  O324  1  0.23798356  0.09339046  0.22673573  1
  O2-  O325  1  0.23340921  0.09537883  0.73107500  1
  O2-  O326  1  0.23471260  0.42582639  0.22890424  1
  O2-  O327  1  0.24131776  0.42548485  0.73468377  1
  O2-  O328  1  0.23816263  0.76011655  0.22977882  1
  O2-  O329  1  0.24334723  0.75829889  0.73230289  1
  O2-  O330  1  0.57241930  0.09487581  0.22926909  1
  O2-  O331  1  0.57623406  0.09090528  0.73239586  1
  O2-  O332  1  0.56882107  0.43052575  0.23418601  1
  O2-  O333  1  0.57202270  0.42799386  0.73000864  1
  O2-  O334  1  0.57112453  0.76148550  0.22918248  1
  O2-  O335  1  0.57216098  0.76234141  0.73092809  1
  O2-  O336  1  0.90397296  0.09720679  0.23348088  1
  O2-  O337  1  0.90198719  0.09809767  0.72777197  1
  O2-  O338  1  0.90007450  0.42864399  0.22666018  1
  O2-  O339  1  0.90146378  0.42948834  0.73570639  1
  O2-  O340  1  0.90394038  0.76154777  0.22985816  1
  O2-  O341  1  0.90586160  0.75981375  0.72906321  1
  O2-  O342  1  0.25846260  0.25899898  0.02452656  1
  O2-  O343  1  0.26231649  0.26175026  0.51629490  1
  O2-  O344  1  0.26127571  0.59304211  0.02516833  1
  O2-  O345  1  0.26760453  0.59305805  0.51707925  1
  O2-  O346  1  0.26111954  0.92884231  0.02283459  1
  O2-  O347  1  0.26291430  0.93272443  0.51582966  1
  O2-  O348  1  0.59561854  0.26314245  0.02096001  1
  O2-  O349  1  0.59333645  0.26085084  0.51853020  1
  O2-  O350  1  0.59630580  0.59402198  0.02235835  1
  O2-  O351  1  0.59513661  0.59294830  0.52505718  1
  O2-  O352  1  0.59454154  0.92663928  0.02099728  1
  O2-  O353  1  0.59968606  0.92651587  0.52262516  1
  O2-  O354  1  0.92760764  0.26325062  0.02038865  1
  O2-  O355  1  0.92532316  0.25849997  0.51529389  1
  O2-  O356  1  0.93032406  0.59725869  0.01735114  1
  O2-  O357  1  0.92592425  0.59708000  0.51791697  1
  O2-  O358  1  0.92897173  0.92846368  0.02248067  1
  O2-  O359  1  0.92992724  0.93178179  0.52260985  1
