# generated using pymatgen
data_Sr7Ca15Pr50Mn72O216
_symmetry_space_group_name_H-M   'P 1'
_cell_length_a   16.55825419
_cell_length_b   16.60522768
_cell_length_c   15.59369786
_cell_angle_alpha   90.00269191
_cell_angle_beta   90.00504469
_cell_angle_gamma   89.98428287
_symmetry_Int_Tables_number   1
_chemical_formula_structural   Sr7Ca15Pr50Mn72O216
_chemical_formula_sum   'Sr7 Ca15 Pr50 Mn72 O216'
_cell_volume   4287.54288143
_cell_formula_units_Z   1
loop_
 _symmetry_equiv_pos_site_id
 _symmetry_equiv_pos_as_xyz
  1  'x, y, z'
loop_
 _atom_type_symbol
 _atom_type_oxidation_number
  Sr2+  2.0
  Ca2+  2.0
  Pr3+  3.0
  Mn3.30+  3.3
  O2-  -2.0
loop_
 _atom_site_type_symbol
 _atom_site_label
 _atom_site_symmetry_multiplicity
 _atom_site_fract_x
 _atom_site_fract_y
 _atom_site_fract_z
 _atom_site_occupancy
  Sr2+  Sr0  1  0.16623948  0.15779964  0.87316052  1
  Sr2+  Sr1  1  0.16423318  0.15669944  0.37677523  1
  Sr2+  Sr2  1  0.33177658  0.34304159  0.62704592  1
  Sr2+  Sr3  1  0.83451510  0.51073413  0.62561594  1
  Sr2+  Sr4  1  0.16555350  0.49160878  0.37698128  1
  Sr2+  Sr5  1  0.16354435  0.82665767  0.87245721  1
  Sr2+  Sr6  1  0.32998776  0.67703818  0.62423852  1
  Ca2+  Ca7  1  -0.00064838  0.68107943  0.12626569  1
  Ca2+  Ca8  1  0.67049487  0.98537633  0.37582525  1
  Ca2+  Ca9  1  0.83091887  0.15078517  0.87427071  1
  Ca2+  Ca10  1  0.66128044  0.35082030  0.62549167  1
  Ca2+  Ca11  1  0.49633478  0.48605370  0.37711737  1
  Ca2+  Ca12  1  0.33439953  0.32104785  0.87267565  1
  Ca2+  Ca13  1  0.16562652  0.48531514  0.87215633  1
  Ca2+  Ca14  1  0.82933303  0.14982343  0.37548529  1
  Ca2+  Ca15  1  0.49604057  0.48252950  0.87350184  1
  Ca2+  Ca16  1  0.00072081  0.67842570  0.62348441  1
  Ca2+  Ca17  1  0.16698986  0.84486737  0.62542981  1
  Ca2+  Ca18  1  1.00374523  0.98612546  0.87329668  1
  Ca2+  Ca19  1  0.49634011  0.81904550  0.37606036  1
  Ca2+  Ca20  1  1.00322310  0.98707578  0.37666591  1
  Ca2+  Ca21  1  1.00534011  0.65150885  0.37710728  1
  Pr3+  Pr22  1  -0.00104767  0.34547058  0.12484771  1
  Pr3+  Pr23  1  0.33329141  0.98695485  0.87452471  1
  Pr3+  Pr24  1  0.66582515  0.01383768  0.12793494  1
  Pr3+  Pr25  1  0.50298060  0.18117670  0.12529447  1
  Pr3+  Pr26  1  0.66423108  0.34677095  0.12433475  1
  Pr3+  Pr27  1  0.16549581  0.84610872  0.12452586  1
  Pr3+  Pr28  1  0.49422635  0.82081206  0.87412761  1
  Pr3+  Pr29  1  1.00712697  0.65389520  0.87412120  1
  Pr3+  Pr30  1  0.16669518  0.17888247  0.12497998  1
  Pr3+  Pr31  1  0.32972695  0.67925228  0.12596162  1
  Pr3+  Pr32  1  -0.00063855  0.00996122  0.62517766  1
  Pr3+  Pr33  1  0.83669077  0.84355744  0.62377865  1
  Pr3+  Pr34  1  0.17272001  0.51282141  0.62584549  1
  Pr3+  Pr35  1  0.33631520  0.65169383  0.37671312  1
  Pr3+  Pr36  1  0.33024379  0.34593455  0.12316826  1
  Pr3+  Pr37  1  0.33540134  0.98375065  0.37519473  1
  Pr3+  Pr38  1  0.33524476  0.32368888  0.37695962  1
  Pr3+  Pr39  1  0.67110900  0.32132547  0.37710693  1
  Pr3+  Pr40  1  0.83419072  0.82045911  0.37605701  1
  Pr3+  Pr41  1  1.00271771  0.32246116  0.37702823  1
  Pr3+  Pr42  1  0.66406085  0.67849910  0.62414967  1
  Pr3+  Pr43  1  0.50469452  0.18522953  0.62458872  1
  Pr3+  Pr44  1  0.83516803  0.17963912  0.62426575  1
  Pr3+  Pr45  1  0.50335005  0.51298306  0.12463058  1
  Pr3+  Pr46  1  0.32901699  0.01281050  0.12534463  1
  Pr3+  Pr47  1  0.83417869  0.49092695  0.37714559  1
  Pr3+  Pr48  1  0.32759240  0.00863881  0.62478087  1
  Pr3+  Pr49  1  0.50310582  0.51081867  0.62574509  1
  Pr3+  Pr50  1  0.49578954  0.15487892  0.37582636  1
  Pr3+  Pr51  1  0.49438775  0.15574790  0.87399160  1
  Pr3+  Pr52  1  0.16857202  0.17869303  0.62520603  1
  Pr3+  Pr53  1  -0.00013973  0.34619811  0.62528622  1
  Pr3+  Pr54  1  -0.00347054  0.01289274  0.12509276  1
  Pr3+  Pr55  1  0.50322883  0.84662716  0.12751896  1
  Pr3+  Pr56  1  0.67018761  0.65386261  0.87429682  1
  Pr3+  Pr57  1  0.67098168  0.31875036  0.87241956  1
  Pr3+  Pr58  1  0.66967178  0.98947128  0.87415144  1
  Pr3+  Pr59  1  0.83487311  0.82277006  0.87372449  1
  Pr3+  Pr60  1  0.83745073  0.84649961  0.12634978  1
  Pr3+  Pr61  1  0.66493528  0.68128438  0.12581135  1
  Pr3+  Pr62  1  0.83685212  0.18004903  0.12538128  1
  Pr3+  Pr63  1  0.66724870  0.65473172  0.37579554  1
  Pr3+  Pr64  1  0.17008094  0.51405095  0.12402537  1
  Pr3+  Pr65  1  0.83158842  0.48815291  0.87338849  1
  Pr3+  Pr66  1  1.00259558  0.32124153  0.87319799  1
  Pr3+  Pr67  1  0.66411146  0.01333171  0.62208443  1
  Pr3+  Pr68  1  0.50131543  0.84479960  0.62225543  1
  Pr3+  Pr69  1  0.15987564  0.81968456  0.37719609  1
  Pr3+  Pr70  1  0.33406897  0.65185825  0.87328926  1
  Pr3+  Pr71  1  0.83971547  0.51617636  0.12445692  1
  Mn3.30+  Mn72  1  0.16316062  0.00139140  -0.00150643  1
  Mn3.30+  Mn73  1  0.16468162  -0.00114991  0.49905133  1
  Mn3.30+  Mn74  1  0.16683492  0.33404981  -0.00267129  1
  Mn3.30+  Mn75  1  0.16698643  0.33408005  0.50017878  1
  Mn3.30+  Mn76  1  0.16585474  0.66733930  -0.00093027  1
  Mn3.30+  Mn77  1  0.16450538  0.66745921  0.50161972  1
  Mn3.30+  Mn78  1  0.50026916  0.00066173  0.00128590  1
  Mn3.30+  Mn79  1  0.50014584  -0.00101527  0.49732508  1
  Mn3.30+  Mn80  1  0.49876074  0.33438659  -0.00218153  1
  Mn3.30+  Mn81  1  0.50249912  0.33603089  0.50011873  1
  Mn3.30+  Mn82  1  0.49988339  0.66518625  -0.00104399  1
  Mn3.30+  Mn83  1  0.49888726  0.66666385  0.49942322  1
  Mn3.30+  Mn84  1  0.83427453  0.00074140  -0.00194865  1
  Mn3.30+  Mn85  1  0.83321488  0.00029287  0.49764142  1
  Mn3.30+  Mn86  1  0.83334336  0.33279224  -0.00132695  1
  Mn3.30+  Mn87  1  0.83270041  0.33356688  0.50163693  1
  Mn3.30+  Mn88  1  0.83654278  0.66819202  -0.00005584  1
  Mn3.30+  Mn89  1  0.83687120  0.66587058  0.50042272  1
  Mn3.30+  Mn90  1  -0.00200284  0.16536712  0.25350006  1
  Mn3.30+  Mn91  1  -0.00147082  0.16498560  0.75131594  1
  Mn3.30+  Mn92  1  0.00175771  0.50282677  0.24985898  1
  Mn3.30+  Mn93  1  0.00204420  0.50160059  0.74985758  1
  Mn3.30+  Mn94  1  -0.00032442  0.83283728  0.25174289  1
  Mn3.30+  Mn95  1  0.00200577  0.83253600  0.74769240  1
  Mn3.30+  Mn96  1  0.33297970  0.16675591  0.25078062  1
  Mn3.30+  Mn97  1  0.33301126  0.16690202  0.74995908  1
  Mn3.30+  Mn98  1  0.33530405  0.49931657  0.25023715  1
  Mn3.30+  Mn99  1  0.33406757  0.49768398  0.75267769  1
  Mn3.30+  Mn100  1  0.33307637  0.83195388  0.25108772  1
  Mn3.30+  Mn101  1  0.33023517  0.83168763  0.74843981  1
  Mn3.30+  Mn102  1  0.66852692  0.16569731  0.25298100  1
  Mn3.30+  Mn103  1  0.66768548  0.16781318  0.74915618  1
  Mn3.30+  Mn104  1  0.66709874  0.50057944  0.25112072  1
  Mn3.30+  Mn105  1  0.66573667  0.49978253  0.75069343  1
  Mn3.30+  Mn106  1  0.66633761  0.83471263  0.25385416  1
  Mn3.30+  Mn107  1  0.66613650  0.83388799  0.74955535  1
  Mn3.30+  Mn108  1  0.16383453  0.00056155  0.25210447  1
  Mn3.30+  Mn109  1  0.16379636  -0.00060781  0.75016729  1
  Mn3.30+  Mn110  1  0.16579003  0.33424096  0.25050621  1
  Mn3.30+  Mn111  1  0.16800008  0.33394589  0.75220627  1
  Mn3.30+  Mn112  1  0.16327820  0.66678860  0.24985147  1
  Mn3.30+  Mn113  1  0.16678743  0.66782139  0.74969848  1
  Mn3.30+  Mn114  1  0.50115086  -0.00076427  0.25319443  1
  Mn3.30+  Mn115  1  0.49931816  0.00042778  0.74801434  1
  Mn3.30+  Mn116  1  0.50101757  0.33493849  0.25072053  1
  Mn3.30+  Mn117  1  0.49998972  0.33559347  0.75118434  1
  Mn3.30+  Mn118  1  0.49954644  0.66652653  0.25135364  1
  Mn3.30+  Mn119  1  0.49929857  0.66495368  0.75046869  1
  Mn3.30+  Mn120  1  0.83333391  0.00058494  0.25439961  1
  Mn3.30+  Mn121  1  0.83432972  0.00044028  0.75016196  1
  Mn3.30+  Mn122  1  0.83370441  0.33348848  0.25153586  1
  Mn3.30+  Mn123  1  0.83253927  0.33281325  0.74825037  1
  Mn3.30+  Mn124  1  0.83687183  0.66722062  0.25157061  1
  Mn3.30+  Mn125  1  0.83674278  0.66662723  0.74840150  1
  Mn3.30+  Mn126  1  -0.00141590  0.16544500  -0.00325762  1
  Mn3.30+  Mn127  1  -0.00183366  0.16473732  0.49852288  1
  Mn3.30+  Mn128  1  0.00292551  0.50142242  -0.00074534  1
  Mn3.30+  Mn129  1  0.00107789  0.50301942  0.50171876  1
  Mn3.30+  Mn130  1  0.00024877  0.83339100  -0.00031327  1
  Mn3.30+  Mn131  1  0.00108226  0.83230622  0.50089118  1
  Mn3.30+  Mn132  1  0.33280841  0.16768688  -0.00100203  1
  Mn3.30+  Mn133  1  0.33295075  0.16580859  0.50021211  1
  Mn3.30+  Mn134  1  0.33436688  0.49818326  -0.00331506  1
  Mn3.30+  Mn135  1  0.33506521  0.49894677  0.50057776  1
  Mn3.30+  Mn136  1  0.33248484  0.83262311  0.00032683  1
  Mn3.30+  Mn137  1  0.33115827  0.83134441  0.49991826  1
  Mn3.30+  Mn138  1  0.66806830  0.16662800  -0.00086701  1
  Mn3.30+  Mn139  1  0.66798380  0.16707068  0.49825500  1
  Mn3.30+  Mn140  1  0.66662731  0.50038251  -0.00133549  1
  Mn3.30+  Mn141  1  0.66610905  0.50014718  0.49975708  1
  Mn3.30+  Mn142  1  0.66660516  0.83446743  -0.00014229  1
  Mn3.30+  Mn143  1  0.66606847  0.83409392  0.49693103  1
  O2-  O144  1  0.02213948  0.16134286  0.12508783  1
  O2-  O145  1  0.02441934  0.15937067  0.62499615  1
  O2-  O146  1  0.02673163  0.49143555  0.12273074  1
  O2-  O147  1  0.02827568  0.49279099  0.62742540  1
  O2-  O148  1  0.02152398  0.82641556  0.12650895  1
  O2-  O149  1  0.02469593  0.82423826  0.62344178  1
  O2-  O150  1  0.35865749  0.16086232  0.12603389  1
  O2-  O151  1  0.35919872  0.15791631  0.62417931  1
  O2-  O152  1  0.36065209  0.49481005  0.12310975  1
  O2-  O153  1  0.35880485  0.49838924  0.62730979  1
  O2-  O154  1  0.35957212  0.82802790  0.12574160  1
  O2-  O155  1  0.35790119  0.83571700  0.62333442  1
  O2-  O156  1  0.69298187  0.16190652  0.12769869  1
  O2-  O157  1  0.69174583  0.15941784  0.62394403  1
  O2-  O158  1  0.69401685  0.49507044  0.12374859  1
  O2-  O159  1  0.68382434  0.49766344  0.62494361  1
  O2-  O160  1  0.69263314  0.82942238  0.12740968  1
  O2-  O161  1  0.69129841  0.82807405  0.62324269  1
  O2-  O162  1  0.14263560  0.32824064  0.12361660  1
  O2-  O163  1  0.14441136  0.32884619  0.62702813  1
  O2-  O164  1  0.14152889  0.66049316  0.12395304  1
  O2-  O165  1  0.14244311  0.65773512  0.62638095  1
  O2-  O166  1  0.14199079  0.99700202  0.12580703  1
  O2-  O167  1  0.14449108  0.99522403  0.62381940  1
  O2-  O168  1  0.47601189  0.32890433  0.12334162  1
  O2-  O169  1  0.48169420  0.33281282  0.62542321  1
  O2-  O170  1  0.47463650  0.66021225  0.12410647  1
  O2-  O171  1  0.48059308  0.65900856  0.62515343  1
  O2-  O172  1  0.47382324  0.99476450  0.12895207  1
  O2-  O173  1  0.47287896  0.99331539  0.62186668  1
  O2-  O174  1  0.80770867  0.32830946  0.12400885  1
  O2-  O175  1  0.80356984  0.32722249  0.62436294  1
  O2-  O176  1  0.80825390  0.66444145  0.12574258  1
  O2-  O177  1  0.80766916  0.66901610  0.62463353  1
  O2-  O178  1  0.80834091  0.99428432  0.12762004  1
  O2-  O179  1  0.80672904  0.99294479  0.62411099  1
  O2-  O180  1  0.31569946  0.17455729  0.37432167  1
  O2-  O181  1  0.31739760  0.17158754  0.87563244  1
  O2-  O182  1  0.31493001  0.50268619  0.37336784  1
  O2-  O183  1  0.30569758  0.50704444  0.87645322  1
  O2-  O184  1  0.30556898  0.83607752  0.37452753  1
  O2-  O185  1  0.31524146  0.83839299  0.87590781  1
  O2-  O186  1  0.63786777  0.17595086  0.37511890  1
  O2-  O187  1  0.63846945  0.16951336  0.87277291  1
  O2-  O188  1  0.64007396  0.50677063  0.37413139  1
  O2-  O189  1  0.64104690  0.50725998  0.87698142  1
  O2-  O190  1  0.63890332  0.83872210  0.37517482  1
  O2-  O191  1  0.63812750  0.84144057  0.87417489  1
  O2-  O192  1  0.97035771  0.17708147  0.37630012  1
  O2-  O193  1  0.97046421  0.17594073  0.87379349  1
  O2-  O194  1  0.97736556  0.50587676  0.37473967  1
  O2-  O195  1  0.97425221  0.50644144  0.87535811  1
  O2-  O196  1  0.97668415  0.84400675  0.37604760  1
  O2-  O197  1  0.97774754  0.83996467  0.87408621  1
  O2-  O198  1  0.19086676  0.00016123  0.37441315  1
  O2-  O199  1  0.19001127  0.00176297  0.87627798  1
  O2-  O200  1  0.19042276  0.33538440  0.37347989  1
  O2-  O201  1  0.19166047  0.33783105  0.87602985  1
  O2-  O202  1  0.19210348  0.67211522  0.37401593  1
  O2-  O203  1  0.19121128  0.67409786  0.87573740  1
  O2-  O204  1  0.52877918  0.00971109  0.37470280  1
  O2-  O205  1  0.52556977  0.00650505  0.87402415  1
  O2-  O206  1  0.52627893  0.33835696  0.37529858  1
  O2-  O207  1  0.52729324  0.33433496  0.87586923  1
  O2-  O208  1  0.52393067  0.67520965  0.37455082  1
  O2-  O209  1  0.52694199  0.67600524  0.87585364  1
  O2-  O210  1  0.86205465  0.00628827  0.37597526  1
  O2-  O211  1  0.85936722  0.00434993  0.87190944  1
  O2-  O212  1  0.85918385  0.34339142  0.37693406  1
  O2-  O213  1  0.85845145  0.34120234  0.87484314  1
  O2-  O214  1  0.86179040  0.66974765  0.37556656  1
  O2-  O215  1  0.86082444  0.67293168  0.87434943  1
  O2-  O216  1  0.23825901  0.09256539  0.02153352  1
  O2-  O217  1  0.23802951  0.09111616  0.52105646  1
  O2-  O218  1  0.24045381  0.42731612  0.02317155  1
  O2-  O219  1  0.24117845  0.42786504  0.51839577  1
  O2-  O220  1  0.23950428  0.75915654  0.02439863  1
  O2-  O221  1  0.23267589  0.76401133  0.51756338  1
  O2-  O222  1  0.57210664  0.09535717  0.02202569  1
  O2-  O223  1  0.57041031  0.09717846  0.52095196  1
  O2-  O224  1  0.57147046  0.42632537  0.02159077  1
  O2-  O225  1  0.57172211  0.43032505  0.51752710  1
  O2-  O226  1  0.57240949  0.76324739  0.02157120  1
  O2-  O227  1  0.57253092  0.75869262  0.52120528  1
  O2-  O228  1  0.90379546  0.09447207  0.02210190  1
  O2-  O229  1  0.90391087  0.09298409  0.52365246  1
  O2-  O230  1  0.90576614  0.42993084  0.01990139  1
  O2-  O231  1  0.90957158  0.42691229  0.51880756  1
  O2-  O232  1  0.90178003  0.76516505  0.01568380  1
  O2-  O233  1  0.90315194  0.76413109  0.51596701  1
  O2-  O234  1  0.26004330  0.26097443  0.22873271  1
  O2-  O235  1  0.25694761  0.25507421  0.73203099  1
  O2-  O236  1  0.26338160  0.59401721  0.23015452  1
  O2-  O237  1  0.26054175  0.59379391  0.73441915  1
  O2-  O238  1  0.26305869  0.92685860  0.22951495  1
  O2-  O239  1  0.26264984  0.92937678  0.73539250  1
  O2-  O240  1  0.59615530  0.26198062  0.22897683  1
  O2-  O241  1  0.59849508  0.26397022  0.72987832  1
  O2-  O242  1  0.59695380  0.59546793  0.22851669  1
  O2-  O243  1  0.59669698  0.59641585  0.73206189  1
  O2-  O244  1  0.59351737  0.92823781  0.22742822  1
  O2-  O245  1  0.59317375  0.92916953  0.72747231  1
  O2-  O246  1  0.92667771  0.26237021  0.22893288  1
  O2-  O247  1  0.92645164  0.25999336  0.72651113  1
  O2-  O248  1  0.92921736  0.59438619  0.22498021  1
  O2-  O249  1  0.93241873  0.59825533  0.73202369  1
  O2-  O250  1  0.92729222  0.92703676  0.22836906  1
  O2-  O251  1  0.92527528  0.92433115  0.72625758  1
  O2-  O252  1  0.08991567  0.23877379  0.26629755  1
  O2-  O253  1  0.08949553  0.24152152  0.76639766  1
  O2-  O254  1  0.09625994  0.57109020  0.26373091  1
  O2-  O255  1  0.09681298  0.57105454  0.77285656  1
  O2-  O256  1  0.09644741  0.90162402  0.26468099  1
  O2-  O257  1  0.09110221  0.90799412  0.76268934  1
  O2-  O258  1  0.42998015  0.23939217  0.26812610  1
  O2-  O259  1  0.43321561  0.23784234  0.76377891  1
  O2-  O260  1  0.43124839  0.56981976  0.26945853  1
  O2-  O261  1  0.42852201  0.56979731  0.77346876  1
  O2-  O262  1  0.43047828  0.90467613  0.27294331  1
  O2-  O263  1  0.42729749  0.90479491  0.76862331  1
  O2-  O264  1  0.76090196  0.23677045  0.27290803  1
  O2-  O265  1  0.76198699  0.23590257  0.77300384  1
  O2-  O266  1  0.76365569  0.57313966  0.27024678  1
  O2-  O267  1  0.76226834  0.57506205  0.77201900  1
  O2-  O268  1  0.76441863  0.90535675  0.27147461  1
  O2-  O269  1  0.76005002  0.90664743  0.77109054  1
  O2-  O270  1  0.06767483  0.06922070  0.48263709  1
  O2-  O271  1  0.06641534  0.06985793  0.98209495  1
  O2-  O272  1  0.07065370  0.40473701  0.48431975  1
  O2-  O273  1  0.06984388  0.40362906  0.98057016  1
  O2-  O274  1  0.06984384  0.73885391  0.47572604  1
  O2-  O275  1  0.06918349  0.73795696  0.98348233  1
  O2-  O276  1  0.40561074  0.07034245  0.47737071  1
  O2-  O277  1  0.40538721  0.07051280  0.98118647  1
  O2-  O278  1  0.40732494  0.40493371  0.47987736  1
  O2-  O279  1  0.40192211  0.40009148  0.97983018  1
  O2-  O280  1  0.40319997  0.73848746  0.48085042  1
  O2-  O281  1  0.40547721  0.73635875  0.98025410  1
  O2-  O282  1  0.73433480  0.06940769  0.48084976  1
  O2-  O283  1  0.73657411  0.06961928  0.98208590  1
  O2-  O284  1  0.74039541  0.40852306  0.47787783  1
  O2-  O285  1  0.73849502  0.40499586  0.97836193  1
  O2-  O286  1  0.73994813  0.73872888  0.47760471  1
  O2-  O287  1  0.73726971  0.74019070  0.97859273  1
  O2-  O288  1  0.08883762  0.24080281  0.48497955  1
  O2-  O289  1  0.09064855  0.23982510  0.98271237  1
  O2-  O290  1  0.09442754  0.57334573  0.48541450  1
  O2-  O291  1  0.09861729  0.56997336  0.97777329  1
  O2-  O292  1  0.09488759  0.90433517  0.48298140  1
  O2-  O293  1  0.09347061  0.90558780  0.98905188  1
  O2-  O294  1  0.43073829  0.24043358  0.48304277  1
  O2-  O295  1  0.43292274  0.23666648  0.98518958  1
  O2-  O296  1  0.42959546  0.57195828  0.47933662  1
  O2-  O297  1  0.42977594  0.56791517  0.97733838  1
  O2-  O298  1  0.42844715  0.90415863  0.47606232  1
  O2-  O299  1  0.42912925  0.90574600  0.98172923  1
  O2-  O300  1  0.76182171  0.23622098  0.47621286  1
  O2-  O301  1  0.76067875  0.23646692  0.97755833  1
  O2-  O302  1  0.75948498  0.57458840  0.47815498  1
  O2-  O303  1  0.76466762  0.57388081  0.97976532  1
  O2-  O304  1  0.76352948  0.90522091  0.47961974  1
  O2-  O305  1  0.76081242  0.90617355  0.97829039  1
  O2-  O306  1  0.06521576  0.06949366  0.26812445  1
  O2-  O307  1  0.06752496  0.07049507  0.76751041  1
  O2-  O308  1  0.06869785  0.40355746  0.26630333  1
  O2-  O309  1  0.07158881  0.40481210  0.76937216  1
  O2-  O310  1  0.06958330  0.73915476  0.27344012  1
  O2-  O311  1  0.06968334  0.73657889  0.76797041  1
  O2-  O312  1  0.40628314  0.07020360  0.27105281  1
  O2-  O313  1  0.40521085  0.07070142  0.77042077  1
  O2-  O314  1  0.40369306  0.40245822  0.26673314  1
  O2-  O315  1  0.40472275  0.40331646  0.77352741  1
  O2-  O316  1  0.40082053  0.73557942  0.26732264  1
  O2-  O317  1  0.40636625  0.73867434  0.77045934  1
  O2-  O318  1  0.73474248  0.06871220  0.27070114  1
  O2-  O319  1  0.73556826  0.07047536  0.76703787  1
  O2-  O320  1  0.73945919  0.40559348  0.27061388  1
  O2-  O321  1  0.73929061  0.40773692  0.77198475  1
  O2-  O322  1  0.73854156  0.73867169  0.27244787  1
  O2-  O323  1  0.73894979  0.73969318  0.77143402  1
  O2-  O324  1  0.23890212  0.09334649  0.22893667  1
  O2-  O325  1  0.23838907  0.09092003  0.72869585  1
  O2-  O326  1  0.24205282  0.42769195  0.22607482  1
  O2-  O327  1  0.23859122  0.42909062  0.73262249  1
  O2-  O328  1  0.23500227  0.75985970  0.22811959  1
  O2-  O329  1  0.23736317  0.76342826  0.72919393  1
  O2-  O330  1  0.57139578  0.09600982  0.22895912  1
  O2-  O331  1  0.57116357  0.09652741  0.72714886  1
  O2-  O332  1  0.57362696  0.42697239  0.22649757  1
  O2-  O333  1  0.56872471  0.42952689  0.73482760  1
  O2-  O334  1  0.57215711  0.75923231  0.22753896  1
  O2-  O335  1  0.57220248  0.76242539  0.72906156  1
  O2-  O336  1  0.90292373  0.09475758  0.22811118  1
  O2-  O337  1  0.90411325  0.09262138  0.72536663  1
  O2-  O338  1  0.90664869  0.43104025  0.22976902  1
  O2-  O339  1  0.90894265  0.42614094  0.73281465  1
  O2-  O340  1  0.90202641  0.76489140  0.23433438  1
  O2-  O341  1  0.90231280  0.76430519  0.73425073  1
  O2-  O342  1  0.25864169  0.25888128  0.02224589  1
  O2-  O343  1  0.25800763  0.25674530  0.51734268  1
  O2-  O344  1  0.26380561  0.59453446  0.02075959  1
  O2-  O345  1  0.25984403  0.59270606  0.51453883  1
  O2-  O346  1  0.26067472  0.92812890  0.02049398  1
  O2-  O347  1  0.26391812  0.92923201  0.51473545  1
  O2-  O348  1  0.59627027  0.26190993  0.02029195  1
  O2-  O349  1  0.59772042  0.26414256  0.52057593  1
  O2-  O350  1  0.59633634  0.59644500  0.02184337  1
  O2-  O351  1  0.59620327  0.59570249  0.51789533  1
  O2-  O352  1  0.59498764  0.92942159  0.02243296  1
  O2-  O353  1  0.59216149  0.92751796  0.52248747  1
  O2-  O354  1  0.92724084  0.26142343  0.02112238  1
  O2-  O355  1  0.92567199  0.26082442  0.52390407  1
  O2-  O356  1  0.93199493  0.59600632  0.02197145  1
  O2-  O357  1  0.92869930  0.59577889  0.52074733  1
  O2-  O358  1  0.92577326  0.92669304  0.02174020  1
  O2-  O359  1  0.92770962  0.92504560  0.52355496  1
