# generated using pymatgen
data_Sr7Ca15Pr50Mn72O216
_symmetry_space_group_name_H-M   'P 1'
_cell_length_a   16.56004363
_cell_length_b   16.60787121
_cell_length_c   15.59322153
_cell_angle_alpha   90.00031890
_cell_angle_beta   90.00001774
_cell_angle_gamma   90.01561198
_symmetry_Int_Tables_number   1
_chemical_formula_structural   Sr7Ca15Pr50Mn72O216
_chemical_formula_sum   'Sr7 Ca15 Pr50 Mn72 O216'
_cell_volume   4288.55789814
_cell_formula_units_Z   1
loop_
 _symmetry_equiv_pos_site_id
 _symmetry_equiv_pos_as_xyz
  1  'x, y, z'
loop_
 _atom_type_symbol
 _atom_type_oxidation_number
  Sr2+  2.0
  Ca2+  2.0
  Pr3+  3.0
  Mn3.30+  3.3
  O2-  -2.0
loop_
 _atom_site_type_symbol
 _atom_site_label
 _atom_site_symmetry_multiplicity
 _atom_site_fract_x
 _atom_site_fract_y
 _atom_site_fract_z
 _atom_site_occupancy
  Sr2+  Sr0  1  0.33382051  0.98967517  0.37401677  1
  Sr2+  Sr1  1  0.33603670  0.65466604  0.37512263  1
  Sr2+  Sr2  1  0.00023006  0.34359223  0.62592970  1
  Sr2+  Sr3  1  0.83321366  0.15715330  0.87544191  1
  Sr2+  Sr4  1  0.83290046  0.84167523  0.12638565  1
  Sr2+  Sr5  1  1.00116945  0.65793881  0.37519409  1
  Sr2+  Sr6  1  0.50009867  0.17580521  0.12534362  1
  Ca2+  Ca7  1  0.16352623  0.48593407  0.87438931  1
  Ca2+  Ca8  1  1.00424526  0.65191027  0.87439554  1
  Ca2+  Ca9  1  0.16873148  0.84700468  0.12555247  1
  Ca2+  Ca10  1  0.33476147  0.98419487  0.87634282  1
  Ca2+  Ca11  1  0.83035243  0.81689063  0.37334074  1
  Ca2+  Ca12  1  0.66316078  0.68548035  0.12552802  1
  Ca2+  Ca13  1  0.16406512  0.48825680  0.37562441  1
  Ca2+  Ca14  1  0.16873711  0.18306821  0.62474042  1
  Ca2+  Ca15  1  -0.00185437  0.67873934  0.62532514  1
  Ca2+  Ca16  1  0.50421960  0.84689091  0.12582053  1
  Ca2+  Ca17  1  1.00115712  0.98441749  0.87687577  1
  Ca2+  Ca18  1  0.49819743  0.48577740  0.87522271  1
  Ca2+  Ca19  1  0.49715508  0.48882773  0.37501994  1
  Ca2+  Ca20  1  0.83531641  0.17889222  0.12368205  1
  Ca2+  Ca21  1  0.66595302  0.68133909  0.62432617  1
  Pr3+  Pr22  1  -0.00518564  0.01123220  0.12278396  1
  Pr3+  Pr23  1  0.17169877  0.51303861  0.12490090  1
  Pr3+  Pr24  1  0.66959073  0.98783771  0.87593262  1
  Pr3+  Pr25  1  0.33765665  0.65108903  0.87522108  1
  Pr3+  Pr26  1  0.49457223  0.81964147  0.37226008  1
  Pr3+  Pr27  1  1.00228923  0.98460397  0.37459438  1
  Pr3+  Pr28  1  1.00431003  0.32213822  0.37551048  1
  Pr3+  Pr29  1  0.16835955  0.51274474  0.62521968  1
  Pr3+  Pr30  1  0.50236204  0.84393502  0.62449446  1
  Pr3+  Pr31  1  1.00392049  0.32055929  0.87445879  1
  Pr3+  Pr32  1  0.33466325  0.32563539  0.37469319  1
  Pr3+  Pr33  1  -0.00087334  0.68081706  0.12407864  1
  Pr3+  Pr34  1  -0.00279306  0.01170026  0.62723568  1
  Pr3+  Pr35  1  0.33258114  0.34692355  0.12485801  1
  Pr3+  Pr36  1  0.16169357  0.81983792  0.87641389  1
  Pr3+  Pr37  1  0.33115229  0.00891419  0.12432453  1
  Pr3+  Pr38  1  0.66401809  0.01168099  0.12416682  1
  Pr3+  Pr39  1  0.83361968  0.48885257  0.87540138  1
  Pr3+  Pr40  1  0.83265566  0.48920636  0.37470150  1
  Pr3+  Pr41  1  -0.00350022  0.34605504  0.12418039  1
  Pr3+  Pr42  1  0.16290571  0.15289995  0.37607533  1
  Pr3+  Pr43  1  0.50411884  0.51541684  0.62565004  1
  Pr3+  Pr44  1  0.66410715  0.01232979  0.62621396  1
  Pr3+  Pr45  1  0.33025026  0.68359027  0.12555997  1
  Pr3+  Pr46  1  0.17033159  0.17864371  0.12482761  1
  Pr3+  Pr47  1  0.32598284  0.01436140  0.62556161  1
  Pr3+  Pr48  1  0.67039454  0.65586832  0.87637666  1
  Pr3+  Pr49  1  0.83599496  0.51417679  0.12461600  1
  Pr3+  Pr50  1  0.15915387  0.14945350  0.87371319  1
  Pr3+  Pr51  1  0.49519110  0.15373232  0.37432771  1
  Pr3+  Pr52  1  0.66417410  0.34321186  0.12366281  1
  Pr3+  Pr53  1  0.83428822  0.82274675  0.87754499  1
  Pr3+  Pr54  1  0.83700062  0.84222497  0.62411629  1
  Pr3+  Pr55  1  0.67101147  0.65611481  0.37349855  1
  Pr3+  Pr56  1  0.16598943  0.84179295  0.62384109  1
  Pr3+  Pr57  1  0.33373360  0.32239362  0.87516199  1
  Pr3+  Pr58  1  0.50533878  0.51353606  0.12476695  1
  Pr3+  Pr59  1  0.16519325  0.81986921  0.37329412  1
  Pr3+  Pr60  1  0.66824386  0.32167989  0.87557091  1
  Pr3+  Pr61  1  0.67023040  0.98382379  0.37446907  1
  Pr3+  Pr62  1  0.66471784  0.34726891  0.62662257  1
  Pr3+  Pr63  1  0.49416706  0.15195684  0.87607510  1
  Pr3+  Pr64  1  0.83659324  0.18075415  0.62610663  1
  Pr3+  Pr65  1  0.66806969  0.32240562  0.37486287  1
  Pr3+  Pr66  1  0.50012421  0.18069193  0.62509016  1
  Pr3+  Pr67  1  0.83072886  0.15453506  0.37460627  1
  Pr3+  Pr68  1  0.32757022  0.34662843  0.62520846  1
  Pr3+  Pr69  1  0.33047479  0.67952236  0.62478532  1
  Pr3+  Pr70  1  0.84058762  0.51647356  0.62543528  1
  Pr3+  Pr71  1  0.49541572  0.82145131  0.87726286  1
  Mn3.30+  Mn72  1  0.16538332  -0.00279757  -0.00099807  1
  Mn3.30+  Mn73  1  0.16529431  -0.00021002  0.50064027  1
  Mn3.30+  Mn74  1  0.16650660  0.33415496  -0.00049582  1
  Mn3.30+  Mn75  1  0.16649236  0.33474142  0.49994011  1
  Mn3.30+  Mn76  1  0.16670271  0.66616359  -0.00130039  1
  Mn3.30+  Mn77  1  0.16553296  0.66468127  0.49915675  1
  Mn3.30+  Mn78  1  0.49818530  -0.00141374  -0.00036697  1
  Mn3.30+  Mn79  1  0.49864836  -0.00030426  0.50082839  1
  Mn3.30+  Mn80  1  0.49970279  0.33365449  -0.00053423  1
  Mn3.30+  Mn81  1  0.49945492  0.33656528  0.49983179  1
  Mn3.30+  Mn82  1  0.50172214  0.66694939  0.00109370  1
  Mn3.30+  Mn83  1  0.50210252  0.66587517  0.49990788  1
  Mn3.30+  Mn84  1  0.83368844  0.00075589  -0.00024489  1
  Mn3.30+  Mn85  1  0.83287877  -0.00239184  0.49947050  1
  Mn3.30+  Mn86  1  0.83334399  0.33245085  0.00052206  1
  Mn3.30+  Mn87  1  0.83438268  0.33509165  0.49995399  1
  Mn3.30+  Mn88  1  0.83492622  0.66779661  0.00011949  1
  Mn3.30+  Mn89  1  0.83407275  0.66770202  0.49987889  1
  Mn3.30+  Mn90  1  -0.00196377  0.16599617  0.24876408  1
  Mn3.30+  Mn91  1  0.00070489  0.16487565  0.74985788  1
  Mn3.30+  Mn92  1  0.00282725  0.50128759  0.25049441  1
  Mn3.30+  Mn93  1  0.00271165  0.50197012  0.75051408  1
  Mn3.30+  Mn94  1  -0.00055308  0.83254829  0.24911069  1
  Mn3.30+  Mn95  1  0.00036838  0.83092263  0.75122627  1
  Mn3.30+  Mn96  1  0.33318059  0.16693216  0.24923517  1
  Mn3.30+  Mn97  1  0.32927253  0.16564332  0.75145046  1
  Mn3.30+  Mn98  1  0.33605609  0.50175967  0.25152319  1
  Mn3.30+  Mn99  1  0.33417453  0.49990991  0.75180540  1
  Mn3.30+  Mn100  1  0.33381437  0.83408263  0.24778904  1
  Mn3.30+  Mn101  1  0.33174086  0.83377455  0.75140178  1
  Mn3.30+  Mn102  1  0.66674257  0.16639634  0.24932367  1
  Mn3.30+  Mn103  1  0.66572502  0.16696178  0.75058602  1
  Mn3.30+  Mn104  1  0.66588342  0.50159066  0.25003819  1
  Mn3.30+  Mn105  1  0.66714481  0.50300746  0.75048170  1
  Mn3.30+  Mn106  1  0.66557218  0.83249456  0.24875772  1
  Mn3.30+  Mn107  1  0.66697709  0.83201948  0.75006391  1
  Mn3.30+  Mn108  1  0.16510784  -0.00207559  0.24855300  1
  Mn3.30+  Mn109  1  0.16539951  -0.00158865  0.75103688  1
  Mn3.30+  Mn110  1  0.16666373  0.33501975  0.25011278  1
  Mn3.30+  Mn111  1  0.16645445  0.33382797  0.74985566  1
  Mn3.30+  Mn112  1  0.16731433  0.66614837  0.25056658  1
  Mn3.30+  Mn113  1  0.16447590  0.66495944  0.75127588  1
  Mn3.30+  Mn114  1  0.50024316  -0.00101698  0.24943132  1
  Mn3.30+  Mn115  1  0.49654592  -0.00074357  0.75043849  1
  Mn3.30+  Mn116  1  0.50091835  0.33521610  0.25053619  1
  Mn3.30+  Mn117  1  0.49853183  0.33506274  0.75111131  1
  Mn3.30+  Mn118  1  0.50144818  0.66674390  0.24824701  1
  Mn3.30+  Mn119  1  0.50228989  0.66605350  0.75111446  1
  Mn3.30+  Mn120  1  0.83299179  -0.00155215  0.24939656  1
  Mn3.30+  Mn121  1  0.83400491  -0.00072727  0.75197712  1
  Mn3.30+  Mn122  1  0.83358615  0.33267566  0.24903537  1
  Mn3.30+  Mn123  1  0.83413833  0.33491697  0.75033731  1
  Mn3.30+  Mn124  1  0.83294931  0.66794456  0.24888628  1
  Mn3.30+  Mn125  1  0.83607739  0.66769968  0.75085060  1
  Mn3.30+  Mn126  1  -0.00113608  0.16447664  -0.00025511  1
  Mn3.30+  Mn127  1  -0.00001284  0.16649866  0.50168253  1
  Mn3.30+  Mn128  1  0.00345181  0.50169272  -0.00116974  1
  Mn3.30+  Mn129  1  0.00217216  0.50166510  0.49984090  1
  Mn3.30+  Mn130  1  0.00092380  0.83354573  0.00020151  1
  Mn3.30+  Mn131  1  -0.00123482  0.83030342  0.49912086  1
  Mn3.30+  Mn132  1  0.33123346  0.16484697  -0.00133534  1
  Mn3.30+  Mn133  1  0.33140446  0.16772670  0.50028038  1
  Mn3.30+  Mn134  1  0.33542435  0.50040751  -0.00139369  1
  Mn3.30+  Mn135  1  0.33470654  0.50109162  0.49824845  1
  Mn3.30+  Mn136  1  0.33177615  0.83441188  0.00046822  1
  Mn3.30+  Mn137  1  0.33388629  0.83329410  0.49916209  1
  Mn3.30+  Mn138  1  0.66687260  0.16644179  0.00044541  1
  Mn3.30+  Mn139  1  0.66556889  0.16672704  0.50013244  1
  Mn3.30+  Mn140  1  0.66634592  0.50207954  -0.00047972  1
  Mn3.30+  Mn141  1  0.66667408  0.50256590  0.50042414  1
  Mn3.30+  Mn142  1  0.66458270  0.83322195  0.00162642  1
  Mn3.30+  Mn143  1  0.66779496  0.83119381  0.50018573  1
  O2-  O144  1  0.02717037  0.15995833  0.12446040  1
  O2-  O145  1  0.02661192  0.15917719  0.62672076  1
  O2-  O146  1  0.02674276  0.49345807  0.12424361  1
  O2-  O147  1  0.02458794  0.49691537  0.62543207  1
  O2-  O148  1  0.02596496  0.82930690  0.12368052  1
  O2-  O149  1  0.02205137  0.82582338  0.62648769  1
  O2-  O150  1  0.35019592  0.15879516  0.12255061  1
  O2-  O151  1  0.35698629  0.16272123  0.62647969  1
  O2-  O152  1  0.36070377  0.49516743  0.12336895  1
  O2-  O153  1  0.35969101  0.49490304  0.62611076  1
  O2-  O154  1  0.36103479  0.83084955  0.12342348  1
  O2-  O155  1  0.35745882  0.82763177  0.62656519  1
  O2-  O156  1  0.69221043  0.16152776  0.12471012  1
  O2-  O157  1  0.69122999  0.16156857  0.62423623  1
  O2-  O158  1  0.69309953  0.48952046  0.12448991  1
  O2-  O159  1  0.69609612  0.49310576  0.62630063  1
  O2-  O160  1  0.68486373  0.83247183  0.12403981  1
  O2-  O161  1  0.69305961  0.82790122  0.62581811  1
  O2-  O162  1  0.14095566  0.32739756  0.12504091  1
  O2-  O163  1  0.14926384  0.32856679  0.62451676  1
  O2-  O164  1  0.14320909  0.65842594  0.12343738  1
  O2-  O165  1  0.14164847  0.66092749  0.62646577  1
  O2-  O166  1  0.13944647  0.99433084  0.12458654  1
  O2-  O167  1  0.14018703  0.99010039  0.62548442  1
  O2-  O168  1  0.47689939  0.33217665  0.12516451  1
  O2-  O169  1  0.47243832  0.32845612  0.62716517  1
  O2-  O170  1  0.47315043  0.65820732  0.12347799  1
  O2-  O171  1  0.47435370  0.66240146  0.62768365  1
  O2-  O172  1  0.47608484  0.99460146  0.12214768  1
  O2-  O173  1  0.47217267  0.99390325  0.62594624  1
  O2-  O174  1  0.80872148  0.32784240  0.12568628  1
  O2-  O175  1  0.80913604  0.33038258  0.62551525  1
  O2-  O176  1  0.80803894  0.66110414  0.12329168  1
  O2-  O177  1  0.80767531  0.66343187  0.62646921  1
  O2-  O178  1  0.80757188  0.99518121  0.12675889  1
  O2-  O179  1  0.80696930  0.99063467  0.62555149  1
  O2-  O180  1  0.30764111  0.17391477  0.37506818  1
  O2-  O181  1  0.30295605  0.17472970  0.87532489  1
  O2-  O182  1  0.30819024  0.49821589  0.37484525  1
  O2-  O183  1  0.30640333  0.50437566  0.87579738  1
  O2-  O184  1  0.31042990  0.83505988  0.37360877  1
  O2-  O185  1  0.30640750  0.83788865  0.87484299  1
  O2-  O186  1  0.63955640  0.17269412  0.37731741  1
  O2-  O187  1  0.63938569  0.17168676  0.87435164  1
  O2-  O188  1  0.63952977  0.50907609  0.37520186  1
  O2-  O189  1  0.63955574  0.50931883  0.87451935  1
  O2-  O190  1  0.63876973  0.83654542  0.37544060  1
  O2-  O191  1  0.63962559  0.83935137  0.87488175  1
  O2-  O192  1  0.97464884  0.17234750  0.37415543  1
  O2-  O193  1  0.98193709  0.17332373  0.87486537  1
  O2-  O194  1  0.97594577  0.50125071  0.37406919  1
  O2-  O195  1  0.97666096  0.50646567  0.87597614  1
  O2-  O196  1  0.97405106  0.83806050  0.37428959  1
  O2-  O197  1  0.97777697  0.84038042  0.87489802  1
  O2-  O198  1  0.18421286  0.00495775  0.37536607  1
  O2-  O199  1  0.19355962  0.00364866  0.87373477  1
  O2-  O200  1  0.19008213  0.33952917  0.37363879  1
  O2-  O201  1  0.18995818  0.33947185  0.87611381  1
  O2-  O202  1  0.18746503  0.67393726  0.37404089  1
  O2-  O203  1  0.19502118  0.67424762  0.87567219  1
  O2-  O204  1  0.52476965  0.00565638  0.37794948  1
  O2-  O205  1  0.52466829  0.00440711  0.87370425  1
  O2-  O206  1  0.52541508  0.34269353  0.37478619  1
  O2-  O207  1  0.52438709  0.33835793  0.87381808  1
  O2-  O208  1  0.52709132  0.67407815  0.37298898  1
  O2-  O209  1  0.52678723  0.67543249  0.87608152  1
  O2-  O210  1  0.85955753  0.00898801  0.37431809  1
  O2-  O211  1  0.85839030  0.00190810  0.87342200  1
  O2-  O212  1  0.85901017  0.33908511  0.37373341  1
  O2-  O213  1  0.85874629  0.33986930  0.87515930  1
  O2-  O214  1  0.85059488  0.66911727  0.37381903  1
  O2-  O215  1  0.86083036  0.67256891  0.87627228  1
  O2-  O216  1  0.23501567  0.09303666  0.01918150  1
  O2-  O217  1  0.23670548  0.09646045  0.52111018  1
  O2-  O218  1  0.24201433  0.42691696  0.02259703  1
  O2-  O219  1  0.24080234  0.42730746  0.52164688  1
  O2-  O220  1  0.23731813  0.76276723  0.02225877  1
  O2-  O221  1  0.24008739  0.75880298  0.51981914  1
  O2-  O222  1  0.57317304  0.09268128  0.01624366  1
  O2-  O223  1  0.57114930  0.09468046  0.52253419  1
  O2-  O224  1  0.57508335  0.42836714  0.01947094  1
  O2-  O225  1  0.57480905  0.42900108  0.52466723  1
  O2-  O226  1  0.56747392  0.76399007  0.01846716  1
  O2-  O227  1  0.57181457  0.76224424  0.51961849  1
  O2-  O228  1  0.90502843  0.09503450  0.02339995  1
  O2-  O229  1  0.90318251  0.09328356  0.52188774  1
  O2-  O230  1  0.90545703  0.42848576  0.02011298  1
  O2-  O231  1  0.90484739  0.43257250  0.51622338  1
  O2-  O232  1  0.90820537  0.75990598  0.01838950  1
  O2-  O233  1  0.90423769  0.76102043  0.51801246  1
  O2-  O234  1  0.26033286  0.26142615  0.22922523  1
  O2-  O235  1  0.26334607  0.26344803  0.73362359  1
  O2-  O236  1  0.26452255  0.59361648  0.22721853  1
  O2-  O237  1  0.26403780  0.59534510  0.73007963  1
  O2-  O238  1  0.26111588  0.92754806  0.22951741  1
  O2-  O239  1  0.25885851  0.92747908  0.72694930  1
  O2-  O240  1  0.59651142  0.26493279  0.23423601  1
  O2-  O241  1  0.59123774  0.26211524  0.72878150  1
  O2-  O242  1  0.59765484  0.59698029  0.22570536  1
  O2-  O243  1  0.59889290  0.59684916  0.72735983  1
  O2-  O244  1  0.59749600  0.92982822  0.23439615  1
  O2-  O245  1  0.59557397  0.92654369  0.72828040  1
  O2-  O246  1  0.93117458  0.26164753  0.23101216  1
  O2-  O247  1  0.92368691  0.25790079  0.73291920  1
  O2-  O248  1  0.92897254  0.59144689  0.22671271  1
  O2-  O249  1  0.93008107  0.59581727  0.72859722  1
  O2-  O250  1  0.93096345  0.93131582  0.23304651  1
  O2-  O251  1  0.92656986  0.92541473  0.72806581  1
  O2-  O252  1  0.09449837  0.23648400  0.27028899  1
  O2-  O253  1  0.09501553  0.24022943  0.77035742  1
  O2-  O254  1  0.09894602  0.56685570  0.26584395  1
  O2-  O255  1  0.10053881  0.56815137  0.76976325  1
  O2-  O256  1  0.09364826  0.90556485  0.27182027  1
  O2-  O257  1  0.09704262  0.90074621  0.76615878  1
  O2-  O258  1  0.42889360  0.24405535  0.27311205  1
  O2-  O259  1  0.42564457  0.23601878  0.77142216  1
  O2-  O260  1  0.43409862  0.56840578  0.26752092  1
  O2-  O261  1  0.43201593  0.57110794  0.77215246  1
  O2-  O262  1  0.42855523  0.90562510  0.26776482  1
  O2-  O263  1  0.42918121  0.90349086  0.76873322  1
  O2-  O264  1  0.75955283  0.23980893  0.27326038  1
  O2-  O265  1  0.75559973  0.24312764  0.76688967  1
  O2-  O266  1  0.76114448  0.57065781  0.26887272  1
  O2-  O267  1  0.76438260  0.57404125  0.77260620  1
  O2-  O268  1  0.76033651  0.90519622  0.27436421  1
  O2-  O269  1  0.76062518  0.90533202  0.77206636  1
  O2-  O270  1  0.06938150  0.07176179  0.48017825  1
  O2-  O271  1  0.07040403  0.06926671  0.97884603  1
  O2-  O272  1  0.07250671  0.40531947  0.48085174  1
  O2-  O273  1  0.06905694  0.40286306  0.98249998  1
  O2-  O274  1  0.07583481  0.74292434  0.48225020  1
  O2-  O275  1  0.07231115  0.73424304  0.97897710  1
  O2-  O276  1  0.40487194  0.07685826  0.48361758  1
  O2-  O277  1  0.40339077  0.07160725  0.97747815  1
  O2-  O278  1  0.40398929  0.40441829  0.48259456  1
  O2-  O279  1  0.40400637  0.40422997  0.98140626  1
  O2-  O280  1  0.40952821  0.73969811  0.48380368  1
  O2-  O281  1  0.40233781  0.73805911  0.97918195  1
  O2-  O282  1  0.73858314  0.07019137  0.48033126  1
  O2-  O283  1  0.73670922  0.07063822  0.98203752  1
  O2-  O284  1  0.73718782  0.40764228  0.47846902  1
  O2-  O285  1  0.73865702  0.40820184  0.97773046  1
  O2-  O286  1  0.73764134  0.73829620  0.48077480  1
  O2-  O287  1  0.73930804  0.74251989  0.97830205  1
  O2-  O288  1  0.09421739  0.24037250  0.47793941  1
  O2-  O289  1  0.09546756  0.23613892  0.98117250  1
  O2-  O290  1  0.09935692  0.56770463  0.48269248  1
  O2-  O291  1  0.10132251  0.56753397  0.98199499  1
  O2-  O292  1  0.09261925  0.90381144  0.48022369  1
  O2-  O293  1  0.09613180  0.90429832  0.97984306  1
  O2-  O294  1  0.42795049  0.23930820  0.47976259  1
  O2-  O295  1  0.42401101  0.23865205  0.97743216  1
  O2-  O296  1  0.43357673  0.56875720  0.48379945  1
  O2-  O297  1  0.43168887  0.57062778  0.97683906  1
  O2-  O298  1  0.43041057  0.90406569  0.48331969  1
  O2-  O299  1  0.42599912  0.90580521  0.97847138  1
  O2-  O300  1  0.75920063  0.23895806  0.48027691  1
  O2-  O301  1  0.75608897  0.24311142  0.98023023  1
  O2-  O302  1  0.76274024  0.57170336  0.48016273  1
  O2-  O303  1  0.76262383  0.57257371  0.97869128  1
  O2-  O304  1  0.76209901  0.90333799  0.47696516  1
  O2-  O305  1  0.75861014  0.90810549  0.97768607  1
  O2-  O306  1  0.06847024  0.07194240  0.26990214  1
  O2-  O307  1  0.07043224  0.06638840  0.77212116  1
  O2-  O308  1  0.06956181  0.40248592  0.26642456  1
  O2-  O309  1  0.07189049  0.40509658  0.76987784  1
  O2-  O310  1  0.07450575  0.74100029  0.26580115  1
  O2-  O311  1  0.07248148  0.73675997  0.77378965  1
  O2-  O312  1  0.40928515  0.07610223  0.26683758  1
  O2-  O313  1  0.39923109  0.07149799  0.77190122  1
  O2-  O314  1  0.40458119  0.40488494  0.26660178  1
  O2-  O315  1  0.40385363  0.40378460  0.76977892  1
  O2-  O316  1  0.40697033  0.73876085  0.26575531  1
  O2-  O317  1  0.40517323  0.73780693  0.77120960  1
  O2-  O318  1  0.73958338  0.07134012  0.27291900  1
  O2-  O319  1  0.73586106  0.06977330  0.76573475  1
  O2-  O320  1  0.73802166  0.40706016  0.27208530  1
  O2-  O321  1  0.73779978  0.40849318  0.77265617  1
  O2-  O322  1  0.73543974  0.74016429  0.26610798  1
  O2-  O323  1  0.74019414  0.74132620  0.77470792  1
  O2-  O324  1  0.23456676  0.09137437  0.23144504  1
  O2-  O325  1  0.23379115  0.09628107  0.72704068  1
  O2-  O326  1  0.24270106  0.42669332  0.22634943  1
  O2-  O327  1  0.23962075  0.42676371  0.72912953  1
  O2-  O328  1  0.24014879  0.76265930  0.22794743  1
  O2-  O329  1  0.23728921  0.75954634  0.72891663  1
  O2-  O330  1  0.57568548  0.09234628  0.23270918  1
  O2-  O331  1  0.56862560  0.09470103  0.72938993  1
  O2-  O332  1  0.57426220  0.42806663  0.22799565  1
  O2-  O333  1  0.57482415  0.42880120  0.72778774  1
  O2-  O334  1  0.56864113  0.76381040  0.23072160  1
  O2-  O335  1  0.57106019  0.76256597  0.73157672  1
  O2-  O336  1  0.90355172  0.09705346  0.22834842  1
  O2-  O337  1  0.90459593  0.09178807  0.72543449  1
  O2-  O338  1  0.90544418  0.42846059  0.22862522  1
  O2-  O339  1  0.90438982  0.43264129  0.73490216  1
  O2-  O340  1  0.91054377  0.75749855  0.23027779  1
  O2-  O341  1  0.90246601  0.76352881  0.73363539  1
  O2-  O342  1  0.26087491  0.26078728  0.02098988  1
  O2-  O343  1  0.26365181  0.26342173  0.51563597  1
  O2-  O344  1  0.26582739  0.59651068  0.01979945  1
  O2-  O345  1  0.26305383  0.59266302  0.52284432  1
  O2-  O346  1  0.26150052  0.92854402  0.02039651  1
  O2-  O347  1  0.25882004  0.92637185  0.52136585  1
  O2-  O348  1  0.59506428  0.26249990  0.01638529  1
  O2-  O349  1  0.59257927  0.26371568  0.52143092  1
  O2-  O350  1  0.59907624  0.59715919  0.02314162  1
  O2-  O351  1  0.59822353  0.59655022  0.52374351  1
  O2-  O352  1  0.59497317  0.93009531  0.01612608  1
  O2-  O353  1  0.59691621  0.92675342  0.52173937  1
  O2-  O354  1  0.93045844  0.26131572  0.01743480  1
  O2-  O355  1  0.92571786  0.25724927  0.51820111  1
  O2-  O356  1  0.93010191  0.59207033  0.02248794  1
  O2-  O357  1  0.92827965  0.59521584  0.52164010  1
  O2-  O358  1  0.92682638  0.92948745  0.01687503  1
  O2-  O359  1  0.92878870  0.92758408  0.52080660  1
