# generated using pymatgen
data_Sr7Ca15Pr50Mn72O216
_symmetry_space_group_name_H-M   'P 1'
_cell_length_a   16.55951293
_cell_length_b   16.60435184
_cell_length_c   15.59375101
_cell_angle_alpha   90.00249075
_cell_angle_beta   90.00377124
_cell_angle_gamma   89.99706835
_symmetry_Int_Tables_number   1
_chemical_formula_structural   Sr7Ca15Pr50Mn72O216
_chemical_formula_sum   'Sr7 Ca15 Pr50 Mn72 O216'
_cell_volume   4287.65743139
_cell_formula_units_Z   1
loop_
 _symmetry_equiv_pos_site_id
 _symmetry_equiv_pos_as_xyz
  1  'x, y, z'
loop_
 _atom_type_symbol
 _atom_type_oxidation_number
  Sr2+  2.0
  Ca2+  2.0
  Pr3+  3.0
  Mn3.30+  3.3
  O2-  -2.0
loop_
 _atom_site_type_symbol
 _atom_site_label
 _atom_site_symmetry_multiplicity
 _atom_site_fract_x
 _atom_site_fract_y
 _atom_site_fract_z
 _atom_site_occupancy
  Sr2+  Sr0  1  0.83190608  0.15839849  0.37439111  1
  Sr2+  Sr1  1  0.33380131  0.99167280  0.37586068  1
  Sr2+  Sr2  1  0.49983369  0.15697051  0.87357375  1
  Sr2+  Sr3  1  0.49558616  0.48838070  0.37518356  1
  Sr2+  Sr4  1  0.33286774  0.01195640  0.62622636  1
  Sr2+  Sr5  1  0.16589943  0.49012135  0.87629231  1
  Sr2+  Sr6  1  0.66299207  0.33916959  0.62658052  1
  Ca2+  Ca7  1  0.16479804  0.81812665  0.37747189  1
  Ca2+  Ca8  1  -0.00234700  0.68017540  0.62513108  1
  Ca2+  Ca9  1  0.67132729  0.31397192  0.87480123  1
  Ca2+  Ca10  1  -0.00540713  0.34963152  0.12396668  1
  Ca2+  Ca11  1  0.33859996  0.32077544  0.37349218  1
  Ca2+  Ca12  1  0.33469697  0.65175987  0.37573697  1
  Ca2+  Ca13  1  0.33605959  0.98972116  0.87362977  1
  Ca2+  Ca14  1  0.82805708  0.15403047  0.87567462  1
  Ca2+  Ca15  1  0.50366936  0.17902598  0.62620334  1
  Ca2+  Ca16  1  0.83772567  0.51374749  0.12488149  1
  Ca2+  Ca17  1  0.16550542  0.15207817  0.87445074  1
  Ca2+  Ca18  1  0.33627129  0.65107271  0.87407602  1
  Ca2+  Ca19  1  0.84022833  0.18369514  0.12190444  1
  Ca2+  Ca20  1  0.33038809  0.34801157  0.12488735  1
  Ca2+  Ca21  1  0.65979693  0.02013539  0.62568877  1
  Pr3+  Pr22  1  0.66987639  0.99098357  0.37692807  1
  Pr3+  Pr23  1  1.00365721  0.65275611  0.87390056  1
  Pr3+  Pr24  1  0.16927434  0.51033086  0.12381017  1
  Pr3+  Pr25  1  0.49332787  0.82002674  0.37542696  1
  Pr3+  Pr26  1  0.66182289  0.67921674  0.62475181  1
  Pr3+  Pr27  1  0.17109963  0.17774011  0.62692876  1
  Pr3+  Pr28  1  0.16929304  0.82257513  0.87288491  1
  Pr3+  Pr29  1  0.49714334  0.48643361  0.87470381  1
  Pr3+  Pr30  1  0.16742240  0.48597732  0.37409231  1
  Pr3+  Pr31  1  -0.00386101  0.01521445  0.12417767  1
  Pr3+  Pr32  1  0.66755267  0.32070664  0.37460255  1
  Pr3+  Pr33  1  0.33077794  0.67715291  0.62398110  1
  Pr3+  Pr34  1  0.17033135  0.84528080  0.12526200  1
  Pr3+  Pr35  1  0.17027447  0.18277057  0.12284050  1
  Pr3+  Pr36  1  0.16867276  0.51034542  0.62631828  1
  Pr3+  Pr37  1  0.33336473  0.32075007  0.87790458  1
  Pr3+  Pr38  1  0.32921617  0.67681788  0.12584467  1
  Pr3+  Pr39  1  0.83552688  0.84748155  0.62512785  1
  Pr3+  Pr40  1  0.83697464  0.84593214  0.12490739  1
  Pr3+  Pr41  1  1.00431571  0.65344933  0.37572646  1
  Pr3+  Pr42  1  0.16619069  0.15472039  0.37461017  1
  Pr3+  Pr43  1  0.49672510  0.15956943  0.37714873  1
  Pr3+  Pr44  1  0.50072727  0.18023043  0.12369168  1
  Pr3+  Pr45  1  0.83242188  0.17949129  0.62672396  1
  Pr3+  Pr46  1  -0.00449167  0.34431779  0.62526428  1
  Pr3+  Pr47  1  0.66359453  0.67882834  0.12510837  1
  Pr3+  Pr48  1  0.66689369  0.34465069  0.12286934  1
  Pr3+  Pr49  1  0.49408629  0.82418981  0.87422801  1
  Pr3+  Pr50  1  -0.00066152  0.67709070  0.12436713  1
  Pr3+  Pr51  1  0.50327144  0.51089567  0.62481084  1
  Pr3+  Pr52  1  1.00252457  0.31933685  0.37200668  1
  Pr3+  Pr53  1  1.00598420  0.98565764  0.37566738  1
  Pr3+  Pr54  1  0.50358638  0.85124044  0.62375527  1
  Pr3+  Pr55  1  0.66882765  0.65269131  0.37516346  1
  Pr3+  Pr56  1  0.33040089  0.01298812  0.12379876  1
  Pr3+  Pr57  1  0.83116846  0.82131795  0.37538009  1
  Pr3+  Pr58  1  0.82987246  0.82099277  0.87470899  1
  Pr3+  Pr59  1  0.66576095  0.01538025  0.12478356  1
  Pr3+  Pr60  1  1.00173403  0.99017432  0.87432009  1
  Pr3+  Pr61  1  0.83624962  0.51315645  0.62521674  1
  Pr3+  Pr62  1  0.66923801  0.65385908  0.87455391  1
  Pr3+  Pr63  1  1.00636770  0.31799907  0.87761353  1
  Pr3+  Pr64  1  0.33593032  0.33976767  0.62616612  1
  Pr3+  Pr65  1  0.16965634  0.84551806  0.62435428  1
  Pr3+  Pr66  1  0.82895187  0.48662346  0.37197361  1
  Pr3+  Pr67  1  0.49934264  0.51167668  0.12481439  1
  Pr3+  Pr68  1  0.50090939  0.84745650  0.12651609  1
  Pr3+  Pr69  1  0.82878284  0.48408807  0.87785176  1
  Pr3+  Pr70  1  -0.00133061  0.01404641  0.62574087  1
  Pr3+  Pr71  1  0.66898990  0.99246105  0.87292457  1
  Mn3.30+  Mn72  1  0.16724638  0.00090122  -0.00224985  1
  Mn3.30+  Mn73  1  0.16840595  -0.00147853  0.49978752  1
  Mn3.30+  Mn74  1  0.16574505  0.33349123  0.00140418  1
  Mn3.30+  Mn75  1  0.16827803  0.33237935  0.49876458  1
  Mn3.30+  Mn76  1  0.16744129  0.66593555  -0.00249733  1
  Mn3.30+  Mn77  1  0.16615865  0.66609740  0.50078718  1
  Mn3.30+  Mn78  1  0.49867375  0.00135959  -0.00112479  1
  Mn3.30+  Mn79  1  0.50117695  0.00381193  0.50083383  1
  Mn3.30+  Mn80  1  0.50032336  0.33287366  -0.00014492  1
  Mn3.30+  Mn81  1  0.49900913  0.33295814  0.49982125  1
  Mn3.30+  Mn82  1  0.49815270  0.66757493  -0.00060011  1
  Mn3.30+  Mn83  1  0.49739399  0.66632887  0.49921518  1
  Mn3.30+  Mn84  1  0.83377196  0.00302627  -0.00030217  1
  Mn3.30+  Mn85  1  0.83240068  0.00187388  0.50110129  1
  Mn3.30+  Mn86  1  0.83503409  0.33146145  -0.00000749  1
  Mn3.30+  Mn87  1  0.83211872  0.33338408  0.50000848  1
  Mn3.30+  Mn88  1  0.83355257  0.66542021  0.00076222  1
  Mn3.30+  Mn89  1  0.83460419  0.66702457  0.50087042  1
  Mn3.30+  Mn90  1  -0.00070357  0.16772141  0.24760607  1
  Mn3.30+  Mn91  1  -0.00020577  0.16673532  0.75281601  1
  Mn3.30+  Mn92  1  -0.00127463  0.49846513  0.24883347  1
  Mn3.30+  Mn93  1  -0.00053635  0.49986554  0.75005927  1
  Mn3.30+  Mn94  1  0.00232250  0.83263255  0.25077670  1
  Mn3.30+  Mn95  1  -0.00001109  0.83283969  0.74940807  1
  Mn3.30+  Mn96  1  0.33309294  0.16978586  0.24901452  1
  Mn3.30+  Mn97  1  0.33462632  0.16506754  0.75225851  1
  Mn3.30+  Mn98  1  0.33357534  0.49833819  0.25056437  1
  Mn3.30+  Mn99  1  0.33376038  0.49890332  0.75123976  1
  Mn3.30+  Mn100  1  0.33147475  0.83210254  0.25371757  1
  Mn3.30+  Mn101  1  0.33448029  0.83366098  0.74908531  1
  Mn3.30+  Mn102  1  0.66917681  0.16843776  0.24708102  1
  Mn3.30+  Mn103  1  0.66613115  0.16660212  0.75183128  1
  Mn3.30+  Mn104  1  0.66706681  0.49942261  0.24751888  1
  Mn3.30+  Mn105  1  0.66672931  0.49698010  0.75096394  1
  Mn3.30+  Mn106  1  0.66615301  0.83463146  0.25073690  1
  Mn3.30+  Mn107  1  0.66545336  0.83595851  0.74933057  1
  Mn3.30+  Mn108  1  0.16655093  -0.00138807  0.24979481  1
  Mn3.30+  Mn109  1  0.16906329  0.00107081  0.75225653  1
  Mn3.30+  Mn110  1  0.16839861  0.33317913  0.24863297  1
  Mn3.30+  Mn111  1  0.16576991  0.33205197  0.75139672  1
  Mn3.30+  Mn112  1  0.16788177  0.66626835  0.25317467  1
  Mn3.30+  Mn113  1  0.16633536  0.66562867  0.74917995  1
  Mn3.30+  Mn114  1  0.49945495  0.00231103  0.25069770  1
  Mn3.30+  Mn115  1  0.50002918  0.00320784  0.74941410  1
  Mn3.30+  Mn116  1  0.49724888  0.33472671  0.24757953  1
  Mn3.30+  Mn117  1  0.50203273  0.33056553  0.75330879  1
  Mn3.30+  Mn118  1  0.49709416  0.66588671  0.25057383  1
  Mn3.30+  Mn119  1  0.49857533  0.66774424  0.75079123  1
  Mn3.30+  Mn120  1  0.83460658  0.00286835  0.25063114  1
  Mn3.30+  Mn121  1  0.83189651  0.00228484  0.74858082  1
  Mn3.30+  Mn122  1  0.83499629  0.33322298  0.24626127  1
  Mn3.30+  Mn123  1  0.83182945  0.33170758  0.75308199  1
  Mn3.30+  Mn124  1  0.83428198  0.66625517  0.24907949  1
  Mn3.30+  Mn125  1  0.83409992  0.66660767  0.74922141  1
  Mn3.30+  Mn126  1  -0.00093310  0.16783190  -0.00059730  1
  Mn3.30+  Mn127  1  0.00031494  0.16636929  0.49983800  1
  Mn3.30+  Mn128  1  -0.00208796  0.49817843  0.00136359  1
  Mn3.30+  Mn129  1  0.00012601  0.50010200  0.49962569  1
  Mn3.30+  Mn130  1  0.00100835  0.83367190  -0.00154717  1
  Mn3.30+  Mn131  1  0.00089465  0.83155060  0.50130896  1
  Mn3.30+  Mn132  1  0.33253695  0.16639847  -0.00194672  1
  Mn3.30+  Mn133  1  0.33484496  0.16788510  0.50152134  1
  Mn3.30+  Mn134  1  0.33296827  0.49947482  -0.00119232  1
  Mn3.30+  Mn135  1  0.33400817  0.49787848  0.49999504  1
  Mn3.30+  Mn136  1  0.33396184  0.83287098  -0.00057612  1
  Mn3.30+  Mn137  1  0.33183587  0.83293557  0.49765802  1
  Mn3.30+  Mn138  1  0.67082167  0.16783713  0.00005263  1
  Mn3.30+  Mn139  1  0.66475653  0.16715321  0.50087537  1
  Mn3.30+  Mn140  1  0.66771951  0.49857405  0.00093721  1
  Mn3.30+  Mn141  1  0.66600776  0.49815430  0.49995644  1
  Mn3.30+  Mn142  1  0.66558171  0.83490700  -0.00017228  1
  Mn3.30+  Mn143  1  0.66589839  0.83572102  0.50005880  1
  O2-  O144  1  0.02723488  0.16021194  0.12379843  1
  O2-  O145  1  0.02611743  0.16406821  0.62738513  1
  O2-  O146  1  0.02524652  0.49703202  0.12600749  1
  O2-  O147  1  0.02464874  0.49043467  0.62317132  1
  O2-  O148  1  0.02577056  0.82674512  0.12293609  1
  O2-  O149  1  0.02513732  0.82729758  0.62584348  1
  O2-  O150  1  0.35728844  0.15867390  0.12249212  1
  O2-  O151  1  0.35860323  0.16939072  0.62835128  1
  O2-  O152  1  0.35539087  0.49635438  0.12270467  1
  O2-  O153  1  0.35911908  0.49082090  0.62648777  1
  O2-  O154  1  0.35754659  0.82402967  0.12706944  1
  O2-  O155  1  0.35920793  0.82428155  0.62350113  1
  O2-  O156  1  0.69727978  0.16273608  0.12388315  1
  O2-  O157  1  0.68916706  0.16522354  0.62647317  1
  O2-  O158  1  0.69539388  0.49448180  0.12387705  1
  O2-  O159  1  0.69145751  0.49735305  0.62615815  1
  O2-  O160  1  0.69257478  0.82731252  0.12570357  1
  O2-  O161  1  0.69201926  0.82464658  0.62438532  1
  O2-  O162  1  0.13758848  0.32997618  0.12506368  1
  O2-  O163  1  0.13898390  0.32578207  0.62565586  1
  O2-  O164  1  0.14325935  0.66145510  0.12537820  1
  O2-  O165  1  0.13830531  0.65885220  0.62528012  1
  O2-  O166  1  0.14058068  0.99252310  0.12383638  1
  O2-  O167  1  0.14272529  0.99599417  0.62650070  1
  O2-  O168  1  0.47326911  0.32914084  0.12304687  1
  O2-  O169  1  0.47992100  0.32845209  0.62881431  1
  O2-  O170  1  0.47373686  0.66288787  0.12424070  1
  O2-  O171  1  0.47631921  0.66159759  0.62565082  1
  O2-  O172  1  0.47485415  0.99586578  0.12463777  1
  O2-  O173  1  0.48050825  0.99642294  0.62473462  1
  O2-  O174  1  0.80914821  0.32555341  0.12324578  1
  O2-  O175  1  0.81511675  0.32931217  0.62841574  1
  O2-  O176  1  0.80787224  0.66379363  0.12478546  1
  O2-  O177  1  0.80523133  0.66160229  0.62530875  1
  O2-  O178  1  0.80921041  0.99002238  0.12620769  1
  O2-  O179  1  0.80470139  0.99348093  0.62539051  1
  O2-  O180  1  0.30924451  0.17585741  0.37295330  1
  O2-  O181  1  0.30551887  0.17422967  0.87691759  1
  O2-  O182  1  0.30961496  0.50744758  0.37703634  1
  O2-  O183  1  0.31479151  0.50594410  0.87462654  1
  O2-  O184  1  0.30577953  0.83896774  0.37473329  1
  O2-  O185  1  0.31276015  0.84360209  0.87448966  1
  O2-  O186  1  0.64259219  0.17092762  0.37177294  1
  O2-  O187  1  0.64943820  0.16365642  0.87756001  1
  O2-  O188  1  0.64689026  0.50499375  0.37241315  1
  O2-  O189  1  0.64134485  0.50853915  0.87689220  1
  O2-  O190  1  0.63905521  0.84170208  0.37489390  1
  O2-  O191  1  0.63981555  0.84107888  0.87506380  1
  O2-  O192  1  0.98211596  0.17093160  0.37177202  1
  O2-  O193  1  0.97063953  0.17065563  0.87628819  1
  O2-  O194  1  0.97315309  0.50597462  0.37462905  1
  O2-  O195  1  0.97320490  0.50591703  0.87651565  1
  O2-  O196  1  0.97415900  0.83761421  0.37736981  1
  O2-  O197  1  0.97316503  0.84044208  0.87405746  1
  O2-  O198  1  0.18415972  0.00766420  0.37405639  1
  O2-  O199  1  0.19279403  0.00471304  0.87566965  1
  O2-  O200  1  0.19534851  0.33773453  0.37407055  1
  O2-  O201  1  0.18921443  0.33760553  0.87606376  1
  O2-  O202  1  0.19229354  0.67151330  0.37657841  1
  O2-  O203  1  0.19397788  0.67320618  0.87266783  1
  O2-  O204  1  0.52635285  0.00875185  0.37491637  1
  O2-  O205  1  0.52477492  -0.00451673  0.87582779  1
  O2-  O206  1  0.52347005  0.33213229  0.36982264  1
  O2-  O207  1  0.52770908  0.34017542  0.87824048  1
  O2-  O208  1  0.52537927  0.67134283  0.37470469  1
  O2-  O209  1  0.52649205  0.67478771  0.87530054  1
  O2-  O210  1  0.86111785  0.00277291  0.37485291  1
  O2-  O211  1  0.85782931  0.00706622  0.87361109  1
  O2-  O212  1  0.85796897  0.33923512  0.37173340  1
  O2-  O213  1  0.86318106  0.33974565  0.87645015  1
  O2-  O214  1  0.85969921  0.67255370  0.37498886  1
  O2-  O215  1  0.85861358  0.67265964  0.87495820  1
  O2-  O216  1  0.23789606  0.09330373  0.02304996  1
  O2-  O217  1  0.23915086  0.09748998  0.51569190  1
  O2-  O218  1  0.23816880  0.42689216  0.01939704  1
  O2-  O219  1  0.23646870  0.42654238  0.52132786  1
  O2-  O220  1  0.23855285  0.76192338  0.01897981  1
  O2-  O221  1  0.23728792  0.75646675  0.52464721  1
  O2-  O222  1  0.57373434  0.09329640  0.02226350  1
  O2-  O223  1  0.56997964  0.09924326  0.51797502  1
  O2-  O224  1  0.57306059  0.42883795  0.02272573  1
  O2-  O225  1  0.56966482  0.42785400  0.51694059  1
  O2-  O226  1  0.56999408  0.76117024  0.02170784  1
  O2-  O227  1  0.57099139  0.76243871  0.51927976  1
  O2-  O228  1  0.90519529  0.09505630  0.02355213  1
  O2-  O229  1  0.90546477  0.09197235  0.52487521  1
  O2-  O230  1  0.90027885  0.43181554  0.01946840  1
  O2-  O231  1  0.90486164  0.42844130  0.51865872  1
  O2-  O232  1  0.90555100  0.76113399  0.01988132  1
  O2-  O233  1  0.90255863  0.76386211  0.51929619  1
  O2-  O234  1  0.26090005  0.26173859  0.22329879  1
  O2-  O235  1  0.25895534  0.26006921  0.73060493  1
  O2-  O236  1  0.25917301  0.59249004  0.22929372  1
  O2-  O237  1  0.25917316  0.59164602  0.72644059  1
  O2-  O238  1  0.26034758  0.92612290  0.22601782  1
  O2-  O239  1  0.25841950  0.92119208  0.73055921  1
  O2-  O240  1  0.59381955  0.26164231  0.22631069  1
  O2-  O241  1  0.59415244  0.25890782  0.73975965  1
  O2-  O242  1  0.59556349  0.59328950  0.22770966  1
  O2-  O243  1  0.59421281  0.59771978  0.73122805  1
  O2-  O244  1  0.59501654  0.92823511  0.22889048  1
  O2-  O245  1  0.59703269  0.93019780  0.72799202  1
  O2-  O246  1  0.93195066  0.26547562  0.23095611  1
  O2-  O247  1  0.92947495  0.26155099  0.73086384  1
  O2-  O248  1  0.93071131  0.59698938  0.23123684  1
  O2-  O249  1  0.92816533  0.59593389  0.72771464  1
  O2-  O250  1  0.92909525  0.92851025  0.23034999  1
  O2-  O251  1  0.92675505  0.92917832  0.72836613  1
  O2-  O252  1  0.09839022  0.23860034  0.26953562  1
  O2-  O253  1  0.09478683  0.23649200  0.77352502  1
  O2-  O254  1  0.09574505  0.57162740  0.27126523  1
  O2-  O255  1  0.09166508  0.57337307  0.76900832  1
  O2-  O256  1  0.09507956  0.90125851  0.27147096  1
  O2-  O257  1  0.09418783  0.90682214  0.77078809  1
  O2-  O258  1  0.43010307  0.23748405  0.26478840  1
  O2-  O259  1  0.42136688  0.24399833  0.77287100  1
  O2-  O260  1  0.42724865  0.57162775  0.26225582  1
  O2-  O261  1  0.43188433  0.57179444  0.76688350  1
  O2-  O262  1  0.42802869  0.90119168  0.26690054  1
  O2-  O263  1  0.43224871  0.90339102  0.76278452  1
  O2-  O264  1  0.75733209  0.24424567  0.26928044  1
  O2-  O265  1  0.76537152  0.23510349  0.76798024  1
  O2-  O266  1  0.76055150  0.57490334  0.27071291  1
  O2-  O267  1  0.76167448  0.57122301  0.77049387  1
  O2-  O268  1  0.76306291  0.90645898  0.27124950  1
  O2-  O269  1  0.76301116  0.90614125  0.77207179  1
  O2-  O270  1  0.07213187  0.07090574  0.48305290  1
  O2-  O271  1  0.06720920  0.07057586  0.98174982  1
  O2-  O272  1  0.07298605  0.40375128  0.47759410  1
  O2-  O273  1  0.06909181  0.40489378  0.98266854  1
  O2-  O274  1  0.07056270  0.73747417  0.48067599  1
  O2-  O275  1  0.07269131  0.74014569  0.97732945  1
  O2-  O276  1  0.40895497  0.07733775  0.47966727  1
  O2-  O277  1  0.40269145  0.06690547  0.98210292  1
  O2-  O278  1  0.40118020  0.40147104  0.48430633  1
  O2-  O279  1  0.40662493  0.40789123  0.97827350  1
  O2-  O280  1  0.40329917  0.73823314  0.47723153  1
  O2-  O281  1  0.40295751  0.73648942  0.97779576  1
  O2-  O282  1  0.73653964  0.07345383  0.48221063  1
  O2-  O283  1  0.73711124  0.06780816  0.98455171  1
  O2-  O284  1  0.74037261  0.40733325  0.47683475  1
  O2-  O285  1  0.73867875  0.40040237  0.97810006  1
  O2-  O286  1  0.73730755  0.73942966  0.47785170  1
  O2-  O287  1  0.73760440  0.74010057  0.97923300  1
  O2-  O288  1  0.09673227  0.24000519  0.47849560  1
  O2-  O289  1  0.09652179  0.23502777  0.97879986  1
  O2-  O290  1  0.09564547  0.57081537  0.47783263  1
  O2-  O291  1  0.09038870  0.57528937  0.98256447  1
  O2-  O292  1  0.09330848  0.90282013  0.48084082  1
  O2-  O293  1  0.09616353  0.90567723  0.97705649  1
  O2-  O294  1  0.42641087  0.24066506  0.48177580  1
  O2-  O295  1  0.42554315  0.23987644  0.98158148  1
  O2-  O296  1  0.42600066  0.57168133  0.48809610  1
  O2-  O297  1  0.43179002  0.57136705  0.98301313  1
  O2-  O298  1  0.43353404  0.90558216  0.48333440  1
  O2-  O299  1  0.43082634  0.90048685  0.98733343  1
  O2-  O300  1  0.75766172  0.24165876  0.48393323  1
  O2-  O301  1  0.76620432  0.23714308  0.97916277  1
  O2-  O302  1  0.76266336  0.57296785  0.47989627  1
  O2-  O303  1  0.75945240  0.57355446  0.97805608  1
  O2-  O304  1  0.76281250  0.90561196  0.47824410  1
  O2-  O305  1  0.76277061  0.90680180  0.97903381  1
  O2-  O306  1  0.07075373  0.06999995  0.26686578  1
  O2-  O307  1  0.06844585  0.07121825  0.76866675  1
  O2-  O308  1  0.07329906  0.40582170  0.27367463  1
  O2-  O309  1  0.06890523  0.40197062  0.76626196  1
  O2-  O310  1  0.07074772  0.73449610  0.26788560  1
  O2-  O311  1  0.07477324  0.74053422  0.77347182  1
  O2-  O312  1  0.40743199  0.07667113  0.26662104  1
  O2-  O313  1  0.40358144  0.07037332  0.77200276  1
  O2-  O314  1  0.40194787  0.40409985  0.26707718  1
  O2-  O315  1  0.40663682  0.40467796  0.77213062  1
  O2-  O316  1  0.40187450  0.73796384  0.27315259  1
  O2-  O317  1  0.40368908  0.73716583  0.77163388  1
  O2-  O318  1  0.73740902  0.06905131  0.26755759  1
  O2-  O319  1  0.73771200  0.07146389  0.76651698  1
  O2-  O320  1  0.73790491  0.40590963  0.26837870  1
  O2-  O321  1  0.74112807  0.40279243  0.77640709  1
  O2-  O322  1  0.73810227  0.74023630  0.27186515  1
  O2-  O323  1  0.73732110  0.73932908  0.77101097  1
  O2-  O324  1  0.23877556  0.09567504  0.22980960  1
  O2-  O325  1  0.23729204  0.09554240  0.73236149  1
  O2-  O326  1  0.23485640  0.43033529  0.23180997  1
  O2-  O327  1  0.23927458  0.42319281  0.72784769  1
  O2-  O328  1  0.23851642  0.75928043  0.22758414  1
  O2-  O329  1  0.23847850  0.75885602  0.72753013  1
  O2-  O330  1  0.57622986  0.09697234  0.22590692  1
  O2-  O331  1  0.57129454  0.09549836  0.73197229  1
  O2-  O332  1  0.57320757  0.42593980  0.22520879  1
  O2-  O333  1  0.56976160  0.43127438  0.73454750  1
  O2-  O334  1  0.57077386  0.76003349  0.23016109  1
  O2-  O335  1  0.56965871  0.76234685  0.72921718  1
  O2-  O336  1  0.90492659  0.09474974  0.22488743  1
  O2-  O337  1  0.90612851  0.09379925  0.72568949  1
  O2-  O338  1  0.90143376  0.43133429  0.23062669  1
  O2-  O339  1  0.90409694  0.42970986  0.73089411  1
  O2-  O340  1  0.90593256  0.76236407  0.22955750  1
  O2-  O341  1  0.90248612  0.76362661  0.73192589  1
  O2-  O342  1  0.26062418  0.26310081  0.02218171  1
  O2-  O343  1  0.25924119  0.25974247  0.52432146  1
  O2-  O344  1  0.25998370  0.59256077  0.02057126  1
  O2-  O345  1  0.25885800  0.59008832  0.52447867  1
  O2-  O346  1  0.26160137  0.92466717  0.02307136  1
  O2-  O347  1  0.25780316  0.92372645  0.52079676  1
  O2-  O348  1  0.59517834  0.25877808  0.02212244  1
  O2-  O349  1  0.59308440  0.26170983  0.51063177  1
  O2-  O350  1  0.59367371  0.59678928  0.02142102  1
  O2-  O351  1  0.59523305  0.59480151  0.51905438  1
  O2-  O352  1  0.59467467  0.92840965  0.02277538  1
  O2-  O353  1  0.59779800  0.93174401  0.52054751  1
  O2-  O354  1  0.93383560  0.26587840  0.01985110  1
  O2-  O355  1  0.92706118  0.26050210  0.51713575  1
  O2-  O356  1  0.92898841  0.59537888  0.01932550  1
  O2-  O357  1  0.92884406  0.59606321  0.52269560  1
  O2-  O358  1  0.92796581  0.92827867  0.01940867  1
  O2-  O359  1  0.92939025  0.92678307  0.52206591  1
