# generated using pymatgen
data_Sr7Ca15Pr50Mn72O216
_symmetry_space_group_name_H-M   'P 1'
_cell_length_a   16.55764400
_cell_length_b   16.60611660
_cell_length_c   15.59349066
_cell_angle_alpha   90.00781257
_cell_angle_beta   90.00338335
_cell_angle_gamma   89.99466427
_symmetry_Int_Tables_number   1
_chemical_formula_structural   Sr7Ca15Pr50Mn72O216
_chemical_formula_sum   'Sr7 Ca15 Pr50 Mn72 O216'
_cell_volume   4287.55754149
_cell_formula_units_Z   1
loop_
 _symmetry_equiv_pos_site_id
 _symmetry_equiv_pos_as_xyz
  1  'x, y, z'
loop_
 _atom_type_symbol
 _atom_type_oxidation_number
  Sr2+  2.0
  Ca2+  2.0
  Pr3+  3.0
  Mn3.30+  3.3
  O2-  -2.0
loop_
 _atom_site_type_symbol
 _atom_site_label
 _atom_site_symmetry_multiplicity
 _atom_site_fract_x
 _atom_site_fract_y
 _atom_site_fract_z
 _atom_site_occupancy
  Sr2+  Sr0  1  0.83192325  0.48782215  0.87514189  1
  Sr2+  Sr1  1  0.16413069  0.48986024  0.37504481  1
  Sr2+  Sr2  1  0.16699362  0.17281408  0.62474421  1
  Sr2+  Sr3  1  0.33180861  0.34364028  0.12267936  1
  Sr2+  Sr4  1  0.66956239  0.32364762  0.87501806  1
  Sr2+  Sr5  1  0.66852682  0.65374758  0.37502710  1
  Sr2+  Sr6  1  0.49819073  0.82518221  0.87580602  1
  Ca2+  Ca7  1  0.83511055  0.84933997  0.12546036  1
  Ca2+  Ca8  1  0.83030314  0.48730073  0.37472004  1
  Ca2+  Ca9  1  0.82999538  0.14840704  0.37591246  1
  Ca2+  Ca10  1  0.66938671  0.98751076  0.87389822  1
  Ca2+  Ca11  1  0.33572027  0.98881865  0.87170264  1
  Ca2+  Ca12  1  0.33688465  0.65508553  0.87730957  1
  Ca2+  Ca13  1  0.33731151  0.31655238  0.87432062  1
  Ca2+  Ca14  1  1.00530000  0.31567237  0.87438533  1
  Ca2+  Ca15  1  0.83748989  0.85326629  0.62481443  1
  Ca2+  Ca16  1  0.16684965  0.15399047  0.87307829  1
  Ca2+  Ca17  1  0.67347370  0.98571999  0.37574828  1
  Ca2+  Ca18  1  -0.00246398  0.01693068  0.62568652  1
  Ca2+  Ca19  1  0.16434544  0.15371670  0.37630538  1
  Ca2+  Ca20  1  0.33017644  0.68139524  0.12240650  1
  Ca2+  Ca21  1  0.32883940  0.01534127  0.62899883  1
  Pr3+  Pr22  1  0.50064982  0.51368445  0.12369031  1
  Pr3+  Pr23  1  1.00379133  0.31984087  0.37470797  1
  Pr3+  Pr24  1  0.50080430  0.84484131  0.12430248  1
  Pr3+  Pr25  1  -0.00530243  0.68213690  0.12427195  1
  Pr3+  Pr26  1  0.33201439  0.01055425  0.12221852  1
  Pr3+  Pr27  1  0.83717646  0.17942049  0.12618833  1
  Pr3+  Pr28  1  -0.00553653  0.68137048  0.62560899  1
  Pr3+  Pr29  1  0.17071212  0.17960533  0.12488435  1
  Pr3+  Pr30  1  0.50090473  0.84743671  0.62628553  1
  Pr3+  Pr31  1  0.50311553  0.17876613  0.12438316  1
  Pr3+  Pr32  1  0.49982248  0.15308250  0.37488012  1
  Pr3+  Pr33  1  0.17021219  0.84558738  0.12448334  1
  Pr3+  Pr34  1  0.67391135  0.31966861  0.37495349  1
  Pr3+  Pr35  1  0.66343972  0.67992647  0.12476008  1
  Pr3+  Pr36  1  0.33328776  0.31866859  0.37411517  1
  Pr3+  Pr37  1  0.16782697  0.51102691  0.62460102  1
  Pr3+  Pr38  1  0.82816269  0.82291326  0.37594982  1
  Pr3+  Pr39  1  0.17203489  0.51548146  0.12537773  1
  Pr3+  Pr40  1  0.66481849  0.01090126  0.12491385  1
  Pr3+  Pr41  1  -0.00036794  0.34674229  0.12267282  1
  Pr3+  Pr42  1  0.66661517  0.34466442  0.62656573  1
  Pr3+  Pr43  1  0.83443136  0.51220596  0.12405957  1
  Pr3+  Pr44  1  1.00157948  0.65500439  0.87501774  1
  Pr3+  Pr45  1  0.84096428  0.17726762  0.62433512  1
  Pr3+  Pr46  1  0.32875900  0.67966286  0.62638285  1
  Pr3+  Pr47  1  0.33283897  0.99059408  0.37803565  1
  Pr3+  Pr48  1  1.00275255  0.99035836  0.37783943  1
  Pr3+  Pr49  1  0.66707552  0.01126877  0.62529529  1
  Pr3+  Pr50  1  0.66379280  0.34636356  0.12336668  1
  Pr3+  Pr51  1  0.83509062  0.51137339  0.62588477  1
  Pr3+  Pr52  1  0.50094170  0.82159303  0.37559682  1
  Pr3+  Pr53  1  0.49340372  0.48567902  0.87473903  1
  Pr3+  Pr54  1  0.66702651  0.65443433  0.87485578  1
  Pr3+  Pr55  1  0.33500328  0.65354107  0.37312978  1
  Pr3+  Pr56  1  0.50107560  0.17665097  0.62552829  1
  Pr3+  Pr57  1  0.49642650  0.48618415  0.37498196  1
  Pr3+  Pr58  1  0.82739397  0.82532577  0.87417097  1
  Pr3+  Pr59  1  -0.00295100  0.01348208  0.12447496  1
  Pr3+  Pr60  1  0.32815854  0.34339621  0.62728981  1
  Pr3+  Pr61  1  1.00424431  0.99047895  0.87254109  1
  Pr3+  Pr62  1  0.50254693  0.51267733  0.62596608  1
  Pr3+  Pr63  1  0.16995934  0.85108766  0.62574771  1
  Pr3+  Pr64  1  0.66330998  0.68042603  0.62505620  1
  Pr3+  Pr65  1  0.16102734  0.82124655  0.37544294  1
  Pr3+  Pr66  1  0.16381394  0.48475969  0.87512851  1
  Pr3+  Pr67  1  1.00102412  0.65269459  0.37508940  1
  Pr3+  Pr68  1  0.83034398  0.15367581  0.87473247  1
  Pr3+  Pr69  1  -0.00060481  0.34426058  0.62699582  1
  Pr3+  Pr70  1  0.49693126  0.15215772  0.87482024  1
  Pr3+  Pr71  1  0.16707404  0.82267385  0.87439220  1
  Mn3.30+  Mn72  1  0.16785555  0.00098514  -0.00276272  1
  Mn3.30+  Mn73  1  0.16683810  0.00227903  0.50171770  1
  Mn3.30+  Mn74  1  0.16834045  0.33100157  -0.00353227  1
  Mn3.30+  Mn75  1  0.16604934  0.33135020  0.49974518  1
  Mn3.30+  Mn76  1  0.16899359  0.66750081  -0.00151804  1
  Mn3.30+  Mn77  1  0.16404052  0.66714540  0.50099528  1
  Mn3.30+  Mn78  1  0.49958497  -0.00094528  -0.00214215  1
  Mn3.30+  Mn79  1  0.50133149  -0.00007227  0.50022929  1
  Mn3.30+  Mn80  1  0.49803053  0.33239655  -0.00160566  1
  Mn3.30+  Mn81  1  0.50106820  0.33179868  0.50026834  1
  Mn3.30+  Mn82  1  0.49578691  0.66810004  -0.00029576  1
  Mn3.30+  Mn83  1  0.49907490  0.66677056  0.49980220  1
  Mn3.30+  Mn84  1  0.83279154  -0.00018268  0.00032355  1
  Mn3.30+  Mn85  1  0.83473836  0.00096155  0.49998766  1
  Mn3.30+  Mn86  1  0.83485133  0.33279629  -0.00163699  1
  Mn3.30+  Mn87  1  0.83482100  0.33267706  0.49839056  1
  Mn3.30+  Mn88  1  0.83209197  0.66922318  0.00000663  1
  Mn3.30+  Mn89  1  0.83170853  0.66744008  0.50037874  1
  Mn3.30+  Mn90  1  0.00069916  0.16702178  0.25181001  1
  Mn3.30+  Mn91  1  0.00284341  0.16695562  0.75121536  1
  Mn3.30+  Mn92  1  -0.00083864  0.50012493  0.24964602  1
  Mn3.30+  Mn93  1  0.00032861  0.49829747  0.75221337  1
  Mn3.30+  Mn94  1  -0.00310734  0.83494314  0.24957588  1
  Mn3.30+  Mn95  1  -0.00183216  0.83636998  0.74873570  1
  Mn3.30+  Mn96  1  0.33295979  0.16545675  0.25060520  1
  Mn3.30+  Mn97  1  0.33187823  0.16500525  0.75189476  1
  Mn3.30+  Mn98  1  0.33246316  0.49942778  0.24837261  1
  Mn3.30+  Mn99  1  0.33195475  0.50008211  0.75189772  1
  Mn3.30+  Mn100  1  0.33240547  0.83334909  0.25094197  1
  Mn3.30+  Mn101  1  0.33405014  0.83547204  0.75099071  1
  Mn3.30+  Mn102  1  0.67010907  0.16456423  0.25165424  1
  Mn3.30+  Mn103  1  0.66787135  0.16560257  0.75053637  1
  Mn3.30+  Mn104  1  0.66799099  0.50002883  0.25131849  1
  Mn3.30+  Mn105  1  0.66679728  0.49985922  0.75042791  1
  Mn3.30+  Mn106  1  0.66858672  0.83410769  0.24942368  1
  Mn3.30+  Mn107  1  0.66701509  0.83547007  0.74962339  1
  Mn3.30+  Mn108  1  0.16589412  0.00096724  0.25041509  1
  Mn3.30+  Mn109  1  0.16899625  0.00252658  0.75057684  1
  Mn3.30+  Mn110  1  0.16708780  0.33336584  0.25028260  1
  Mn3.30+  Mn111  1  0.16730701  0.32939572  0.75309035  1
  Mn3.30+  Mn112  1  0.16585421  0.66788431  0.24886102  1
  Mn3.30+  Mn113  1  0.16682540  0.66729224  0.75124072  1
  Mn3.30+  Mn114  1  0.50204231  -0.00084751  0.25246581  1
  Mn3.30+  Mn115  1  0.49865005  -0.00029001  0.74974632  1
  Mn3.30+  Mn116  1  0.50138220  0.33271270  0.24981599  1
  Mn3.30+  Mn117  1  0.49810373  0.33146549  0.75097125  1
  Mn3.30+  Mn118  1  0.49842402  0.66680985  0.24936948  1
  Mn3.30+  Mn119  1  0.49640471  0.66802326  0.75149036  1
  Mn3.30+  Mn120  1  0.83279688  0.00001026  0.25058886  1
  Mn3.30+  Mn121  1  0.83489061  0.00037352  0.74942270  1
  Mn3.30+  Mn122  1  0.83468479  0.33354706  0.25090870  1
  Mn3.30+  Mn123  1  0.83505100  0.33226724  0.75258479  1
  Mn3.30+  Mn124  1  0.83186507  0.66741110  0.25011379  1
  Mn3.30+  Mn125  1  0.83190276  0.66934065  0.74935117  1
  Mn3.30+  Mn126  1  0.00266736  0.16775932  -0.00189379  1
  Mn3.30+  Mn127  1  0.00075195  0.16632947  0.49848518  1
  Mn3.30+  Mn128  1  0.00121721  0.49885638  -0.00171124  1
  Mn3.30+  Mn129  1  -0.00207553  0.49930388  0.49946380  1
  Mn3.30+  Mn130  1  -0.00179419  0.83496491  -0.00068842  1
  Mn3.30+  Mn131  1  -0.00335768  0.83628493  0.50272281  1
  Mn3.30+  Mn132  1  0.33240018  0.16601761  -0.00270382  1
  Mn3.30+  Mn133  1  0.33224718  0.16491967  0.50019667  1
  Mn3.30+  Mn134  1  0.33178385  0.50083448  -0.00091900  1
  Mn3.30+  Mn135  1  0.33252108  0.49860855  0.49961953  1
  Mn3.30+  Mn136  1  0.33406875  0.83311878  -0.00109792  1
  Mn3.30+  Mn137  1  0.33215644  0.83490457  0.50042690  1
  Mn3.30+  Mn138  1  0.66776133  0.16570301  -0.00132327  1
  Mn3.30+  Mn139  1  0.67052886  0.16450137  0.49952056  1
  Mn3.30+  Mn140  1  0.66637114  0.50040678  -0.00079742  1
  Mn3.30+  Mn141  1  0.66835909  0.49960047  0.49891167  1
  Mn3.30+  Mn142  1  0.66697312  0.83523135  -0.00036278  1
  Mn3.30+  Mn143  1  0.66885922  0.83472947  0.50170563  1
  O2-  O144  1  0.02598609  0.16140108  0.12472808  1
  O2-  O145  1  0.01630247  0.16404079  0.62509819  1
  O2-  O146  1  0.02691897  0.49614002  0.12151723  1
  O2-  O147  1  0.02384211  0.49484947  0.62805735  1
  O2-  O148  1  0.02665528  0.82955635  0.12272689  1
  O2-  O149  1  0.02713225  0.82643050  0.62579866  1
  O2-  O150  1  0.35915512  0.15864215  0.12524758  1
  O2-  O151  1  0.35769350  0.16244058  0.62409732  1
  O2-  O152  1  0.35737576  0.49573573  0.12424175  1
  O2-  O153  1  0.35846344  0.49173478  0.62394165  1
  O2-  O154  1  0.35590438  0.82811187  0.12657421  1
  O2-  O155  1  0.35743255  0.82488464  0.62397681  1
  O2-  O156  1  0.69297720  0.15862350  0.12584466  1
  O2-  O157  1  0.69580267  0.15913716  0.62395351  1
  O2-  O158  1  0.68965255  0.49578264  0.12531594  1
  O2-  O159  1  0.69040300  0.49479947  0.62466863  1
  O2-  O160  1  0.69227610  0.82739708  0.12361599  1
  O2-  O161  1  0.69297960  0.82775424  0.62522309  1
  O2-  O162  1  0.14320522  0.32720086  0.12336095  1
  O2-  O163  1  0.14374094  0.33005914  0.62608460  1
  O2-  O164  1  0.13915138  0.66536481  0.12250045  1
  O2-  O165  1  0.13976344  0.66116849  0.62591113  1
  O2-  O166  1  0.14126689  0.99365903  0.12439631  1
  O2-  O167  1  0.14044308  0.99695280  0.62576227  1
  O2-  O168  1  0.48173416  0.32715236  0.12597019  1
  O2-  O169  1  0.47319357  0.32659966  0.62622239  1
  O2-  O170  1  0.47290239  0.66261953  0.12574641  1
  O2-  O171  1  0.47267136  0.66136942  0.62471778  1
  O2-  O172  1  0.47611787  0.99564467  0.12811054  1
  O2-  O173  1  0.47205433  0.99675140  0.62387180  1
  O2-  O174  1  0.80865140  0.32630334  0.12591316  1
  O2-  O175  1  0.81102607  0.32469647  0.62381075  1
  O2-  O176  1  0.80696035  0.65929133  0.12384968  1
  O2-  O177  1  0.80660220  0.65768098  0.62465495  1
  O2-  O178  1  0.80885896  0.99694167  0.12529017  1
  O2-  O179  1  0.81060707  1.00153249  0.62470301  1
  O2-  O180  1  0.30858936  0.16997763  0.37467049  1
  O2-  O181  1  0.30876349  0.17313686  0.87596630  1
  O2-  O182  1  0.31351006  0.50603147  0.37513406  1
  O2-  O183  1  0.30669716  0.51326072  0.87527127  1
  O2-  O184  1  0.30495457  0.84215452  0.37670636  1
  O2-  O185  1  0.30957091  0.84407091  0.87414716  1
  O2-  O186  1  0.64218384  0.17373765  0.37619668  1
  O2-  O187  1  0.64167754  0.17061093  0.87408071  1
  O2-  O188  1  0.64066762  0.49811381  0.37514391  1
  O2-  O189  1  0.64006001  0.50538120  0.87427178  1
  O2-  O190  1  0.64491140  0.84023222  0.37695683  1
  O2-  O191  1  0.64852689  0.84058483  0.87449713  1
  O2-  O192  1  0.97199324  0.17294002  0.37300856  1
  O2-  O193  1  0.97440439  0.16898774  0.87687229  1
  O2-  O194  1  0.97281162  0.50557609  0.37462123  1
  O2-  O195  1  0.98020742  0.50822750  0.87535702  1
  O2-  O196  1  0.97267439  0.84147484  0.37805968  1
  O2-  O197  1  0.97196620  0.84112850  0.87390109  1
  O2-  O198  1  0.18899625  0.00304139  0.37472826  1
  O2-  O199  1  0.19321116  0.00528377  0.87596520  1
  O2-  O200  1  0.19046188  0.33845714  0.37481163  1
  O2-  O201  1  0.19729810  0.34045592  0.87531597  1
  O2-  O202  1  0.18969281  0.67302366  0.37661874  1
  O2-  O203  1  0.19397218  0.67456824  0.87445723  1
  O2-  O204  1  0.53114674  0.00467022  0.37544128  1
  O2-  O205  1  0.52733614  0.00496597  0.87289215  1
  O2-  O206  1  0.52855308  0.33731676  0.37437213  1
  O2-  O207  1  0.52037933  0.33689471  0.87309228  1
  O2-  O208  1  0.51872826  0.67223400  0.37515402  1
  O2-  O209  1  0.52352829  0.66828928  0.87472332  1
  O2-  O210  1  0.85918502  0.00187675  0.37477687  1
  O2-  O211  1  0.85953115  0.00391456  0.87537094  1
  O2-  O212  1  0.85935374  0.34481136  0.37414600  1
  O2-  O213  1  0.86041193  0.33257024  0.87658456  1
  O2-  O214  1  0.85893872  0.67635316  0.37623025  1
  O2-  O215  1  0.85783043  0.67795207  0.87526227  1
  O2-  O216  1  0.24052552  0.09184614  0.02414127  1
  O2-  O217  1  0.24365944  0.09157280  0.51471284  1
  O2-  O218  1  0.23399690  0.43282507  0.01616741  1
  O2-  O219  1  0.23909684  0.42619464  0.52176591  1
  O2-  O220  1  0.23488506  0.76457848  0.01656630  1
  O2-  O221  1  0.23565335  0.76194073  0.52072659  1
  O2-  O222  1  0.57201950  0.09365662  0.02109253  1
  O2-  O223  1  0.57310184  0.09394318  0.52209045  1
  O2-  O224  1  0.57131528  0.42812160  0.01857079  1
  O2-  O225  1  0.57173460  0.42650852  0.52166758  1
  O2-  O226  1  0.57206693  0.75965388  0.02180300  1
  O2-  O227  1  0.56991851  0.76064766  0.52031479  1
  O2-  O228  1  0.90468779  0.09460863  0.02026907  1
  O2-  O229  1  0.90388106  0.09625719  0.51453767  1
  O2-  O230  1  0.90636915  0.42607342  0.02305484  1
  O2-  O231  1  0.90560201  0.42718905  0.52378752  1
  O2-  O232  1  0.90328829  0.76298947  0.02224925  1
  O2-  O233  1  0.90430095  0.76463356  0.52391549  1
  O2-  O234  1  0.25982191  0.26029017  0.23282538  1
  O2-  O235  1  0.26400172  0.26210314  0.73213496  1
  O2-  O236  1  0.26042221  0.59854205  0.22989483  1
  O2-  O237  1  0.25982591  0.59162401  0.72468269  1
  O2-  O238  1  0.26257299  0.92786324  0.23001027  1
  O2-  O239  1  0.26043079  0.92729701  0.72704459  1
  O2-  O240  1  0.59705435  0.26024119  0.23051524  1
  O2-  O241  1  0.59543013  0.25667171  0.72577342  1
  O2-  O242  1  0.59408936  0.59237105  0.22812677  1
  O2-  O243  1  0.59177415  0.59561743  0.72893485  1
  O2-  O244  1  0.59313837  0.92546126  0.22684976  1
  O2-  O245  1  0.59349414  0.92646898  0.72589046  1
  O2-  O246  1  0.93153134  0.26207576  0.22827095  1
  O2-  O247  1  0.92906095  0.26025988  0.73060149  1
  O2-  O248  1  0.92684137  0.59731401  0.22848339  1
  O2-  O249  1  0.92538621  0.59717526  0.73140910  1
  O2-  O250  1  0.92932463  0.93072310  0.23079765  1
  O2-  O251  1  0.93209463  0.93297175  0.72998348  1
  O2-  O252  1  0.09560962  0.23723560  0.27061943  1
  O2-  O253  1  0.09631135  0.23798136  0.77290685  1
  O2-  O254  1  0.09060585  0.57474672  0.26656397  1
  O2-  O255  1  0.09474264  0.57310052  0.77059842  1
  O2-  O256  1  0.09321898  0.90562452  0.27045879  1
  O2-  O257  1  0.09712034  0.90717636  0.77109345  1
  O2-  O258  1  0.42961812  0.23803844  0.27070087  1
  O2-  O259  1  0.42890066  0.23426303  0.76777030  1
  O2-  O260  1  0.42799045  0.57144083  0.26943776  1
  O2-  O261  1  0.42948810  0.56846199  0.76578138  1
  O2-  O262  1  0.42932341  0.90641359  0.27261269  1
  O2-  O263  1  0.42896726  0.90460206  0.76318535  1
  O2-  O264  1  0.76535411  0.23644387  0.27211896  1
  O2-  O265  1  0.76481934  0.23615160  0.76651647  1
  O2-  O266  1  0.76349274  0.56668202  0.26753339  1
  O2-  O267  1  0.75779952  0.57636362  0.76898211  1
  O2-  O268  1  0.76348710  0.90527713  0.26811443  1
  O2-  O269  1  0.76524838  0.90722535  0.76516347  1
  O2-  O270  1  0.07153839  0.07485137  0.48010869  1
  O2-  O271  1  0.07058199  0.07025822  0.98277058  1
  O2-  O272  1  0.06978280  0.40263004  0.48463109  1
  O2-  O273  1  0.07346771  0.40034775  0.97771456  1
  O2-  O274  1  0.06785386  0.74069104  0.47913972  1
  O2-  O275  1  0.07092267  0.73943866  0.97748722  1
  O2-  O276  1  0.41074554  0.07362329  0.47539280  1
  O2-  O277  1  0.40448833  0.07126084  0.97849958  1
  O2-  O278  1  0.40550059  0.40497452  0.47766047  1
  O2-  O279  1  0.40200703  0.40775476  0.97605704  1
  O2-  O280  1  0.40131278  0.74018146  0.47897006  1
  O2-  O281  1  0.40180935  0.73662575  0.98190545  1
  O2-  O282  1  0.73678613  0.06840452  0.48022522  1
  O2-  O283  1  0.73783787  0.07083375  0.97843580  1
  O2-  O284  1  0.73758109  0.40010593  0.48507022  1
  O2-  O285  1  0.74077251  0.40489631  0.98824749  1
  O2-  O286  1  0.73988430  0.73844999  0.48241965  1
  O2-  O287  1  0.73642900  0.73958048  0.97898639  1
  O2-  O288  1  0.09422769  0.23935031  0.47616884  1
  O2-  O289  1  0.09871134  0.23491693  0.98029953  1
  O2-  O290  1  0.08960108  0.57438736  0.48352498  1
  O2-  O291  1  0.09693479  0.57403466  0.97895473  1
  O2-  O292  1  0.09497894  0.90542169  0.48082900  1
  O2-  O293  1  0.09491616  0.90669756  0.97717007  1
  O2-  O294  1  0.42919396  0.23794913  0.47872412  1
  O2-  O295  1  0.42970765  0.23481954  0.98344922  1
  O2-  O296  1  0.42746738  0.57184831  0.48094102  1
  O2-  O297  1  0.42964573  0.56905535  0.98243366  1
  O2-  O298  1  0.42943580  0.90562701  0.47756310  1
  O2-  O299  1  0.42702881  0.90527765  0.98908131  1
  O2-  O300  1  0.76535040  0.23705893  0.47736405  1
  O2-  O301  1  0.76509939  0.23541661  0.98453134  1
  O2-  O302  1  0.76384453  0.56707208  0.48183520  1
  O2-  O303  1  0.75735904  0.57645170  0.98077774  1
  O2-  O304  1  0.76550728  0.90663336  0.48400573  1
  O2-  O305  1  0.76289188  0.90656546  0.98268707  1
  O2-  O306  1  0.06964353  0.07196825  0.26834757  1
  O2-  O307  1  0.07313812  0.07350655  0.76990534  1
  O2-  O308  1  0.06955980  0.40209345  0.26517587  1
  O2-  O309  1  0.07440740  0.40185189  0.77193491  1
  O2-  O310  1  0.06865124  0.74018611  0.27090727  1
  O2-  O311  1  0.06956054  0.74048680  0.77159046  1
  O2-  O312  1  0.40781487  0.07065971  0.27286563  1
  O2-  O313  1  0.40718806  0.07287359  0.77281212  1
  O2-  O314  1  0.40917958  0.40460613  0.27278631  1
  O2-  O315  1  0.40085906  0.40605624  0.77149041  1
  O2-  O316  1  0.40352124  0.74214806  0.27362273  1
  O2-  O317  1  0.40012113  0.73440978  0.76691176  1
  O2-  O318  1  0.73714609  0.06777353  0.26959721  1
  O2-  O319  1  0.73813671  0.07059508  0.77135372  1
  O2-  O320  1  0.73541880  0.40220812  0.26523238  1
  O2-  O321  1  0.74153901  0.40430599  0.76167701  1
  O2-  O322  1  0.73983772  0.73885515  0.26792052  1
  O2-  O323  1  0.73624128  0.73905738  0.77018279  1
  O2-  O324  1  0.24048825  0.09129603  0.22779859  1
  O2-  O325  1  0.24166090  0.09292307  0.73278206  1
  O2-  O326  1  0.23751944  0.42966087  0.23066377  1
  O2-  O327  1  0.23692673  0.42879199  0.73027261  1
  O2-  O328  1  0.23381650  0.76447603  0.23424909  1
  O2-  O329  1  0.23651385  0.76291617  0.72920679  1
  O2-  O330  1  0.57178206  0.09407486  0.22975186  1
  O2-  O331  1  0.57238750  0.09290630  0.72737407  1
  O2-  O332  1  0.57186514  0.42830309  0.22906794  1
  O2-  O333  1  0.57159375  0.42666349  0.72934094  1
  O2-  O334  1  0.57155929  0.76067926  0.23075491  1
  O2-  O335  1  0.57085714  0.75922046  0.72755924  1
  O2-  O336  1  0.90620242  0.09371887  0.22854882  1
  O2-  O337  1  0.90340306  0.09659038  0.73594268  1
  O2-  O338  1  0.90667975  0.42840231  0.22507844  1
  O2-  O339  1  0.90689208  0.42588495  0.72838826  1
  O2-  O340  1  0.90519844  0.76440558  0.22789816  1
  O2-  O341  1  0.90193989  0.76335096  0.72709826  1
  O2-  O342  1  0.25918858  0.25714706  0.02062305  1
  O2-  O343  1  0.26474945  0.26400364  0.51521445  1
  O2-  O344  1  0.26087942  0.59621619  0.02468863  1
  O2-  O345  1  0.26054367  0.59305518  0.52014760  1
  O2-  O346  1  0.25913999  0.92556643  0.02251872  1
  O2-  O347  1  0.26366992  0.92803829  0.52230290  1
  O2-  O348  1  0.59672762  0.25709338  0.02157321  1
  O2-  O349  1  0.59726828  0.25854194  0.52182141  1
  O2-  O350  1  0.59146894  0.59600153  0.02055410  1
  O2-  O351  1  0.59307978  0.59291626  0.52236948  1
  O2-  O352  1  0.59346521  0.92543799  0.02281437  1
  O2-  O353  1  0.59244574  0.92645810  0.52485510  1
  O2-  O354  1  0.92889817  0.25949953  0.02290237  1
  O2-  O355  1  0.93062455  0.26361770  0.51809298  1
  O2-  O356  1  0.92585306  0.59709988  0.01895066  1
  O2-  O357  1  0.92619204  0.59702548  0.52126644  1
  O2-  O358  1  0.92922624  0.93088010  0.01901873  1
  O2-  O359  1  0.93183911  0.93340325  0.52099535  1
