# generated using pymatgen
data_Sr7Ca15Pr50Mn72O216
_symmetry_space_group_name_H-M   'P 1'
_cell_length_a   16.56069071
_cell_length_b   16.60552825
_cell_length_c   15.59056362
_cell_angle_alpha   90.00029070
_cell_angle_beta   89.99609772
_cell_angle_gamma   90.00274811
_symmetry_Int_Tables_number   1
_chemical_formula_structural   Sr7Ca15Pr50Mn72O216
_chemical_formula_sum   'Sr7 Ca15 Pr50 Mn72 O216'
_cell_volume   4287.38966160
_cell_formula_units_Z   1
loop_
 _symmetry_equiv_pos_site_id
 _symmetry_equiv_pos_as_xyz
  1  'x, y, z'
loop_
 _atom_type_symbol
 _atom_type_oxidation_number
  Sr2+  2.0
  Ca2+  2.0
  Pr3+  3.0
  Mn3.30+  3.3
  O2-  -2.0
loop_
 _atom_site_type_symbol
 _atom_site_label
 _atom_site_symmetry_multiplicity
 _atom_site_fract_x
 _atom_site_fract_y
 _atom_site_fract_z
 _atom_site_occupancy
  Sr2+  Sr0  1  0.83323238  0.51042821  0.12432904  1
  Sr2+  Sr1  1  0.33674256  0.65582251  0.37408959  1
  Sr2+  Sr2  1  0.83215413  0.49008924  0.87290724  1
  Sr2+  Sr3  1  0.50019072  0.16018907  0.37682894  1
  Sr2+  Sr4  1  0.49770102  0.17595305  0.62152615  1
  Sr2+  Sr5  1  0.33192200  0.34420694  0.62345544  1
  Sr2+  Sr6  1  0.33104346  0.67973899  0.12670306  1
  Ca2+  Ca7  1  0.83626526  0.51296449  0.62530836  1
  Ca2+  Ca8  1  0.83070085  0.81879489  0.87399590  1
  Ca2+  Ca9  1  -0.00555922  0.34958534  0.62398429  1
  Ca2+  Ca10  1  0.67225259  0.98383659  0.87383666  1
  Ca2+  Ca11  1  0.49720062  0.48637738  0.37569149  1
  Ca2+  Ca12  1  0.66701730  0.31831538  0.37698634  1
  Ca2+  Ca13  1  1.00470407  0.98644612  0.37565898  1
  Ca2+  Ca14  1  0.50341014  0.18152890  0.12854360  1
  Ca2+  Ca15  1  0.33069779  0.01636694  0.62320879  1
  Ca2+  Ca16  1  0.17071131  0.84690852  0.12573245  1
  Ca2+  Ca17  1  0.16321942  0.81773185  0.87735965  1
  Ca2+  Ca18  1  0.16230276  0.14945450  0.37686838  1
  Ca2+  Ca19  1  0.66968302  0.65208773  0.37492016  1
  Ca2+  Ca20  1  0.83857156  0.18439455  0.62397957  1
  Ca2+  Ca21  1  0.16957063  0.51222156  0.62330861  1
  Pr3+  Pr22  1  0.50176899  0.84584411  0.62476540  1
  Pr3+  Pr23  1  0.33583131  0.32118075  0.87272390  1
  Pr3+  Pr24  1  0.33503026  0.98673838  0.87234170  1
  Pr3+  Pr25  1  0.49828792  0.48649424  0.87449342  1
  Pr3+  Pr26  1  0.66436743  0.67926396  0.12499377  1
  Pr3+  Pr27  1  0.50107203  0.50889349  0.62149277  1
  Pr3+  Pr28  1  0.33154587  0.01100466  0.12577622  1
  Pr3+  Pr29  1  0.66624666  0.01321815  0.62649321  1
  Pr3+  Pr30  1  0.66253934  0.34611911  0.12896929  1
  Pr3+  Pr31  1  0.16461502  0.48841321  0.37682806  1
  Pr3+  Pr32  1  0.17140185  0.84825351  0.62576246  1
  Pr3+  Pr33  1  1.00396991  0.98398054  0.87449948  1
  Pr3+  Pr34  1  0.16367588  0.15491770  0.87377323  1
  Pr3+  Pr35  1  0.67121451  0.32183630  0.87366964  1
  Pr3+  Pr36  1  0.49830949  0.15446996  0.87352410  1
  Pr3+  Pr37  1  -0.00280439  0.67970591  0.12529896  1
  Pr3+  Pr38  1  0.33421649  0.34452975  0.12699248  1
  Pr3+  Pr39  1  0.33540721  0.32247118  0.37739565  1
  Pr3+  Pr40  1  0.83559803  0.17951298  0.12595237  1
  Pr3+  Pr41  1  0.50371102  0.51417558  0.12779642  1
  Pr3+  Pr42  1  0.33404476  0.65381728  0.87591136  1
  Pr3+  Pr43  1  1.00306804  0.65282729  0.37559506  1
  Pr3+  Pr44  1  0.16248587  0.48819584  0.87263613  1
  Pr3+  Pr45  1  0.82754229  0.48559376  0.37717761  1
  Pr3+  Pr46  1  0.83117826  0.81945257  0.37565310  1
  Pr3+  Pr47  1  0.33576297  0.99103762  0.37806495  1
  Pr3+  Pr48  1  1.00432060  0.31833884  0.37627959  1
  Pr3+  Pr49  1  0.99911696  0.32308209  0.87367735  1
  Pr3+  Pr50  1  -0.00515460  0.01592327  0.62424477  1
  Pr3+  Pr51  1  0.32949129  0.67508170  0.62332395  1
  Pr3+  Pr52  1  0.66585144  0.67707466  0.62441246  1
  Pr3+  Pr53  1  0.83774455  0.84462793  0.62721643  1
  Pr3+  Pr54  1  0.82759037  0.15347367  0.87326137  1
  Pr3+  Pr55  1  0.66160504  0.01456447  0.12404420  1
  Pr3+  Pr56  1  1.00096396  0.65397336  0.87394985  1
  Pr3+  Pr57  1  0.49828555  0.82094566  0.87482051  1
  Pr3+  Pr58  1  0.83628046  0.84436719  0.12266617  1
  Pr3+  Pr59  1  0.49689490  0.82259375  0.37528938  1
  Pr3+  Pr60  1  0.67195500  0.65315411  0.87418734  1
  Pr3+  Pr61  1  0.50164967  0.84470972  0.12519265  1
  Pr3+  Pr62  1  0.66411819  0.34402480  0.62137563  1
  Pr3+  Pr63  1  0.66688392  0.99108552  0.37705715  1
  Pr3+  Pr64  1  -0.00456062  0.34683429  0.12569300  1
  Pr3+  Pr65  1  -0.00111599  0.67717732  0.62506654  1
  Pr3+  Pr66  1  0.82977796  0.15325750  0.37683406  1
  Pr3+  Pr67  1  0.17059179  0.17937786  0.62364039  1
  Pr3+  Pr68  1  0.16507920  0.82192700  0.37346948  1
  Pr3+  Pr69  1  -0.00123670  0.01111494  0.12561554  1
  Pr3+  Pr70  1  0.17018987  0.51337479  0.12561919  1
  Pr3+  Pr71  1  0.16972325  0.17833943  0.12635721  1
  Mn3.30+  Mn72  1  0.16680700  -0.00245658  -0.00050344  1
  Mn3.30+  Mn73  1  0.16523714  0.00121684  0.49989236  1
  Mn3.30+  Mn74  1  0.16675884  0.33311495  0.00010523  1
  Mn3.30+  Mn75  1  0.16444724  0.33370450  0.50193150  1
  Mn3.30+  Mn76  1  0.16702642  0.66970493  0.00058820  1
  Mn3.30+  Mn77  1  0.16658450  0.66556204  0.49975994  1
  Mn3.30+  Mn78  1  0.50140651  0.00079653  -0.00207727  1
  Mn3.30+  Mn79  1  0.49961762  0.00195706  0.50234786  1
  Mn3.30+  Mn80  1  0.50099925  0.33183181  0.00062047  1
  Mn3.30+  Mn81  1  0.50026090  0.33402705  0.49845171  1
  Mn3.30+  Mn82  1  0.50000282  0.66749015  0.00029507  1
  Mn3.30+  Mn83  1  0.50089518  0.66501883  0.49784738  1
  Mn3.30+  Mn84  1  0.83164124  -0.00149666  -0.00154399  1
  Mn3.30+  Mn85  1  0.83605664  0.00009302  0.49993209  1
  Mn3.30+  Mn86  1  0.83224851  0.33368662  -0.00017817  1
  Mn3.30+  Mn87  1  0.83427434  0.33306205  0.50108918  1
  Mn3.30+  Mn88  1  0.83301026  0.66736611  -0.00039900  1
  Mn3.30+  Mn89  1  0.83253920  0.66478901  0.50004825  1
  Mn3.30+  Mn90  1  0.00182428  0.16431634  0.25185169  1
  Mn3.30+  Mn91  1  -0.00259079  0.16883016  0.74863913  1
  Mn3.30+  Mn92  1  -0.00194648  0.49955038  0.25114879  1
  Mn3.30+  Mn93  1  -0.00052202  0.49879892  0.74609164  1
  Mn3.30+  Mn94  1  0.00124946  0.83479061  0.24941698  1
  Mn3.30+  Mn95  1  0.00193134  0.83265276  0.75179614  1
  Mn3.30+  Mn96  1  0.33350408  0.16668870  0.25102260  1
  Mn3.30+  Mn97  1  0.33196605  0.16635587  0.74840988  1
  Mn3.30+  Mn98  1  0.33502084  0.50068003  0.25179140  1
  Mn3.30+  Mn99  1  0.33111624  0.49961914  0.74832168  1
  Mn3.30+  Mn100  1  0.33216765  0.83478902  0.24922670  1
  Mn3.30+  Mn101  1  0.33196190  0.83345724  0.75043072  1
  Mn3.30+  Mn102  1  0.66599207  0.16707556  0.25167395  1
  Mn3.30+  Mn103  1  0.66747249  0.16596324  0.74792762  1
  Mn3.30+  Mn104  1  0.66493225  0.50011780  0.25476417  1
  Mn3.30+  Mn105  1  0.66902696  0.49897896  0.74663013  1
  Mn3.30+  Mn106  1  0.66751782  0.83333499  0.25111223  1
  Mn3.30+  Mn107  1  0.66881773  0.83400489  0.75076179  1
  Mn3.30+  Mn108  1  0.16563388  -0.00010477  0.25079747  1
  Mn3.30+  Mn109  1  0.16676623  -0.00046722  0.74988017  1
  Mn3.30+  Mn110  1  0.16626055  0.33183644  0.25101086  1
  Mn3.30+  Mn111  1  0.16456240  0.33502195  0.74675598  1
  Mn3.30+  Mn112  1  0.16737862  0.66779228  0.25011729  1
  Mn3.30+  Mn113  1  0.16660321  0.66680860  0.74993503  1
  Mn3.30+  Mn114  1  0.49963203  0.00260495  0.25024320  1
  Mn3.30+  Mn115  1  0.50165116  0.00029360  0.75013645  1
  Mn3.30+  Mn116  1  0.50003177  0.33332527  0.25315611  1
  Mn3.30+  Mn117  1  0.50128840  0.33259577  0.74710336  1
  Mn3.30+  Mn118  1  0.50134128  0.66669176  0.25262721  1
  Mn3.30+  Mn119  1  0.49995754  0.66562044  0.74925092  1
  Mn3.30+  Mn120  1  0.83437362  -0.00124276  0.25059488  1
  Mn3.30+  Mn121  1  0.83310650  -0.00009655  0.75126064  1
  Mn3.30+  Mn122  1  0.83195129  0.33280333  0.25278495  1
  Mn3.30+  Mn123  1  0.83468785  0.33409680  0.74636553  1
  Mn3.30+  Mn124  1  0.83191426  0.66547074  0.25089111  1
  Mn3.30+  Mn125  1  0.83367229  0.66637229  0.74904924  1
  Mn3.30+  Mn126  1  -0.00110998  0.16594640  -0.00049964  1
  Mn3.30+  Mn127  1  0.00020062  0.16722264  0.50030766  1
  Mn3.30+  Mn128  1  -0.00018473  0.50046879  -0.00062011  1
  Mn3.30+  Mn129  1  -0.00179792  0.49828016  0.50290048  1
  Mn3.30+  Mn130  1  0.00213957  0.83255316  -0.00077607  1
  Mn3.30+  Mn131  1  0.00113383  0.83469606  0.49953215  1
  Mn3.30+  Mn132  1  0.33491529  0.16621558  0.00115303  1
  Mn3.30+  Mn133  1  0.33023136  0.16716903  0.49898165  1
  Mn3.30+  Mn134  1  0.33301680  0.49966672  0.00050898  1
  Mn3.30+  Mn135  1  0.33273246  0.50037826  0.49906735  1
  Mn3.30+  Mn136  1  0.33026789  0.83351221  -0.00106627  1
  Mn3.30+  Mn137  1  0.33353094  0.83460913  0.50192906  1
  Mn3.30+  Mn138  1  0.66441133  0.16603443  -0.00006186  1
  Mn3.30+  Mn139  1  0.66891806  0.16722222  0.50128120  1
  Mn3.30+  Mn140  1  0.66715217  0.49977795  0.00107376  1
  Mn3.30+  Mn141  1  0.66679469  0.49971946  0.49772711  1
  Mn3.30+  Mn142  1  0.66880867  0.83498928  -0.00217642  1
  Mn3.30+  Mn143  1  0.66740700  0.83210454  0.49998001  1
  O2-  O144  1  0.02593517  0.15949895  0.12645556  1
  O2-  O145  1  0.02755066  0.16010135  0.62536767  1
  O2-  O146  1  0.02564034  0.49473428  0.12427106  1
  O2-  O147  1  0.02809325  0.49557289  0.62436036  1
  O2-  O148  1  0.02780903  0.82726273  0.12453543  1
  O2-  O149  1  0.02652526  0.82714715  0.62726176  1
  O2-  O150  1  0.36048568  0.16046130  0.12442734  1
  O2-  O151  1  0.34758675  0.16172924  0.62599086  1
  O2-  O152  1  0.35879634  0.49372620  0.12608568  1
  O2-  O153  1  0.35663142  0.50391787  0.62490652  1
  O2-  O154  1  0.35771153  0.83722579  0.12149866  1
  O2-  O155  1  0.35867963  0.82325032  0.62706022  1
  O2-  O156  1  0.69207833  0.16184605  0.12532826  1
  O2-  O157  1  0.69613029  0.16027025  0.62470781  1
  O2-  O158  1  0.68408706  0.49372118  0.12851274  1
  O2-  O159  1  0.69398328  0.49252526  0.62218262  1
  O2-  O160  1  0.69247113  0.82823806  0.12305769  1
  O2-  O161  1  0.69397533  0.82615050  0.62400043  1
  O2-  O162  1  0.13903935  0.32609744  0.12692798  1
  O2-  O163  1  0.13595017  0.32398663  0.62471779  1
  O2-  O164  1  0.14075125  0.65945769  0.12576713  1
  O2-  O165  1  0.14334191  0.66043465  0.62438665  1
  O2-  O166  1  0.14218803  0.99392846  0.12265715  1
  O2-  O167  1  0.13879209  0.99515787  0.62594885  1
  O2-  O168  1  0.47775113  0.32761685  0.12753801  1
  O2-  O169  1  0.48245474  0.33557794  0.62448207  1
  O2-  O170  1  0.48170093  0.66357318  0.12635372  1
  O2-  O171  1  0.47362404  0.65961091  0.62621413  1
  O2-  O172  1  0.47545525  0.99139468  0.12296011  1
  O2-  O173  1  0.47393677  0.99328357  0.62732613  1
  O2-  O174  1  0.80834163  0.32784642  0.12800230  1
  O2-  O175  1  0.80691632  0.32595501  0.62316701  1
  O2-  O176  1  0.80886923  0.66808468  0.12651268  1
  O2-  O177  1  0.81011013  0.66356890  0.62380934  1
  O2-  O178  1  0.80611556  0.99248290  0.12350972  1
  O2-  O179  1  0.81015651  0.99047128  0.62620827  1
  O2-  O180  1  0.30487395  0.17226911  0.37393230  1
  O2-  O181  1  0.30816440  0.17247063  0.87578790  1
  O2-  O182  1  0.30816336  0.49907084  0.37435347  1
  O2-  O183  1  0.30791911  0.50303705  0.87458752  1
  O2-  O184  1  0.30957883  0.84230339  0.37764770  1
  O2-  O185  1  0.30520532  0.83952271  0.87363662  1
  O2-  O186  1  0.65069853  0.16383357  0.37555883  1
  O2-  O187  1  0.64143770  0.17559795  0.87469745  1
  O2-  O188  1  0.63816671  0.51019617  0.37614213  1
  O2-  O189  1  0.64255106  0.50366941  0.87335443  1
  O2-  O190  1  0.64023803  0.84358599  0.37759974  1
  O2-  O191  1  0.64095874  0.83890914  0.87512425  1
  O2-  O192  1  0.97242004  0.17250144  0.37511680  1
  O2-  O193  1  0.97177800  0.17414559  0.87307923  1
  O2-  O194  1  0.97278206  0.50440329  0.37762572  1
  O2-  O195  1  0.98157005  0.50456730  0.87363673  1
  O2-  O196  1  0.97511832  0.84009936  0.37326246  1
  O2-  O197  1  0.97313008  0.83709305  0.87456419  1
  O2-  O198  1  0.19179806  0.00322685  0.37642833  1
  O2-  O199  1  0.19141106  0.00866217  0.87530384  1
  O2-  O200  1  0.19087845  0.34181885  0.37403733  1
  O2-  O201  1  0.19198470  0.34008302  0.87422471  1
  O2-  O202  1  0.18606557  0.67301628  0.37445827  1
  O2-  O203  1  0.19073002  0.67205921  0.87545347  1
  O2-  O204  1  0.52286080  0.00146024  0.37631274  1
  O2-  O205  1  0.52980104  0.00668222  0.87433143  1
  O2-  O206  1  0.52376817  0.33983208  0.37558764  1
  O2-  O207  1  0.52633531  0.33871506  0.87215868  1
  O2-  O208  1  0.52873717  0.67771583  0.37525954  1
  O2-  O209  1  0.52701054  0.67175322  0.87297853  1
  O2-  O210  1  0.86196544  0.00552126  0.37573560  1
  O2-  O211  1  0.86103622  0.00881377  0.87453973  1
  O2-  O212  1  0.86032491  0.33770024  0.37678874  1
  O2-  O213  1  0.85449466  0.33338787  0.87202804  1
  O2-  O214  1  0.85957072  0.67128153  0.37595142  1
  O2-  O215  1  0.85611392  0.67176284  0.87332140  1
  O2-  O216  1  0.23797127  0.09427639  0.02088446  1
  O2-  O217  1  0.23436983  0.09415456  0.51746287  1
  O2-  O218  1  0.23946075  0.42692709  0.02219754  1
  O2-  O219  1  0.23367484  0.43033147  0.51737722  1
  O2-  O220  1  0.23483912  0.76430053  0.01961883  1
  O2-  O221  1  0.23992997  0.76277972  0.52001799  1
  O2-  O222  1  0.56947149  0.09832233  0.02245829  1
  O2-  O223  1  0.57930163  0.08914269  0.52020090  1
  O2-  O224  1  0.56949970  0.42844026  0.01883672  1
  O2-  O225  1  0.57511144  0.42775631  0.52058312  1
  O2-  O226  1  0.57371653  0.76355057  0.01883222  1
  O2-  O227  1  0.57301829  0.75998404  0.52381083  1
  O2-  O228  1  0.90327093  0.09271513  0.02117586  1
  O2-  O229  1  0.90534853  0.09874575  0.52299969  1
  O2-  O230  1  0.91131316  0.42432329  0.01755025  1
  O2-  O231  1  0.90068214  0.43120776  0.52012817  1
  O2-  O232  1  0.90735061  0.76043173  0.02147074  1
  O2-  O233  1  0.90647709  0.76158857  0.51920367  1
  O2-  O234  1  0.26087603  0.26043521  0.22689037  1
  O2-  O235  1  0.25558460  0.26158775  0.73396218  1
  O2-  O236  1  0.25773781  0.59005618  0.23156033  1
  O2-  O237  1  0.26331406  0.59813765  0.73555669  1
  O2-  O238  1  0.26195664  0.93163986  0.23338854  1
  O2-  O239  1  0.26518377  0.92948646  0.72697394  1
  O2-  O240  1  0.59490845  0.26122989  0.23437144  1
  O2-  O241  1  0.59745195  0.26221414  0.73130995  1
  O2-  O242  1  0.59528818  0.59528550  0.22880842  1
  O2-  O243  1  0.59427187  0.59258890  0.72776193  1
  O2-  O244  1  0.59484002  0.92844322  0.22993571  1
  O2-  O245  1  0.59511192  0.92511240  0.72698894  1
  O2-  O246  1  0.93108749  0.25894317  0.22976967  1
  O2-  O247  1  0.93074813  0.26579091  0.72945967  1
  O2-  O248  1  0.92936991  0.59711301  0.23277297  1
  O2-  O249  1  0.93105964  0.59469038  0.73147520  1
  O2-  O250  1  0.92664894  0.92587458  0.22480326  1
  O2-  O251  1  0.93191240  0.92911872  0.73114011  1
  O2-  O252  1  0.09667922  0.23582531  0.27242366  1
  O2-  O253  1  0.09257456  0.23918245  0.77337684  1
  O2-  O254  1  0.09221260  0.57087157  0.27041466  1
  O2-  O255  1  0.09465541  0.57429180  0.77055324  1
  O2-  O256  1  0.09536163  0.90494566  0.26971392  1
  O2-  O257  1  0.09810905  0.90354392  0.77206596  1
  O2-  O258  1  0.42317813  0.24334461  0.27042351  1
  O2-  O259  1  0.42599666  0.24143194  0.77054388  1
  O2-  O260  1  0.43232551  0.57052900  0.26768211  1
  O2-  O261  1  0.42874354  0.57343202  0.77281120  1
  O2-  O262  1  0.42795767  0.90783499  0.26978584  1
  O2-  O263  1  0.42974014  0.90513659  0.77234934  1
  O2-  O264  1  0.76510232  0.23582398  0.26774366  1
  O2-  O265  1  0.76075918  0.23822246  0.76997938  1
  O2-  O266  1  0.76041561  0.57000020  0.27062895  1
  O2-  O267  1  0.75699707  0.57516447  0.76675929  1
  O2-  O268  1  0.76180405  0.90443889  0.27170363  1
  O2-  O269  1  0.76735459  0.90326485  0.76889112  1
  O2-  O270  1  0.06696025  0.06837405  0.48180664  1
  O2-  O271  1  0.07198904  0.07139353  0.97892043  1
  O2-  O272  1  0.07054205  0.40523792  0.47719556  1
  O2-  O273  1  0.07390369  0.40583387  0.98005375  1
  O2-  O274  1  0.07166777  0.73949996  0.48054239  1
  O2-  O275  1  0.06878615  0.73607634  0.98048401  1
  O2-  O276  1  0.40344369  0.07482405  0.48383024  1
  O2-  O277  1  0.40563440  0.07105992  0.97641703  1
  O2-  O278  1  0.40423184  0.40852591  0.48180090  1
  O2-  O279  1  0.40595303  0.40377724  0.97980396  1
  O2-  O280  1  0.40953312  0.74164954  0.48287145  1
  O2-  O281  1  0.40507624  0.74190687  0.97742812  1
  O2-  O282  1  0.74214644  0.06927429  0.48088773  1
  O2-  O283  1  0.73408832  0.07079758  0.97889516  1
  O2-  O284  1  0.73661991  0.40375717  0.47612386  1
  O2-  O285  1  0.73600652  0.40377556  0.98504890  1
  O2-  O286  1  0.73772636  0.73869381  0.47795858  1
  O2-  O287  1  0.73607080  0.73883997  0.98071324  1
  O2-  O288  1  0.09468231  0.23532192  0.47650274  1
  O2-  O289  1  0.09420624  0.23979565  0.97923005  1
  O2-  O290  1  0.09123294  0.57166570  0.47784613  1
  O2-  O291  1  0.09542293  0.57253276  0.98060254  1
  O2-  O292  1  0.09868137  0.90331768  0.48289728  1
  O2-  O293  1  0.09472755  0.90508910  0.97529068  1
  O2-  O294  1  0.42102816  0.24453677  0.48197599  1
  O2-  O295  1  0.42818625  0.24040873  0.97691078  1
  O2-  O296  1  0.43207840  0.57091186  0.48096155  1
  O2-  O297  1  0.42667736  0.57128009  0.97940299  1
  O2-  O298  1  0.42793824  0.90584896  0.48199151  1
  O2-  O299  1  0.42865702  0.90616203  0.97590424  1
  O2-  O300  1  0.76428972  0.23802013  0.48058054  1
  O2-  O301  1  0.76010480  0.23575717  0.98131097  1
  O2-  O302  1  0.76023185  0.57085760  0.48010568  1
  O2-  O303  1  0.75746856  0.57594452  0.98239957  1
  O2-  O304  1  0.76179639  0.90455823  0.47949980  1
  O2-  O305  1  0.76519658  0.90189661  0.97886935  1
  O2-  O306  1  0.06902862  0.06833049  0.26873298  1
  O2-  O307  1  0.06836439  0.07262806  0.77123729  1
  O2-  O308  1  0.07212144  0.40433830  0.26974752  1
  O2-  O309  1  0.07137429  0.40595156  0.77252675  1
  O2-  O310  1  0.06991364  0.73913656  0.27032988  1
  O2-  O311  1  0.07105121  0.73676322  0.76868650  1
  O2-  O312  1  0.40165270  0.07086650  0.26816697  1
  O2-  O313  1  0.40857640  0.07334819  0.77269502  1
  O2-  O314  1  0.40305672  0.40403911  0.26734489  1
  O2-  O315  1  0.40705864  0.40774485  0.77080585  1
  O2-  O316  1  0.41135419  0.74441837  0.26788437  1
  O2-  O317  1  0.40474229  0.73921428  0.77271760  1
  O2-  O318  1  0.73945652  0.06927174  0.26848185  1
  O2-  O319  1  0.73709654  0.06942957  0.77210367  1
  O2-  O320  1  0.73471669  0.40477436  0.27410307  1
  O2-  O321  1  0.73653373  0.40201741  0.76500538  1
  O2-  O322  1  0.73898306  0.73854537  0.27243241  1
  O2-  O323  1  0.73611903  0.73863948  0.76764428  1
  O2-  O324  1  0.23828713  0.09345294  0.22749647  1
  O2-  O325  1  0.23409822  0.09530691  0.73419940  1
  O2-  O326  1  0.23816118  0.42549710  0.22821860  1
  O2-  O327  1  0.23283425  0.43088627  0.73084660  1
  O2-  O328  1  0.23745747  0.76597182  0.23364227  1
  O2-  O329  1  0.23852307  0.75951321  0.72733067  1
  O2-  O330  1  0.57163871  0.09284857  0.22762596  1
  O2-  O331  1  0.57453008  0.09338984  0.72953476  1
  O2-  O332  1  0.57063829  0.42763316  0.22979332  1
  O2-  O333  1  0.57319817  0.42873293  0.72997074  1
  O2-  O334  1  0.57469541  0.76297866  0.22885349  1
  O2-  O335  1  0.57043019  0.75936617  0.72858513  1
  O2-  O336  1  0.90451187  0.09351620  0.22763440  1
  O2-  O337  1  0.90288922  0.09737697  0.72787850  1
  O2-  O338  1  0.90697141  0.42547470  0.23272568  1
  O2-  O339  1  0.90392455  0.42919103  0.72841668  1
  O2-  O340  1  0.90661738  0.76298292  0.23081095  1
  O2-  O341  1  0.90829655  0.75987077  0.72800955  1
  O2-  O342  1  0.26110402  0.26137500  0.02112454  1
  O2-  O343  1  0.25611800  0.26118893  0.51783062  1
  O2-  O344  1  0.25864178  0.59418202  0.01723542  1
  O2-  O345  1  0.26143529  0.59487466  0.51622985  1
  O2-  O346  1  0.26456519  0.93174383  0.01588303  1
  O2-  O347  1  0.26235467  0.92954007  0.52344592  1
  O2-  O348  1  0.59751014  0.26381663  0.01888687  1
  O2-  O349  1  0.59644454  0.25907325  0.51493902  1
  O2-  O350  1  0.59491991  0.59403802  0.01863274  1
  O2-  O351  1  0.59406203  0.59279899  0.52486885  1
  O2-  O352  1  0.59507992  0.92687196  0.02196490  1
  O2-  O353  1  0.59596195  0.92544449  0.52301458  1
  O2-  O354  1  0.92651875  0.25997403  0.02153210  1
  O2-  O355  1  0.93317537  0.26537850  0.51811692  1
  O2-  O356  1  0.93054042  0.59633302  0.01626209  1
  O2-  O357  1  0.93062801  0.59504070  0.51927099  1
  O2-  O358  1  0.93136392  0.92667498  0.02045150  1
  O2-  O359  1  0.92774999  0.92703630  0.52280584  1
