# generated using pymatgen
data_Sr7Ca15Pr50Mn72O216
_symmetry_space_group_name_H-M   'P 1'
_cell_length_a   16.56002051
_cell_length_b   16.60940879
_cell_length_c   15.59145112
_cell_angle_alpha   90.00335893
_cell_angle_beta   89.99964921
_cell_angle_gamma   89.99298466
_symmetry_Int_Tables_number   1
_chemical_formula_structural   Sr7Ca15Pr50Mn72O216
_chemical_formula_sum   'Sr7 Ca15 Pr50 Mn72 O216'
_cell_volume   4288.46211518
_cell_formula_units_Z   1
loop_
 _symmetry_equiv_pos_site_id
 _symmetry_equiv_pos_as_xyz
  1  'x, y, z'
loop_
 _atom_type_symbol
 _atom_type_oxidation_number
  Sr2+  2.0
  Ca2+  2.0
  Pr3+  3.0
  Mn3.30+  3.3
  O2-  -2.0
loop_
 _atom_site_type_symbol
 _atom_site_label
 _atom_site_symmetry_multiplicity
 _atom_site_fract_x
 _atom_site_fract_y
 _atom_site_fract_z
 _atom_site_occupancy
  Sr2+  Sr0  1  0.16813543  0.50723740  0.62548099  1
  Sr2+  Sr1  1  -0.00259891  0.00923906  0.62417733  1
  Sr2+  Sr2  1  0.00041963  0.34152695  0.62473993  1
  Sr2+  Sr3  1  0.50309428  0.51497738  0.12434580  1
  Sr2+  Sr4  1  0.67054379  0.32252147  0.87442107  1
  Sr2+  Sr5  1  0.33002968  0.34434501  0.62581024  1
  Sr2+  Sr6  1  -0.00121530  0.67735426  0.12526809  1
  Ca2+  Ca7  1  0.66170804  0.34887643  0.62776328  1
  Ca2+  Ca8  1  -0.00436555  0.34950023  0.12527064  1
  Ca2+  Ca9  1  0.32976607  0.68233292  0.12444035  1
  Ca2+  Ca10  1  0.50498893  0.51365361  0.62581394  1
  Ca2+  Ca11  1  -0.00150469  0.67959490  0.62545255  1
  Ca2+  Ca12  1  0.16255810  0.15306897  0.87198274  1
  Ca2+  Ca13  1  0.16244430  0.81806438  0.87333155  1
  Ca2+  Ca14  1  0.32824882  0.01271986  0.62519615  1
  Ca2+  Ca15  1  1.00418583  0.98429263  0.37712339  1
  Ca2+  Ca16  1  0.67028016  0.98625293  0.87251703  1
  Ca2+  Ca17  1  0.50222513  0.84821738  0.62522978  1
  Ca2+  Ca18  1  0.82720890  0.15008770  0.87259082  1
  Ca2+  Ca19  1  0.33785675  0.98366539  0.37751712  1
  Ca2+  Ca20  1  0.66094697  0.68328812  0.62537966  1
  Ca2+  Ca21  1  0.66275345  0.68067179  0.12415888  1
  Pr3+  Pr22  1  1.00337508  0.98626570  0.87346669  1
  Pr3+  Pr23  1  0.83215656  0.48747710  0.37452458  1
  Pr3+  Pr24  1  0.83551629  0.51365461  0.12430427  1
  Pr3+  Pr25  1  0.66338820  0.01108296  0.62710392  1
  Pr3+  Pr26  1  0.49899723  0.48789341  0.87337283  1
  Pr3+  Pr27  1  0.33504611  0.65560668  0.87482960  1
  Pr3+  Pr28  1  0.66937476  0.32076770  0.37602493  1
  Pr3+  Pr29  1  0.66895672  0.65452993  0.37664839  1
  Pr3+  Pr30  1  0.50105625  0.18034249  0.62612164  1
  Pr3+  Pr31  1  0.83548517  0.84383204  0.12486859  1
  Pr3+  Pr32  1  1.00278084  0.31769748  0.87430649  1
  Pr3+  Pr33  1  0.49343798  0.15044097  0.37612170  1
  Pr3+  Pr34  1  0.33304080  0.98665034  0.87258688  1
  Pr3+  Pr35  1  0.83863208  0.51251621  0.62563428  1
  Pr3+  Pr36  1  0.33605404  0.32077308  0.37719904  1
  Pr3+  Pr37  1  0.33542318  0.32061647  0.87305934  1
  Pr3+  Pr38  1  0.17089202  0.51680267  0.12497953  1
  Pr3+  Pr39  1  0.83320141  0.82171172  0.37718652  1
  Pr3+  Pr40  1  0.49806243  0.48782327  0.37643292  1
  Pr3+  Pr41  1  0.83659509  0.18052051  0.62712301  1
  Pr3+  Pr42  1  0.16688265  0.17942346  0.12236230  1
  Pr3+  Pr43  1  0.16332185  0.15036327  0.37644803  1
  Pr3+  Pr44  1  1.00363758  0.32075440  0.37560769  1
  Pr3+  Pr45  1  0.16630985  0.82324052  0.37689635  1
  Pr3+  Pr46  1  1.00384964  0.65472406  0.37584536  1
  Pr3+  Pr47  1  0.82968507  0.82299450  0.87301432  1
  Pr3+  Pr48  1  0.17013381  0.84369254  0.12260840  1
  Pr3+  Pr49  1  0.83624207  0.84525077  0.62512411  1
  Pr3+  Pr50  1  0.83139333  0.48677445  0.87521715  1
  Pr3+  Pr51  1  0.16433597  0.48820619  0.87394332  1
  Pr3+  Pr52  1  0.83274929  0.15350508  0.37634236  1
  Pr3+  Pr53  1  0.66302713  0.01116871  0.12289593  1
  Pr3+  Pr54  1  0.49500342  0.82082416  0.37776031  1
  Pr3+  Pr55  1  0.32953791  0.01113254  0.12510242  1
  Pr3+  Pr56  1  0.16965479  0.84708997  0.62759944  1
  Pr3+  Pr57  1  0.50332220  0.17871888  0.12402125  1
  Pr3+  Pr58  1  0.83782157  0.18097964  0.12354929  1
  Pr3+  Pr59  1  0.50014584  0.82109257  0.87121898  1
  Pr3+  Pr60  1  0.66677366  0.98615887  0.37654042  1
  Pr3+  Pr61  1  0.33804129  0.65457295  0.37504821  1
  Pr3+  Pr62  1  0.16870001  0.17721408  0.62731199  1
  Pr3+  Pr63  1  0.33161739  0.34748778  0.12405019  1
  Pr3+  Pr64  1  1.00306928  0.65580423  0.87392949  1
  Pr3+  Pr65  1  0.66314744  0.34754300  0.12319804  1
  Pr3+  Pr66  1  0.50064969  0.84115754  0.12380050  1
  Pr3+  Pr67  1  0.49924755  0.15402194  0.87399344  1
  Pr3+  Pr68  1  0.33247672  0.67546511  0.62559477  1
  Pr3+  Pr69  1  -0.00275966  0.00936583  0.12608303  1
  Pr3+  Pr70  1  0.67060670  0.65452107  0.87321179  1
  Pr3+  Pr71  1  0.16556522  0.48711549  0.37584834  1
  Mn3.30+  Mn72  1  0.16507341  -0.00014509  -0.00206430  1
  Mn3.30+  Mn73  1  0.16817751  -0.00077651  0.50056820  1
  Mn3.30+  Mn74  1  0.16422457  0.33294683  0.00079716  1
  Mn3.30+  Mn75  1  0.16852690  0.33224786  0.50023872  1
  Mn3.30+  Mn76  1  0.16777897  0.66859188  -0.00053915  1
  Mn3.30+  Mn77  1  0.16704113  0.66642245  0.50264855  1
  Mn3.30+  Mn78  1  0.50028078  -0.00133364  -0.00298693  1
  Mn3.30+  Mn79  1  0.49632552  -0.00098901  0.50389776  1
  Mn3.30+  Mn80  1  0.50085064  0.33328097  -0.00186034  1
  Mn3.30+  Mn81  1  0.50210236  0.33501598  0.50319070  1
  Mn3.30+  Mn82  1  0.50108761  0.66741607  0.00051392  1
  Mn3.30+  Mn83  1  0.50251470  0.66667897  0.50330725  1
  Mn3.30+  Mn84  1  0.83159843  0.00087230  -0.00115013  1
  Mn3.30+  Mn85  1  0.83396691  -0.00056824  0.49871736  1
  Mn3.30+  Mn86  1  0.83503919  0.33198919  0.00010343  1
  Mn3.30+  Mn87  1  0.83194518  0.33370447  0.50120574  1
  Mn3.30+  Mn88  1  0.83284229  0.66778551  0.00049680  1
  Mn3.30+  Mn89  1  0.83318710  0.66641518  0.50252344  1
  Mn3.30+  Mn90  1  0.00038015  0.16550990  0.24984244  1
  Mn3.30+  Mn91  1  -0.00230545  0.16497706  0.75211531  1
  Mn3.30+  Mn92  1  0.00046366  0.49971899  0.24909883  1
  Mn3.30+  Mn93  1  -0.00027337  0.50028697  0.74807570  1
  Mn3.30+  Mn94  1  0.00105240  0.83343122  0.25092234  1
  Mn3.30+  Mn95  1  0.00063022  0.83192115  0.74916262  1
  Mn3.30+  Mn96  1  0.33200226  0.16534884  0.24942890  1
  Mn3.30+  Mn97  1  0.33172363  0.16440552  0.75119522  1
  Mn3.30+  Mn98  1  0.33444766  0.50222055  0.24848069  1
  Mn3.30+  Mn99  1  0.33455427  0.49986163  0.74864657  1
  Mn3.30+  Mn100  1  0.33350930  0.83360185  0.25005367  1
  Mn3.30+  Mn101  1  0.33361234  0.83324866  0.74898122  1
  Mn3.30+  Mn102  1  0.66663340  0.16572802  0.25047736  1
  Mn3.30+  Mn103  1  0.66829247  0.16709451  0.75082330  1
  Mn3.30+  Mn104  1  0.66590987  0.50184298  0.25001272  1
  Mn3.30+  Mn105  1  0.66710973  0.50051627  0.74676409  1
  Mn3.30+  Mn106  1  0.66619754  0.83188951  0.25031166  1
  Mn3.30+  Mn107  1  0.66490532  0.83375924  0.74783541  1
  Mn3.30+  Mn108  1  0.16655681  -0.00133325  0.25213380  1
  Mn3.30+  Mn109  1  0.16668572  0.00048738  0.75031582  1
  Mn3.30+  Mn110  1  0.16532606  0.33302260  0.24755814  1
  Mn3.30+  Mn111  1  0.16725977  0.33204553  0.75122532  1
  Mn3.30+  Mn112  1  0.16934468  0.66852448  0.25026509  1
  Mn3.30+  Mn113  1  0.16584945  0.66662884  0.74813009  1
  Mn3.30+  Mn114  1  0.49747580  -0.00178828  0.24965317  1
  Mn3.30+  Mn115  1  0.49926999  -0.00069378  0.74927216  1
  Mn3.30+  Mn116  1  0.50066719  0.33329522  0.25047282  1
  Mn3.30+  Mn117  1  0.50207504  0.33470387  0.74837195  1
  Mn3.30+  Mn118  1  0.50112600  0.66763191  0.24785287  1
  Mn3.30+  Mn119  1  0.50276213  0.66623088  0.74755336  1
  Mn3.30+  Mn120  1  0.83323341  -0.00044739  0.25152786  1
  Mn3.30+  Mn121  1  0.83194433  0.00085510  0.75068497  1
  Mn3.30+  Mn122  1  0.83477888  0.33312994  0.24937684  1
  Mn3.30+  Mn123  1  0.83197091  0.33267797  0.74988991  1
  Mn3.30+  Mn124  1  0.83255390  0.66718834  0.24977879  1
  Mn3.30+  Mn125  1  0.83323571  0.66720420  0.74691382  1
  Mn3.30+  Mn126  1  -0.00123919  0.16596702  -0.00140525  1
  Mn3.30+  Mn127  1  -0.00039952  0.16430012  0.50036113  1
  Mn3.30+  Mn128  1  -0.00013374  0.49946317  0.00081579  1
  Mn3.30+  Mn129  1  0.00031398  0.50048239  0.50204503  1
  Mn3.30+  Mn130  1  0.00095135  0.83269200  -0.00040735  1
  Mn3.30+  Mn131  1  0.00080849  0.83278614  0.50096473  1
  Mn3.30+  Mn132  1  0.33153262  0.16593244  -0.00158171  1
  Mn3.30+  Mn133  1  0.33260501  0.16340331  0.50072105  1
  Mn3.30+  Mn134  1  0.33366376  0.50238018  0.00083649  1
  Mn3.30+  Mn135  1  0.33526603  0.49992871  0.50199832  1
  Mn3.30+  Mn136  1  0.33265871  0.83223256  -0.00346096  1
  Mn3.30+  Mn137  1  0.33439765  0.83494187  0.50403883  1
  Mn3.30+  Mn138  1  0.66991612  0.16544795  -0.00239979  1
  Mn3.30+  Mn139  1  0.66541183  0.16745053  0.50115858  1
  Mn3.30+  Mn140  1  0.66667373  0.50183051  -0.00001689  1
  Mn3.30+  Mn141  1  0.66632256  0.50084361  0.50321087  1
  Mn3.30+  Mn142  1  0.66696033  0.83338563  -0.00078047  1
  Mn3.30+  Mn143  1  0.66397999  0.83242944  0.50203893  1
  O2-  O144  1  0.02481929  0.15587664  0.12583237  1
  O2-  O145  1  0.02337782  0.16384894  0.62355582  1
  O2-  O146  1  0.02614082  0.49494138  0.12638593  1
  O2-  O147  1  0.01877520  0.49484465  0.62456776  1
  O2-  O148  1  0.02488559  0.83444041  0.12531346  1
  O2-  O149  1  0.02444149  0.82789887  0.62463224  1
  O2-  O150  1  0.35912634  0.15970497  0.12421934  1
  O2-  O151  1  0.35661292  0.15822946  0.62590907  1
  O2-  O152  1  0.35409968  0.49331065  0.12463906  1
  O2-  O153  1  0.35977408  0.50133091  0.62483100  1
  O2-  O154  1  0.35690613  0.82926159  0.12040942  1
  O2-  O155  1  0.36178040  0.82226778  0.62681620  1
  O2-  O156  1  0.69273774  0.15796733  0.12350562  1
  O2-  O157  1  0.69293128  0.15685952  0.62398042  1
  O2-  O158  1  0.69142685  0.49432472  0.12649672  1
  O2-  O159  1  0.69550891  0.49162303  0.62421580  1
  O2-  O160  1  0.69150267  0.82744239  0.12709393  1
  O2-  O161  1  0.69224795  0.83049377  0.62430016  1
  O2-  O162  1  0.13691140  0.32609777  0.12408038  1
  O2-  O163  1  0.15002570  0.32612684  0.62603944  1
  O2-  O164  1  0.14768534  0.66560217  0.12528677  1
  O2-  O165  1  0.14131630  0.66262964  0.62415997  1
  O2-  O166  1  0.14117857  0.99192795  0.12334923  1
  O2-  O167  1  0.14568716  0.99624960  0.62573154  1
  O2-  O168  1  0.47624477  0.32633438  0.12365535  1
  O2-  O169  1  0.47829292  0.32742287  0.62540473  1
  O2-  O170  1  0.47294742  0.67172270  0.12342621  1
  O2-  O171  1  0.47510719  0.65663435  0.62584977  1
  O2-  O172  1  0.47329866  0.99223773  0.12141765  1
  O2-  O173  1  0.47115065  0.99585560  0.62645472  1
  O2-  O174  1  0.80642390  0.32763030  0.12573162  1
  O2-  O175  1  0.80573499  0.32718631  0.62238490  1
  O2-  O176  1  0.80548270  0.66197043  0.12720382  1
  O2-  O177  1  0.80333738  0.65980236  0.62436973  1
  O2-  O178  1  0.80706609  0.99282399  0.12652054  1
  O2-  O179  1  0.80799670  0.99441161  0.62196000  1
  O2-  O180  1  0.30782872  0.17437568  0.37228431  1
  O2-  O181  1  0.30543932  0.17260886  0.87765011  1
  O2-  O182  1  0.31046615  0.50627355  0.37261691  1
  O2-  O183  1  0.30899123  0.50715988  0.87766452  1
  O2-  O184  1  0.31046987  0.83855619  0.37921580  1
  O2-  O185  1  0.30460992  0.83840676  0.87308936  1
  O2-  O186  1  0.63787690  0.17262554  0.37728629  1
  O2-  O187  1  0.64161932  0.17056338  0.87524676  1
  O2-  O188  1  0.64172584  0.50669600  0.37574727  1
  O2-  O189  1  0.64370690  0.50701264  0.87298934  1
  O2-  O190  1  0.63922294  0.83814181  0.37630737  1
  O2-  O191  1  0.64384847  0.83928166  0.87195902  1
  O2-  O192  1  0.97576592  0.17462788  0.37318702  1
  O2-  O193  1  0.96944335  0.17127457  0.87811576  1
  O2-  O194  1  0.97707908  0.50565731  0.37517015  1
  O2-  O195  1  0.97584082  0.50753123  0.87394681  1
  O2-  O196  1  0.97788607  0.83686707  0.37573912  1
  O2-  O197  1  0.97468275  0.83631085  0.87460696  1
  O2-  O198  1  0.19654049  0.00303140  0.37616395  1
  O2-  O199  1  0.19047919  0.00917763  0.87560935  1
  O2-  O200  1  0.19188396  0.33698651  0.37153950  1
  O2-  O201  1  0.19149953  0.33986694  0.87798007  1
  O2-  O202  1  0.19389367  0.67386591  0.37611027  1
  O2-  O203  1  0.19003665  0.66991306  0.87405393  1
  O2-  O204  1  0.52361053  0.00360839  0.37747219  1
  O2-  O205  1  0.52836781  0.00569877  0.87431439  1
  O2-  O206  1  0.52517691  0.33806381  0.37766001  1
  O2-  O207  1  0.52043884  0.33812175  0.87365082  1
  O2-  O208  1  0.52503038  0.67359396  0.37739989  1
  O2-  O209  1  0.52719193  0.67231962  0.87231364  1
  O2-  O210  1  0.86062176  0.00559000  0.37445022  1
  O2-  O211  1  0.85852528  0.00281590  0.87735656  1
  O2-  O212  1  0.85969351  0.33884372  0.37380774  1
  O2-  O213  1  0.85937837  0.34066675  0.87796723  1
  O2-  O214  1  0.85938220  0.67152318  0.37651154  1
  O2-  O215  1  0.85849805  0.67357366  0.87213868  1
  O2-  O216  1  0.23858062  0.09216599  0.02387152  1
  O2-  O217  1  0.23476042  0.09617951  0.51814921  1
  O2-  O218  1  0.23644939  0.42900185  0.02118499  1
  O2-  O219  1  0.24203971  0.42816876  0.51049443  1
  O2-  O220  1  0.23946097  0.76146232  0.01707442  1
  O2-  O221  1  0.23933805  0.76168631  0.52256011  1
  O2-  O222  1  0.57033913  0.09341027  0.02122544  1
  O2-  O223  1  0.56812074  0.09453193  0.52111540  1
  O2-  O224  1  0.57477439  0.42636832  0.01638544  1
  O2-  O225  1  0.57173257  0.43456385  0.51861095  1
  O2-  O226  1  0.57061475  0.76352817  0.01531382  1
  O2-  O227  1  0.56812166  0.76424469  0.52088467  1
  O2-  O228  1  0.90480990  0.09255055  0.02441500  1
  O2-  O229  1  0.90112170  0.09676120  0.51641826  1
  O2-  O230  1  0.90464119  0.42882247  0.02015699  1
  O2-  O231  1  0.90137060  0.42945079  0.51477339  1
  O2-  O232  1  0.90273398  0.76262110  0.01810714  1
  O2-  O233  1  0.90278814  0.76018432  0.51883202  1
  O2-  O234  1  0.26090047  0.26230000  0.22632546  1
  O2-  O235  1  0.25984970  0.25706697  0.73453798  1
  O2-  O236  1  0.26287794  0.59744362  0.22947609  1
  O2-  O237  1  0.26340942  0.59600110  0.73443573  1
  O2-  O238  1  0.26037998  0.92699647  0.22733581  1
  O2-  O239  1  0.26455886  0.92700018  0.72910037  1
  O2-  O240  1  0.59599519  0.25992611  0.22885918  1
  O2-  O241  1  0.59485204  0.25930309  0.72786435  1
  O2-  O242  1  0.59702343  0.60096696  0.23264025  1
  O2-  O243  1  0.60042109  0.59845989  0.73085114  1
  O2-  O244  1  0.59416563  0.92821383  0.22998961  1
  O2-  O245  1  0.59316790  0.92774675  0.72870184  1
  O2-  O246  1  0.92850907  0.26311542  0.22820883  1
  O2-  O247  1  0.92607278  0.26047160  0.73292037  1
  O2-  O248  1  0.92418020  0.59269126  0.23301490  1
  O2-  O249  1  0.92790598  0.59668611  0.72831508  1
  O2-  O250  1  0.92502608  0.92585985  0.22966996  1
  O2-  O251  1  0.92498612  0.92493109  0.73409849  1
  O2-  O252  1  0.09701217  0.23740472  0.27025109  1
  O2-  O253  1  0.09148714  0.23739551  0.77159280  1
  O2-  O254  1  0.09798135  0.57435727  0.26952822  1
  O2-  O255  1  0.09295543  0.57308795  0.77218925  1
  O2-  O256  1  0.09785043  0.90494231  0.26977923  1
  O2-  O257  1  0.09675239  0.90591046  0.77034295  1
  O2-  O258  1  0.42851684  0.23827460  0.27019920  1
  O2-  O259  1  0.42578412  0.23735613  0.76977167  1
  O2-  O260  1  0.43121802  0.57519176  0.27182024  1
  O2-  O261  1  0.42831411  0.57445105  0.77320589  1
  O2-  O262  1  0.42904473  0.90335028  0.26697701  1
  O2-  O263  1  0.42633206  0.90670181  0.77439199  1
  O2-  O264  1  0.76415046  0.23951218  0.27117323  1
  O2-  O265  1  0.76383843  0.23355109  0.76732787  1
  O2-  O266  1  0.76130315  0.57264155  0.27216943  1
  O2-  O267  1  0.76382659  0.57249200  0.77074268  1
  O2-  O268  1  0.76062174  0.90649779  0.27292758  1
  O2-  O269  1  0.76146285  0.90515364  0.76585015  1
  O2-  O270  1  0.07221480  0.07179499  0.47623082  1
  O2-  O271  1  0.06755099  0.06908305  0.98265745  1
  O2-  O272  1  0.07500478  0.40647295  0.47812664  1
  O2-  O273  1  0.07229932  0.40566278  0.97651071  1
  O2-  O274  1  0.07480647  0.73990419  0.47788323  1
  O2-  O275  1  0.07273918  0.73823259  0.98039853  1
  O2-  O276  1  0.40392384  0.07149550  0.47655252  1
  O2-  O277  1  0.40601925  0.07055689  0.97748060  1
  O2-  O278  1  0.40738802  0.40692297  0.47692017  1
  O2-  O279  1  0.40288876  0.40664925  0.98047672  1
  O2-  O280  1  0.40456795  0.73808861  0.48099763  1
  O2-  O281  1  0.40836467  0.74144914  0.97402539  1
  O2-  O282  1  0.73710580  0.07247128  0.47733098  1
  O2-  O283  1  0.73489680  0.06690519  0.98096310  1
  O2-  O284  1  0.73896237  0.40689502  0.47523996  1
  O2-  O285  1  0.74251615  0.40689979  0.98486813  1
  O2-  O286  1  0.74090547  0.73972692  0.47821683  1
  O2-  O287  1  0.73953400  0.74088465  0.97721075  1
  O2-  O288  1  0.09308012  0.23823420  0.47949233  1
  O2-  O289  1  0.09503991  0.23465263  0.97772867  1
  O2-  O290  1  0.09533692  0.57449393  0.47573933  1
  O2-  O291  1  0.09586185  0.57278271  0.98218013  1
  O2-  O292  1  0.09849531  0.90537163  0.48340684  1
  O2-  O293  1  0.09576964  0.90501850  0.97648226  1
  O2-  O294  1  0.42700433  0.23660568  0.48104070  1
  O2-  O295  1  0.42739742  0.23846101  0.97924301  1
  O2-  O296  1  0.42891213  0.57370964  0.47757408  1
  O2-  O297  1  0.42971096  0.57481252  0.97697314  1
  O2-  O298  1  0.42895365  0.90456838  0.48201830  1
  O2-  O299  1  0.42724612  0.90580270  0.97528966  1
  O2-  O300  1  0.76094312  0.23957005  0.47621834  1
  O2-  O301  1  0.76780834  0.23383993  0.98355400  1
  O2-  O302  1  0.76328861  0.57132572  0.47834787  1
  O2-  O303  1  0.76194327  0.57338584  0.97912238  1
  O2-  O304  1  0.75887101  0.90688143  0.47806309  1
  O2-  O305  1  0.76321426  0.90381310  0.98334691  1
  O2-  O306  1  0.07195844  0.06831870  0.27256131  1
  O2-  O307  1  0.06868764  0.07299317  0.77099602  1
  O2-  O308  1  0.07377738  0.40533467  0.27273850  1
  O2-  O309  1  0.07378904  0.40619211  0.77213439  1
  O2-  O310  1  0.07508956  0.73946734  0.27245104  1
  O2-  O311  1  0.07187711  0.73831320  0.76901696  1
  O2-  O312  1  0.40314101  0.06932191  0.27029549  1
  O2-  O313  1  0.40626618  0.07393125  0.77537737  1
  O2-  O314  1  0.40513201  0.40506121  0.26976614  1
  O2-  O315  1  0.40660067  0.40795282  0.77297258  1
  O2-  O316  1  0.40680177  0.74055269  0.27191065  1
  O2-  O317  1  0.40503688  0.73900728  0.77166783  1
  O2-  O318  1  0.73718115  0.07189798  0.27222046  1
  O2-  O319  1  0.73433559  0.06849878  0.76794601  1
  O2-  O320  1  0.73975853  0.40424267  0.27046802  1
  O2-  O321  1  0.74237519  0.40863025  0.76917224  1
  O2-  O322  1  0.74084488  0.74072530  0.27508013  1
  O2-  O323  1  0.73946882  0.74080994  0.77002273  1
  O2-  O324  1  0.23497461  0.09416125  0.22792758  1
  O2-  O325  1  0.23787579  0.09354885  0.73169633  1
  O2-  O326  1  0.23582037  0.42709061  0.22873955  1
  O2-  O327  1  0.24151318  0.42856535  0.73932802  1
  O2-  O328  1  0.23866367  0.76439051  0.23299013  1
  O2-  O329  1  0.24013745  0.75924797  0.72755467  1
  O2-  O330  1  0.56823832  0.09193252  0.22965581  1
  O2-  O331  1  0.57067199  0.09585757  0.72875736  1
  O2-  O332  1  0.57437829  0.42619410  0.23303597  1
  O2-  O333  1  0.57220656  0.43354940  0.73170215  1
  O2-  O334  1  0.56975091  0.76345063  0.23239790  1
  O2-  O335  1  0.56886151  0.76410234  0.73001978  1
  O2-  O336  1  0.90287417  0.09401445  0.22959329  1
  O2-  O337  1  0.90179724  0.09486004  0.73191505  1
  O2-  O338  1  0.90196566  0.42829768  0.23075177  1
  O2-  O339  1  0.90393938  0.43050794  0.73489801  1
  O2-  O340  1  0.90286285  0.76194515  0.23379427  1
  O2-  O341  1  0.90216185  0.76076064  0.72944783  1
  O2-  O342  1  0.26008964  0.26325819  0.02277311  1
  O2-  O343  1  0.26048909  0.25672421  0.51583468  1
  O2-  O344  1  0.26278117  0.59658958  0.02056957  1
  O2-  O345  1  0.26470371  0.59671593  0.51534058  1
  O2-  O346  1  0.26166400  0.92814077  0.01904048  1
  O2-  O347  1  0.26237298  0.92567694  0.52584434  1
  O2-  O348  1  0.59595632  0.25721814  0.02221606  1
  O2-  O349  1  0.59670585  0.26282213  0.52255567  1
  O2-  O350  1  0.59719086  0.59973521  0.01719808  1
  O2-  O351  1  0.60046624  0.59953284  0.51840821  1
  O2-  O352  1  0.59278523  0.92536763  0.02235833  1
  O2-  O353  1  0.59414556  0.93166615  0.51900616  1
  O2-  O354  1  0.93151325  0.26301505  0.02414599  1
  O2-  O355  1  0.92420759  0.25928421  0.51584187  1
  O2-  O356  1  0.92490607  0.59250275  0.01777358  1
  O2-  O357  1  0.92794131  0.59665247  0.52093077  1
  O2-  O358  1  0.92701955  0.92819148  0.01959403  1
  O2-  O359  1  0.92282750  0.92299530  0.51741779  1
