# generated using pymatgen
data_Sr7Ca15Pr50Mn72O216
_symmetry_space_group_name_H-M   'P 1'
_cell_length_a   16.56042845
_cell_length_b   16.60486299
_cell_length_c   15.59072145
_cell_angle_alpha   90.00040098
_cell_angle_beta   89.99898798
_cell_angle_gamma   89.99798556
_symmetry_Int_Tables_number   1
_chemical_formula_structural   Sr7Ca15Pr50Mn72O216
_chemical_formula_sum   'Sr7 Ca15 Pr50 Mn72 O216'
_cell_volume   4287.19341727
_cell_formula_units_Z   1
loop_
 _symmetry_equiv_pos_site_id
 _symmetry_equiv_pos_as_xyz
  1  'x, y, z'
loop_
 _atom_type_symbol
 _atom_type_oxidation_number
  Sr2+  2.0
  Ca2+  2.0
  Pr3+  3.0
  Mn3.30+  3.3
  O2-  -2.0
loop_
 _atom_site_type_symbol
 _atom_site_label
 _atom_site_symmetry_multiplicity
 _atom_site_fract_x
 _atom_site_fract_y
 _atom_site_fract_z
 _atom_site_occupancy
  Sr2+  Sr0  1  -0.00101817  0.34255858  0.12826514  1
  Sr2+  Sr1  1  0.66895891  0.67397530  0.12820667  1
  Sr2+  Sr2  1  0.99939931  0.32752003  0.37190275  1
  Sr2+  Sr3  1  0.16349659  0.82386401  0.37527952  1
  Sr2+  Sr4  1  0.83682109  0.50766468  0.12980254  1
  Sr2+  Sr5  1  0.66940967  0.65670831  0.37630097  1
  Sr2+  Sr6  1  0.66296280  0.01141598  0.12650954  1
  Ca2+  Ca7  1  0.50225594  0.18082892  0.12788075  1
  Ca2+  Ca8  1  0.49675061  0.81957118  0.37269286  1
  Ca2+  Ca9  1  0.83234912  0.48777354  0.37285327  1
  Ca2+  Ca10  1  -0.00249166  0.68285602  0.62163179  1
  Ca2+  Ca11  1  0.33699901  0.98286067  0.37314713  1
  Ca2+  Ca12  1  0.50468769  0.18256397  0.62220887  1
  Ca2+  Ca13  1  0.49409449  0.15109677  0.37276512  1
  Ca2+  Ca14  1  1.00323226  0.98578151  0.37313977  1
  Ca2+  Ca15  1  0.33019834  0.34577797  0.12655163  1
  Ca2+  Ca16  1  -0.00489726  0.01296070  0.12952879  1
  Ca2+  Ca17  1  1.00277771  0.65323369  0.37525552  1
  Ca2+  Ca18  1  0.66414251  0.68217262  0.62185777  1
  Ca2+  Ca19  1  1.00252311  0.98649319  0.87587098  1
  Ca2+  Ca20  1  0.66318015  0.34703694  0.62302902  1
  Ca2+  Ca21  1  0.16792191  0.18347385  0.12747538  1
  Pr3+  Pr22  1  0.83330499  0.82112378  0.37502034  1
  Pr3+  Pr23  1  -0.00282647  0.34526188  0.62259951  1
  Pr3+  Pr24  1  0.83596245  0.51468344  0.62201246  1
  Pr3+  Pr25  1  0.83204008  0.15587071  0.37271921  1
  Pr3+  Pr26  1  0.33006964  0.67962579  0.12612479  1
  Pr3+  Pr27  1  1.00202614  0.65342758  0.87257604  1
  Pr3+  Pr28  1  0.83162919  0.15220675  0.87693870  1
  Pr3+  Pr29  1  0.33897114  0.31869893  0.37334964  1
  Pr3+  Pr30  1  0.16852115  0.51427079  0.62316579  1
  Pr3+  Pr31  1  0.33121650  0.68171370  0.62347428  1
  Pr3+  Pr32  1  0.83606274  0.84523611  0.12780038  1
  Pr3+  Pr33  1  0.32802094  0.01539390  0.12861239  1
  Pr3+  Pr34  1  0.66057020  0.01376550  0.62363098  1
  Pr3+  Pr35  1  0.83359671  0.17921218  0.62341191  1
  Pr3+  Pr36  1  0.50013883  0.48813406  0.37460525  1
  Pr3+  Pr37  1  0.83140624  0.48671885  0.87634034  1
  Pr3+  Pr38  1  0.49892624  0.82140933  0.87662798  1
  Pr3+  Pr39  1  0.50465237  0.51055077  0.12598447  1
  Pr3+  Pr40  1  0.67028915  0.32180954  0.37577341  1
  Pr3+  Pr41  1  0.66556811  0.98781829  0.37294916  1
  Pr3+  Pr42  1  0.83556329  0.17774751  0.12641447  1
  Pr3+  Pr43  1  0.83204277  0.82194099  0.87487150  1
  Pr3+  Pr44  1  0.33675680  0.65321379  0.87472896  1
  Pr3+  Pr45  1  0.50450311  0.84567916  0.12909092  1
  Pr3+  Pr46  1  0.33436047  0.98792534  0.87675127  1
  Pr3+  Pr47  1  0.66514929  0.34454367  0.12616440  1
  Pr3+  Pr48  1  0.67200953  0.65434204  0.87355754  1
  Pr3+  Pr49  1  -0.00501899  0.67555272  0.12824320  1
  Pr3+  Pr50  1  0.16118202  0.82229653  0.87532992  1
  Pr3+  Pr51  1  0.66928162  0.98756913  0.87712533  1
  Pr3+  Pr52  1  0.33794574  0.65740582  0.37509423  1
  Pr3+  Pr53  1  0.50835237  0.51413566  0.62390351  1
  Pr3+  Pr54  1  0.33036079  0.01313567  0.62132776  1
  Pr3+  Pr55  1  0.83362592  0.84396829  0.62209804  1
  Pr3+  Pr56  1  0.16425313  0.48890191  0.37524036  1
  Pr3+  Pr57  1  -0.00213278  0.01090222  0.62135239  1
  Pr3+  Pr58  1  0.16223433  0.15226008  0.87806989  1
  Pr3+  Pr59  1  0.16645425  0.84723886  0.12734910  1
  Pr3+  Pr60  1  0.33674442  0.31884494  0.87670723  1
  Pr3+  Pr61  1  0.16933859  0.17816941  0.62302394  1
  Pr3+  Pr62  1  0.33295332  0.34483958  0.62387090  1
  Pr3+  Pr63  1  0.16718915  0.50862862  0.12755433  1
  Pr3+  Pr64  1  0.66909829  0.31904426  0.87463301  1
  Pr3+  Pr65  1  0.16453563  0.48524651  0.87495455  1
  Pr3+  Pr66  1  0.49674055  0.15392980  0.87620121  1
  Pr3+  Pr67  1  0.16236420  0.15376156  0.37186311  1
  Pr3+  Pr68  1  0.16806243  0.84751825  0.62283047  1
  Pr3+  Pr69  1  0.50370568  0.84583434  0.62076970  1
  Pr3+  Pr70  1  0.49915191  0.48532155  0.87510577  1
  Pr3+  Pr71  1  1.00291520  0.31991386  0.87780430  1
  Mn3.30+  Mn72  1  0.16275586  0.00206209  0.00384826  1
  Mn3.30+  Mn73  1  0.16618412  0.00027051  0.49544216  1
  Mn3.30+  Mn74  1  0.16905828  0.33210067  0.00301102  1
  Mn3.30+  Mn75  1  0.16717681  0.33313359  0.49871678  1
  Mn3.30+  Mn76  1  0.16597478  0.66615629  0.00021328  1
  Mn3.30+  Mn77  1  0.16432756  0.66868607  0.49952442  1
  Mn3.30+  Mn78  1  0.49904091  0.00157417  0.00243217  1
  Mn3.30+  Mn79  1  0.49689435  0.00148215  0.49702011  1
  Mn3.30+  Mn80  1  0.49844782  0.33109193  0.00288738  1
  Mn3.30+  Mn81  1  0.50261760  0.33102292  0.49979293  1
  Mn3.30+  Mn82  1  0.50104396  0.66596843  0.00041301  1
  Mn3.30+  Mn83  1  0.50254305  0.66753374  0.49915182  1
  Mn3.30+  Mn84  1  0.83613219  -0.00081545  0.00174929  1
  Mn3.30+  Mn85  1  0.83246933  0.00036824  0.49758223  1
  Mn3.30+  Mn86  1  0.83487879  0.33223191  0.00018268  1
  Mn3.30+  Mn87  1  0.83137322  0.33453099  0.50012923  1
  Mn3.30+  Mn88  1  0.83451521  0.66646574  0.00110051  1
  Mn3.30+  Mn89  1  0.83511759  0.66582428  0.49925109  1
  Mn3.30+  Mn90  1  0.00097847  0.16539122  0.24950374  1
  Mn3.30+  Mn91  1  -0.00031362  0.16480127  0.75000092  1
  Mn3.30+  Mn92  1  -0.00041723  0.50054048  0.25339015  1
  Mn3.30+  Mn93  1  -0.00013018  0.50065892  0.74778429  1
  Mn3.30+  Mn94  1  0.00114858  0.83375748  0.25173609  1
  Mn3.30+  Mn95  1  -0.00089456  0.83428653  0.74867529  1
  Mn3.30+  Mn96  1  0.33333188  0.16677919  0.24929160  1
  Mn3.30+  Mn97  1  0.33432014  0.16612210  0.74874040  1
  Mn3.30+  Mn98  1  0.33425530  0.49915124  0.24957065  1
  Mn3.30+  Mn99  1  0.33507073  0.49948171  0.74887581  1
  Mn3.30+  Mn100  1  0.33412534  0.83456840  0.25141594  1
  Mn3.30+  Mn101  1  0.33319801  0.83450577  0.75017946  1
  Mn3.30+  Mn102  1  0.66136791  0.16589801  0.25102382  1
  Mn3.30+  Mn103  1  0.66461812  0.16733431  0.74837429  1
  Mn3.30+  Mn104  1  0.66871532  0.50040001  0.25171842  1
  Mn3.30+  Mn105  1  0.66817155  0.49986460  0.74795310  1
  Mn3.30+  Mn106  1  0.66579857  0.83255707  0.25137386  1
  Mn3.30+  Mn107  1  0.66619371  0.83318673  0.74866543  1
  Mn3.30+  Mn108  1  0.16396261  0.00159630  0.24988285  1
  Mn3.30+  Mn109  1  0.16510088  0.00056787  0.75055149  1
  Mn3.30+  Mn110  1  0.16950026  0.33282289  0.24901393  1
  Mn3.30+  Mn111  1  0.16705079  0.33195634  0.74960623  1
  Mn3.30+  Mn112  1  0.16491667  0.66754737  0.25198394  1
  Mn3.30+  Mn113  1  0.16623165  0.66759221  0.74824612  1
  Mn3.30+  Mn114  1  0.49691072  0.00171011  0.25136958  1
  Mn3.30+  Mn115  1  0.49875595  0.00158214  0.74906399  1
  Mn3.30+  Mn116  1  0.49887909  0.33026429  0.24933067  1
  Mn3.30+  Mn117  1  0.50221995  0.33163749  0.74812540  1
  Mn3.30+  Mn118  1  0.50092254  0.66664501  0.25073183  1
  Mn3.30+  Mn119  1  0.50286382  0.66715639  0.74919764  1
  Mn3.30+  Mn120  1  0.83460921  -0.00001859  0.25054268  1
  Mn3.30+  Mn121  1  0.83342760  -0.00033313  0.74960952  1
  Mn3.30+  Mn122  1  0.83390294  0.33347151  0.25213702  1
  Mn3.30+  Mn123  1  0.83196813  0.33298881  0.74785845  1
  Mn3.30+  Mn124  1  0.83472828  0.66489313  0.25344041  1
  Mn3.30+  Mn125  1  0.83406055  0.66749304  0.74618862  1
  Mn3.30+  Mn126  1  0.00074024  0.16338620  0.00310131  1
  Mn3.30+  Mn127  1  0.00003004  0.16673902  0.49711329  1
  Mn3.30+  Mn128  1  -0.00018632  0.49909030  0.00044213  1
  Mn3.30+  Mn129  1  -0.00046499  0.50294128  0.49944521  1
  Mn3.30+  Mn130  1  -0.00052542  0.83524181  0.00055636  1
  Mn3.30+  Mn131  1  0.00067868  0.83225456  0.49893676  1
  Mn3.30+  Mn132  1  0.33166822  0.16802993  0.00471901  1
  Mn3.30+  Mn133  1  0.33672004  0.16507970  0.49769940  1
  Mn3.30+  Mn134  1  0.33387003  0.49855745  0.00117510  1
  Mn3.30+  Mn135  1  0.33512131  0.50033762  0.50044098  1
  Mn3.30+  Mn136  1  0.33216458  0.83430976  0.00123603  1
  Mn3.30+  Mn137  1  0.33514326  0.83475989  0.49678945  1
  Mn3.30+  Mn138  1  0.66422889  0.16570372  0.00240607  1
  Mn3.30+  Mn139  1  0.66217456  0.16719869  0.49850688  1
  Mn3.30+  Mn140  1  0.66714715  0.50005080  0.00045543  1
  Mn3.30+  Mn141  1  0.66992571  0.50024731  0.49995694  1
  Mn3.30+  Mn142  1  0.66657688  0.83265504  0.00226385  1
  Mn3.30+  Mn143  1  0.66581549  0.83248833  0.49743223  1
  O2-  O144  1  0.02489449  0.15751229  0.12493019  1
  O2-  O145  1  0.02524284  0.15924938  0.62306815  1
  O2-  O146  1  0.02238417  0.50282910  0.12575948  1
  O2-  O147  1  0.02606944  0.49148752  0.62590657  1
  O2-  O148  1  0.02415497  0.82144097  0.12477362  1
  O2-  O149  1  0.02464809  0.82831203  0.62402677  1
  O2-  O150  1  0.36185617  0.15907535  0.12639426  1
  O2-  O151  1  0.36116300  0.15943672  0.62157833  1
  O2-  O152  1  0.36067483  0.49386850  0.12538827  1
  O2-  O153  1  0.36253731  0.49356434  0.62546910  1
  O2-  O154  1  0.35893962  0.82885489  0.12399955  1
  O2-  O155  1  0.35933070  0.83059659  0.62341183  1
  O2-  O156  1  0.69104633  0.16674317  0.12450070  1
  O2-  O157  1  0.69132725  0.15861817  0.62317141  1
  O2-  O158  1  0.68513364  0.49379373  0.12622024  1
  O2-  O159  1  0.69220135  0.49051973  0.62635471  1
  O2-  O160  1  0.68975614  0.83146096  0.12654035  1
  O2-  O161  1  0.68830836  0.83243338  0.62376231  1
  O2-  O162  1  0.14833920  0.33449456  0.12514757  1
  O2-  O163  1  0.14204093  0.32605769  0.62499226  1
  O2-  O164  1  0.14016031  0.65859458  0.12496839  1
  O2-  O165  1  0.14024015  0.66189141  0.62560410  1
  O2-  O166  1  0.13702732  0.99346870  0.12531504  1
  O2-  O167  1  0.14312152  0.99836154  0.62259992  1
  O2-  O168  1  0.47265597  0.32749895  0.12510420  1
  O2-  O169  1  0.47514810  0.32740388  0.62455795  1
  O2-  O170  1  0.47421654  0.65870043  0.12382896  1
  O2-  O171  1  0.47535037  0.66175994  0.62601435  1
  O2-  O172  1  0.47223714  0.99104259  0.12596338  1
  O2-  O173  1  0.47300811  0.99099508  0.62210591  1
  O2-  O174  1  0.81001801  0.32760823  0.12586723  1
  O2-  O175  1  0.80543135  0.32635880  0.62637325  1
  O2-  O176  1  0.81959070  0.66551090  0.12584009  1
  O2-  O177  1  0.80511817  0.66232285  0.62432983  1
  O2-  O178  1  0.81137230  0.99477700  0.12601863  1
  O2-  O179  1  0.80479816  0.99451137  0.62170448  1
  O2-  O180  1  0.30585949  0.17409286  0.37371671  1
  O2-  O181  1  0.30685835  0.17086673  0.87820306  1
  O2-  O182  1  0.30942384  0.50737590  0.37615107  1
  O2-  O183  1  0.30861985  0.50541055  0.87274658  1
  O2-  O184  1  0.31303964  0.83217113  0.37486666  1
  O2-  O185  1  0.30555665  0.83921149  0.87749900  1
  O2-  O186  1  0.63595840  0.17454728  0.37599509  1
  O2-  O187  1  0.64078603  0.17082568  0.87585394  1
  O2-  O188  1  0.64334624  0.49964912  0.37534991  1
  O2-  O189  1  0.64330825  0.50631042  0.87265924  1
  O2-  O190  1  0.64009746  0.83888637  0.37510397  1
  O2-  O191  1  0.64329791  0.83857722  0.87468659  1
  O2-  O192  1  0.97614016  0.17311123  0.37593453  1
  O2-  O193  1  0.97508340  0.17368398  0.87539577  1
  O2-  O194  1  0.97650683  0.50744968  0.37914332  1
  O2-  O195  1  0.97593989  0.50506190  0.87052783  1
  O2-  O196  1  0.97627322  0.84265109  0.37631298  1
  O2-  O197  1  0.97567729  0.84181583  0.87480592  1
  O2-  O198  1  0.19425915  0.00643528  0.37378828  1
  O2-  O199  1  0.19154017  0.00463711  0.87825594  1
  O2-  O200  1  0.19415010  0.33929978  0.37474450  1
  O2-  O201  1  0.19228197  0.33637526  0.87514029  1
  O2-  O202  1  0.19432846  0.66714288  0.37603637  1
  O2-  O203  1  0.19327632  0.67329530  0.87353092  1
  O2-  O204  1  0.52367989  0.01002911  0.37490309  1
  O2-  O205  1  0.52457296  0.00702873  0.87668848  1
  O2-  O206  1  0.52632195  0.34114547  0.37513982  1
  O2-  O207  1  0.52489612  0.33675037  0.87450406  1
  O2-  O208  1  0.51752557  0.67085449  0.37582264  1
  O2-  O209  1  0.52717913  0.67306637  0.87401735  1
  O2-  O210  1  0.86034191  0.00732464  0.37568162  1
  O2-  O211  1  0.86009777  0.00466033  0.87633165  1
  O2-  O212  1  0.84934213  0.33498441  0.37714227  1
  O2-  O213  1  0.85888069  0.33729470  0.87180268  1
  O2-  O214  1  0.86184455  0.67465179  0.37775466  1
  O2-  O215  1  0.85858587  0.67335847  0.87216136  1
  O2-  O216  1  0.23475789  0.09794884  0.02307495  1
  O2-  O217  1  0.23789956  0.09609458  0.51967785  1
  O2-  O218  1  0.23847619  0.43172760  0.01602996  1
  O2-  O219  1  0.24146487  0.42791006  0.52190221  1
  O2-  O220  1  0.23716377  0.76035507  0.02216410  1
  O2-  O221  1  0.23904781  0.76019830  0.52321601  1
  O2-  O222  1  0.56612610  0.09830595  0.01826400  1
  O2-  O223  1  0.56950412  0.09473071  0.52331040  1
  O2-  O224  1  0.56962770  0.42531978  0.01850452  1
  O2-  O225  1  0.57025385  0.42983088  0.51776565  1
  O2-  O226  1  0.56798652  0.76148155  0.01755380  1
  O2-  O227  1  0.57211179  0.76067681  0.51961645  1
  O2-  O228  1  0.90236731  0.09577093  0.01867643  1
  O2-  O229  1  0.90356371  0.09371345  0.52103736  1
  O2-  O230  1  0.90751215  0.42770375  0.01162460  1
  O2-  O231  1  0.90809094  0.42662020  0.52278336  1
  O2-  O232  1  0.90471841  0.76363247  0.01708342  1
  O2-  O233  1  0.90406019  0.76275128  0.51939829  1
  O2-  O234  1  0.26726799  0.26456065  0.23176934  1
  O2-  O235  1  0.26303579  0.26026006  0.72847007  1
  O2-  O236  1  0.26071183  0.59425320  0.22831565  1
  O2-  O237  1  0.26361998  0.59404869  0.72797648  1
  O2-  O238  1  0.25787557  0.92860513  0.22868710  1
  O2-  O239  1  0.26161179  0.92890489  0.72976772  1
  O2-  O240  1  0.59511824  0.26322642  0.22982145  1
  O2-  O241  1  0.59856381  0.26544131  0.73190353  1
  O2-  O242  1  0.58929943  0.58884624  0.23308345  1
  O2-  O243  1  0.60011064  0.59613966  0.72788261  1
  O2-  O244  1  0.59020733  0.92824007  0.23433523  1
  O2-  O245  1  0.59323063  0.93034075  0.73103879  1
  O2-  O246  1  0.92225203  0.25453093  0.23163479  1
  O2-  O247  1  0.92878147  0.26066812  0.72855952  1
  O2-  O248  1  0.93094711  0.59616855  0.23604005  1
  O2-  O249  1  0.92931670  0.59797824  0.72722565  1
  O2-  O250  1  0.92703502  0.92501405  0.22883988  1
  O2-  O251  1  0.92634304  0.92686791  0.72476017  1
  O2-  O252  1  0.09832070  0.24015697  0.26518352  1
  O2-  O253  1  0.09554668  0.23736699  0.77030293  1
  O2-  O254  1  0.09782631  0.57162316  0.26957054  1
  O2-  O255  1  0.09743234  0.57171323  0.77039158  1
  O2-  O256  1  0.09404792  0.90446432  0.26431759  1
  O2-  O257  1  0.09748948  0.90478870  0.76557313  1
  O2-  O258  1  0.42872307  0.23730763  0.27399422  1
  O2-  O259  1  0.42673991  0.23873834  0.77202425  1
  O2-  O260  1  0.42636917  0.57153724  0.26999971  1
  O2-  O261  1  0.43121899  0.57283302  0.77140077  1
  O2-  O262  1  0.42938197  0.90264474  0.26884829  1
  O2-  O263  1  0.42740754  0.90587290  0.77241739  1
  O2-  O264  1  0.75712343  0.23831938  0.26996055  1
  O2-  O265  1  0.76252961  0.23729610  0.77154516  1
  O2-  O266  1  0.76351153  0.57211527  0.26963742  1
  O2-  O267  1  0.76468241  0.57145815  0.77012568  1
  O2-  O268  1  0.76149147  0.90837117  0.27191041  1
  O2-  O269  1  0.76084663  0.90666189  0.77062022  1
  O2-  O270  1  0.07148933  0.07066069  0.47756517  1
  O2-  O271  1  0.07050937  0.07123992  0.97437053  1
  O2-  O272  1  0.07487459  0.40878065  0.48322352  1
  O2-  O273  1  0.07519006  0.40629565  0.97823188  1
  O2-  O274  1  0.07009348  0.73637413  0.48068509  1
  O2-  O275  1  0.07082704  0.73903584  0.97693748  1
  O2-  O276  1  0.39860869  0.06586618  0.47914308  1
  O2-  O277  1  0.40178987  0.07166255  0.98049343  1
  O2-  O278  1  0.40722367  0.40333102  0.48008222  1
  O2-  O279  1  0.40727858  0.40602308  0.97616187  1
  O2-  O280  1  0.40230170  0.73688826  0.48582322  1
  O2-  O281  1  0.40653889  0.73647776  0.97871888  1
  O2-  O282  1  0.73551446  0.07334886  0.47700440  1
  O2-  O283  1  0.73903531  0.07317371  0.97849399  1
  O2-  O284  1  0.73762386  0.40468833  0.48264078  1
  O2-  O285  1  0.73961994  0.40499951  0.97949260  1
  O2-  O286  1  0.74448631  0.74239865  0.48193760  1
  O2-  O287  1  0.74167568  0.73957488  0.97824858  1
  O2-  O288  1  0.09804516  0.23689615  0.48319690  1
  O2-  O289  1  0.09320024  0.23815665  0.98062239  1
  O2-  O290  1  0.09893094  0.57017417  0.48413519  1
  O2-  O291  1  0.09583798  0.57149916  0.97732139  1
  O2-  O292  1  0.09356783  0.90619163  0.48735219  1
  O2-  O293  1  0.09648693  0.90212155  0.98316623  1
  O2-  O294  1  0.42887383  0.23709601  0.47603765  1
  O2-  O295  1  0.42752517  0.23911396  0.97710882  1
  O2-  O296  1  0.42961183  0.57180703  0.48130702  1
  O2-  O297  1  0.42814454  0.57198783  0.97773473  1
  O2-  O298  1  0.43212736  0.90204295  0.47911203  1
  O2-  O299  1  0.42672114  0.90750624  0.97780681  1
  O2-  O300  1  0.75922754  0.23583652  0.47977077  1
  O2-  O301  1  0.76005401  0.23844100  0.97889678  1
  O2-  O302  1  0.76881944  0.56800827  0.48254839  1
  O2-  O303  1  0.76239052  0.57547764  0.97747939  1
  O2-  O304  1  0.75968805  0.90744335  0.47676479  1
  O2-  O305  1  0.76287008  0.90741874  0.97996905  1
  O2-  O306  1  0.07160451  0.07172602  0.27520704  1
  O2-  O307  1  0.07017646  0.07035701  0.77045480  1
  O2-  O308  1  0.07953901  0.41153817  0.26841800  1
  O2-  O309  1  0.07239475  0.40352131  0.77063840  1
  O2-  O310  1  0.06952253  0.73526934  0.26823393  1
  O2-  O311  1  0.07193781  0.74170572  0.77268221  1
  O2-  O312  1  0.39767122  0.06704575  0.26868847  1
  O2-  O313  1  0.40289295  0.07105019  0.77127308  1
  O2-  O314  1  0.40890743  0.40600952  0.27312463  1
  O2-  O315  1  0.40566551  0.40413674  0.77048519  1
  O2-  O316  1  0.40373936  0.73517758  0.26367874  1
  O2-  O317  1  0.40378208  0.73988917  0.77104797  1
  O2-  O318  1  0.73701752  0.07516666  0.27302247  1
  O2-  O319  1  0.73713819  0.07163974  0.77054002  1
  O2-  O320  1  0.73723049  0.40363812  0.26528658  1
  O2-  O321  1  0.73959996  0.40689434  0.77457184  1
  O2-  O322  1  0.74582901  0.74217862  0.26979398  1
  O2-  O323  1  0.73995332  0.73943942  0.77017854  1
  O2-  O324  1  0.23503383  0.09850556  0.22726091  1
  O2-  O325  1  0.23774418  0.09480173  0.73070167  1
  O2-  O326  1  0.24137073  0.43010808  0.23241759  1
  O2-  O327  1  0.23841559  0.42676894  0.72833303  1
  O2-  O328  1  0.23917591  0.75938429  0.22693453  1
  O2-  O329  1  0.23911417  0.76206248  0.72791284  1
  O2-  O330  1  0.56689690  0.09707436  0.23086526  1
  O2-  O331  1  0.56851777  0.09661600  0.72840840  1
  O2-  O332  1  0.57127296  0.42487745  0.22999831  1
  O2-  O333  1  0.57008403  0.43161852  0.73348001  1
  O2-  O334  1  0.57033202  0.75901106  0.23166811  1
  O2-  O335  1  0.56943945  0.76455322  0.73193316  1
  O2-  O336  1  0.90182319  0.09394909  0.23223386  1
  O2-  O337  1  0.90285788  0.09402975  0.72790815  1
  O2-  O338  1  0.90968027  0.42506230  0.24013314  1
  O2-  O339  1  0.90404123  0.42700534  0.72766347  1
  O2-  O340  1  0.90674511  0.76271275  0.23291940  1
  O2-  O341  1  0.90158460  0.76388157  0.73099476  1
  O2-  O342  1  0.26609978  0.26474019  0.01959079  1
  O2-  O343  1  0.26473727  0.26039987  0.52056461  1
  O2-  O344  1  0.26260254  0.59459611  0.01969965  1
  O2-  O345  1  0.26131533  0.59562858  0.52258312  1
  O2-  O346  1  0.25773674  0.93158870  0.02255921  1
  O2-  O347  1  0.26044382  0.92691575  0.52018240  1
  O2-  O348  1  0.59580850  0.26380192  0.01720325  1
  O2-  O349  1  0.59761359  0.26492540  0.52068619  1
  O2-  O350  1  0.59154936  0.59258565  0.01648422  1
  O2-  O351  1  0.59798223  0.59264893  0.52234257  1
  O2-  O352  1  0.59020577  0.92676132  0.01633980  1
  O2-  O353  1  0.59318919  0.93106117  0.51829829  1
  O2-  O354  1  0.92661542  0.25698762  0.01759467  1
  O2-  O355  1  0.92428365  0.25981949  0.52300539  1
  O2-  O356  1  0.93134419  0.59840044  0.01155074  1
  O2-  O357  1  0.92951450  0.59521804  0.52684721  1
  O2-  O358  1  0.92891948  0.92641843  0.02558592  1
  O2-  O359  1  0.92477906  0.92518325  0.52241438  1
