# generated using pymatgen
data_Sr7Ca15Pr50Mn72O216
_symmetry_space_group_name_H-M   'P 1'
_cell_length_a   16.55966563
_cell_length_b   16.60542025
_cell_length_c   15.59313506
_cell_angle_alpha   90.00636055
_cell_angle_beta   89.99761326
_cell_angle_gamma   90.00402065
_symmetry_Int_Tables_number   1
_chemical_formula_structural   Sr7Ca15Pr50Mn72O216
_chemical_formula_sum   'Sr7 Ca15 Pr50 Mn72 O216'
_cell_volume   4287.80346562
_cell_formula_units_Z   1
loop_
 _symmetry_equiv_pos_site_id
 _symmetry_equiv_pos_as_xyz
  1  'x, y, z'
loop_
 _atom_type_symbol
 _atom_type_oxidation_number
  Sr2+  2.0
  Ca2+  2.0
  Pr3+  3.0
  Mn3.30+  3.3
  O2-  -2.0
loop_
 _atom_site_type_symbol
 _atom_site_label
 _atom_site_symmetry_multiplicity
 _atom_site_fract_x
 _atom_site_fract_y
 _atom_site_fract_z
 _atom_site_occupancy
  Sr2+  Sr0  1  0.16605411  0.15621529  0.37426709  1
  Sr2+  Sr1  1  0.83683485  0.17927747  0.62548539  1
  Sr2+  Sr2  1  0.49843867  0.82335986  0.37433984  1
  Sr2+  Sr3  1  0.33350994  0.32373879  0.37728880  1
  Sr2+  Sr4  1  0.33191852  0.66077951  0.37485553  1
  Sr2+  Sr5  1  0.33717334  0.98790540  0.87691563  1
  Sr2+  Sr6  1  0.83049538  0.48818985  0.37453491  1
  Ca2+  Ca7  1  0.33060912  0.01282440  0.12403078  1
  Ca2+  Ca8  1  0.83124368  0.81898601  0.87757154  1
  Ca2+  Ca9  1  1.00184057  0.65509918  0.87714509  1
  Ca2+  Ca10  1  -0.00433485  0.68656174  0.12314850  1
  Ca2+  Ca11  1  0.49565274  0.14865132  0.87513097  1
  Ca2+  Ca12  1  -0.00481009  0.34756856  0.62359747  1
  Ca2+  Ca13  1  0.49668238  0.82090777  0.87603615  1
  Ca2+  Ca14  1  0.66413539  0.01259040  0.12468193  1
  Ca2+  Ca15  1  0.83771434  0.84743467  0.62652771  1
  Ca2+  Ca16  1  0.16411097  0.82191793  0.37024200  1
  Ca2+  Ca17  1  0.83688285  0.84827343  0.12323763  1
  Ca2+  Ca18  1  0.67063326  0.31881321  0.37623051  1
  Ca2+  Ca19  1  0.17115997  0.84946730  0.12401785  1
  Ca2+  Ca20  1  0.16075711  0.81718729  0.87877688  1
  Ca2+  Ca21  1  0.32927875  0.34876690  0.62265338  1
  Pr3+  Pr22  1  0.83135549  0.15203446  0.87330111  1
  Pr3+  Pr23  1  0.16537228  0.15135880  0.87521977  1
  Pr3+  Pr24  1  0.66962443  0.65465537  0.37391084  1
  Pr3+  Pr25  1  0.49593792  0.48892935  0.87522781  1
  Pr3+  Pr26  1  0.16713254  0.51326290  0.62442205  1
  Pr3+  Pr27  1  0.16858188  0.84514098  0.62601479  1
  Pr3+  Pr28  1  0.83102312  0.82150804  0.37364043  1
  Pr3+  Pr29  1  0.66910546  0.98444329  0.87693533  1
  Pr3+  Pr30  1  0.16385751  0.48812917  0.37526403  1
  Pr3+  Pr31  1  0.66551031  0.67985467  0.12496066  1
  Pr3+  Pr32  1  0.33163011  0.01144092  0.62613042  1
  Pr3+  Pr33  1  0.83806173  0.51060294  0.62515186  1
  Pr3+  Pr34  1  0.50124101  0.51346266  0.12609168  1
  Pr3+  Pr35  1  0.50227592  0.84845001  0.12384755  1
  Pr3+  Pr36  1  0.66984162  0.98760440  0.37321513  1
  Pr3+  Pr37  1  -0.00539452  0.68191265  0.62650218  1
  Pr3+  Pr38  1  0.33510443  0.98837233  0.37282953  1
  Pr3+  Pr39  1  0.66269184  0.34497149  0.12629101  1
  Pr3+  Pr40  1  0.66597132  0.34577328  0.62356624  1
  Pr3+  Pr41  1  0.49657786  0.48755062  0.37503402  1
  Pr3+  Pr42  1  0.83082292  0.15603694  0.37597380  1
  Pr3+  Pr43  1  1.00437154  0.98306776  0.87606889  1
  Pr3+  Pr44  1  0.66928592  0.65701110  0.87635011  1
  Pr3+  Pr45  1  0.66644832  0.67932755  0.62533528  1
  Pr3+  Pr46  1  0.32941150  0.68033086  0.62493872  1
  Pr3+  Pr47  1  0.50028267  0.51236099  0.62398581  1
  Pr3+  Pr48  1  0.17249978  0.17619975  0.12491890  1
  Pr3+  Pr49  1  0.50252889  0.17862260  0.62700247  1
  Pr3+  Pr50  1  1.00602958  0.98467534  0.37347717  1
  Pr3+  Pr51  1  0.49676442  0.15482546  0.37562043  1
  Pr3+  Pr52  1  -0.00223421  0.34460905  0.12546412  1
  Pr3+  Pr53  1  0.83321090  0.17677525  0.12408311  1
  Pr3+  Pr54  1  0.17054755  0.18117737  0.62490085  1
  Pr3+  Pr55  1  0.32786588  0.68363298  0.12557595  1
  Pr3+  Pr56  1  0.83845920  0.51558607  0.12523831  1
  Pr3+  Pr57  1  0.33841904  0.31824239  0.87304788  1
  Pr3+  Pr58  1  0.33279386  0.65933697  0.87537948  1
  Pr3+  Pr59  1  0.16822961  0.51584276  0.12563928  1
  Pr3+  Pr60  1  0.83273574  0.48916575  0.87540813  1
  Pr3+  Pr61  1  0.50073827  0.84355582  0.62643091  1
  Pr3+  Pr62  1  0.33067851  0.34542877  0.12673321  1
  Pr3+  Pr63  1  0.66825045  0.31794639  0.87414104  1
  Pr3+  Pr64  1  1.00363944  0.32035756  0.87291273  1
  Pr3+  Pr65  1  0.00011915  0.00950364  0.12415750  1
  Pr3+  Pr66  1  0.50166576  0.17456945  0.12332570  1
  Pr3+  Pr67  1  0.16296754  0.48979478  0.87487270  1
  Pr3+  Pr68  1  1.00412212  0.31964651  0.37689449  1
  Pr3+  Pr69  1  1.00429438  0.65616108  0.37277210  1
  Pr3+  Pr70  1  -0.00411573  0.01125036  0.62546654  1
  Pr3+  Pr71  1  0.66714759  0.01050198  0.62518674  1
  Mn3.30+  Mn72  1  0.16926234  -0.00415979  -0.00042268  1
  Mn3.30+  Mn73  1  0.16616476  -0.00095567  0.49905387  1
  Mn3.30+  Mn74  1  0.16765254  0.33350449  -0.00095718  1
  Mn3.30+  Mn75  1  0.16569390  0.33357361  0.50241553  1
  Mn3.30+  Mn76  1  0.16218853  0.67080730  0.00163073  1
  Mn3.30+  Mn77  1  0.16508390  0.66906931  0.49834422  1
  Mn3.30+  Mn78  1  0.50007585  -0.00096065  -0.00034073  1
  Mn3.30+  Mn79  1  0.50007596  -0.00111277  0.50041457  1
  Mn3.30+  Mn80  1  0.49953848  0.33141607  -0.00086883  1
  Mn3.30+  Mn81  1  0.49964020  0.33332206  0.50082235  1
  Mn3.30+  Mn82  1  0.49887519  0.66911378  -0.00013893  1
  Mn3.30+  Mn83  1  0.49930777  0.66762162  0.49946735  1
  Mn3.30+  Mn84  1  0.83282496  -0.00335785  0.00106222  1
  Mn3.30+  Mn85  1  0.83534604  -0.00055415  0.49959114  1
  Mn3.30+  Mn86  1  0.83273406  0.33295078  -0.00022638  1
  Mn3.30+  Mn87  1  0.83388937  0.33349692  0.49945543  1
  Mn3.30+  Mn88  1  0.83697244  0.67064607  -0.00029951  1
  Mn3.30+  Mn89  1  0.83392983  0.66765016  0.50042354  1
  Mn3.30+  Mn90  1  0.00046929  0.16550091  0.24883702  1
  Mn3.30+  Mn91  1  0.00033141  0.16672684  0.74928412  1
  Mn3.30+  Mn92  1  -0.00057589  0.50170743  0.24935303  1
  Mn3.30+  Mn93  1  0.00016940  0.50105995  0.75090129  1
  Mn3.30+  Mn94  1  0.00088138  0.83299202  0.24528706  1
  Mn3.30+  Mn95  1  -0.00140279  0.83106276  0.75381494  1
  Mn3.30+  Mn96  1  0.33396044  0.16574879  0.25087624  1
  Mn3.30+  Mn97  1  0.33512907  0.16656892  0.74939029  1
  Mn3.30+  Mn98  1  0.33323130  0.50174707  0.25117891  1
  Mn3.30+  Mn99  1  0.33173061  0.50029273  0.74928446  1
  Mn3.30+  Mn100  1  0.33161680  0.83585011  0.24861431  1
  Mn3.30+  Mn101  1  0.33260982  0.83387552  0.75396571  1
  Mn3.30+  Mn102  1  0.66609889  0.16604338  0.24995646  1
  Mn3.30+  Mn103  1  0.66554900  0.16475449  0.75050366  1
  Mn3.30+  Mn104  1  0.66776024  0.49894585  0.25014674  1
  Mn3.30+  Mn105  1  0.66684815  0.50023514  0.75074101  1
  Mn3.30+  Mn106  1  0.66845904  0.83479333  0.24721411  1
  Mn3.30+  Mn107  1  0.66896134  0.83280979  0.75149917  1
  Mn3.30+  Mn108  1  0.16879389  -0.00186118  0.24882535  1
  Mn3.30+  Mn109  1  0.16646301  -0.00277312  0.75192182  1
  Mn3.30+  Mn110  1  0.16602395  0.33293008  0.25045250  1
  Mn3.30+  Mn111  1  0.16768150  0.33429945  0.74810557  1
  Mn3.30+  Mn112  1  0.16423371  0.67123687  0.24757422  1
  Mn3.30+  Mn113  1  0.16291442  0.66846480  0.75178071  1
  Mn3.30+  Mn114  1  0.50033357  -0.00008341  0.24784589  1
  Mn3.30+  Mn115  1  0.49988914  -0.00185902  0.75234549  1
  Mn3.30+  Mn116  1  0.50068462  0.33197677  0.25173899  1
  Mn3.30+  Mn117  1  0.49870589  0.33282618  0.74875481  1
  Mn3.30+  Mn118  1  0.49848213  0.66862779  0.25010849  1
  Mn3.30+  Mn119  1  0.49982368  0.66823324  0.75101434  1
  Mn3.30+  Mn120  1  0.83372768  -0.00051654  0.24702612  1
  Mn3.30+  Mn121  1  0.83432375  -0.00390098  0.75189317  1
  Mn3.30+  Mn122  1  0.83119589  0.33315236  0.25061851  1
  Mn3.30+  Mn123  1  0.83543888  0.33322105  0.74964284  1
  Mn3.30+  Mn124  1  0.83577901  0.66929959  0.24722895  1
  Mn3.30+  Mn125  1  0.83499461  0.66922597  0.75272321  1
  Mn3.30+  Mn126  1  0.00065099  0.16543516  -0.00010422  1
  Mn3.30+  Mn127  1  0.00038807  0.16673000  0.50088940  1
  Mn3.30+  Mn128  1  0.00017266  0.50342559  0.00078316  1
  Mn3.30+  Mn129  1  -0.00102584  0.49965173  0.49938361  1
  Mn3.30+  Mn130  1  -0.00014442  0.83126354  0.00056324  1
  Mn3.30+  Mn131  1  -0.00004156  0.83317362  0.49978711  1
  Mn3.30+  Mn132  1  0.33586420  0.16433142  -0.00043962  1
  Mn3.30+  Mn133  1  0.33329755  0.16785607  0.50031278  1
  Mn3.30+  Mn134  1  0.33194192  0.50132829  -0.00005864  1
  Mn3.30+  Mn135  1  0.33274182  0.50059212  0.49995598  1
  Mn3.30+  Mn136  1  0.33154399  0.83552931  -0.00095597  1
  Mn3.30+  Mn137  1  0.33216906  0.83401119  0.49851074  1
  Mn3.30+  Mn138  1  0.66502194  0.16333892  -0.00159205  1
  Mn3.30+  Mn139  1  0.66687406  0.16765212  0.50089276  1
  Mn3.30+  Mn140  1  0.66681510  0.50008807  -0.00005972  1
  Mn3.30+  Mn141  1  0.66778871  0.49912884  0.49946656  1
  Mn3.30+  Mn142  1  0.66818794  0.83407110  0.00058289  1
  Mn3.30+  Mn143  1  0.66862730  0.83333761  0.50079282  1
  O2-  O144  1  0.02703342  0.16067829  0.12334314  1
  O2-  O145  1  0.02612492  0.15760142  0.62690552  1
  O2-  O146  1  0.02520865  0.49041335  0.12424900  1
  O2-  O147  1  0.02256234  0.49485361  0.62335704  1
  O2-  O148  1  0.02893082  0.83210946  0.12300349  1
  O2-  O149  1  0.02503797  0.82993091  0.62846324  1
  O2-  O150  1  0.35698728  0.16370075  0.12556896  1
  O2-  O151  1  0.35869619  0.15926150  0.62532596  1
  O2-  O152  1  0.35680018  0.49499213  0.12434166  1
  O2-  O153  1  0.35597656  0.49747577  0.62560476  1
  O2-  O154  1  0.35852691  0.82869068  0.12347673  1
  O2-  O155  1  0.35547547  0.82993164  0.62784651  1
  O2-  O156  1  0.69030666  0.16067876  0.12235010  1
  O2-  O157  1  0.68789222  0.15997413  0.62597262  1
  O2-  O158  1  0.69324193  0.49300373  0.12349671  1
  O2-  O159  1  0.69375694  0.49442380  0.62660371  1
  O2-  O160  1  0.69559192  0.82578246  0.12457536  1
  O2-  O161  1  0.69586424  0.82802774  0.62689876  1
  O2-  O162  1  0.14277374  0.32653086  0.12370463  1
  O2-  O163  1  0.13737187  0.32934187  0.62629875  1
  O2-  O164  1  0.13736213  0.65994315  0.12388120  1
  O2-  O165  1  0.13968171  0.66268421  0.62548294  1
  O2-  O166  1  0.14346658  0.99642702  0.12294858  1
  O2-  O167  1  0.14024835  0.99203753  0.62698083  1
  O2-  O168  1  0.47426337  0.32451103  0.12331633  1
  O2-  O169  1  0.47128782  0.32731823  0.62691171  1
  O2-  O170  1  0.47373661  0.66103024  0.12338897  1
  O2-  O171  1  0.47471563  0.66145576  0.62546082  1
  O2-  O172  1  0.47401468  0.99606909  0.12334715  1
  O2-  O173  1  0.47648283  0.99160737  0.62545788  1
  O2-  O174  1  0.80679860  0.32665680  0.12389908  1
  O2-  O175  1  0.80987556  0.33653394  0.62660856  1
  O2-  O176  1  0.80784584  0.66048863  0.12366150  1
  O2-  O177  1  0.80934891  0.65804023  0.62829768  1
  O2-  O178  1  0.80685690  0.99549498  0.12380691  1
  O2-  O179  1  0.81136466  0.99149813  0.62791523  1
  O2-  O180  1  0.31559508  0.16698733  0.37628654  1
  O2-  O181  1  0.30842526  0.17258763  0.87268309  1
  O2-  O182  1  0.30867034  0.50356224  0.37564363  1
  O2-  O183  1  0.30745866  0.50754511  0.87503014  1
  O2-  O184  1  0.30725094  0.84071471  0.37253104  1
  O2-  O185  1  0.30514609  0.83079111  0.87584401  1
  O2-  O186  1  0.64150413  0.17225736  0.37759434  1
  O2-  O187  1  0.63842897  0.17099437  0.87393148  1
  O2-  O188  1  0.64066601  0.50805946  0.37466573  1
  O2-  O189  1  0.63981081  0.50733579  0.87564183  1
  O2-  O190  1  0.64834155  0.83893939  0.37279095  1
  O2-  O191  1  0.63828732  0.83678522  0.87588546  1
  O2-  O192  1  0.97562749  0.17105558  0.37364452  1
  O2-  O193  1  0.97621670  0.17251772  0.87515975  1
  O2-  O194  1  0.97973292  0.50818556  0.37438804  1
  O2-  O195  1  0.97607348  0.50761621  0.87842553  1
  O2-  O196  1  0.97464853  0.83664605  0.37170847  1
  O2-  O197  1  0.97119275  0.83904809  0.87673959  1
  O2-  O198  1  0.19127277  0.00320468  0.37477848  1
  O2-  O199  1  0.18770348  0.00574156  0.87563468  1
  O2-  O200  1  0.18348017  0.33939169  0.37623894  1
  O2-  O201  1  0.19427957  0.34039221  0.87418767  1
  O2-  O202  1  0.18207785  0.67522276  0.37415485  1
  O2-  O203  1  0.18946364  0.67017842  0.87655549  1
  O2-  O204  1  0.52561328  0.00581450  0.37575156  1
  O2-  O205  1  0.52585803  0.00565542  0.87542258  1
  O2-  O206  1  0.52851501  0.33970135  0.37601332  1
  O2-  O207  1  0.52581054  0.34308842  0.87437421  1
  O2-  O208  1  0.52529266  0.66820578  0.37567053  1
  O2-  O209  1  0.52419896  0.67244096  0.87622791  1
  O2-  O210  1  0.86029554  0.00713945  0.37077294  1
  O2-  O211  1  0.86013177  0.00657482  0.87689256  1
  O2-  O212  1  0.85965101  0.33155039  0.37308434  1
  O2-  O213  1  0.85882353  0.33852848  0.87542264  1
  O2-  O214  1  0.85951960  0.67417140  0.37205103  1
  O2-  O215  1  0.86041992  0.67355718  0.87640596  1
  O2-  O216  1  0.23795880  0.09724373  0.01568699  1
  O2-  O217  1  0.23963430  0.09228757  0.52379073  1
  O2-  O218  1  0.23846762  0.42855960  0.02135636  1
  O2-  O219  1  0.23583104  0.42895081  0.51837567  1
  O2-  O220  1  0.23613740  0.76202256  0.02317143  1
  O2-  O221  1  0.23823112  0.76001233  0.52167619  1
  O2-  O222  1  0.57322875  0.09281360  0.02008881  1
  O2-  O223  1  0.57157750  0.09250357  0.52121105  1
  O2-  O224  1  0.56979780  0.42624903  0.02147154  1
  O2-  O225  1  0.57233111  0.42761379  0.52350129  1
  O2-  O226  1  0.57409972  0.76076755  0.02352787  1
  O2-  O227  1  0.57474944  0.75803186  0.52333370  1
  O2-  O228  1  0.90501708  0.09318312  0.02027400  1
  O2-  O229  1  0.90702051  0.09321907  0.51773655  1
  O2-  O230  1  0.90638643  0.42986790  0.02000708  1
  O2-  O231  1  0.90381823  0.42898744  0.51713293  1
  O2-  O232  1  0.90317702  0.76437710  0.02385476  1
  O2-  O233  1  0.90348217  0.76374748  0.52110772  1
  O2-  O234  1  0.26032218  0.25901281  0.22924174  1
  O2-  O235  1  0.26271702  0.26509370  0.72773306  1
  O2-  O236  1  0.25659100  0.59751673  0.22810220  1
  O2-  O237  1  0.25868363  0.59637385  0.73030990  1
  O2-  O238  1  0.26520694  0.93243671  0.23042697  1
  O2-  O239  1  0.26058705  0.92687401  0.72855459  1
  O2-  O240  1  0.59354821  0.25897907  0.22720136  1
  O2-  O241  1  0.59380098  0.26295025  0.72895214  1
  O2-  O242  1  0.59389086  0.59367490  0.22847001  1
  O2-  O243  1  0.59461350  0.59317118  0.72898350  1
  O2-  O244  1  0.59613880  0.92876236  0.22812859  1
  O2-  O245  1  0.59728123  0.92656843  0.72876086  1
  O2-  O246  1  0.92536614  0.26062457  0.22731874  1
  O2-  O247  1  0.93267797  0.26522087  0.73308032  1
  O2-  O248  1  0.92929752  0.59649029  0.22714352  1
  O2-  O249  1  0.92618683  0.59446672  0.72971088  1
  O2-  O250  1  0.93160554  0.92922933  0.23059277  1
  O2-  O251  1  0.93187272  0.92873686  0.73402047  1
  O2-  O252  1  0.09029476  0.24154029  0.26611403  1
  O2-  O253  1  0.09873852  0.23835439  0.77122791  1
  O2-  O254  1  0.09677769  0.57241552  0.26874750  1
  O2-  O255  1  0.09646371  0.56957557  0.76640662  1
  O2-  O256  1  0.09493395  0.90516415  0.27037667  1
  O2-  O257  1  0.09403835  0.89950559  0.77311275  1
  O2-  O258  1  0.43121933  0.23701161  0.26738676  1
  O2-  O259  1  0.43095094  0.23755097  0.77276535  1
  O2-  O260  1  0.42936989  0.57008873  0.26647288  1
  O2-  O261  1  0.42703236  0.57312609  0.77054989  1
  O2-  O262  1  0.42781831  0.90881598  0.26735897  1
  O2-  O263  1  0.43273837  0.90092640  0.76797973  1
  O2-  O264  1  0.76312865  0.23616380  0.26646175  1
  O2-  O265  1  0.75996003  0.23935069  0.77183021  1
  O2-  O266  1  0.75990834  0.57510323  0.26562048  1
  O2-  O267  1  0.76247027  0.57419084  0.77373374  1
  O2-  O268  1  0.76224835  0.90790299  0.27168027  1
  O2-  O269  1  0.76117553  0.90430255  0.77615111  1
  O2-  O270  1  0.07153671  0.06756575  0.48322136  1
  O2-  O271  1  0.07286465  0.07085401  0.98046547  1
  O2-  O272  1  0.07161805  0.40793961  0.47888320  1
  O2-  O273  1  0.07127766  0.40556325  0.97901889  1
  O2-  O274  1  0.06627388  0.73601215  0.48573302  1
  O2-  O275  1  0.06728482  0.73647358  0.97823027  1
  O2-  O276  1  0.40737740  0.07100849  0.48163979  1
  O2-  O277  1  0.40820173  0.07445215  0.98330641  1
  O2-  O278  1  0.41056718  0.40893900  0.48188397  1
  O2-  O279  1  0.40490549  0.40426686  0.97983186  1
  O2-  O280  1  0.40594763  0.73970520  0.48847926  1
  O2-  O281  1  0.40087098  0.73810421  0.98304843  1
  O2-  O282  1  0.73953049  0.07189832  0.47984690  1
  O2-  O283  1  0.74027060  0.07269262  0.97607499  1
  O2-  O284  1  0.73517828  0.40216369  0.48204868  1
  O2-  O285  1  0.73686172  0.40581375  0.97765527  1
  O2-  O286  1  0.73888919  0.73878641  0.47929155  1
  O2-  O287  1  0.73629908  0.73683324  0.98119929  1
  O2-  O288  1  0.09293942  0.23930421  0.48366115  1
  O2-  O289  1  0.09635006  0.23925492  0.97805455  1
  O2-  O290  1  0.09498226  0.57256452  0.48092426  1
  O2-  O291  1  0.09753823  0.56921896  0.98335636  1
  O2-  O292  1  0.09648729  0.90178431  0.47881593  1
  O2-  O293  1  0.09366935  0.90366807  0.97760304  1
  O2-  O294  1  0.43215104  0.23739145  0.48382540  1
  O2-  O295  1  0.42970162  0.23798695  0.97687506  1
  O2-  O296  1  0.43079443  0.57144049  0.48382744  1
  O2-  O297  1  0.42669625  0.57220895  0.97940514  1
  O2-  O298  1  0.42532777  0.90859751  0.48267813  1
  O2-  O299  1  0.43375936  0.90109734  0.98217982  1
  O2-  O300  1  0.76251183  0.23963741  0.48205971  1
  O2-  O301  1  0.75873043  0.23609975  0.97790779  1
  O2-  O302  1  0.75850563  0.57500607  0.48225462  1
  O2-  O303  1  0.76339156  0.57391434  0.97974004  1
  O2-  O304  1  0.76239837  0.90861174  0.47789714  1
  O2-  O305  1  0.76135031  0.90476517  0.97551064  1
  O2-  O306  1  0.07191337  0.06827596  0.26523420  1
  O2-  O307  1  0.07294699  0.07046660  0.77078358  1
  O2-  O308  1  0.07053160  0.40669780  0.26867820  1
  O2-  O309  1  0.07375217  0.40636160  0.77357040  1
  O2-  O310  1  0.06728677  0.73776135  0.26618253  1
  O2-  O311  1  0.06560868  0.73375141  0.76889790  1
  O2-  O312  1  0.40764962  0.07385333  0.27088527  1
  O2-  O313  1  0.40750017  0.07010174  0.76359754  1
  O2-  O314  1  0.40990543  0.40493357  0.26646530  1
  O2-  O315  1  0.40681165  0.40655078  0.77266889  1
  O2-  O316  1  0.40391586  0.74079445  0.26247958  1
  O2-  O317  1  0.40200114  0.73764657  0.76668378  1
  O2-  O318  1  0.73958392  0.07423351  0.27189749  1
  O2-  O319  1  0.74008592  0.06916855  0.77121898  1
  O2-  O320  1  0.73504227  0.40028010  0.26789617  1
  O2-  O321  1  0.73778907  0.40612251  0.77249724  1
  O2-  O322  1  0.73911479  0.73860516  0.27005306  1
  O2-  O323  1  0.73623007  0.73613749  0.77003561  1
  O2-  O324  1  0.23949619  0.09405270  0.22989567  1
  O2-  O325  1  0.23901277  0.09574839  0.73000639  1
  O2-  O326  1  0.23889087  0.42776471  0.23024324  1
  O2-  O327  1  0.23597970  0.43011288  0.73015252  1
  O2-  O328  1  0.23647555  0.76341258  0.22645630  1
  O2-  O329  1  0.23703983  0.75923591  0.72890622  1
  O2-  O330  1  0.57024824  0.09487680  0.23232695  1
  O2-  O331  1  0.57381096  0.09036815  0.72740664  1
  O2-  O332  1  0.57113337  0.42705792  0.22715122  1
  O2-  O333  1  0.57045081  0.42669506  0.72811260  1
  O2-  O334  1  0.57497689  0.76061039  0.22723046  1
  O2-  O335  1  0.57474388  0.75974169  0.72692423  1
  O2-  O336  1  0.90502890  0.09407632  0.22644875  1
  O2-  O337  1  0.90645309  0.09180559  0.73414326  1
  O2-  O338  1  0.90404897  0.42576647  0.22743091  1
  O2-  O339  1  0.90447020  0.43196131  0.73600710  1
  O2-  O340  1  0.90213231  0.76623289  0.22852299  1
  O2-  O341  1  0.90395620  0.76211921  0.72589544  1
  O2-  O342  1  0.26419727  0.26139190  0.01916425  1
  O2-  O343  1  0.25901002  0.26165765  0.52378165  1
  O2-  O344  1  0.25907992  0.59742242  0.02054965  1
  O2-  O345  1  0.25739053  0.59478691  0.52145525  1
  O2-  O346  1  0.26435066  0.92990672  0.02102549  1
  O2-  O347  1  0.25994226  0.92875339  0.52120481  1
  O2-  O348  1  0.59515164  0.26083550  0.01944819  1
  O2-  O349  1  0.59257143  0.26062820  0.52494306  1
  O2-  O350  1  0.59448652  0.59305339  0.02143711  1
  O2-  O351  1  0.59449874  0.59318274  0.52186211  1
  O2-  O352  1  0.59802051  0.92841480  0.02233647  1
  O2-  O353  1  0.59521504  0.92626169  0.52047674  1
  O2-  O354  1  0.92834027  0.26003672  0.02031895  1
  O2-  O355  1  0.93017744  0.26530094  0.51706681  1
  O2-  O356  1  0.92812144  0.59562300  0.02417164  1
  O2-  O357  1  0.92796027  0.59494148  0.52013988  1
  O2-  O358  1  0.93149699  0.92868224  0.01893324  1
  O2-  O359  1  0.93242363  0.92926797  0.51510322  1
