# generated using pymatgen
data_Sr7Ca15Pr50Mn72O216
_symmetry_space_group_name_H-M   'P 1'
_cell_length_a   16.55506483
_cell_length_b   16.60286509
_cell_length_c   15.59135079
_cell_angle_alpha   90.00209190
_cell_angle_beta   90.00328136
_cell_angle_gamma   89.99703249
_symmetry_Int_Tables_number   1
_chemical_formula_structural   Sr7Ca15Pr50Mn72O216
_chemical_formula_sum   'Sr7 Ca15 Pr50 Mn72 O216'
_cell_volume   4285.46217508
_cell_formula_units_Z   1
loop_
 _symmetry_equiv_pos_site_id
 _symmetry_equiv_pos_as_xyz
  1  'x, y, z'
loop_
 _atom_type_symbol
 _atom_type_oxidation_number
  Sr2+  2.0
  Ca2+  2.0
  Pr3+  3.0
  Mn3.30+  3.3
  O2-  -2.0
loop_
 _atom_site_type_symbol
 _atom_site_label
 _atom_site_symmetry_multiplicity
 _atom_site_fract_x
 _atom_site_fract_y
 _atom_site_fract_z
 _atom_site_occupancy
  Sr2+  Sr0  1  0.33084021  0.34254014  0.62354886  1
  Sr2+  Sr1  1  0.16594707  0.49169267  0.87416223  1
  Sr2+  Sr2  1  0.83614148  0.17693684  0.12568051  1
  Sr2+  Sr3  1  0.66706185  0.65689127  0.87197040  1
  Sr2+  Sr4  1  1.00250957  0.99208198  0.87587067  1
  Sr2+  Sr5  1  0.66271252  0.34330133  0.62218573  1
  Sr2+  Sr6  1  0.16796922  0.84332334  0.12801170  1
  Ca2+  Ca7  1  0.67317598  0.65039257  0.37745123  1
  Ca2+  Ca8  1  0.17158743  0.84657590  0.62164440  1
  Ca2+  Ca9  1  0.16461405  0.82147320  0.37674965  1
  Ca2+  Ca10  1  0.67081377  0.31933718  0.37605938  1
  Ca2+  Ca11  1  0.16999666  0.18276630  0.62658351  1
  Ca2+  Ca12  1  1.00533789  0.98317296  0.37467296  1
  Ca2+  Ca13  1  0.66286289  0.67917229  0.62301450  1
  Ca2+  Ca14  1  0.83953908  0.84835195  0.12551408  1
  Ca2+  Ca15  1  0.67322595  0.98459325  0.87471153  1
  Ca2+  Ca16  1  1.00087408  0.31903786  0.37481124  1
  Ca2+  Ca17  1  0.16203525  0.15215594  0.87099673  1
  Ca2+  Ca18  1  0.33430476  0.98386921  0.37594854  1
  Ca2+  Ca19  1  0.82798755  0.48307511  0.37534712  1
  Ca2+  Ca20  1  0.32826439  0.68295360  0.62294829  1
  Ca2+  Ca21  1  0.50550038  0.51687542  0.12639422  1
  Pr3+  Pr22  1  0.50388651  0.17810374  0.12576623  1
  Pr3+  Pr23  1  0.33097267  0.34642082  0.12619279  1
  Pr3+  Pr24  1  0.50111900  0.18087405  0.62451726  1
  Pr3+  Pr25  1  0.66247633  0.01273485  0.62558118  1
  Pr3+  Pr26  1  0.66882678  0.32296036  0.87458420  1
  Pr3+  Pr27  1  0.50292775  0.84550296  0.12552823  1
  Pr3+  Pr28  1  0.83378979  0.15628828  0.37549172  1
  Pr3+  Pr29  1  0.33401123  0.65741507  0.37510613  1
  Pr3+  Pr30  1  1.00308319  0.65506175  0.87443655  1
  Pr3+  Pr31  1  0.83279191  0.51299804  0.62279154  1
  Pr3+  Pr32  1  -0.00002974  0.68001868  0.62452547  1
  Pr3+  Pr33  1  0.17293638  0.51290823  0.62388353  1
  Pr3+  Pr34  1  0.33360217  0.31985222  0.87395606  1
  Pr3+  Pr35  1  0.82970672  0.15083511  0.87518430  1
  Pr3+  Pr36  1  0.83060619  0.82212919  0.87525583  1
  Pr3+  Pr37  1  0.83068661  0.81997461  0.37505985  1
  Pr3+  Pr38  1  0.33443893  0.32003649  0.37591407  1
  Pr3+  Pr39  1  0.16659066  0.51276806  0.12603879  1
  Pr3+  Pr40  1  0.16199042  0.48448550  0.37519781  1
  Pr3+  Pr41  1  -0.00652815  0.34441548  0.12769270  1
  Pr3+  Pr42  1  1.00316957  0.65594229  0.37532592  1
  Pr3+  Pr43  1  0.50134503  0.84323170  0.62465545  1
  Pr3+  Pr44  1  0.16255350  0.82191968  0.87412865  1
  Pr3+  Pr45  1  0.49996339  0.81957465  0.87406251  1
  Pr3+  Pr46  1  0.16095991  0.15258821  0.37787159  1
  Pr3+  Pr47  1  0.49777862  0.15351842  0.87345071  1
  Pr3+  Pr48  1  0.49853245  0.82061290  0.37582972  1
  Pr3+  Pr49  1  0.83517795  0.84400933  0.62489927  1
  Pr3+  Pr50  1  0.50038972  0.48813579  0.37283979  1
  Pr3+  Pr51  1  0.82984520  0.48955882  0.87441601  1
  Pr3+  Pr52  1  0.32584921  0.01365080  0.62319050  1
  Pr3+  Pr53  1  0.00205197  0.01272545  0.62395609  1
  Pr3+  Pr54  1  0.83612299  0.51301337  0.12734283  1
  Pr3+  Pr55  1  0.32855222  0.01010016  0.12711331  1
  Pr3+  Pr56  1  0.66773333  0.01165548  0.12462795  1
  Pr3+  Pr57  1  -0.00546474  0.68433579  0.12576348  1
  Pr3+  Pr58  1  -0.00194332  0.34485108  0.62232461  1
  Pr3+  Pr59  1  0.83479198  0.18078648  0.62436108  1
  Pr3+  Pr60  1  0.49546882  0.15286098  0.37660319  1
  Pr3+  Pr61  1  0.33264193  0.98697840  0.87435698  1
  Pr3+  Pr62  1  0.33304783  0.67913116  0.12635889  1
  Pr3+  Pr63  1  0.67002718  0.98876013  0.37567659  1
  Pr3+  Pr64  1  0.50342730  0.51386900  0.62278009  1
  Pr3+  Pr65  1  1.00541930  0.31933686  0.87468746  1
  Pr3+  Pr66  1  0.66549238  0.67966288  0.12620479  1
  Pr3+  Pr67  1  -0.00291972  0.01154443  0.12646504  1
  Pr3+  Pr68  1  0.66392206  0.34902365  0.12836053  1
  Pr3+  Pr69  1  0.33731269  0.65510112  0.87405251  1
  Pr3+  Pr70  1  0.16658411  0.17638508  0.12287336  1
  Pr3+  Pr71  1  0.49606058  0.48880129  0.87622050  1
  Mn3.30+  Mn72  1  0.16574221  0.00021159  0.00028910  1
  Mn3.30+  Mn73  1  0.16642086  -0.00227431  0.49799228  1
  Mn3.30+  Mn74  1  0.16577879  0.33312411  -0.00023977  1
  Mn3.30+  Mn75  1  0.16473478  0.33180165  0.49962304  1
  Mn3.30+  Mn76  1  0.16671941  0.66710634  0.00112092  1
  Mn3.30+  Mn77  1  0.16829962  0.66893279  0.49970097  1
  Mn3.30+  Mn78  1  0.50165485  -0.00088033  -0.00212385  1
  Mn3.30+  Mn79  1  0.49692228  -0.00124852  0.50030481  1
  Mn3.30+  Mn80  1  0.49980103  0.33468838  0.00203012  1
  Mn3.30+  Mn81  1  0.50086991  0.33404468  0.49748619  1
  Mn3.30+  Mn82  1  0.50160752  0.66591862  0.00127489  1
  Mn3.30+  Mn83  1  0.50173928  0.66650773  0.49932289  1
  Mn3.30+  Mn84  1  0.83318607  -0.00150675  -0.00032223  1
  Mn3.30+  Mn85  1  0.83578379  -0.00017919  0.49988019  1
  Mn3.30+  Mn86  1  0.83355464  0.33309181  0.00034947  1
  Mn3.30+  Mn87  1  0.83211929  0.33519161  0.49757518  1
  Mn3.30+  Mn88  1  0.83251799  0.66814742  0.00025186  1
  Mn3.30+  Mn89  1  0.83158227  0.66534457  0.49972785  1
  Mn3.30+  Mn90  1  -0.00022584  0.16620039  0.25266150  1
  Mn3.30+  Mn91  1  0.00264447  0.16669533  0.74823848  1
  Mn3.30+  Mn92  1  -0.00262725  0.49911580  0.25377794  1
  Mn3.30+  Mn93  1  0.00101810  0.50008737  0.74807057  1
  Mn3.30+  Mn94  1  0.00028845  0.83524804  0.25244158  1
  Mn3.30+  Mn95  1  0.00237148  0.83533412  0.74795289  1
  Mn3.30+  Mn96  1  0.33229551  0.16458549  0.25055729  1
  Mn3.30+  Mn97  1  0.32889580  0.16643646  0.75060095  1
  Mn3.30+  Mn98  1  0.33457620  0.50044391  0.24941714  1
  Mn3.30+  Mn99  1  0.33326760  0.50043646  0.74846799  1
  Mn3.30+  Mn100  1  0.33248196  0.83455047  0.25272220  1
  Mn3.30+  Mn101  1  0.33133568  0.83223470  0.74764983  1
  Mn3.30+  Mn102  1  0.66735925  0.16767054  0.25107827  1
  Mn3.30+  Mn103  1  0.66557546  0.16629033  0.75103495  1
  Mn3.30+  Mn104  1  0.66824278  0.50113647  0.25257218  1
  Mn3.30+  Mn105  1  0.66524509  0.50090813  0.74826955  1
  Mn3.30+  Mn106  1  0.66964308  0.83266687  0.25033021  1
  Mn3.30+  Mn107  1  0.66711330  0.83275738  0.74869748  1
  Mn3.30+  Mn108  1  0.16584973  -0.00210842  0.25379626  1
  Mn3.30+  Mn109  1  0.16612576  0.00052092  0.74839363  1
  Mn3.30+  Mn110  1  0.16383883  0.33135811  0.24991763  1
  Mn3.30+  Mn111  1  0.16719272  0.33334482  0.75016492  1
  Mn3.30+  Mn112  1  0.16595644  0.66807986  0.25106247  1
  Mn3.30+  Mn113  1  0.16887795  0.66817671  0.74807738  1
  Mn3.30+  Mn114  1  0.49872980  -0.00071912  0.25063262  1
  Mn3.30+  Mn115  1  0.49941617  -0.00129403  0.75095576  1
  Mn3.30+  Mn116  1  0.50125694  0.33418222  0.25096658  1
  Mn3.30+  Mn117  1  0.49934267  0.33443151  0.74945138  1
  Mn3.30+  Mn118  1  0.50381344  0.66628377  0.25243511  1
  Mn3.30+  Mn119  1  0.49954550  0.66612198  0.74666830  1
  Mn3.30+  Mn120  1  0.83638935  -0.00090656  0.25228536  1
  Mn3.30+  Mn121  1  0.83269656  -0.00035123  0.74890220  1
  Mn3.30+  Mn122  1  0.83182467  0.33348226  0.25376463  1
  Mn3.30+  Mn123  1  0.83383634  0.33447584  0.74867141  1
  Mn3.30+  Mn124  1  0.83215505  0.66632241  0.25249114  1
  Mn3.30+  Mn125  1  0.83216345  0.66716415  0.74741719  1
  Mn3.30+  Mn126  1  0.00079819  0.16599435  -0.00124729  1
  Mn3.30+  Mn127  1  0.00108655  0.16684718  0.50048880  1
  Mn3.30+  Mn128  1  -0.00013532  0.50024159  0.00050996  1
  Mn3.30+  Mn129  1  -0.00128078  0.49919629  0.49788925  1
  Mn3.30+  Mn130  1  -0.00107863  0.83582081  0.00003773  1
  Mn3.30+  Mn131  1  0.00348963  0.83440346  0.50005738  1
  Mn3.30+  Mn132  1  0.33266721  0.16521298  -0.00091564  1
  Mn3.30+  Mn133  1  0.32914197  0.16557756  0.49967975  1
  Mn3.30+  Mn134  1  0.33413921  0.50013001  0.00250389  1
  Mn3.30+  Mn135  1  0.33376637  0.50094945  0.49901093  1
  Mn3.30+  Mn136  1  0.33302242  0.83320107  0.00014576  1
  Mn3.30+  Mn137  1  0.33112611  0.83329584  0.49894315  1
  Mn3.30+  Mn138  1  0.66711173  0.16659835  0.00058541  1
  Mn3.30+  Mn139  1  0.66592150  0.16757612  0.49827568  1
  Mn3.30+  Mn140  1  0.66548258  0.50159958  0.00056538  1
  Mn3.30+  Mn141  1  0.66818646  0.50024072  0.49827110  1
  Mn3.30+  Mn142  1  0.66946106  0.83433705  0.00092933  1
  Mn3.30+  Mn143  1  0.66680622  0.83078411  0.49993783  1
  O2-  O144  1  0.02202348  0.16177867  0.12713720  1
  O2-  O145  1  0.02701064  0.16238078  0.62408750  1
  O2-  O146  1  0.02264748  0.49273655  0.12908987  1
  O2-  O147  1  0.02785914  0.49362195  0.62184050  1
  O2-  O148  1  0.01905370  0.83168330  0.12664470  1
  O2-  O149  1  0.02963924  0.82727740  0.62381936  1
  O2-  O150  1  0.36074988  0.15842059  0.12560080  1
  O2-  O151  1  0.35810100  0.16161001  0.62628362  1
  O2-  O152  1  0.36241991  0.49374036  0.12700392  1
  O2-  O153  1  0.35841702  0.49522957  0.62038372  1
  O2-  O154  1  0.35877976  0.82977052  0.12691974  1
  O2-  O155  1  0.35806626  0.82920900  0.62447893  1
  O2-  O156  1  0.68645804  0.15998875  0.12551085  1
  O2-  O157  1  0.68937400  0.16104437  0.62398444  1
  O2-  O158  1  0.69335595  0.49580697  0.12797965  1
  O2-  O159  1  0.68998198  0.49442190  0.62247598  1
  O2-  O160  1  0.69628113  0.82720441  0.12835383  1
  O2-  O161  1  0.69074089  0.82613067  0.62332287  1
  O2-  O162  1  0.13803338  0.32573260  0.12572066  1
  O2-  O163  1  0.14233850  0.32966463  0.62254447  1
  O2-  O164  1  0.14015281  0.66146341  0.12728640  1
  O2-  O165  1  0.14289678  0.65910037  0.62316053  1
  O2-  O166  1  0.14214002  0.99849781  0.12924229  1
  O2-  O167  1  0.14429889  0.98910230  0.62257904  1
  O2-  O168  1  0.47395615  0.32470744  0.12655036  1
  O2-  O169  1  0.48085586  0.32916897  0.62225797  1
  O2-  O170  1  0.47743748  0.66514356  0.12788743  1
  O2-  O171  1  0.47087487  0.66221332  0.62164567  1
  O2-  O172  1  0.47305726  0.99415437  0.12284904  1
  O2-  O173  1  0.47110257  0.99268294  0.62478212  1
  O2-  O174  1  0.80904654  0.33205291  0.12772371  1
  O2-  O175  1  0.81187433  0.32862563  0.62445486  1
  O2-  O176  1  0.80814773  0.65959287  0.12810465  1
  O2-  O177  1  0.80546198  0.66207942  0.62275003  1
  O2-  O178  1  0.81113242  0.99443158  0.12490494  1
  O2-  O179  1  0.80631894  0.99483020  0.62381724  1
  O2-  O180  1  0.30539389  0.17389299  0.37314788  1
  O2-  O181  1  0.30465331  0.17121941  0.87485687  1
  O2-  O182  1  0.30684072  0.50715114  0.37329178  1
  O2-  O183  1  0.31537193  0.50752708  0.87815809  1
  O2-  O184  1  0.30802810  0.83697707  0.37510640  1
  O2-  O185  1  0.30765009  0.83677647  0.87307046  1
  O2-  O186  1  0.64065622  0.16775220  0.37416620  1
  O2-  O187  1  0.64139089  0.17542010  0.87737318  1
  O2-  O188  1  0.64178218  0.50955469  0.37504659  1
  O2-  O189  1  0.64091620  0.50117936  0.87435741  1
  O2-  O190  1  0.64187269  0.84273883  0.37516514  1
  O2-  O191  1  0.64329743  0.84000901  0.87281755  1
  O2-  O192  1  0.97658417  0.17379429  0.37761030  1
  O2-  O193  1  0.97396593  0.17146569  0.87120155  1
  O2-  O194  1  0.97060774  0.51028303  0.37584871  1
  O2-  O195  1  0.97472000  0.50685906  0.87310633  1
  O2-  O196  1  0.97381259  0.83562957  0.37724818  1
  O2-  O197  1  0.97502372  0.83436910  0.87296886  1
  O2-  O198  1  0.19513598  0.00942243  0.37603123  1
  O2-  O199  1  0.18985323  0.00693043  0.87296767  1
  O2-  O200  1  0.19096282  0.33682601  0.37270633  1
  O2-  O201  1  0.19126276  0.34010959  0.87830343  1
  O2-  O202  1  0.18932522  0.67161237  0.37482026  1
  O2-  O203  1  0.19202356  0.67249710  0.87414735  1
  O2-  O204  1  0.52625111  0.00453483  0.37691480  1
  O2-  O205  1  0.53038970  0.00528613  0.87533976  1
  O2-  O206  1  0.52746404  0.33845271  0.37263173  1
  O2-  O207  1  0.52434609  0.33999928  0.87800480  1
  O2-  O208  1  0.53061235  0.67393768  0.37488346  1
  O2-  O209  1  0.51708737  0.67004532  0.87502315  1
  O2-  O210  1  0.86108718  0.00675356  0.37970689  1
  O2-  O211  1  0.85259356  0.00259890  0.87263541  1
  O2-  O212  1  0.86012976  0.33792571  0.37619892  1
  O2-  O213  1  0.86005679  0.34216075  0.87246823  1
  O2-  O214  1  0.86080179  0.67430189  0.37658932  1
  O2-  O215  1  0.85913977  0.67149174  0.87227410  1
  O2-  O216  1  0.24279258  0.09163134  0.02310607  1
  O2-  O217  1  0.23468560  0.09568813  0.52258634  1
  O2-  O218  1  0.23963381  0.42662310  0.02604646  1
  O2-  O219  1  0.23383753  0.42960721  0.51325500  1
  O2-  O220  1  0.24170933  0.75728506  0.01883019  1
  O2-  O221  1  0.23849417  0.76308070  0.51872717  1
  O2-  O222  1  0.57041232  0.09379909  0.02098532  1
  O2-  O223  1  0.56868846  0.09189936  0.52139501  1
  O2-  O224  1  0.57171868  0.43076772  0.02341638  1
  O2-  O225  1  0.56942796  0.43253729  0.51390491  1
  O2-  O226  1  0.57429968  0.76210418  0.01936867  1
  O2-  O227  1  0.56848855  0.76240626  0.51886492  1
  O2-  O228  1  0.90642049  0.09213958  0.01410486  1
  O2-  O229  1  0.90565822  0.09515603  0.52354744  1
  O2-  O230  1  0.90377185  0.42816156  0.01997898  1
  O2-  O231  1  0.90603657  0.42726859  0.52303048  1
  O2-  O232  1  0.90483241  0.76245803  0.01995248  1
  O2-  O233  1  0.90610937  0.76050791  0.52152626  1
  O2-  O234  1  0.26269009  0.25948976  0.22708708  1
  O2-  O235  1  0.26068771  0.26197073  0.73533483  1
  O2-  O236  1  0.26148111  0.59166122  0.22789289  1
  O2-  O237  1  0.26331758  0.59738994  0.72944851  1
  O2-  O238  1  0.26362507  0.92982709  0.23298230  1
  O2-  O239  1  0.26526435  0.93121923  0.73412381  1
  O2-  O240  1  0.59280663  0.26071448  0.22793349  1
  O2-  O241  1  0.59139904  0.25844263  0.73511483  1
  O2-  O242  1  0.59771614  0.59563870  0.23001170  1
  O2-  O243  1  0.59342001  0.59448069  0.72528501  1
  O2-  O244  1  0.59710432  0.92740731  0.22852129  1
  O2-  O245  1  0.59396384  0.92459835  0.72521646  1
  O2-  O246  1  0.92838030  0.26207244  0.23484472  1
  O2-  O247  1  0.92915736  0.26101885  0.72864176  1
  O2-  O248  1  0.92903275  0.59677476  0.22887531  1
  O2-  O249  1  0.92677702  0.59441170  0.72739023  1
  O2-  O250  1  0.93006252  0.92844768  0.23400241  1
  O2-  O251  1  0.92812571  0.92577808  0.72452964  1
  O2-  O252  1  0.09643430  0.23432296  0.26749227  1
  O2-  O253  1  0.09326209  0.23913272  0.77233343  1
  O2-  O254  1  0.09322726  0.57026366  0.27105106  1
  O2-  O255  1  0.09230342  0.57630628  0.76547272  1
  O2-  O256  1  0.09668196  0.90442232  0.27395518  1
  O2-  O257  1  0.09691512  0.90510093  0.76911228  1
  O2-  O258  1  0.42688363  0.23733483  0.27177644  1
  O2-  O259  1  0.42596587  0.23863536  0.77057734  1
  O2-  O260  1  0.42791887  0.57638977  0.27280269  1
  O2-  O261  1  0.42813453  0.57076540  0.76829566  1
  O2-  O262  1  0.43140974  0.90389325  0.26817988  1
  O2-  O263  1  0.42855467  0.90499094  0.77253890  1
  O2-  O264  1  0.76199657  0.23931621  0.27281061  1
  O2-  O265  1  0.76356682  0.24019895  0.77043602  1
  O2-  O266  1  0.76622976  0.56760259  0.26980725  1
  O2-  O267  1  0.76188499  0.56864413  0.76621558  1
  O2-  O268  1  0.76100724  0.90665102  0.27402081  1
  O2-  O269  1  0.76251744  0.90422536  0.76523950  1
  O2-  O270  1  0.07044381  0.06797260  0.47971878  1
  O2-  O271  1  0.07417924  0.07465285  0.98770096  1
  O2-  O272  1  0.06945639  0.40394190  0.47635418  1
  O2-  O273  1  0.07024050  0.40269346  0.98426556  1
  O2-  O274  1  0.06992581  0.73562083  0.48260538  1
  O2-  O275  1  0.07069008  0.74109384  0.98055302  1
  O2-  O276  1  0.40325110  0.07109871  0.47870602  1
  O2-  O277  1  0.40873664  0.07097363  0.97542158  1
  O2-  O278  1  0.40743693  0.40651442  0.47398775  1
  O2-  O279  1  0.40365300  0.40438947  0.98054765  1
  O2-  O280  1  0.40622286  0.74026598  0.47631990  1
  O2-  O281  1  0.40631635  0.73993033  0.98202874  1
  O2-  O282  1  0.73886695  0.07293083  0.48020190  1
  O2-  O283  1  0.73823384  0.07077632  0.98051918  1
  O2-  O284  1  0.73732843  0.40417915  0.47750134  1
  O2-  O285  1  0.73707946  0.40591835  0.98112863  1
  O2-  O286  1  0.74055364  0.73851565  0.47620924  1
  O2-  O287  1  0.74128841  0.73947641  0.98073944  1
  O2-  O288  1  0.09362958  0.23874093  0.48068274  1
  O2-  O289  1  0.09674611  0.23744693  0.97787673  1
  O2-  O290  1  0.09466740  0.57084950  0.47871774  1
  O2-  O291  1  0.09275732  0.57541996  0.98394184  1
  O2-  O292  1  0.09704896  0.90392122  0.47694496  1
  O2-  O293  1  0.09578970  0.90529954  0.98155814  1
  O2-  O294  1  0.42531793  0.23873885  0.47919881  1
  O2-  O295  1  0.42632406  0.23730805  0.97886262  1
  O2-  O296  1  0.43074758  0.57429992  0.47512011  1
  O2-  O297  1  0.42703814  0.57390000  0.98288643  1
  O2-  O298  1  0.42997974  0.90303170  0.48111168  1
  O2-  O299  1  0.43002655  0.90502475  0.97767220  1
  O2-  O300  1  0.76369345  0.23830258  0.48164328  1
  O2-  O301  1  0.76203572  0.24105437  0.97652817  1
  O2-  O302  1  0.76583955  0.56772822  0.48075409  1
  O2-  O303  1  0.76348117  0.56955392  0.98327656  1
  O2-  O304  1  0.76190556  0.90615673  0.48038915  1
  O2-  O305  1  0.76178685  0.90523737  0.98085753  1
  O2-  O306  1  0.07237534  0.07049831  0.27294857  1
  O2-  O307  1  0.07133138  0.07134206  0.76205943  1
  O2-  O308  1  0.06838844  0.40505242  0.27287913  1
  O2-  O309  1  0.06948342  0.40337303  0.76596250  1
  O2-  O310  1  0.06780142  0.73913524  0.26674820  1
  O2-  O311  1  0.07270001  0.73882642  0.77080515  1
  O2-  O312  1  0.40296172  0.07152902  0.27291531  1
  O2-  O313  1  0.40360573  0.07310172  0.77235940  1
  O2-  O314  1  0.40408779  0.40514275  0.27168913  1
  O2-  O315  1  0.40587033  0.40611594  0.77258957  1
  O2-  O316  1  0.40897132  0.74012035  0.27171533  1
  O2-  O317  1  0.40500222  0.74051661  0.77005923  1
  O2-  O318  1  0.74097000  0.07159852  0.27046300  1
  O2-  O319  1  0.73546629  0.07294295  0.76994023  1
  O2-  O320  1  0.73352588  0.40215773  0.26964244  1
  O2-  O321  1  0.73935956  0.40706346  0.77169118  1
  O2-  O322  1  0.73740921  0.73587959  0.27428627  1
  O2-  O323  1  0.74408528  0.74379731  0.76866440  1
  O2-  O324  1  0.23737734  0.09493420  0.22833050  1
  O2-  O325  1  0.23776061  0.09406242  0.72555821  1
  O2-  O326  1  0.23629918  0.42608922  0.22906773  1
  O2-  O327  1  0.23898848  0.43141752  0.73158285  1
  O2-  O328  1  0.24687866  0.75629965  0.23152350  1
  O2-  O329  1  0.23574391  0.76525862  0.73015074  1
  O2-  O330  1  0.57011871  0.09241548  0.23104155  1
  O2-  O331  1  0.56790256  0.09271900  0.72785980  1
  O2-  O332  1  0.57108609  0.43181840  0.22879619  1
  O2-  O333  1  0.56920817  0.43159368  0.73362626  1
  O2-  O334  1  0.57389812  0.76303756  0.22865775  1
  O2-  O335  1  0.57055053  0.76169538  0.73298057  1
  O2-  O336  1  0.90860192  0.09322045  0.23368074  1
  O2-  O337  1  0.90427676  0.09495271  0.72869632  1
  O2-  O338  1  0.90392089  0.42745515  0.23018839  1
  O2-  O339  1  0.90513095  0.42829522  0.72722425  1
  O2-  O340  1  0.90239248  0.76247860  0.23143152  1
  O2-  O341  1  0.90926626  0.76091940  0.72683974  1
  O2-  O342  1  0.26042519  0.26212752  0.02297679  1
  O2-  O343  1  0.25907690  0.26129368  0.51339698  1
  O2-  O344  1  0.26214048  0.59232483  0.02361149  1
  O2-  O345  1  0.26207153  0.59727123  0.51884089  1
  O2-  O346  1  0.26464063  0.92926148  0.01519989  1
  O2-  O347  1  0.26400129  0.92980972  0.51781949  1
  O2-  O348  1  0.59440157  0.26274688  0.02155736  1
  O2-  O349  1  0.58911385  0.25612361  0.51602444  1
  O2-  O350  1  0.59644102  0.59545130  0.02099919  1
  O2-  O351  1  0.59489409  0.59514009  0.52274639  1
  O2-  O352  1  0.59396495  0.92675720  0.02469369  1
  O2-  O353  1  0.59390075  0.92818438  0.52123580  1
  O2-  O354  1  0.93126780  0.26345785  0.01521809  1
  O2-  O355  1  0.92562355  0.25951515  0.52158638  1
  O2-  O356  1  0.92683386  0.59687065  0.02030135  1
  O2-  O357  1  0.92877687  0.59529975  0.52311062  1
  O2-  O358  1  0.92840684  0.92851276  0.01929924  1
  O2-  O359  1  0.92806219  0.92517802  0.52455854  1
