# generated using pymatgen
data_Sr7Ca15Pr50Mn72O216
_symmetry_space_group_name_H-M   'P 1'
_cell_length_a   16.55791902
_cell_length_b   16.60467012
_cell_length_c   15.59372615
_cell_angle_alpha   89.99670446
_cell_angle_beta   90.00487973
_cell_angle_gamma   89.99698691
_symmetry_Int_Tables_number   1
_chemical_formula_structural   Sr7Ca15Pr50Mn72O216
_chemical_formula_sum   'Sr7 Ca15 Pr50 Mn72 O216'
_cell_volume   4287.32006466
_cell_formula_units_Z   1
loop_
 _symmetry_equiv_pos_site_id
 _symmetry_equiv_pos_as_xyz
  1  'x, y, z'
loop_
 _atom_type_symbol
 _atom_type_oxidation_number
  Sr2+  2.0
  Ca2+  2.0
  Pr3+  3.0
  Mn3.30+  3.3
  O2-  -2.0
loop_
 _atom_site_type_symbol
 _atom_site_label
 _atom_site_symmetry_multiplicity
 _atom_site_fract_x
 _atom_site_fract_y
 _atom_site_fract_z
 _atom_site_occupancy
  Sr2+  Sr0  1  0.83400627  0.16088695  0.87626005  1
  Sr2+  Sr1  1  0.16589557  0.15738289  0.37383522  1
  Sr2+  Sr2  1  0.16322450  0.48903137  0.37438418  1
  Sr2+  Sr3  1  0.83649124  0.84351681  0.12461796  1
  Sr2+  Sr4  1  1.00033474  0.32743156  0.87541771  1
  Sr2+  Sr5  1  1.00186044  0.65413955  0.87594137  1
  Sr2+  Sr6  1  0.67165497  0.32337049  0.87369614  1
  Ca2+  Ca7  1  0.49212750  0.15168848  0.37442968  1
  Ca2+  Ca8  1  0.33584244  0.64884315  0.87545796  1
  Ca2+  Ca9  1  0.33654991  0.31859340  0.37400517  1
  Ca2+  Ca10  1  0.16821898  0.18315546  0.12861685  1
  Ca2+  Ca11  1  1.00487686  0.65318883  0.37334652  1
  Ca2+  Ca12  1  0.83793754  0.51326012  0.12379089  1
  Ca2+  Ca13  1  0.66263664  0.34796129  0.62450279  1
  Ca2+  Ca14  1  1.00385225  0.98761685  0.37408994  1
  Ca2+  Ca15  1  1.00020051  0.98780247  0.87624772  1
  Ca2+  Ca16  1  0.67404863  0.65130509  0.87601401  1
  Ca2+  Ca17  1  1.00650710  0.31911252  0.37428267  1
  Ca2+  Ca18  1  0.33473532  0.98799496  0.37465346  1
  Ca2+  Ca19  1  0.49391882  0.48149840  0.37517154  1
  Ca2+  Ca20  1  0.66808661  0.32014320  0.37546698  1
  Ca2+  Ca21  1  0.16202918  0.48528478  0.87644699  1
  Pr3+  Pr22  1  0.50224316  0.18052250  0.12783850  1
  Pr3+  Pr23  1  0.49889321  0.15737168  0.87522375  1
  Pr3+  Pr24  1  0.50273209  0.84743866  0.62488324  1
  Pr3+  Pr25  1  0.50443968  0.18315705  0.62182048  1
  Pr3+  Pr26  1  0.16874324  0.84678133  0.62647907  1
  Pr3+  Pr27  1  -0.00382632  0.67772823  0.12554251  1
  Pr3+  Pr28  1  0.15779718  0.15558170  0.87638410  1
  Pr3+  Pr29  1  0.50402842  0.50980997  0.62368963  1
  Pr3+  Pr30  1  0.83549892  0.17907495  0.12596725  1
  Pr3+  Pr31  1  0.32924269  0.34536761  0.12861524  1
  Pr3+  Pr32  1  0.83105468  0.81961258  0.87628813  1
  Pr3+  Pr33  1  -0.00118537  0.34572625  0.62145725  1
  Pr3+  Pr34  1  0.49431115  0.82250758  0.37504779  1
  Pr3+  Pr35  1  -0.00307754  0.01286131  0.12640295  1
  Pr3+  Pr36  1  0.16293193  0.81990502  0.87498038  1
  Pr3+  Pr37  1  -0.00152696  0.67689619  0.62433913  1
  Pr3+  Pr38  1  0.66559004  0.01366731  0.12673809  1
  Pr3+  Pr39  1  0.50111570  0.48706736  0.87576206  1
  Pr3+  Pr40  1  0.50364559  0.84692152  0.12519451  1
  Pr3+  Pr41  1  0.67193922  0.99225629  0.87519139  1
  Pr3+  Pr42  1  0.33323384  0.32319788  0.87609222  1
  Pr3+  Pr43  1  0.66804317  0.65355645  0.37448470  1
  Pr3+  Pr44  1  0.49745368  0.81564505  0.87503924  1
  Pr3+  Pr45  1  0.83347038  0.50949156  0.62531382  1
  Pr3+  Pr46  1  0.16712592  0.84561998  0.12379842  1
  Pr3+  Pr47  1  0.16808966  0.51157207  0.12475913  1
  Pr3+  Pr48  1  0.33042699  0.67789414  0.62590956  1
  Pr3+  Pr49  1  0.16873033  0.18168158  0.62212300  1
  Pr3+  Pr50  1  0.82958675  0.48817478  0.87665619  1
  Pr3+  Pr51  1  0.83387705  0.15639549  0.37429739  1
  Pr3+  Pr52  1  0.32605696  0.01628827  0.12704336  1
  Pr3+  Pr53  1  0.16900246  0.51131706  0.62538207  1
  Pr3+  Pr54  1  0.33125978  0.34641645  0.62188843  1
  Pr3+  Pr55  1  0.83221446  0.48605116  0.37313967  1
  Pr3+  Pr56  1  0.33563895  0.98793455  0.87512234  1
  Pr3+  Pr57  1  0.83377106  0.18213111  0.62389878  1
  Pr3+  Pr58  1  -0.00211482  0.34654014  0.12768588  1
  Pr3+  Pr59  1  0.32970138  0.67918413  0.12412124  1
  Pr3+  Pr60  1  0.66333259  0.67879762  0.62617054  1
  Pr3+  Pr61  1  0.16407023  0.82333089  0.37492573  1
  Pr3+  Pr62  1  -0.00257793  0.01428080  0.62393563  1
  Pr3+  Pr63  1  0.33731301  0.65183261  0.37477969  1
  Pr3+  Pr64  1  0.66733441  0.67905383  0.12356779  1
  Pr3+  Pr65  1  0.32897361  0.01523049  0.62294825  1
  Pr3+  Pr66  1  0.50238921  0.51158230  0.12670112  1
  Pr3+  Pr67  1  0.83700060  0.84650534  0.62492151  1
  Pr3+  Pr68  1  0.66630193  0.34664014  0.12555011  1
  Pr3+  Pr69  1  0.66415297  0.01450538  0.62328045  1
  Pr3+  Pr70  1  0.66669717  0.98958585  0.37492885  1
  Pr3+  Pr71  1  0.83433653  0.82075040  0.37325637  1
  Mn3.30+  Mn72  1  0.16476158  0.00192474  0.00003413  1
  Mn3.30+  Mn73  1  0.16576946  0.00095277  0.49719713  1
  Mn3.30+  Mn74  1  0.16572617  0.33349647  0.00189755  1
  Mn3.30+  Mn75  1  0.16690126  0.33413087  0.49569572  1
  Mn3.30+  Mn76  1  0.16690865  0.66469970  -0.00241749  1
  Mn3.30+  Mn77  1  0.16565916  0.66653347  0.49935707  1
  Mn3.30+  Mn78  1  0.49944185  0.00106540  0.00023436  1
  Mn3.30+  Mn79  1  0.49691981  0.00192185  0.49849878  1
  Mn3.30+  Mn80  1  0.49983853  0.33324371  0.00076959  1
  Mn3.30+  Mn81  1  0.50143546  0.33289834  0.49559398  1
  Mn3.30+  Mn82  1  0.50008303  0.66487208  -0.00191450  1
  Mn3.30+  Mn83  1  0.49974427  0.66474307  0.49989073  1
  Mn3.30+  Mn84  1  0.83547125  0.00078312  -0.00076354  1
  Mn3.30+  Mn85  1  0.83441640  0.00072702  0.49777737  1
  Mn3.30+  Mn86  1  0.83348328  0.33452932  0.00165199  1
  Mn3.30+  Mn87  1  0.83153281  0.33374829  0.49729891  1
  Mn3.30+  Mn88  1  0.83366264  0.66534311  0.00008497  1
  Mn3.30+  Mn89  1  0.83419084  0.66531521  0.49827283  1
  Mn3.30+  Mn90  1  0.00301298  0.16726721  0.25047037  1
  Mn3.30+  Mn91  1  -0.00063540  0.16748532  0.75096886  1
  Mn3.30+  Mn92  1  -0.00086191  0.50028191  0.25135029  1
  Mn3.30+  Mn93  1  0.00176116  0.49969688  0.75069119  1
  Mn3.30+  Mn94  1  0.00039777  0.83369829  0.25134341  1
  Mn3.30+  Mn95  1  0.00039119  0.83388295  0.75077999  1
  Mn3.30+  Mn96  1  0.33308083  0.16746896  0.25246136  1
  Mn3.30+  Mn97  1  0.33212338  0.16779082  0.75015668  1
  Mn3.30+  Mn98  1  0.33441614  0.49804377  0.25201225  1
  Mn3.30+  Mn99  1  0.33289829  0.50006056  0.75237943  1
  Mn3.30+  Mn100  1  0.33226422  0.83486398  0.24966545  1
  Mn3.30+  Mn101  1  0.33385472  0.83177669  0.75160215  1
  Mn3.30+  Mn102  1  0.66462462  0.16890539  0.25430885  1
  Mn3.30+  Mn103  1  0.66734895  0.16907574  0.74845790  1
  Mn3.30+  Mn104  1  0.66644469  0.49842640  0.25200086  1
  Mn3.30+  Mn105  1  0.66710853  0.50022294  0.74923916  1
  Mn3.30+  Mn106  1  0.66636745  0.83366884  0.25004828  1
  Mn3.30+  Mn107  1  0.66678091  0.83367123  0.75092737  1
  Mn3.30+  Mn108  1  0.16539087  0.00190080  0.25185068  1
  Mn3.30+  Mn109  1  0.16512447  0.00133543  0.75073323  1
  Mn3.30+  Mn110  1  0.16594916  0.33282328  0.25240845  1
  Mn3.30+  Mn111  1  0.16632234  0.33482706  0.75006822  1
  Mn3.30+  Mn112  1  0.16530915  0.66656728  0.25048637  1
  Mn3.30+  Mn113  1  0.16738985  0.66444736  0.75301467  1
  Mn3.30+  Mn114  1  0.49613625  0.00166756  0.25052892  1
  Mn3.30+  Mn115  1  0.50020362  0.00123520  0.75034561  1
  Mn3.30+  Mn116  1  0.49991200  0.33238760  0.25408287  1
  Mn3.30+  Mn117  1  0.50124957  0.33369850  0.75007468  1
  Mn3.30+  Mn118  1  0.49999105  0.66541257  0.24959786  1
  Mn3.30+  Mn119  1  0.49985038  0.66424785  0.75254102  1
  Mn3.30+  Mn120  1  0.83511177  -0.00018796  0.25184828  1
  Mn3.30+  Mn121  1  0.83472866  0.00191631  0.75102097  1
  Mn3.30+  Mn122  1  0.83387750  0.33385343  0.25287638  1
  Mn3.30+  Mn123  1  0.83173775  0.33400168  0.74772848  1
  Mn3.30+  Mn124  1  0.83539049  0.66458475  0.25150060  1
  Mn3.30+  Mn125  1  0.83212953  0.66599666  0.75018921  1
  Mn3.30+  Mn126  1  0.00128967  0.16725748  0.00088559  1
  Mn3.30+  Mn127  1  0.00100032  0.16728619  0.49762245  1
  Mn3.30+  Mn128  1  0.00058492  0.49980758  0.00000892  1
  Mn3.30+  Mn129  1  0.00040041  0.50033459  0.49764951  1
  Mn3.30+  Mn130  1  0.00006225  0.83413823  -0.00145909  1
  Mn3.30+  Mn131  1  0.00090708  0.83351064  0.49935044  1
  Mn3.30+  Mn132  1  0.32979408  0.16773706  0.00084551  1
  Mn3.30+  Mn133  1  0.33557792  0.16754069  0.49650155  1
  Mn3.30+  Mn134  1  0.33225574  0.50021738  -0.00140081  1
  Mn3.30+  Mn135  1  0.33514550  0.49775772  0.49752087  1
  Mn3.30+  Mn136  1  0.33379861  0.83236341  -0.00138831  1
  Mn3.30+  Mn137  1  0.33241890  0.83417268  0.50029408  1
  Mn3.30+  Mn138  1  0.66766006  0.16810870  0.00099366  1
  Mn3.30+  Mn139  1  0.66418339  0.17026933  0.49629429  1
  Mn3.30+  Mn140  1  0.66864744  0.50168281  0.00275241  1
  Mn3.30+  Mn141  1  0.66488426  0.49666401  0.49575525  1
  Mn3.30+  Mn142  1  0.66682440  0.83398055  -0.00041339  1
  Mn3.30+  Mn143  1  0.66663735  0.83340159  0.49914865  1
  O2-  O144  1  0.02625042  0.15885759  0.12611976  1
  O2-  O145  1  0.02465415  0.16127541  0.62401115  1
  O2-  O146  1  0.02402272  0.49597686  0.12631434  1
  O2-  O147  1  0.02422941  0.49525778  0.62394457  1
  O2-  O148  1  0.02319526  0.82643652  0.12531163  1
  O2-  O149  1  0.02469322  0.82566548  0.62564942  1
  O2-  O150  1  0.35852074  0.16275865  0.12556403  1
  O2-  O151  1  0.35924137  0.16215064  0.62281714  1
  O2-  O152  1  0.35868577  0.49470807  0.12684990  1
  O2-  O153  1  0.35988307  0.49530680  0.62470789  1
  O2-  O154  1  0.35998390  0.82685347  0.12144968  1
  O2-  O155  1  0.35953787  0.82619194  0.62774779  1
  O2-  O156  1  0.68989782  0.16103945  0.12973555  1
  O2-  O157  1  0.68990464  0.15968394  0.62096546  1
  O2-  O158  1  0.69464352  0.49468121  0.12886697  1
  O2-  O159  1  0.68922010  0.49452594  0.61953652  1
  O2-  O160  1  0.68607672  0.82828026  0.12570486  1
  O2-  O161  1  0.69214675  0.82746196  0.62417505  1
  O2-  O162  1  0.14369699  0.33055687  0.12741612  1
  O2-  O163  1  0.14446547  0.33083825  0.62168785  1
  O2-  O164  1  0.14193403  0.66255474  0.12399509  1
  O2-  O165  1  0.14310609  0.66118152  0.62727739  1
  O2-  O166  1  0.14058108  0.99224166  0.12462843  1
  O2-  O167  1  0.14176844  0.99568434  0.62549401  1
  O2-  O168  1  0.47380463  0.32918240  0.12554278  1
  O2-  O169  1  0.47495334  0.33132178  0.62414572  1
  O2-  O170  1  0.47301929  0.66057739  0.12448651  1
  O2-  O171  1  0.47386049  0.65879826  0.62730521  1
  O2-  O172  1  0.47148985  0.99490438  0.12460975  1
  O2-  O173  1  0.47377713  0.99523079  0.62616741  1
  O2-  O174  1  0.80934114  0.32714543  0.12985518  1
  O2-  O175  1  0.80520260  0.33162170  0.61950551  1
  O2-  O176  1  0.81062281  0.66197278  0.12646989  1
  O2-  O177  1  0.80664366  0.66079057  0.62337816  1
  O2-  O178  1  0.80943932  0.99927179  0.12838313  1
  O2-  O179  1  0.80760129  0.99438563  0.62254418  1
  O2-  O180  1  0.31438116  0.17453822  0.37518599  1
  O2-  O181  1  0.30384911  0.17403338  0.87674703  1
  O2-  O182  1  0.31238644  0.50745563  0.37389380  1
  O2-  O183  1  0.30538897  0.50303899  0.87453548  1
  O2-  O184  1  0.30933716  0.83891137  0.37623579  1
  O2-  O185  1  0.30703713  0.84159658  0.87532257  1
  O2-  O186  1  0.63531093  0.17339447  0.37502280  1
  O2-  O187  1  0.64334562  0.16545776  0.87405214  1
  O2-  O188  1  0.63475507  0.50992434  0.37354316  1
  O2-  O189  1  0.64457094  0.50701079  0.87778360  1
  O2-  O190  1  0.63877366  0.83852312  0.37478010  1
  O2-  O191  1  0.63999313  0.84508571  0.87544445  1
  O2-  O192  1  0.97652743  0.17485262  0.37511388  1
  O2-  O193  1  0.98334647  0.17319212  0.87418301  1
  O2-  O194  1  0.97505321  0.51053298  0.37514511  1
  O2-  O195  1  0.97438279  0.49908473  0.87469331  1
  O2-  O196  1  0.97695156  0.84325013  0.37662694  1
  O2-  O197  1  0.97577872  0.84016387  0.87239012  1
  O2-  O198  1  0.19289722  -0.00339042  0.37519002  1
  O2-  O199  1  0.19328223  0.00867496  0.87512562  1
  O2-  O200  1  0.19269513  0.33599710  0.37515997  1
  O2-  O201  1  0.18936840  0.33765737  0.87595855  1
  O2-  O202  1  0.19362649  0.67449277  0.37411187  1
  O2-  O203  1  0.19536967  0.67421769  0.87485458  1
  O2-  O204  1  0.52287322  0.00282681  0.37368589  1
  O2-  O205  1  0.52605419  0.00913548  0.87480488  1
  O2-  O206  1  0.52861246  0.34112985  0.37415043  1
  O2-  O207  1  0.52124184  0.33668009  0.87627771  1
  O2-  O208  1  0.52468598  0.67706450  0.37361736  1
  O2-  O209  1  0.53171834  0.66908256  0.87470359  1
  O2-  O210  1  0.86107383  0.00743910  0.37539480  1
  O2-  O211  1  0.85784553  0.00567662  0.87340952  1
  O2-  O212  1  0.86364567  0.33843628  0.37453513  1
  O2-  O213  1  0.85005723  0.33959390  0.87548023  1
  O2-  O214  1  0.86152635  0.67207486  0.37641460  1
  O2-  O215  1  0.85249292  0.67031784  0.87391602  1
  O2-  O216  1  0.23595223  0.09729904  0.02310567  1
  O2-  O217  1  0.23825115  0.09351032  0.52123611  1
  O2-  O218  1  0.24051479  0.42560981  0.02237502  1
  O2-  O219  1  0.24059135  0.42812937  0.52145626  1
  O2-  O220  1  0.23981552  0.76097245  0.02082044  1
  O2-  O221  1  0.23877052  0.76151970  0.52165516  1
  O2-  O222  1  0.57109754  0.09474508  0.02155318  1
  O2-  O223  1  0.57198957  0.09430538  0.52023050  1
  O2-  O224  1  0.57409184  0.42920414  0.02136422  1
  O2-  O225  1  0.57000973  0.42873797  0.51848372  1
  O2-  O226  1  0.56878333  0.76073476  0.01927246  1
  O2-  O227  1  0.57113327  0.76019699  0.52219490  1
  O2-  O228  1  0.90668935  0.09419420  0.02301326  1
  O2-  O229  1  0.90413089  0.09520429  0.52032309  1
  O2-  O230  1  0.90578970  0.42733580  0.02167865  1
  O2-  O231  1  0.90392607  0.42848950  0.51976426  1
  O2-  O232  1  0.90705825  0.75805907  0.01486914  1
  O2-  O233  1  0.90603270  0.76223812  0.52084251  1
  O2-  O234  1  0.26327874  0.26086170  0.23168476  1
  O2-  O235  1  0.26279153  0.26192019  0.72905080  1
  O2-  O236  1  0.26101213  0.59653619  0.22986828  1
  O2-  O237  1  0.26211725  0.59315302  0.72733130  1
  O2-  O238  1  0.25952669  0.92721245  0.22647213  1
  O2-  O239  1  0.26135977  0.93043916  0.73042369  1
  O2-  O240  1  0.59465600  0.26186891  0.22655519  1
  O2-  O241  1  0.59342656  0.26049363  0.72724147  1
  O2-  O242  1  0.59593349  0.59560812  0.22705363  1
  O2-  O243  1  0.59412201  0.59298620  0.72655141  1
  O2-  O244  1  0.59123298  0.92990039  0.22982161  1
  O2-  O245  1  0.59645534  0.92757844  0.72745832  1
  O2-  O246  1  0.92725093  0.25835021  0.22789761  1
  O2-  O247  1  0.92601229  0.26026086  0.72553296  1
  O2-  O248  1  0.92774830  0.59413638  0.22953628  1
  O2-  O249  1  0.92786909  0.59221084  0.72772547  1
  O2-  O250  1  0.93013429  0.92758559  0.23225329  1
  O2-  O251  1  0.92612574  0.92762383  0.72620764  1
  O2-  O252  1  0.09348020  0.24011367  0.26553990  1
  O2-  O253  1  0.09783813  0.23574847  0.76224962  1
  O2-  O254  1  0.09413624  0.57312452  0.26350387  1
  O2-  O255  1  0.09876011  0.56872382  0.76804993  1
  O2-  O256  1  0.09782974  0.90205134  0.26576383  1
  O2-  O257  1  0.09904540  0.90498030  0.76761124  1
  O2-  O258  1  0.43418753  0.23487162  0.26700148  1
  O2-  O259  1  0.42742401  0.23915908  0.77029509  1
  O2-  O260  1  0.43131981  0.57169717  0.27046867  1
  O2-  O261  1  0.42991624  0.56902038  0.77159235  1
  O2-  O262  1  0.42946294  0.90303670  0.26656997  1
  O2-  O263  1  0.42883761  0.90396530  0.77173444  1
  O2-  O264  1  0.76295412  0.23864890  0.27079829  1
  O2-  O265  1  0.76082624  0.23759833  0.76111127  1
  O2-  O266  1  0.75892496  0.57306224  0.27511080  1
  O2-  O267  1  0.76244809  0.57181862  0.76607203  1
  O2-  O268  1  0.75987132  0.90921789  0.27498051  1
  O2-  O269  1  0.76376689  0.90639888  0.77023577  1
  O2-  O270  1  0.06930758  0.06664302  0.48242958  1
  O2-  O271  1  0.07045467  0.07002940  0.97818752  1
  O2-  O272  1  0.06765288  0.40400691  0.48209966  1
  O2-  O273  1  0.07279911  0.40551674  0.98877306  1
  O2-  O274  1  0.07028338  0.73897374  0.47919299  1
  O2-  O275  1  0.07676407  0.74051754  0.98176947  1
  O2-  O276  1  0.40096027  0.06787609  0.48142948  1
  O2-  O277  1  0.40269722  0.07355394  0.97903037  1
  O2-  O278  1  0.40370930  0.39947216  0.48046517  1
  O2-  O279  1  0.40585851  0.40629187  0.97983021  1
  O2-  O280  1  0.40483181  0.73704532  0.48083376  1
  O2-  O281  1  0.40642587  0.73484996  0.97562288  1
  O2-  O282  1  0.73615061  0.07420877  0.47730549  1
  O2-  O283  1  0.73764336  0.07014184  0.98643554  1
  O2-  O284  1  0.73900383  0.40683906  0.47116075  1
  O2-  O285  1  0.73991496  0.40908177  0.98487534  1
  O2-  O286  1  0.73969766  0.73863613  0.47798841  1
  O2-  O287  1  0.73714356  0.73992571  0.98058158  1
  O2-  O288  1  0.09409421  0.23888871  0.48669081  1
  O2-  O289  1  0.09722037  0.23731485  0.98605186  1
  O2-  O290  1  0.09391594  0.57362036  0.48670186  1
  O2-  O291  1  0.09881312  0.56891946  0.98266510  1
  O2-  O292  1  0.09810086  0.90177462  0.48535957  1
  O2-  O293  1  0.09788634  0.90429152  0.98141397  1
  O2-  O294  1  0.43553224  0.23502622  0.48259656  1
  O2-  O295  1  0.42528633  0.23737420  0.97962259  1
  O2-  O296  1  0.42996463  0.57024846  0.47885952  1
  O2-  O297  1  0.43102884  0.56982148  0.98061592  1
  O2-  O298  1  0.42906884  0.90182924  0.48442729  1
  O2-  O299  1  0.42950296  0.90478097  0.97741144  1
  O2-  O300  1  0.76247284  0.23743440  0.47799437  1
  O2-  O301  1  0.76001952  0.24001908  0.99037915  1
  O2-  O302  1  0.75894544  0.57047473  0.47709784  1
  O2-  O303  1  0.76188193  0.57299697  0.98249149  1
  O2-  O304  1  0.76198922  0.90641914  0.47750472  1
  O2-  O305  1  0.76227412  0.90828906  0.97770231  1
  O2-  O306  1  0.06829762  0.06706137  0.26884859  1
  O2-  O307  1  0.07017417  0.06989739  0.76996074  1
  O2-  O308  1  0.06690961  0.40394993  0.26715820  1
  O2-  O309  1  0.07335725  0.40550976  0.76199111  1
  O2-  O310  1  0.07294088  0.73905942  0.27142942  1
  O2-  O311  1  0.07591723  0.73953593  0.76808775  1
  O2-  O312  1  0.40043126  0.06792420  0.26785328  1
  O2-  O313  1  0.40276700  0.07445122  0.77167223  1
  O2-  O314  1  0.40534190  0.39979806  0.26940261  1
  O2-  O315  1  0.40478999  0.40625659  0.77076109  1
  O2-  O316  1  0.40444882  0.73800575  0.26950705  1
  O2-  O317  1  0.40632377  0.73442067  0.77385706  1
  O2-  O318  1  0.73700595  0.07454371  0.27319319  1
  O2-  O319  1  0.73617279  0.06963684  0.76306445  1
  O2-  O320  1  0.73632010  0.40490482  0.27466735  1
  O2-  O321  1  0.74219178  0.41175078  0.76640456  1
  O2-  O322  1  0.74177270  0.73772492  0.27121292  1
  O2-  O323  1  0.73568019  0.74009799  0.77116612  1
  O2-  O324  1  0.23630562  0.09389303  0.22798102  1
  O2-  O325  1  0.23700911  0.09555084  0.72837366  1
  O2-  O326  1  0.23849808  0.42690794  0.22836198  1
  O2-  O327  1  0.24272428  0.42642912  0.72750522  1
  O2-  O328  1  0.23880160  0.76187438  0.22846982  1
  O2-  O329  1  0.23982738  0.76092652  0.72916758  1
  O2-  O330  1  0.57054675  0.09225432  0.22866725  1
  O2-  O331  1  0.57189774  0.09653909  0.72836623  1
  O2-  O332  1  0.57293757  0.42658013  0.22595890  1
  O2-  O333  1  0.57111072  0.43014378  0.73428652  1
  O2-  O334  1  0.57044526  0.75895294  0.22859478  1
  O2-  O335  1  0.56918842  0.76101809  0.72941537  1
  O2-  O336  1  0.90510425  0.09555259  0.23130757  1
  O2-  O337  1  0.90551764  0.09412046  0.72525017  1
  O2-  O338  1  0.90296449  0.43014238  0.22996018  1
  O2-  O339  1  0.90704285  0.42664618  0.72811020  1
  O2-  O340  1  0.90842632  0.76001097  0.23456805  1
  O2-  O341  1  0.90332294  0.75931111  0.72967637  1
  O2-  O342  1  0.26399874  0.26454272  0.01861468  1
  O2-  O343  1  0.26251758  0.25962245  0.52079022  1
  O2-  O344  1  0.26149226  0.59357534  0.02311124  1
  O2-  O345  1  0.26301558  0.59494532  0.51937088  1
  O2-  O346  1  0.26080474  0.93101212  0.01917149  1
  O2-  O347  1  0.25994639  0.92698515  0.52480686  1
  O2-  O348  1  0.59164744  0.25984714  0.02309367  1
  O2-  O349  1  0.59612979  0.26367530  0.52393653  1
  O2-  O350  1  0.59414223  0.59366796  0.02545538  1
  O2-  O351  1  0.59539931  0.59589762  0.52053827  1
  O2-  O352  1  0.59505375  0.92891243  0.02210630  1
  O2-  O353  1  0.59360063  0.92866018  0.51944559  1
  O2-  O354  1  0.92712510  0.25922833  0.02356624  1
  O2-  O355  1  0.92391316  0.26018645  0.52222008  1
  O2-  O356  1  0.93008060  0.59335433  0.01933908  1
  O2-  O357  1  0.92490180  0.59219771  0.52437766  1
  O2-  O358  1  0.92905165  0.93014907  0.01737010  1
  O2-  O359  1  0.92860611  0.92523445  0.52325772  1
