# generated using pymatgen
data_Sr7Ca15Pr50Mn72O216
_symmetry_space_group_name_H-M   'P 1'
_cell_length_a   16.55577016
_cell_length_b   16.60178712
_cell_length_c   15.58959666
_cell_angle_alpha   89.99886619
_cell_angle_beta   89.99986209
_cell_angle_gamma   90.00564175
_symmetry_Int_Tables_number   1
_chemical_formula_structural   Sr7Ca15Pr50Mn72O216
_chemical_formula_sum   'Sr7 Ca15 Pr50 Mn72 O216'
_cell_volume   4284.88436459
_cell_formula_units_Z   1
loop_
 _symmetry_equiv_pos_site_id
 _symmetry_equiv_pos_as_xyz
  1  'x, y, z'
loop_
 _atom_type_symbol
 _atom_type_oxidation_number
  Sr2+  2.0
  Ca2+  2.0
  Pr3+  3.0
  Mn3.30+  3.3
  O2-  -2.0
loop_
 _atom_site_type_symbol
 _atom_site_label
 _atom_site_symmetry_multiplicity
 _atom_site_fract_x
 _atom_site_fract_y
 _atom_site_fract_z
 _atom_site_occupancy
  Sr2+  Sr0  1  0.33056652  0.67415257  0.12558382  1
  Sr2+  Sr1  1  0.83362362  0.50777508  0.62497491  1
  Sr2+  Sr2  1  0.49917155  0.82374073  0.87561851  1
  Sr2+  Sr3  1  -0.00425936  0.00674594  0.12238185  1
  Sr2+  Sr4  1  0.16777078  0.50893003  0.62463109  1
  Sr2+  Sr5  1  0.33117846  0.34440256  0.12569208  1
  Sr2+  Sr6  1  0.33571654  0.32652024  0.37351015  1
  Ca2+  Ca7  1  0.66465945  0.34914428  0.62720888  1
  Ca2+  Ca8  1  0.83002895  0.14976517  0.87575593  1
  Ca2+  Ca9  1  0.83571861  0.84762331  0.62552860  1
  Ca2+  Ca10  1  0.66290376  0.68290137  0.12525325  1
  Ca2+  Ca11  1  0.66642926  0.01401180  0.62737037  1
  Ca2+  Ca12  1  -0.00256165  0.34708813  0.12339820  1
  Ca2+  Ca13  1  -0.00299488  0.68231694  0.12537005  1
  Ca2+  Ca14  1  0.66254744  0.34752161  0.12226426  1
  Ca2+  Ca15  1  0.99917883  0.98555418  0.87681743  1
  Ca2+  Ca16  1  0.16075611  0.14834640  0.87627851  1
  Ca2+  Ca17  1  0.17008069  0.51290573  0.12572503  1
  Ca2+  Ca18  1  0.83755800  0.84740828  0.12433822  1
  Ca2+  Ca19  1  0.49648070  0.48377758  0.37228746  1
  Ca2+  Ca20  1  0.16200938  0.81659732  0.37245942  1
  Ca2+  Ca21  1  0.67526078  0.31634511  0.87544157  1
  Pr3+  Pr22  1  -0.00360031  0.34787087  0.62688873  1
  Pr3+  Pr23  1  0.16512469  0.48833773  0.87807796  1
  Pr3+  Pr24  1  0.49949757  0.48868531  0.87675572  1
  Pr3+  Pr25  1  1.00094686  0.65523559  0.87784558  1
  Pr3+  Pr26  1  1.00216882  0.31858237  0.87628623  1
  Pr3+  Pr27  1  0.50553956  0.51061427  0.62207006  1
  Pr3+  Pr28  1  0.33588076  0.32168548  0.87647895  1
  Pr3+  Pr29  1  0.67078207  0.98736620  0.87349723  1
  Pr3+  Pr30  1  0.83329037  0.48674052  0.37460937  1
  Pr3+  Pr31  1  0.83114315  0.15480164  0.37468151  1
  Pr3+  Pr32  1  0.16525426  0.48577631  0.37194607  1
  Pr3+  Pr33  1  0.83309676  0.17957258  0.62831020  1
  Pr3+  Pr34  1  1.00364092  0.65378103  0.37185761  1
  Pr3+  Pr35  1  0.33027179  0.01278190  0.62703941  1
  Pr3+  Pr36  1  0.50084475  0.84389716  0.12454974  1
  Pr3+  Pr37  1  -0.00626161  0.67918242  0.62466326  1
  Pr3+  Pr38  1  0.83653716  0.51291868  0.12448928  1
  Pr3+  Pr39  1  0.33650689  0.65543100  0.87772800  1
  Pr3+  Pr40  1  0.16883891  0.17905142  0.62894353  1
  Pr3+  Pr41  1  0.83055155  0.82084177  0.37269948  1
  Pr3+  Pr42  1  0.32993053  0.67702929  0.62428741  1
  Pr3+  Pr43  1  0.66785999  0.01017365  0.12337942  1
  Pr3+  Pr44  1  0.50439625  0.51353424  0.12792532  1
  Pr3+  Pr45  1  0.33454054  0.65129174  0.37223754  1
  Pr3+  Pr46  1  0.16813393  0.84483683  0.62369402  1
  Pr3+  Pr47  1  0.84000522  0.18136859  0.12186731  1
  Pr3+  Pr48  1  0.50020651  0.15499477  0.87617340  1
  Pr3+  Pr49  1  0.33522169  0.98821570  0.37495106  1
  Pr3+  Pr50  1  0.50484397  0.84919777  0.62566414  1
  Pr3+  Pr51  1  0.50713852  0.18282579  0.62656250  1
  Pr3+  Pr52  1  0.50380034  0.18234868  0.12325953  1
  Pr3+  Pr53  1  0.82887617  0.48574351  0.87493287  1
  Pr3+  Pr54  1  1.00386846  0.32159601  0.37445312  1
  Pr3+  Pr55  1  0.16726403  0.84434425  0.12600653  1
  Pr3+  Pr56  1  -0.00540006  0.01154018  0.62729333  1
  Pr3+  Pr57  1  0.66958068  0.98884828  0.37650180  1
  Pr3+  Pr58  1  0.49606953  0.15892267  0.37416510  1
  Pr3+  Pr59  1  0.49725050  0.82163939  0.37446051  1
  Pr3+  Pr60  1  0.66635392  0.67791273  0.62432121  1
  Pr3+  Pr61  1  0.66987596  0.65586832  0.87762857  1
  Pr3+  Pr62  1  0.83119416  0.82317621  0.87744837  1
  Pr3+  Pr63  1  0.33498607  0.98566930  0.87518530  1
  Pr3+  Pr64  1  0.67002742  0.65132280  0.37188708  1
  Pr3+  Pr65  1  1.00407570  0.98367443  0.37394398  1
  Pr3+  Pr66  1  0.16532600  0.15732390  0.37380103  1
  Pr3+  Pr67  1  0.32820723  0.01047285  0.12298007  1
  Pr3+  Pr68  1  0.33278122  0.34753648  0.62538964  1
  Pr3+  Pr69  1  0.16190687  0.82152218  0.87647846  1
  Pr3+  Pr70  1  0.16628206  0.17667836  0.12152231  1
  Pr3+  Pr71  1  0.66839127  0.32320533  0.37436174  1
  Mn3.30+  Mn72  1  0.16224767  -0.00029281  -0.00181124  1
  Mn3.30+  Mn73  1  0.16576198  -0.00073284  0.49987263  1
  Mn3.30+  Mn74  1  0.16502824  0.33253131  0.00121307  1
  Mn3.30+  Mn75  1  0.16800511  0.33265137  0.50035597  1
  Mn3.30+  Mn76  1  0.16548960  0.66543052  0.00289005  1
  Mn3.30+  Mn77  1  0.16580059  0.66604402  0.49937449  1
  Mn3.30+  Mn78  1  0.49957773  0.00017842  0.00039520  1
  Mn3.30+  Mn79  1  0.50167773  0.00249870  0.50077489  1
  Mn3.30+  Mn80  1  0.50436597  0.33471919  -0.00079557  1
  Mn3.30+  Mn81  1  0.50213372  0.33438805  0.49988394  1
  Mn3.30+  Mn82  1  0.50240427  0.66745320  0.00207261  1
  Mn3.30+  Mn83  1  0.49974267  0.66591463  0.49769673  1
  Mn3.30+  Mn84  1  0.83471895  0.00023456  -0.00178009  1
  Mn3.30+  Mn85  1  0.83269850  -0.00066448  0.50215543  1
  Mn3.30+  Mn86  1  0.83237657  0.33289583  0.00044537  1
  Mn3.30+  Mn87  1  0.83298414  0.33304308  0.50105171  1
  Mn3.30+  Mn88  1  0.83369010  0.66805654  0.00447034  1
  Mn3.30+  Mn89  1  0.83329380  0.66714028  0.49935970  1
  Mn3.30+  Mn90  1  -0.00107291  0.16666599  0.24788041  1
  Mn3.30+  Mn91  1  -0.00046873  0.16436919  0.75395456  1
  Mn3.30+  Mn92  1  0.00147543  0.49990926  0.24484211  1
  Mn3.30+  Mn93  1  -0.00107012  0.50057031  0.75182508  1
  Mn3.30+  Mn94  1  -0.00122841  0.83141821  0.24868551  1
  Mn3.30+  Mn95  1  -0.00218287  0.83372656  0.75009163  1
  Mn3.30+  Mn96  1  0.33235468  0.16780622  0.24832891  1
  Mn3.30+  Mn97  1  0.33296162  0.16681544  0.75268047  1
  Mn3.30+  Mn98  1  0.33379114  0.49879422  0.24807889  1
  Mn3.30+  Mn99  1  0.33451649  0.50051505  0.75085468  1
  Mn3.30+  Mn100  1  0.33053977  0.83194143  0.25168456  1
  Mn3.30+  Mn101  1  0.33354130  0.83250744  0.74903148  1
  Mn3.30+  Mn102  1  0.66741440  0.16840873  0.24788877  1
  Mn3.30+  Mn103  1  0.66893455  0.16771723  0.75135869  1
  Mn3.30+  Mn104  1  0.66763842  0.49915656  0.24880669  1
  Mn3.30+  Mn105  1  0.66692303  0.49885131  0.75038843  1
  Mn3.30+  Mn106  1  0.66727610  0.83335129  0.24845588  1
  Mn3.30+  Mn107  1  0.66845817  0.83384115  0.74822331  1
  Mn3.30+  Mn108  1  0.16533856  -0.00080613  0.25032497  1
  Mn3.30+  Mn109  1  0.16271441  -0.00064242  0.75160962  1
  Mn3.30+  Mn110  1  0.16530541  0.33316568  0.24599473  1
  Mn3.30+  Mn111  1  0.16731116  0.33233566  0.75272026  1
  Mn3.30+  Mn112  1  0.16551075  0.66583401  0.24797025  1
  Mn3.30+  Mn113  1  0.16569635  0.66591580  0.74970294  1
  Mn3.30+  Mn114  1  0.49982762  0.00141997  0.24918869  1
  Mn3.30+  Mn115  1  0.50137529  0.00136263  0.74993473  1
  Mn3.30+  Mn116  1  0.50139104  0.33526394  0.24752626  1
  Mn3.30+  Mn117  1  0.50501536  0.33402557  0.75334010  1
  Mn3.30+  Mn118  1  0.50175750  0.66643710  0.25010237  1
  Mn3.30+  Mn119  1  0.50013202  0.66728625  0.74988787  1
  Mn3.30+  Mn120  1  0.83446589  -0.00040244  0.24984793  1
  Mn3.30+  Mn121  1  0.83292327  -0.00042204  0.74962781  1
  Mn3.30+  Mn122  1  0.83398733  0.33393352  0.24682163  1
  Mn3.30+  Mn123  1  0.83117273  0.33182638  0.75171807  1
  Mn3.30+  Mn124  1  0.83381174  0.66797779  0.24605668  1
  Mn3.30+  Mn125  1  0.83328417  0.66724104  0.74996036  1
  Mn3.30+  Mn126  1  -0.00074378  0.16473229  -0.00282698  1
  Mn3.30+  Mn127  1  -0.00046204  0.16611973  0.50162193  1
  Mn3.30+  Mn128  1  0.00038550  0.49989165  0.00306122  1
  Mn3.30+  Mn129  1  0.00027866  0.50095696  0.49982520  1
  Mn3.30+  Mn130  1  -0.00286121  0.83296754  0.00121004  1
  Mn3.30+  Mn131  1  -0.00039878  0.83216505  0.49962280  1
  Mn3.30+  Mn132  1  0.33112645  0.16694978  -0.00219262  1
  Mn3.30+  Mn133  1  0.33416708  0.16763278  0.50157057  1
  Mn3.30+  Mn134  1  0.33198723  0.49952635  0.00239357  1
  Mn3.30+  Mn135  1  0.33596070  0.49937111  0.49860587  1
  Mn3.30+  Mn136  1  0.33238428  0.83146758  0.00113966  1
  Mn3.30+  Mn137  1  0.33202500  0.83282216  0.49829389  1
  Mn3.30+  Mn138  1  0.67040725  0.16850406  -0.00041211  1
  Mn3.30+  Mn139  1  0.66646106  0.16790040  0.50139084  1
  Mn3.30+  Mn140  1  0.66792767  0.49916749  0.00168034  1
  Mn3.30+  Mn141  1  0.66641819  0.49900254  0.49843992  1
  Mn3.30+  Mn142  1  0.66780223  0.83276273  0.00213822  1
  Mn3.30+  Mn143  1  0.66801747  0.83452807  0.50134924  1
  O2-  O144  1  0.02313901  0.15959281  0.12099240  1
  O2-  O145  1  0.02608328  0.15917202  0.62846111  1
  O2-  O146  1  0.02819469  0.48994802  0.12385914  1
  O2-  O147  1  0.01783666  0.49646334  0.62807994  1
  O2-  O148  1  0.02393526  0.83001857  0.12577029  1
  O2-  O149  1  0.02507825  0.82744915  0.62444075  1
  O2-  O150  1  0.35815542  0.15819383  0.12127578  1
  O2-  O151  1  0.36092870  0.16057681  0.62856581  1
  O2-  O152  1  0.35882428  0.50029176  0.12428395  1
  O2-  O153  1  0.36003076  0.49776412  0.62558469  1
  O2-  O154  1  0.35612415  0.83315265  0.12714922  1
  O2-  O155  1  0.35965574  0.82618860  0.62166523  1
  O2-  O156  1  0.69565550  0.15689523  0.12433737  1
  O2-  O157  1  0.69018058  0.15816099  0.62698094  1
  O2-  O158  1  0.69400008  0.48938807  0.12509439  1
  O2-  O159  1  0.68413534  0.49645486  0.62438934  1
  O2-  O160  1  0.69372905  0.83131444  0.12670612  1
  O2-  O161  1  0.69419394  0.82433262  0.62309569  1
  O2-  O162  1  0.13726321  0.32201568  0.12222768  1
  O2-  O163  1  0.14130147  0.32732836  0.62880557  1
  O2-  O164  1  0.14033172  0.65933290  0.12447564  1
  O2-  O165  1  0.13936546  0.66380117  0.62517652  1
  O2-  O166  1  0.14577644  0.99391991  0.12509780  1
  O2-  O167  1  0.13879865  0.99290841  0.62590206  1
  O2-  O168  1  0.48113494  0.32983387  0.12208637  1
  O2-  O169  1  0.47678939  0.33031481  0.62923146  1
  O2-  O170  1  0.48006936  0.66341289  0.12661844  1
  O2-  O171  1  0.47376325  0.65797942  0.62049364  1
  O2-  O172  1  0.47322779  0.99430075  0.12513526  1
  O2-  O173  1  0.47429696  0.99782066  0.62520119  1
  O2-  O174  1  0.80453101  0.32798074  0.12378032  1
  O2-  O175  1  0.80707902  0.32741176  0.62774932  1
  O2-  O176  1  0.80274398  0.65791148  0.12592033  1
  O2-  O177  1  0.80953176  0.66094373  0.62215033  1
  O2-  O178  1  0.81141323  0.99498019  0.12478293  1
  O2-  O179  1  0.80804644  0.99299916  0.62385426  1
  O2-  O180  1  0.31029970  0.16935980  0.37593999  1
  O2-  O181  1  0.30510208  0.17415695  0.87490453  1
  O2-  O182  1  0.31010377  0.50159149  0.37316305  1
  O2-  O183  1  0.31058377  0.50553946  0.87641539  1
  O2-  O184  1  0.30483632  0.84128465  0.37649874  1
  O2-  O185  1  0.30758949  0.83648828  0.87519567  1
  O2-  O186  1  0.64058956  0.17478395  0.37272895  1
  O2-  O187  1  0.64286238  0.17152312  0.87576231  1
  O2-  O188  1  0.64001811  0.50400412  0.37319037  1
  O2-  O189  1  0.64239201  0.51058280  0.87662157  1
  O2-  O190  1  0.64045103  0.84140965  0.37603001  1
  O2-  O191  1  0.64814623  0.83766871  0.87507665  1
  O2-  O192  1  0.97468581  0.17462447  0.37602989  1
  O2-  O193  1  0.96988000  0.17408814  0.87439940  1
  O2-  O194  1  0.97708712  0.50449052  0.37069186  1
  O2-  O195  1  0.97356808  0.50675281  0.87774404  1
  O2-  O196  1  0.97482115  0.83399698  0.37534849  1
  O2-  O197  1  0.97599317  0.83348876  0.87423155  1
  O2-  O198  1  0.19259763  0.01019212  0.37543422  1
  O2-  O199  1  0.19168789  0.00001004  0.87352200  1
  O2-  O200  1  0.18425169  0.33439326  0.37308881  1
  O2-  O201  1  0.19249334  0.34143038  0.87589993  1
  O2-  O202  1  0.18922021  0.67275348  0.37501670  1
  O2-  O203  1  0.19153579  0.67429716  0.87521499  1
  O2-  O204  1  0.52548148  0.00864318  0.37413034  1
  O2-  O205  1  0.52540173  0.00457066  0.87561524  1
  O2-  O206  1  0.52433502  0.33189021  0.37238669  1
  O2-  O207  1  0.53223257  0.34026310  0.87663532  1
  O2-  O208  1  0.52767297  0.67630619  0.37458279  1
  O2-  O209  1  0.52555134  0.66851298  0.87867361  1
  O2-  O210  1  0.85881900  0.00725705  0.37769325  1
  O2-  O211  1  0.85667633  0.00346815  0.87302104  1
  O2-  O212  1  0.85989303  0.33603295  0.37240387  1
  O2-  O213  1  0.85883226  0.33973625  0.87620423  1
  O2-  O214  1  0.85897750  0.67255557  0.37254685  1
  O2-  O215  1  0.85696142  0.67403790  0.87895945  1
  O2-  O216  1  0.23740105  0.09029609  0.01886837  1
  O2-  O217  1  0.23809892  0.09421021  0.52343579  1
  O2-  O218  1  0.23519329  0.42959181  0.01842123  1
  O2-  O219  1  0.24308863  0.42384263  0.51701552  1
  O2-  O220  1  0.23503510  0.76263170  0.01839289  1
  O2-  O221  1  0.23764697  0.75794311  0.52231816  1
  O2-  O222  1  0.57312917  0.09542049  0.02008714  1
  O2-  O223  1  0.56913979  0.09966645  0.51659794  1
  O2-  O224  1  0.57035110  0.43274706  0.01886571  1
  O2-  O225  1  0.57304235  0.42820834  0.51613432  1
  O2-  O226  1  0.57334792  0.76209421  0.02187225  1
  O2-  O227  1  0.57053070  0.76189016  0.52130391  1
  O2-  O228  1  0.90236151  0.09656556  0.01652201  1
  O2-  O229  1  0.90401328  0.09474857  0.52244844  1
  O2-  O230  1  0.90248871  0.42991329  0.01826784  1
  O2-  O231  1  0.90777084  0.42379614  0.51526359  1
  O2-  O232  1  0.90256568  0.76273492  0.02134103  1
  O2-  O233  1  0.90317996  0.76394611  0.52116570  1
  O2-  O234  1  0.25456085  0.25545550  0.22899722  1
  O2-  O235  1  0.26352471  0.26076092  0.72934180  1
  O2-  O236  1  0.25969155  0.59382662  0.23791409  1
  O2-  O237  1  0.26206579  0.59814975  0.73369717  1
  O2-  O238  1  0.26126703  0.92855303  0.23086443  1
  O2-  O239  1  0.25969919  0.92669542  0.72889223  1
  O2-  O240  1  0.59768792  0.26196663  0.22681803  1
  O2-  O241  1  0.59777885  0.26257937  0.72791394  1
  O2-  O242  1  0.60025459  0.59540973  0.22871625  1
  O2-  O243  1  0.59448165  0.59560243  0.72981127  1
  O2-  O244  1  0.59367980  0.92840090  0.22912689  1
  O2-  O245  1  0.59607955  0.92806502  0.72806379  1
  O2-  O246  1  0.92768603  0.26395231  0.22691272  1
  O2-  O247  1  0.93025809  0.26030047  0.72868733  1
  O2-  O248  1  0.93020906  0.59538492  0.22672435  1
  O2-  O249  1  0.92825716  0.59868117  0.73597863  1
  O2-  O250  1  0.92806326  0.92659906  0.23927634  1
  O2-  O251  1  0.92784177  0.92774000  0.73048667  1
  O2-  O252  1  0.09211728  0.23755605  0.26930805  1
  O2-  O253  1  0.09503984  0.23452371  0.77290433  1
  O2-  O254  1  0.09468862  0.57215398  0.27207417  1
  O2-  O255  1  0.09404464  0.57361700  0.77429530  1
  O2-  O256  1  0.09587425  0.90481694  0.27208617  1
  O2-  O257  1  0.09546821  0.90139416  0.76705392  1
  O2-  O258  1  0.43050405  0.23808595  0.26204514  1
  O2-  O259  1  0.43250429  0.24151726  0.77370750  1
  O2-  O260  1  0.43140890  0.57461603  0.27080978  1
  O2-  O261  1  0.42837241  0.57274912  0.77132698  1
  O2-  O262  1  0.42689282  0.90686063  0.27217569  1
  O2-  O263  1  0.42450880  0.90831604  0.76541350  1
  O2-  O264  1  0.76215675  0.23885577  0.27077055  1
  O2-  O265  1  0.76588331  0.23393321  0.76982432  1
  O2-  O266  1  0.76386428  0.57144330  0.27143814  1
  O2-  O267  1  0.75927136  0.57331406  0.77150763  1
  O2-  O268  1  0.75765236  0.90824441  0.27307642  1
  O2-  O269  1  0.76247360  0.90663342  0.77120576  1
  O2-  O270  1  0.07085590  0.07180965  0.47954366  1
  O2-  O271  1  0.07034780  0.07005529  0.97611283  1
  O2-  O272  1  0.07433292  0.40509445  0.48211724  1
  O2-  O273  1  0.07227938  0.40511065  0.97587723  1
  O2-  O274  1  0.06849703  0.73560668  0.48276163  1
  O2-  O275  1  0.07207691  0.73986482  0.98046192  1
  O2-  O276  1  0.40427622  0.07208575  0.48012987  1
  O2-  O277  1  0.40457978  0.07421800  0.97693940  1
  O2-  O278  1  0.40920471  0.40461182  0.48709275  1
  O2-  O279  1  0.40711479  0.40761487  0.97714089  1
  O2-  O280  1  0.40503807  0.73824453  0.47622841  1
  O2-  O281  1  0.40456774  0.73997074  0.98294822  1
  O2-  O282  1  0.73878853  0.07482339  0.47806528  1
  O2-  O283  1  0.73594628  0.06921962  0.98163371  1
  O2-  O284  1  0.74083159  0.40728348  0.47708790  1
  O2-  O285  1  0.73870782  0.40508860  0.97586779  1
  O2-  O286  1  0.73872063  0.73749647  0.47644721  1
  O2-  O287  1  0.73970152  0.74021135  0.97981166  1
  O2-  O288  1  0.09479241  0.23756757  0.48251846  1
  O2-  O289  1  0.09403748  0.23541947  0.97575433  1
  O2-  O290  1  0.09573259  0.57284346  0.47720196  1
  O2-  O291  1  0.09291697  0.57377784  0.97638657  1
  O2-  O292  1  0.09598192  0.90254920  0.47726704  1
  O2-  O293  1  0.09389302  0.90335536  0.98232608  1
  O2-  O294  1  0.43242598  0.23746379  0.48614441  1
  O2-  O295  1  0.42973172  0.24121376  0.97859462  1
  O2-  O296  1  0.43023433  0.57178059  0.47460304  1
  O2-  O297  1  0.42900042  0.57373707  0.98184856  1
  O2-  O298  1  0.42959541  0.90756044  0.47981680  1
  O2-  O299  1  0.42201429  0.90827535  0.98265370  1
  O2-  O300  1  0.76189422  0.23901823  0.47947158  1
  O2-  O301  1  0.76659716  0.23460579  0.98036266  1
  O2-  O302  1  0.75942301  0.57264296  0.47582555  1
  O2-  O303  1  0.76294598  0.57153849  0.98022666  1
  O2-  O304  1  0.76182002  0.90748566  0.47607927  1
  O2-  O305  1  0.75873015  0.90835922  0.97973200  1
  O2-  O306  1  0.07393453  0.07300685  0.27330018  1
  O2-  O307  1  0.06717847  0.06687748  0.77097935  1
  O2-  O308  1  0.07145230  0.40517503  0.27104752  1
  O2-  O309  1  0.07313072  0.40559834  0.77129070  1
  O2-  O310  1  0.06954884  0.73744163  0.26645319  1
  O2-  O311  1  0.07096715  0.73768328  0.77014986  1
  O2-  O312  1  0.40510697  0.07285912  0.26974675  1
  O2-  O313  1  0.40371093  0.07379495  0.77366602  1
  O2-  O314  1  0.41066758  0.40817540  0.26495245  1
  O2-  O315  1  0.40924175  0.40413201  0.77243475  1
  O2-  O316  1  0.40462303  0.74205159  0.27364102  1
  O2-  O317  1  0.40340022  0.73621326  0.76583132  1
  O2-  O318  1  0.73723166  0.07300884  0.27113067  1
  O2-  O319  1  0.73698422  0.07072461  0.76856058  1
  O2-  O320  1  0.74195782  0.40687500  0.27428828  1
  O2-  O321  1  0.73752253  0.40632872  0.77292710  1
  O2-  O322  1  0.73739071  0.74058256  0.27333682  1
  O2-  O323  1  0.73924066  0.73750039  0.76983598  1
  O2-  O324  1  0.23818383  0.09254183  0.22865728  1
  O2-  O325  1  0.23665591  0.09032812  0.72872812  1
  O2-  O326  1  0.23341118  0.42680480  0.23158194  1
  O2-  O327  1  0.24504546  0.42635090  0.73283889  1
  O2-  O328  1  0.23434104  0.76095547  0.23184284  1
  O2-  O329  1  0.23733836  0.76109490  0.72831465  1
  O2-  O330  1  0.57290237  0.09636672  0.22714223  1
  O2-  O331  1  0.57046989  0.09888842  0.73516751  1
  O2-  O332  1  0.57415673  0.42820623  0.23061624  1
  O2-  O333  1  0.56922593  0.43221655  0.73351202  1
  O2-  O334  1  0.57021258  0.76522049  0.23238560  1
  O2-  O335  1  0.57249984  0.75990845  0.72653961  1
  O2-  O336  1  0.90320044  0.09870177  0.23440723  1
  O2-  O337  1  0.90412783  0.09291894  0.72643804  1
  O2-  O338  1  0.90367436  0.43036904  0.23078783  1
  O2-  O339  1  0.90648639  0.42396494  0.73519550  1
  O2-  O340  1  0.89987893  0.76298963  0.22972501  1
  O2-  O341  1  0.90451540  0.76273108  0.72901227  1
  O2-  O342  1  0.25854883  0.25884332  0.01867363  1
  O2-  O343  1  0.26065739  0.25864842  0.52528527  1
  O2-  O344  1  0.25994109  0.59419576  0.01246479  1
  O2-  O345  1  0.26383292  0.59611587  0.51451056  1
  O2-  O346  1  0.25880422  0.92609468  0.01830625  1
  O2-  O347  1  0.26156944  0.92899657  0.52256748  1
  O2-  O348  1  0.59765130  0.25910591  0.02232969  1
  O2-  O349  1  0.59758209  0.26444891  0.52195883  1
  O2-  O350  1  0.59800540  0.59469095  0.02343738  1
  O2-  O351  1  0.59556298  0.59595781  0.51876513  1
  O2-  O352  1  0.59368676  0.92594200  0.02155332  1
  O2-  O353  1  0.59531964  0.93136660  0.52245880  1
  O2-  O354  1  0.92984395  0.26431549  0.02101435  1
  O2-  O355  1  0.92848385  0.25993369  0.52304356  1
  O2-  O356  1  0.92853602  0.59644139  0.02382978  1
  O2-  O357  1  0.92877034  0.59837577  0.51348340  1
  O2-  O358  1  0.92452121  0.92513470  0.01270670  1
  O2-  O359  1  0.93168177  0.92984174  0.51607094  1
