# generated using pymatgen
data_Sr7Ca15Pr50Mn72O216
_symmetry_space_group_name_H-M   'P 1'
_cell_length_a   16.55286346
_cell_length_b   16.59900633
_cell_length_c   15.58879795
_cell_angle_alpha   89.99958274
_cell_angle_beta   90.00012941
_cell_angle_gamma   90.01110523
_symmetry_Int_Tables_number   1
_chemical_formula_structural   Sr7Ca15Pr50Mn72O216
_chemical_formula_sum   'Sr7 Ca15 Pr50 Mn72 O216'
_cell_volume   4283.19496320
_cell_formula_units_Z   1
loop_
 _symmetry_equiv_pos_site_id
 _symmetry_equiv_pos_as_xyz
  1  'x, y, z'
loop_
 _atom_type_symbol
 _atom_type_oxidation_number
  Sr2+  2.0
  Ca2+  2.0
  Pr3+  3.0
  Mn3.30+  3.3
  O2-  -2.0
loop_
 _atom_site_type_symbol
 _atom_site_label
 _atom_site_symmetry_multiplicity
 _atom_site_fract_x
 _atom_site_fract_y
 _atom_site_fract_z
 _atom_site_occupancy
  Sr2+  Sr0  1  0.16507331  0.82374632  0.37626079  1
  Sr2+  Sr1  1  0.50008500  0.17548721  0.62535848  1
  Sr2+  Sr2  1  0.16271842  0.48733727  0.87375819  1
  Sr2+  Sr3  1  1.00455837  0.32463828  0.87153610  1
  Sr2+  Sr4  1  0.66516155  0.34225077  0.12372031  1
  Sr2+  Sr5  1  0.66768205  0.00758235  0.12428069  1
  Sr2+  Sr6  1  0.50146207  0.50918418  0.62530654  1
  Ca2+  Ca7  1  0.66999801  0.65024316  0.87381308  1
  Ca2+  Ca8  1  0.16891699  0.18117527  0.12627512  1
  Ca2+  Ca9  1  0.16883398  0.18065021  0.62387760  1
  Ca2+  Ca10  1  0.32903022  0.68154409  0.12382321  1
  Ca2+  Ca11  1  0.17162489  0.84990413  0.62541582  1
  Ca2+  Ca12  1  0.82985172  0.48553958  0.37690813  1
  Ca2+  Ca13  1  0.83752993  0.84957054  0.12392300  1
  Ca2+  Ca14  1  0.32610846  0.01786840  0.62343354  1
  Ca2+  Ca15  1  0.67207816  0.31913826  0.87373934  1
  Ca2+  Ca16  1  0.16250499  0.81853084  0.87348402  1
  Ca2+  Ca17  1  0.16403160  0.15176640  0.37870393  1
  Ca2+  Ca18  1  0.33444735  0.31625413  0.37764625  1
  Ca2+  Ca19  1  0.00195180  0.01432334  0.62384834  1
  Ca2+  Ca20  1  -0.00251463  0.34964761  0.62547027  1
  Ca2+  Ca21  1  0.83670979  0.51259340  0.62440503  1
  Pr3+  Pr22  1  0.49574948  0.82144812  0.37447935  1
  Pr3+  Pr23  1  0.66523768  0.67871889  0.12276167  1
  Pr3+  Pr24  1  0.50021928  0.84606696  0.12384127  1
  Pr3+  Pr25  1  0.66417381  0.67549383  0.62702518  1
  Pr3+  Pr26  1  -0.00323643  0.01276629  0.12619808  1
  Pr3+  Pr27  1  0.49496953  0.48340896  0.37670477  1
  Pr3+  Pr28  1  0.66959566  0.99014445  0.87452955  1
  Pr3+  Pr29  1  0.16117013  0.15723132  0.87260411  1
  Pr3+  Pr30  1  0.33167447  0.34419648  0.62310869  1
  Pr3+  Pr31  1  0.83238310  0.15346141  0.37571358  1
  Pr3+  Pr32  1  0.83135248  0.82307296  0.37469857  1
  Pr3+  Pr33  1  1.00574140  0.98701370  0.37842857  1
  Pr3+  Pr34  1  0.50044966  0.48618319  0.87380780  1
  Pr3+  Pr35  1  1.00404559  0.65237456  0.87476904  1
  Pr3+  Pr36  1  0.17047443  0.51408693  0.12324892  1
  Pr3+  Pr37  1  0.84011585  0.18175640  0.62416260  1
  Pr3+  Pr38  1  0.49876350  0.81987114  0.87573951  1
  Pr3+  Pr39  1  0.33401059  0.98783318  0.87197459  1
  Pr3+  Pr40  1  0.50324302  0.17812034  0.12531898  1
  Pr3+  Pr41  1  1.00393718  0.31929096  0.37785786  1
  Pr3+  Pr42  1  0.66992502  0.32130869  0.37538707  1
  Pr3+  Pr43  1  0.50068474  0.84516247  0.62613876  1
  Pr3+  Pr44  1  0.32701786  0.01631458  0.12538028  1
  Pr3+  Pr45  1  0.16502378  0.48715886  0.37577770  1
  Pr3+  Pr46  1  -0.00104801  0.34445257  0.12485835  1
  Pr3+  Pr47  1  0.67079705  0.65143202  0.37510802  1
  Pr3+  Pr48  1  0.82922758  0.81833044  0.87580984  1
  Pr3+  Pr49  1  1.00271610  0.65352088  0.37526484  1
  Pr3+  Pr50  1  0.32928262  0.34311668  0.12637009  1
  Pr3+  Pr51  1  0.83600103  0.17966410  0.12604728  1
  Pr3+  Pr52  1  0.50371239  0.51129959  0.12503912  1
  Pr3+  Pr53  1  0.66802384  0.98784366  0.37566320  1
  Pr3+  Pr54  1  0.49517307  0.15511211  0.37610699  1
  Pr3+  Pr55  1  0.32842033  0.67906947  0.62605957  1
  Pr3+  Pr56  1  0.49895196  0.15687249  0.87436839  1
  Pr3+  Pr57  1  0.83493029  0.51126112  0.12611323  1
  Pr3+  Pr58  1  0.33181296  0.32212342  0.87248124  1
  Pr3+  Pr59  1  -0.00160817  0.67648583  0.62564126  1
  Pr3+  Pr60  1  0.66359040  0.01341353  0.62553208  1
  Pr3+  Pr61  1  0.16944596  0.84596651  0.12410259  1
  Pr3+  Pr62  1  0.83920856  0.84758233  0.62643280  1
  Pr3+  Pr63  1  0.83436173  0.15772633  0.87490096  1
  Pr3+  Pr64  1  -0.00493754  0.68310802  0.12386636  1
  Pr3+  Pr65  1  0.66304646  0.34758161  0.62590623  1
  Pr3+  Pr66  1  0.82941923  0.48489671  0.87347955  1
  Pr3+  Pr67  1  1.00621538  0.98603475  0.87172209  1
  Pr3+  Pr68  1  0.16692142  0.50879111  0.62711065  1
  Pr3+  Pr69  1  0.33228889  0.98851213  0.37771307  1
  Pr3+  Pr70  1  0.33337880  0.65369814  0.87707665  1
  Pr3+  Pr71  1  0.33530186  0.65632806  0.37337548  1
  Mn3.30+  Mn72  1  0.16590925  0.00095956  -0.00136926  1
  Mn3.30+  Mn73  1  0.16676413  0.00157066  0.50383450  1
  Mn3.30+  Mn74  1  0.16547772  0.33229754  0.00110381  1
  Mn3.30+  Mn75  1  0.16650987  0.33104625  0.49963950  1
  Mn3.30+  Mn76  1  0.16664569  0.66835998  0.00009519  1
  Mn3.30+  Mn77  1  0.16603367  0.66762158  0.49998157  1
  Mn3.30+  Mn78  1  0.49900325  0.00003754  -0.00083255  1
  Mn3.30+  Mn79  1  0.49778713  0.00001615  0.50231216  1
  Mn3.30+  Mn80  1  0.50095041  0.33240983  -0.00176373  1
  Mn3.30+  Mn81  1  0.49908526  0.33152184  0.50085182  1
  Mn3.30+  Mn82  1  0.49965413  0.66551948  -0.00008166  1
  Mn3.30+  Mn83  1  0.49995474  0.66572288  0.50076720  1
  Mn3.30+  Mn84  1  0.83559151  -0.00005449  -0.00068860  1
  Mn3.30+  Mn85  1  0.83596952  0.00053006  0.50200122  1
  Mn3.30+  Mn86  1  0.83290716  0.33314894  -0.00056219  1
  Mn3.30+  Mn87  1  0.83567961  0.33615155  0.50067359  1
  Mn3.30+  Mn88  1  0.83193306  0.66677553  -0.00053878  1
  Mn3.30+  Mn89  1  0.83370799  0.66501880  0.50020316  1
  Mn3.30+  Mn90  1  0.00410377  0.16680595  0.25160887  1
  Mn3.30+  Mn91  1  0.00196684  0.16778713  0.74575452  1
  Mn3.30+  Mn92  1  -0.00049482  0.49956734  0.25169554  1
  Mn3.30+  Mn93  1  -0.00187059  0.49879938  0.74772485  1
  Mn3.30+  Mn94  1  -0.00089483  0.83402696  0.25010893  1
  Mn3.30+  Mn95  1  0.00382241  0.83425527  0.74822000  1
  Mn3.30+  Mn96  1  0.32953334  0.16770580  0.25263072  1
  Mn3.30+  Mn97  1  0.33042924  0.16629520  0.74700166  1
  Mn3.30+  Mn98  1  0.33322463  0.49946200  0.24942803  1
  Mn3.30+  Mn99  1  0.33342220  0.49974203  0.75055586  1
  Mn3.30+  Mn100  1  0.33201782  0.83306573  0.24914754  1
  Mn3.30+  Mn101  1  0.32983979  0.83454998  0.75033879  1
  Mn3.30+  Mn102  1  0.66602113  0.16582783  0.24976888  1
  Mn3.30+  Mn103  1  0.66822289  0.16806113  0.75008445  1
  Mn3.30+  Mn104  1  0.66747192  0.49848236  0.25068359  1
  Mn3.30+  Mn105  1  0.66832323  0.49980615  0.75035953  1
  Mn3.30+  Mn106  1  0.66681861  0.83309258  0.24804820  1
  Mn3.30+  Mn107  1  0.66794304  0.83189261  0.75063317  1
  Mn3.30+  Mn108  1  0.16536212  0.00240610  0.25067027  1
  Mn3.30+  Mn109  1  0.16771241  0.00008277  0.74636294  1
  Mn3.30+  Mn110  1  0.16763797  0.33063494  0.25313230  1
  Mn3.30+  Mn111  1  0.16421598  0.33224767  0.74576882  1
  Mn3.30+  Mn112  1  0.16724751  0.66768375  0.24929643  1
  Mn3.30+  Mn113  1  0.16540704  0.66867794  0.75004221  1
  Mn3.30+  Mn114  1  0.49858753  -0.00002610  0.24980468  1
  Mn3.30+  Mn115  1  0.49834950  0.00033752  0.74897716  1
  Mn3.30+  Mn116  1  0.49758860  0.33220748  0.25091292  1
  Mn3.30+  Mn117  1  0.50228492  0.33187198  0.75078307  1
  Mn3.30+  Mn118  1  0.49960035  0.66590444  0.24805890  1
  Mn3.30+  Mn119  1  0.50032232  0.66549161  0.75165953  1
  Mn3.30+  Mn120  1  0.83418046  -0.00062340  0.24977874  1
  Mn3.30+  Mn121  1  0.83727186  0.00151983  0.74915687  1
  Mn3.30+  Mn122  1  0.83445284  0.33470258  0.25162080  1
  Mn3.30+  Mn123  1  0.83434638  0.33427490  0.74858843  1
  Mn3.30+  Mn124  1  0.83338809  0.66774844  0.25003576  1
  Mn3.30+  Mn125  1  0.83245012  0.66480308  0.74986849  1
  Mn3.30+  Mn126  1  0.00209101  0.16767078  0.00057027  1
  Mn3.30+  Mn127  1  0.00367076  0.16704806  0.50263130  1
  Mn3.30+  Mn128  1  0.00067389  0.49955646  0.00068437  1
  Mn3.30+  Mn129  1  -0.00323927  0.49867004  0.49932929  1
  Mn3.30+  Mn130  1  -0.00000461  0.83444152  -0.00228922  1
  Mn3.30+  Mn131  1  0.00285369  0.83397897  0.50346114  1
  Mn3.30+  Mn132  1  0.33070268  0.16746933  -0.00074260  1
  Mn3.30+  Mn133  1  0.32941468  0.16662959  0.50071300  1
  Mn3.30+  Mn134  1  0.33406534  0.49933138  0.00004993  1
  Mn3.30+  Mn135  1  0.33267041  0.49986946  0.49990303  1
  Mn3.30+  Mn136  1  0.33078776  0.83298966  -0.00177115  1
  Mn3.30+  Mn137  1  0.33098702  0.83463356  0.50225950  1
  Mn3.30+  Mn138  1  0.66704427  0.16667769  -0.00006235  1
  Mn3.30+  Mn139  1  0.66712663  0.16691007  0.50055594  1
  Mn3.30+  Mn140  1  0.66719259  0.49880353  -0.00069883  1
  Mn3.30+  Mn141  1  0.66876435  0.49967685  0.50018517  1
  Mn3.30+  Mn142  1  0.66790344  0.83249121  0.00022500  1
  Mn3.30+  Mn143  1  0.66674138  0.83196604  0.50099960  1
  O2-  O144  1  0.02657665  0.16021594  0.12876228  1
  O2-  O145  1  0.02698809  0.15777874  0.62303257  1
  O2-  O146  1  0.02524184  0.49442032  0.12830239  1
  O2-  O147  1  0.02277123  0.49974339  0.62155139  1
  O2-  O148  1  0.02527056  0.83084664  0.12254243  1
  O2-  O149  1  0.02903027  0.82229710  0.62620883  1
  O2-  O150  1  0.35913575  0.16396087  0.12473514  1
  O2-  O151  1  0.35348291  0.16348005  0.62498511  1
  O2-  O152  1  0.36051843  0.48937376  0.12570733  1
  O2-  O153  1  0.35208404  0.49574634  0.62627972  1
  O2-  O154  1  0.35658401  0.82987028  0.12367739  1
  O2-  O155  1  0.35920039  0.82506470  0.62690371  1
  O2-  O156  1  0.69089096  0.16308991  0.12627694  1
  O2-  O157  1  0.69456329  0.16042093  0.62468629  1
  O2-  O158  1  0.69066237  0.49777439  0.12515001  1
  O2-  O159  1  0.69363561  0.49573282  0.62427461  1
  O2-  O160  1  0.69509196  0.82621133  0.12330432  1
  O2-  O161  1  0.69407589  0.82419120  0.62666669  1
  O2-  O162  1  0.14274286  0.32587244  0.13024503  1
  O2-  O163  1  0.14090352  0.32920433  0.62125699  1
  O2-  O164  1  0.14029691  0.66287518  0.12575979  1
  O2-  O165  1  0.14261270  0.65695142  0.62489614  1
  O2-  O166  1  0.14030097  0.99192905  0.12226197  1
  O2-  O167  1  0.14058492  0.99000013  0.62610820  1
  O2-  O168  1  0.47336883  0.32744737  0.12439205  1
  O2-  O169  1  0.47700130  0.33152945  0.62488113  1
  O2-  O170  1  0.47098530  0.65834531  0.12447923  1
  O2-  O171  1  0.47392514  0.66497597  0.62802778  1
  O2-  O172  1  0.47189635  0.99538509  0.12342302  1
  O2-  O173  1  0.47211775  0.99328698  0.62648185  1
  O2-  O174  1  0.81485927  0.32861876  0.12608904  1
  O2-  O175  1  0.80585134  0.32681045  0.62401171  1
  O2-  O176  1  0.80807889  0.65856389  0.12612284  1
  O2-  O177  1  0.80745331  0.65995493  0.62641280  1
  O2-  O178  1  0.81715233  0.99593656  0.12292275  1
  O2-  O179  1  0.80725973  0.99568574  0.62473464  1
  O2-  O180  1  0.30573710  0.16960484  0.37614278  1
  O2-  O181  1  0.30524477  0.17272853  0.87339354  1
  O2-  O182  1  0.30800934  0.51016426  0.37305253  1
  O2-  O183  1  0.31208786  0.50327928  0.87494346  1
  O2-  O184  1  0.31475496  0.83789792  0.37587399  1
  O2-  O185  1  0.30385209  0.84019930  0.87334270  1
  O2-  O186  1  0.64182458  0.17123391  0.37538197  1
  O2-  O187  1  0.64445352  0.17085906  0.87455340  1
  O2-  O188  1  0.63946995  0.50445752  0.37479512  1
  O2-  O189  1  0.64323761  0.50733384  0.87629283  1
  O2-  O190  1  0.64047423  0.83897443  0.37550417  1
  O2-  O191  1  0.64271894  0.84259457  0.87441888  1
  O2-  O192  1  0.97488345  0.17092711  0.37674322  1
  O2-  O193  1  0.97878245  0.16962871  0.87152012  1
  O2-  O194  1  0.97225863  0.50581399  0.37436886  1
  O2-  O195  1  0.97557269  0.50395052  0.87495466  1
  O2-  O196  1  0.97486977  0.83851151  0.37843523  1
  O2-  O197  1  0.97282918  0.83834472  0.87235001  1
  O2-  O198  1  0.18937780  0.00571357  0.37782643  1
  O2-  O199  1  0.19199416  0.01092446  0.87413977  1
  O2-  O200  1  0.19421676  0.34275512  0.37570783  1
  O2-  O201  1  0.18669636  0.33183261  0.87221522  1
  O2-  O202  1  0.19074632  0.66793268  0.37363587  1
  O2-  O203  1  0.18923587  0.67303769  0.87480578  1
  O2-  O204  1  0.52327473  0.00385621  0.37637741  1
  O2-  O205  1  0.52434333  0.00571856  0.87420153  1
  O2-  O206  1  0.52479624  0.33503927  0.37624017  1
  O2-  O207  1  0.52846964  0.33621245  0.87478957  1
  O2-  O208  1  0.52637635  0.67465370  0.37255480  1
  O2-  O209  1  0.52784987  0.67295467  0.87575254  1
  O2-  O210  1  0.85999578  0.00270815  0.37837350  1
  O2-  O211  1  0.86178590  0.00825386  0.87387799  1
  O2-  O212  1  0.85978740  0.33945549  0.37590489  1
  O2-  O213  1  0.85548166  0.33576301  0.87447958  1
  O2-  O214  1  0.85970828  0.67794780  0.37296778  1
  O2-  O215  1  0.86017937  0.67117547  0.87449332  1
  O2-  O216  1  0.23755137  0.09723924  0.02261046  1
  O2-  O217  1  0.23562960  0.09601933  0.52172722  1
  O2-  O218  1  0.24011275  0.42551189  0.02194838  1
  O2-  O219  1  0.23626004  0.42790740  0.51985994  1
  O2-  O220  1  0.23751417  0.76207777  0.01939963  1
  O2-  O221  1  0.24068904  0.76223653  0.52286400  1
  O2-  O222  1  0.56973079  0.09362356  0.01588359  1
  O2-  O223  1  0.57429735  0.08970093  0.51826825  1
  O2-  O224  1  0.56957935  0.43040866  0.01689313  1
  O2-  O225  1  0.57527715  0.42648318  0.51634446  1
  O2-  O226  1  0.56923928  0.75898653  0.02266629  1
  O2-  O227  1  0.57130468  0.76056356  0.52129970  1
  O2-  O228  1  0.90677501  0.09635577  0.02060478  1
  O2-  O229  1  0.90469713  0.09799319  0.51714483  1
  O2-  O230  1  0.90461197  0.42786905  0.02011857  1
  O2-  O231  1  0.90354348  0.42992666  0.52145000  1
  O2-  O232  1  0.90246551  0.76465213  0.01994152  1
  O2-  O233  1  0.90494633  0.76213688  0.52214961  1
  O2-  O234  1  0.26300462  0.26235140  0.23151246  1
  O2-  O235  1  0.26338974  0.26373828  0.73097496  1
  O2-  O236  1  0.26396338  0.59410584  0.22609818  1
  O2-  O237  1  0.25881866  0.59537274  0.73246375  1
  O2-  O238  1  0.25918751  0.93021235  0.23086169  1
  O2-  O239  1  0.26650679  0.93404900  0.73041700  1
  O2-  O240  1  0.59001152  0.25899480  0.23282734  1
  O2-  O241  1  0.59731068  0.26016388  0.73079924  1
  O2-  O242  1  0.59527305  0.59507992  0.22897622  1
  O2-  O243  1  0.59627855  0.59447636  0.73199590  1
  O2-  O244  1  0.59160595  0.92311188  0.23137374  1
  O2-  O245  1  0.59537400  0.92610361  0.72851645  1
  O2-  O246  1  0.93079781  0.25944515  0.23206652  1
  O2-  O247  1  0.92838146  0.26236844  0.72465904  1
  O2-  O248  1  0.92795254  0.59697744  0.22861166  1
  O2-  O249  1  0.92788805  0.59642099  0.73251284  1
  O2-  O250  1  0.92928245  0.92889706  0.23366462  1
  O2-  O251  1  0.93286353  0.92797217  0.72675691  1
  O2-  O252  1  0.09561290  0.23797505  0.27690041  1
  O2-  O253  1  0.09649592  0.23640324  0.76400299  1
  O2-  O254  1  0.09455896  0.57075106  0.27015649  1
  O2-  O255  1  0.09070608  0.57518141  0.76665005  1
  O2-  O256  1  0.09194071  0.90718271  0.26723268  1
  O2-  O257  1  0.09798519  0.90509381  0.77404316  1
  O2-  O258  1  0.42776145  0.23612261  0.26911437  1
  O2-  O259  1  0.42534822  0.24068524  0.77233244  1
  O2-  O260  1  0.43026315  0.57120684  0.27175340  1
  O2-  O261  1  0.42719716  0.57540380  0.77435742  1
  O2-  O262  1  0.42654393  0.90637196  0.26901067  1
  O2-  O263  1  0.42816867  0.90319776  0.77249870  1
  O2-  O264  1  0.76261916  0.24036202  0.27121464  1
  O2-  O265  1  0.76523585  0.23693496  0.76726718  1
  O2-  O266  1  0.76352936  0.57322241  0.27203885  1
  O2-  O267  1  0.76177174  0.57064053  0.77097053  1
  O2-  O268  1  0.75949125  0.90787635  0.27233588  1
  O2-  O269  1  0.76425181  0.90644570  0.76979613  1
  O2-  O270  1  0.07088016  0.07149153  0.48127046  1
  O2-  O271  1  0.07146350  0.07016100  0.97923628  1
  O2-  O272  1  0.07239082  0.40660946  0.47808438  1
  O2-  O273  1  0.07229540  0.40460056  0.98952397  1
  O2-  O274  1  0.06918128  0.73549457  0.48216457  1
  O2-  O275  1  0.06655576  0.73825409  0.98253663  1
  O2-  O276  1  0.40384602  0.07439748  0.47824199  1
  O2-  O277  1  0.40239160  0.07381593  0.97856293  1
  O2-  O278  1  0.40385020  0.40630941  0.47948298  1
  O2-  O279  1  0.40742690  0.40410293  0.97718739  1
  O2-  O280  1  0.40545123  0.73872909  0.48051025  1
  O2-  O281  1  0.40667754  0.73923300  0.97690866  1
  O2-  O282  1  0.73875331  0.07258646  0.47902923  1
  O2-  O283  1  0.74292588  0.07312534  0.97728988  1
  O2-  O284  1  0.73684715  0.40379476  0.48059209  1
  O2-  O285  1  0.73927498  0.40540764  0.97766024  1
  O2-  O286  1  0.73877253  0.73834430  0.47909075  1
  O2-  O287  1  0.73642684  0.73613371  0.97712927  1
  O2-  O288  1  0.09596790  0.23908332  0.47532328  1
  O2-  O289  1  0.09612611  0.23638727  0.98518310  1
  O2-  O290  1  0.09257877  0.57015181  0.47910777  1
  O2-  O291  1  0.09311277  0.57464498  0.98350567  1
  O2-  O292  1  0.09270455  0.90849332  0.48156356  1
  O2-  O293  1  0.09623932  0.90325361  0.97583447  1
  O2-  O294  1  0.42566266  0.23782634  0.48051561  1
  O2-  O295  1  0.42561386  0.23862997  0.97722863  1
  O2-  O296  1  0.42739363  0.57466480  0.47725342  1
  O2-  O297  1  0.43029628  0.57162383  0.97818236  1
  O2-  O298  1  0.42884230  0.90409188  0.48104690  1
  O2-  O299  1  0.42598335  0.90563200  0.97773933  1
  O2-  O300  1  0.76488409  0.23998368  0.47856455  1
  O2-  O301  1  0.76373108  0.23802114  0.98406679  1
  O2-  O302  1  0.76122138  0.57219453  0.47507928  1
  O2-  O303  1  0.76334368  0.56884865  0.98299114  1
  O2-  O304  1  0.76069719  0.90523054  0.48100219  1
  O2-  O305  1  0.76271700  0.90869726  0.97666147  1
  O2-  O306  1  0.06934520  0.06975919  0.26982683  1
  O2-  O307  1  0.07322985  0.07140781  0.76957125  1
  O2-  O308  1  0.07318950  0.40337227  0.27213672  1
  O2-  O309  1  0.07289426  0.40782032  0.75880020  1
  O2-  O310  1  0.06609956  0.73764643  0.26548940  1
  O2-  O311  1  0.06934949  0.73735705  0.76993078  1
  O2-  O312  1  0.40150573  0.07302946  0.27091074  1
  O2-  O313  1  0.40623333  0.07581701  0.77285134  1
  O2-  O314  1  0.40272737  0.40312082  0.27353685  1
  O2-  O315  1  0.40918318  0.40582514  0.77048200  1
  O2-  O316  1  0.40806065  0.73907245  0.27034690  1
  O2-  O317  1  0.40356130  0.73954957  0.77346765  1
  O2-  O318  1  0.74156231  0.07245956  0.27344229  1
  O2-  O319  1  0.73974723  0.07332615  0.77046846  1
  O2-  O320  1  0.73795006  0.40695765  0.27075379  1
  O2-  O321  1  0.73771606  0.40331197  0.77088084  1
  O2-  O322  1  0.73698330  0.73870592  0.27120001  1
  O2-  O323  1  0.73883828  0.73711351  0.77269506  1
  O2-  O324  1  0.23811263  0.09519195  0.22633961  1
  O2-  O325  1  0.23496050  0.09745803  0.72984721  1
  O2-  O326  1  0.23687394  0.42898070  0.22866908  1
  O2-  O327  1  0.24038472  0.42368037  0.72893442  1
  O2-  O328  1  0.23873449  0.76193278  0.22962086  1
  O2-  O329  1  0.23828328  0.76155364  0.72654830  1
  O2-  O330  1  0.56791998  0.09319572  0.23337510  1
  O2-  O331  1  0.57722049  0.09149263  0.73283072  1
  O2-  O332  1  0.56624654  0.42850048  0.23465930  1
  O2-  O333  1  0.57607331  0.42725905  0.73297462  1
  O2-  O334  1  0.57081965  0.75915956  0.22552194  1
  O2-  O335  1  0.57033010  0.76041425  0.73018424  1
  O2-  O336  1  0.90590555  0.09560610  0.23239634  1
  O2-  O337  1  0.90542057  0.09772427  0.73031480  1
  O2-  O338  1  0.90813197  0.42698870  0.22812186  1
  O2-  O339  1  0.90051675  0.43085602  0.73152140  1
  O2-  O340  1  0.90264051  0.76450769  0.22734096  1
  O2-  O341  1  0.90446311  0.76134588  0.72949269  1
  O2-  O342  1  0.26380292  0.26381040  0.01659023  1
  O2-  O343  1  0.26252651  0.26296701  0.51976053  1
  O2-  O344  1  0.26301205  0.59486083  0.02058443  1
  O2-  O345  1  0.26031152  0.59473948  0.51922083  1
  O2-  O346  1  0.26043833  0.93141530  0.02008156  1
  O2-  O347  1  0.26441315  0.93213118  0.51796619  1
  O2-  O348  1  0.58786953  0.25666167  0.01950261  1
  O2-  O349  1  0.59873080  0.26110078  0.51757578  1
  O2-  O350  1  0.59349496  0.59339500  0.02261649  1
  O2-  O351  1  0.59816712  0.59649754  0.51674917  1
  O2-  O352  1  0.59117217  0.92303607  0.01757874  1
  O2-  O353  1  0.59537445  0.92551363  0.52250969  1
  O2-  O354  1  0.92747623  0.25929167  0.02202055  1
  O2-  O355  1  0.93159720  0.26306345  0.52082320  1
  O2-  O356  1  0.92744999  0.59495322  0.02091795  1
  O2-  O357  1  0.92946583  0.59791803  0.51640088  1
  O2-  O358  1  0.93278371  0.93099662  0.01502982  1
  O2-  O359  1  0.92948535  0.92715319  0.52459513  1
