# generated using pymatgen
data_Sr7Ca15Pr50Mn72O216
_symmetry_space_group_name_H-M   'P 1'
_cell_length_a   16.55680641
_cell_length_b   16.60460375
_cell_length_c   15.59555204
_cell_angle_alpha   89.99638724
_cell_angle_beta   89.99440346
_cell_angle_gamma   90.00577214
_symmetry_Int_Tables_number   1
_chemical_formula_structural   Sr7Ca15Pr50Mn72O216
_chemical_formula_sum   'Sr7 Ca15 Pr50 Mn72 O216'
_cell_volume   4287.51679206
_cell_formula_units_Z   1
loop_
 _symmetry_equiv_pos_site_id
 _symmetry_equiv_pos_as_xyz
  1  'x, y, z'
loop_
 _atom_type_symbol
 _atom_type_oxidation_number
  Sr2+  2.0
  Ca2+  2.0
  Pr3+  3.0
  Mn3.30+  3.3
  O2-  -2.0
loop_
 _atom_site_type_symbol
 _atom_site_label
 _atom_site_symmetry_multiplicity
 _atom_site_fract_x
 _atom_site_fract_y
 _atom_site_fract_z
 _atom_site_occupancy
  Sr2+  Sr0  1  -0.00349994  0.00661121  0.12290779  1
  Sr2+  Sr1  1  0.49969236  0.82275126  0.37514332  1
  Sr2+  Sr2  1  0.33521973  0.65473872  0.87523749  1
  Sr2+  Sr3  1  0.83733400  0.84448430  0.12501413  1
  Sr2+  Sr4  1  -0.00191578  0.67712480  0.12235118  1
  Sr2+  Sr5  1  0.50034834  0.49006652  0.37425950  1
  Sr2+  Sr6  1  0.83686569  0.51249677  0.62549899  1
  Ca2+  Ca7  1  1.00457373  0.32287564  0.87647316  1
  Ca2+  Ca8  1  -0.00372697  0.67929905  0.62909659  1
  Ca2+  Ca9  1  1.00237477  0.98475434  0.87680133  1
  Ca2+  Ca10  1  0.83062514  0.15326166  0.37482952  1
  Ca2+  Ca11  1  0.49532874  0.48638551  0.87589998  1
  Ca2+  Ca12  1  0.50351565  0.18153383  0.12445441  1
  Ca2+  Ca13  1  0.66303548  0.01459850  0.62436670  1
  Ca2+  Ca14  1  1.00869597  0.65001011  0.87446819  1
  Ca2+  Ca15  1  0.16050944  0.48500913  0.87669932  1
  Ca2+  Ca16  1  0.99877411  0.32179392  0.37476967  1
  Ca2+  Ca17  1  0.33193234  0.67980518  0.62584720  1
  Ca2+  Ca18  1  0.49383609  0.81643536  0.87468843  1
  Ca2+  Ca19  1  0.33057415  0.67992723  0.12426057  1
  Ca2+  Ca20  1  0.83074619  0.48703276  0.37487327  1
  Ca2+  Ca21  1  -0.00461779  0.34813136  0.12423157  1
  Pr3+  Pr22  1  0.33778325  0.32258415  0.37377224  1
  Pr3+  Pr23  1  0.16277824  0.15553361  0.37506510  1
  Pr3+  Pr24  1  0.66847423  0.98695810  0.87285355  1
  Pr3+  Pr25  1  0.15965068  0.15385524  0.87544016  1
  Pr3+  Pr26  1  0.32825011  0.01250886  0.12486674  1
  Pr3+  Pr27  1  0.67360870  0.32008214  0.37412359  1
  Pr3+  Pr28  1  0.32978606  0.01182565  0.62507463  1
  Pr3+  Pr29  1  0.99747892  0.98834738  0.37473446  1
  Pr3+  Pr30  1  0.83959803  0.51178005  0.12498190  1
  Pr3+  Pr31  1  0.83510529  0.84462055  0.62609425  1
  Pr3+  Pr32  1  0.49570701  0.15540752  0.87760686  1
  Pr3+  Pr33  1  0.66655227  0.65522827  0.87488581  1
  Pr3+  Pr34  1  0.66488346  0.01358022  0.12393302  1
  Pr3+  Pr35  1  0.49800497  0.15477558  0.37245981  1
  Pr3+  Pr36  1  0.50379564  0.84615974  0.62735000  1
  Pr3+  Pr37  1  0.16377197  0.18059764  0.12568207  1
  Pr3+  Pr38  1  0.16272443  0.48680050  0.37441915  1
  Pr3+  Pr39  1  0.33767395  0.98512545  0.37507131  1
  Pr3+  Pr40  1  0.66539307  0.34753081  0.62534529  1
  Pr3+  Pr41  1  0.50255262  0.51348352  0.62686882  1
  Pr3+  Pr42  1  0.16456886  0.81962109  0.37561409  1
  Pr3+  Pr43  1  0.83744255  0.48971580  0.87490312  1
  Pr3+  Pr44  1  0.33045591  0.34734448  0.62536052  1
  Pr3+  Pr45  1  0.66557859  0.34556682  0.12412747  1
  Pr3+  Pr46  1  0.83410828  0.18012438  0.62357009  1
  Pr3+  Pr47  1  0.66605223  0.67944424  0.12359027  1
  Pr3+  Pr48  1  0.16097903  0.81732074  0.87460839  1
  Pr3+  Pr49  1  0.33249200  0.32614257  0.87652028  1
  Pr3+  Pr50  1  0.17054520  0.51500610  0.62654167  1
  Pr3+  Pr51  1  0.84127383  0.17938562  0.12677457  1
  Pr3+  Pr52  1  0.16865682  0.84323496  0.62604493  1
  Pr3+  Pr53  1  0.50405776  0.17923597  0.62550516  1
  Pr3+  Pr54  1  0.66924281  0.32250515  0.87510006  1
  Pr3+  Pr55  1  0.16856453  0.84343113  0.12398516  1
  Pr3+  Pr56  1  0.67123668  0.65157992  0.37458845  1
  Pr3+  Pr57  1  0.66502446  0.67732988  0.62599330  1
  Pr3+  Pr58  1  1.00046171  0.65437588  0.37504651  1
  Pr3+  Pr59  1  0.50112716  0.84254943  0.12221590  1
  Pr3+  Pr60  1  0.83657821  0.82142976  0.87694083  1
  Pr3+  Pr61  1  0.33154271  0.34619187  0.12461329  1
  Pr3+  Pr62  1  0.16879640  0.51461774  0.12324082  1
  Pr3+  Pr63  1  0.33687128  0.98300222  0.87463365  1
  Pr3+  Pr64  1  0.16846185  0.18134278  0.62471691  1
  Pr3+  Pr65  1  -0.00283450  0.34775598  0.62559116  1
  Pr3+  Pr66  1  0.67081758  0.98754881  0.37601075  1
  Pr3+  Pr67  1  0.82943371  0.82014983  0.37373703  1
  Pr3+  Pr68  1  0.33837301  0.65401056  0.37489064  1
  Pr3+  Pr69  1  0.83420765  0.15523793  0.87469995  1
  Pr3+  Pr70  1  -0.00370213  0.01315958  0.62667502  1
  Pr3+  Pr71  1  0.50140004  0.51412253  0.12326931  1
  Mn3.30+  Mn72  1  0.16462541  -0.00030275  -0.00038816  1
  Mn3.30+  Mn73  1  0.16556680  -0.00022174  0.49970449  1
  Mn3.30+  Mn74  1  0.16277054  0.33501845  0.00151881  1
  Mn3.30+  Mn75  1  0.16507316  0.33421866  0.49806291  1
  Mn3.30+  Mn76  1  0.16759583  0.66537756  -0.00092542  1
  Mn3.30+  Mn77  1  0.16663495  0.66620006  0.50222407  1
  Mn3.30+  Mn78  1  0.49885473  -0.00034571  0.00005466  1
  Mn3.30+  Mn79  1  0.50107803  0.00032407  0.50080375  1
  Mn3.30+  Mn80  1  0.49980352  0.33390671  0.00028884  1
  Mn3.30+  Mn81  1  0.50111582  0.33413862  0.49900834  1
  Mn3.30+  Mn82  1  0.49740028  0.66623612  -0.00113094  1
  Mn3.30+  Mn83  1  0.49897577  0.66724884  0.50076439  1
  Mn3.30+  Mn84  1  0.83475591  -0.00018000  -0.00243772  1
  Mn3.30+  Mn85  1  0.83083070  0.00128721  0.50276557  1
  Mn3.30+  Mn86  1  0.83716772  0.33287230  -0.00115085  1
  Mn3.30+  Mn87  1  0.83523029  0.33447647  0.49790152  1
  Mn3.30+  Mn88  1  0.83685796  0.66615563  -0.00320409  1
  Mn3.30+  Mn89  1  0.83542552  0.66527063  0.50252380  1
  Mn3.30+  Mn90  1  -0.00210777  0.16795671  0.25251467  1
  Mn3.30+  Mn91  1  -0.00021685  0.16772393  0.75045353  1
  Mn3.30+  Mn92  1  -0.00129541  0.49731759  0.25174272  1
  Mn3.30+  Mn93  1  0.00309606  0.50150294  0.75026043  1
  Mn3.30+  Mn94  1  -0.00107095  0.83290379  0.25024289  1
  Mn3.30+  Mn95  1  0.00070248  0.83159033  0.74973238  1
  Mn3.30+  Mn96  1  0.33341703  0.16753202  0.24771650  1
  Mn3.30+  Mn97  1  0.33199324  0.16731754  0.75154975  1
  Mn3.30+  Mn98  1  0.33333527  0.50127772  0.24869896  1
  Mn3.30+  Mn99  1  0.33315844  0.50215343  0.75254545  1
  Mn3.30+  Mn100  1  0.33421527  0.83191607  0.24939821  1
  Mn3.30+  Mn101  1  0.33431247  0.83020792  0.74969333  1
  Mn3.30+  Mn102  1  0.66808297  0.16683315  0.24832604  1
  Mn3.30+  Mn103  1  0.66632693  0.16622987  0.75045541  1
  Mn3.30+  Mn104  1  0.66901170  0.49889048  0.24935123  1
  Mn3.30+  Mn105  1  0.66614559  0.50099325  0.75226006  1
  Mn3.30+  Mn106  1  0.66658360  0.83355562  0.24827615  1
  Mn3.30+  Mn107  1  0.66575635  0.83317349  0.75213183  1
  Mn3.30+  Mn108  1  0.16546896  0.00000783  0.25047059  1
  Mn3.30+  Mn109  1  0.16474813  -0.00064191  0.75073591  1
  Mn3.30+  Mn110  1  0.16264936  0.33422996  0.24943841  1
  Mn3.30+  Mn111  1  0.16478055  0.33541854  0.75157227  1
  Mn3.30+  Mn112  1  0.16817284  0.66665669  0.24943372  1
  Mn3.30+  Mn113  1  0.16618533  0.66453111  0.74991086  1
  Mn3.30+  Mn114  1  0.49977845  0.00075465  0.24736197  1
  Mn3.30+  Mn115  1  0.50082161  -0.00053694  0.75093532  1
  Mn3.30+  Mn116  1  0.50189202  0.33320456  0.24875313  1
  Mn3.30+  Mn117  1  0.49895761  0.33458564  0.75167999  1
  Mn3.30+  Mn118  1  0.49971345  0.66727407  0.24912794  1
  Mn3.30+  Mn119  1  0.49689598  0.66638503  0.75119479  1
  Mn3.30+  Mn120  1  0.83284330  0.00140046  0.24989627  1
  Mn3.30+  Mn121  1  0.83290548  0.00002887  0.75006004  1
  Mn3.30+  Mn122  1  0.83642898  0.33289267  0.25143059  1
  Mn3.30+  Mn123  1  0.83601911  0.33462918  0.75152777  1
  Mn3.30+  Mn124  1  0.83504871  0.66475793  0.24962212  1
  Mn3.30+  Mn125  1  0.83736724  0.66618607  0.75186930  1
  Mn3.30+  Mn126  1  -0.00042330  0.16727413  0.00001471  1
  Mn3.30+  Mn127  1  -0.00212819  0.16842591  0.49781887  1
  Mn3.30+  Mn128  1  0.00282121  0.49862521  -0.00036975  1
  Mn3.30+  Mn129  1  -0.00162226  0.50062287  0.49922538  1
  Mn3.30+  Mn130  1  -0.00002694  0.83233773  -0.00112202  1
  Mn3.30+  Mn131  1  -0.00092836  0.83181525  0.50131545  1
  Mn3.30+  Mn132  1  0.33180411  0.16749087  0.00125061  1
  Mn3.30+  Mn133  1  0.33344720  0.16714662  0.49932216  1
  Mn3.30+  Mn134  1  0.33258820  0.50198986  -0.00189682  1
  Mn3.30+  Mn135  1  0.33389490  0.50152871  0.50055080  1
  Mn3.30+  Mn136  1  0.33415263  0.83087365  -0.00075272  1
  Mn3.30+  Mn137  1  0.33448501  0.83139598  0.50176277  1
  Mn3.30+  Mn138  1  0.66643603  0.16711572  0.00021164  1
  Mn3.30+  Mn139  1  0.66753571  0.16600555  0.49962618  1
  Mn3.30+  Mn140  1  0.66672427  0.50027337  -0.00234562  1
  Mn3.30+  Mn141  1  0.66875879  0.49988066  0.50004899  1
  Mn3.30+  Mn142  1  0.66546746  0.83345406  -0.00260934  1
  Mn3.30+  Mn143  1  0.66654219  0.83330716  0.50133892  1
  O2-  O144  1  0.02149438  0.15846142  0.12767540  1
  O2-  O145  1  0.02524101  0.16033719  0.62369226  1
  O2-  O146  1  0.02435072  0.49250024  0.12619603  1
  O2-  O147  1  0.02705120  0.49270033  0.62370181  1
  O2-  O148  1  0.02348651  0.83290810  0.12772863  1
  O2-  O149  1  0.02439173  0.82681387  0.62431802  1
  O2-  O150  1  0.36051964  0.16016694  0.12429922  1
  O2-  O151  1  0.35901826  0.16110771  0.62557608  1
  O2-  O152  1  0.35774234  0.49250009  0.12432997  1
  O2-  O153  1  0.35883876  0.49237253  0.62711240  1
  O2-  O154  1  0.35666945  0.82853894  0.12466262  1
  O2-  O155  1  0.35892765  0.82854916  0.62587753  1
  O2-  O156  1  0.69591376  0.16223471  0.12409265  1
  O2-  O157  1  0.68981496  0.16268894  0.62746996  1
  O2-  O158  1  0.69491796  0.49563301  0.12087168  1
  O2-  O159  1  0.68636678  0.49693384  0.62669071  1
  O2-  O160  1  0.68761518  0.82893818  0.12203781  1
  O2-  O161  1  0.69209779  0.82465257  0.62829867  1
  O2-  O162  1  0.13666093  0.32844164  0.12746932  1
  O2-  O163  1  0.14239100  0.32929499  0.62342595  1
  O2-  O164  1  0.14678534  0.66432131  0.12487257  1
  O2-  O165  1  0.13765642  0.66125327  0.62452820  1
  O2-  O166  1  0.14725351  0.99313233  0.12621002  1
  O2-  O167  1  0.14086912  0.99399832  0.62437815  1
  O2-  O168  1  0.47655505  0.32730256  0.12529110  1
  O2-  O169  1  0.47471975  0.32606007  0.62695666  1
  O2-  O170  1  0.47499152  0.66163324  0.12376086  1
  O2-  O171  1  0.47481508  0.65965705  0.62779960  1
  O2-  O172  1  0.47138063  0.98994388  0.12329258  1
  O2-  O173  1  0.47313873  0.99609745  0.62799776  1
  O2-  O174  1  0.80867172  0.32729073  0.12353869  1
  O2-  O175  1  0.80922335  0.32831835  0.62596423  1
  O2-  O176  1  0.81007123  0.66002143  0.12013475  1
  O2-  O177  1  0.80884789  0.66764753  0.62780289  1
  O2-  O178  1  0.81007845  1.00098234  0.12094356  1
  O2-  O179  1  0.80475265  0.99365700  0.62708975  1
  O2-  O180  1  0.30770219  0.17363416  0.37369494  1
  O2-  O181  1  0.30497180  0.17477305  0.87630714  1
  O2-  O182  1  0.30783027  0.50588155  0.37343430  1
  O2-  O183  1  0.30508412  0.49730646  0.87537948  1
  O2-  O184  1  0.30954381  0.83808233  0.37605028  1
  O2-  O185  1  0.30700371  0.83750645  0.87372800  1
  O2-  O186  1  0.64137700  0.17143157  0.37259025  1
  O2-  O187  1  0.63979729  0.17341984  0.87480873  1
  O2-  O188  1  0.64863003  0.50318968  0.37573513  1
  O2-  O189  1  0.63735102  0.50559267  0.87574730  1
  O2-  O190  1  0.64872366  0.83885750  0.37423893  1
  O2-  O191  1  0.63550268  0.83970300  0.87406289  1
  O2-  O192  1  0.97227696  0.17525096  0.37681038  1
  O2-  O193  1  0.97702961  0.17943740  0.87293813  1
  O2-  O194  1  0.97265997  0.50910027  0.37653306  1
  O2-  O195  1  0.97995881  0.50708537  0.87459922  1
  O2-  O196  1  0.97446450  0.83855236  0.37758704  1
  O2-  O197  1  0.98006558  0.84145508  0.87125303  1
  O2-  O198  1  0.19370276  0.00596938  0.37555323  1
  O2-  O199  1  0.19269124  0.00549357  0.87455671  1
  O2-  O200  1  0.19460518  0.33750781  0.37372459  1
  O2-  O201  1  0.18928366  0.33575996  0.87579103  1
  O2-  O202  1  0.19425345  0.66989544  0.37593965  1
  O2-  O203  1  0.18752414  0.67176756  0.87460642  1
  O2-  O204  1  0.52604871  0.00695116  0.37231974  1
  O2-  O205  1  0.52526914  0.00985067  0.87565274  1
  O2-  O206  1  0.52717426  0.33413430  0.37161062  1
  O2-  O207  1  0.52471414  0.33915153  0.87544817  1
  O2-  O208  1  0.52609839  0.66875932  0.37321713  1
  O2-  O209  1  0.52362885  0.67365035  0.87509324  1
  O2-  O210  1  0.85321299  0.00601716  0.37976507  1
  O2-  O211  1  0.85988305  0.00706281  0.87180169  1
  O2-  O212  1  0.85795101  0.34320708  0.37490476  1
  O2-  O213  1  0.86193913  0.33961027  0.87524762  1
  O2-  O214  1  0.85612748  0.67332245  0.37805688  1
  O2-  O215  1  0.86396844  0.67188721  0.87443008  1
  O2-  O216  1  0.23712965  0.09514845  0.02128145  1
  O2-  O217  1  0.23810865  0.09377773  0.52106426  1
  O2-  O218  1  0.23844568  0.42626455  0.02323538  1
  O2-  O219  1  0.23849024  0.42890590  0.51894317  1
  O2-  O220  1  0.23659327  0.76349682  0.01652754  1
  O2-  O221  1  0.23557155  0.76181773  0.51879993  1
  O2-  O222  1  0.56929315  0.09459663  0.02265306  1
  O2-  O223  1  0.56804204  0.09686285  0.51763155  1
  O2-  O224  1  0.57433337  0.42681216  0.02278709  1
  O2-  O225  1  0.57248172  0.42587992  0.52208031  1
  O2-  O226  1  0.57400038  0.75847037  0.02043910  1
  O2-  O227  1  0.57279857  0.76042440  0.52354915  1
  O2-  O228  1  0.90205827  0.10022520  0.01261991  1
  O2-  O229  1  0.90382811  0.09258014  0.52385676  1
  O2-  O230  1  0.90324110  0.42877555  0.01686278  1
  O2-  O231  1  0.90910183  0.42561752  0.52101648  1
  O2-  O232  1  0.90554945  0.76179516  0.01296328  1
  O2-  O233  1  0.90159291  0.76433608  0.51753851  1
  O2-  O234  1  0.25945546  0.26194618  0.22765933  1
  O2-  O235  1  0.26054873  0.26236654  0.72922350  1
  O2-  O236  1  0.26254420  0.59429759  0.22886465  1
  O2-  O237  1  0.26297657  0.59533518  0.72556699  1
  O2-  O238  1  0.26223066  0.92656947  0.23137274  1
  O2-  O239  1  0.26323362  0.92734785  0.72948843  1
  O2-  O240  1  0.60019664  0.26075702  0.22959162  1
  O2-  O241  1  0.59410495  0.26201707  0.73026122  1
  O2-  O242  1  0.59607169  0.59460346  0.22858407  1
  O2-  O243  1  0.59452776  0.59578406  0.73120164  1
  O2-  O244  1  0.59249805  0.92915903  0.22781097  1
  O2-  O245  1  0.59625809  0.93006094  0.72753557  1
  O2-  O246  1  0.92931727  0.26261315  0.22722730  1
  O2-  O247  1  0.92730305  0.25872249  0.72568514  1
  O2-  O248  1  0.92682162  0.59200504  0.23179667  1
  O2-  O249  1  0.93277502  0.59583515  0.73213332  1
  O2-  O250  1  0.92677366  0.92901621  0.24045287  1
  O2-  O251  1  0.92624233  0.92680969  0.72640528  1
  O2-  O252  1  0.09633880  0.23633261  0.26937917  1
  O2-  O253  1  0.09801557  0.23509649  0.76401516  1
  O2-  O254  1  0.09360112  0.57125920  0.26962499  1
  O2-  O255  1  0.10175499  0.56548359  0.76727450  1
  O2-  O256  1  0.09351645  0.90647476  0.27312009  1
  O2-  O257  1  0.09728111  0.90268724  0.76546838  1
  O2-  O258  1  0.42639168  0.24009714  0.27065069  1
  O2-  O259  1  0.42811228  0.23945908  0.77217884  1
  O2-  O260  1  0.42798893  0.57426763  0.26663537  1
  O2-  O261  1  0.43190458  0.56639149  0.76933298  1
  O2-  O262  1  0.42544901  0.90728185  0.26775176  1
  O2-  O263  1  0.43106080  0.90579968  0.77163038  1
  O2-  O264  1  0.76539361  0.23782391  0.27192106  1
  O2-  O265  1  0.76075157  0.24067916  0.77140050  1
  O2-  O266  1  0.76194252  0.57023028  0.26890754  1
  O2-  O267  1  0.76169797  0.57608051  0.77454217  1
  O2-  O268  1  0.75930313  0.90757611  0.26942597  1
  O2-  O269  1  0.76092620  0.90497621  0.77368831  1
  O2-  O270  1  0.06958311  0.07374018  0.47842152  1
  O2-  O271  1  0.07046682  0.07328327  0.97623024  1
  O2-  O272  1  0.07214787  0.40429472  0.47693308  1
  O2-  O273  1  0.07022782  0.40314711  0.97984195  1
  O2-  O274  1  0.07485434  0.73861662  0.47618182  1
  O2-  O275  1  0.07390395  0.73762589  0.97896379  1
  O2-  O276  1  0.40384851  0.07323224  0.47857711  1
  O2-  O277  1  0.40371012  0.07025364  0.97804106  1
  O2-  O278  1  0.40336205  0.40253398  0.48290936  1
  O2-  O279  1  0.40243383  0.40463427  0.98363629  1
  O2-  O280  1  0.40436235  0.73766412  0.48193744  1
  O2-  O281  1  0.40666415  0.73976892  0.98434246  1
  O2-  O282  1  0.73517702  0.07112912  0.48295304  1
  O2-  O283  1  0.73683314  0.07282334  0.97734428  1
  O2-  O284  1  0.73823389  0.40187061  0.48453461  1
  O2-  O285  1  0.73993622  0.40650366  0.97737421  1
  O2-  O286  1  0.73805893  0.73736535  0.48091334  1
  O2-  O287  1  0.73901695  0.74008028  0.97683242  1
  O2-  O288  1  0.09786030  0.23764716  0.48252457  1
  O2-  O289  1  0.09739915  0.23459298  0.98523401  1
  O2-  O290  1  0.09590479  0.57080446  0.47821700  1
  O2-  O291  1  0.09925458  0.56780359  0.98517023  1
  O2-  O292  1  0.09347154  0.90635531  0.47926082  1
  O2-  O293  1  0.09717094  0.90325673  0.98333412  1
  O2-  O294  1  0.42978698  0.23901680  0.47920077  1
  O2-  O295  1  0.42463661  0.24092424  0.97853504  1
  O2-  O296  1  0.42596508  0.57283517  0.48234089  1
  O2-  O297  1  0.43285245  0.56728869  0.98233913  1
  O2-  O298  1  0.42734332  0.90949674  0.48370443  1
  O2-  O299  1  0.42878068  0.90383002  0.97720478  1
  O2-  O300  1  0.76343967  0.23804324  0.47960722  1
  O2-  O301  1  0.76354816  0.24128408  0.97687965  1
  O2-  O302  1  0.76243807  0.57366302  0.47998582  1
  O2-  O303  1  0.75981941  0.57380995  0.97481334  1
  O2-  O304  1  0.76261601  0.90496197  0.48145734  1
  O2-  O305  1  0.75674619  0.90777904  0.97419855  1
  O2-  O306  1  0.07142579  0.07511994  0.27596178  1
  O2-  O307  1  0.06799415  0.07107638  0.77088350  1
  O2-  O308  1  0.07125065  0.40632789  0.27741623  1
  O2-  O309  1  0.06979659  0.40082172  0.76734732  1
  O2-  O310  1  0.07502133  0.74086856  0.27367599  1
  O2-  O311  1  0.07201360  0.73651664  0.77091332  1
  O2-  O312  1  0.40517494  0.07131926  0.27108907  1
  O2-  O313  1  0.40317599  0.07197765  0.77197614  1
  O2-  O314  1  0.40147326  0.40532683  0.26605544  1
  O2-  O315  1  0.40265823  0.40251165  0.76814963  1
  O2-  O316  1  0.40366598  0.73840841  0.26817866  1
  O2-  O317  1  0.40706591  0.73912878  0.76673691  1
  O2-  O318  1  0.73353025  0.06979479  0.26642710  1
  O2-  O319  1  0.73956563  0.07419865  0.77314589  1
  O2-  O320  1  0.73815157  0.40056205  0.26475563  1
  O2-  O321  1  0.73959424  0.40782068  0.77153359  1
  O2-  O322  1  0.73978363  0.73623709  0.26753031  1
  O2-  O323  1  0.73925185  0.73995514  0.77420676  1
  O2-  O324  1  0.23852853  0.09496701  0.22919559  1
  O2-  O325  1  0.23672963  0.09403564  0.72877816  1
  O2-  O326  1  0.23610722  0.42795902  0.22921551  1
  O2-  O327  1  0.23981902  0.42687893  0.72813100  1
  O2-  O328  1  0.23794721  0.76460618  0.23381533  1
  O2-  O329  1  0.23427572  0.76092254  0.73117535  1
  O2-  O330  1  0.56969096  0.09576195  0.22545462  1
  O2-  O331  1  0.56829662  0.09626672  0.73251334  1
  O2-  O332  1  0.57532544  0.42780085  0.22570739  1
  O2-  O333  1  0.57163260  0.42496557  0.72836711  1
  O2-  O334  1  0.57303965  0.75971098  0.22684708  1
  O2-  O335  1  0.57367856  0.75920683  0.72797646  1
  O2-  O336  1  0.90276404  0.09705717  0.23692379  1
  O2-  O337  1  0.90435066  0.09603899  0.72786374  1
  O2-  O338  1  0.90411756  0.42767535  0.22937703  1
  O2-  O339  1  0.90918033  0.42873531  0.73342270  1
  O2-  O340  1  0.90654853  0.76047263  0.23859111  1
  O2-  O341  1  0.90296312  0.76446939  0.73306748  1
  O2-  O342  1  0.25789915  0.26278815  0.02322419  1
  O2-  O343  1  0.26186211  0.26136664  0.52003340  1
  O2-  O344  1  0.26316236  0.59465182  0.02324419  1
  O2-  O345  1  0.26075673  0.59612644  0.52242355  1
  O2-  O346  1  0.26377033  0.92772008  0.01840764  1
  O2-  O347  1  0.26157558  0.92599774  0.52095791  1
  O2-  O348  1  0.59738144  0.26162020  0.01723409  1
  O2-  O349  1  0.59670932  0.26122918  0.52036760  1
  O2-  O350  1  0.59541507  0.59518237  0.02110441  1
  O2-  O351  1  0.59394568  0.59496381  0.51933389  1
  O2-  O352  1  0.59322565  0.92904851  0.02062291  1
  O2-  O353  1  0.59568798  0.92828699  0.52192232  1
  O2-  O354  1  0.92943978  0.26088956  0.02350591  1
  O2-  O355  1  0.92706407  0.26067309  0.52360002  1
  O2-  O356  1  0.92635485  0.58729775  0.01776703  1
  O2-  O357  1  0.93298837  0.60082737  0.51924646  1
  O2-  O358  1  0.92460071  0.92704252  0.01024922  1
  O2-  O359  1  0.92635415  0.92996436  0.52135372  1
