# generated using pymatgen
data_Sr7Ca15Pr50Mn72O216
_symmetry_space_group_name_H-M   'P 1'
_cell_length_a   16.55570226
_cell_length_b   16.60175853
_cell_length_c   15.59042061
_cell_angle_alpha   90.00212194
_cell_angle_beta   90.00690312
_cell_angle_gamma   90.01181697
_symmetry_Int_Tables_number   1
_chemical_formula_structural   Sr7Ca15Pr50Mn72O216
_chemical_formula_sum   'Sr7 Ca15 Pr50 Mn72 O216'
_cell_volume   4285.08577483
_cell_formula_units_Z   1
loop_
 _symmetry_equiv_pos_site_id
 _symmetry_equiv_pos_as_xyz
  1  'x, y, z'
loop_
 _atom_type_symbol
 _atom_type_oxidation_number
  Sr2+  2.0
  Ca2+  2.0
  Pr3+  3.0
  Mn3.30+  3.3
  O2-  -2.0
loop_
 _atom_site_type_symbol
 _atom_site_label
 _atom_site_symmetry_multiplicity
 _atom_site_fract_x
 _atom_site_fract_y
 _atom_site_fract_z
 _atom_site_occupancy
  Sr2+  Sr0  1  0.16032031  0.15616187  0.87706282  1
  Sr2+  Sr1  1  0.66593966  0.67593203  0.12384535  1
  Sr2+  Sr2  1  0.16468864  0.48973397  0.37311900  1
  Sr2+  Sr3  1  0.66871995  0.67542619  0.62654286  1
  Sr2+  Sr4  1  0.50293934  0.84275587  0.62545929  1
  Sr2+  Sr5  1  -0.00553668  0.34309185  0.62803342  1
  Sr2+  Sr6  1  -0.00377534  0.01190759  0.62652624  1
  Ca2+  Ca7  1  0.17057852  0.51576089  0.12256010  1
  Ca2+  Ca8  1  0.83298143  0.48705164  0.37710288  1
  Ca2+  Ca9  1  0.83094240  0.48220752  0.87312377  1
  Ca2+  Ca10  1  0.50363603  0.18187688  0.12378217  1
  Ca2+  Ca11  1  0.66097269  0.01758883  0.12478284  1
  Ca2+  Ca12  1  0.67194283  0.31791991  0.87613879  1
  Ca2+  Ca13  1  0.83965075  0.18236719  0.62656628  1
  Ca2+  Ca14  1  0.16874497  0.18202470  0.12132568  1
  Ca2+  Ca15  1  0.33763857  0.98392629  0.37399970  1
  Ca2+  Ca16  1  0.83913438  0.51102060  0.62693460  1
  Ca2+  Ca17  1  1.00317917  0.98847099  0.87482070  1
  Ca2+  Ca18  1  -0.00129780  0.67884061  0.12529170  1
  Ca2+  Ca19  1  0.33055545  0.68011871  0.12520591  1
  Ca2+  Ca20  1  0.15932623  0.48193615  0.87694709  1
  Ca2+  Ca21  1  1.00280216  0.31908169  0.87320020  1
  Pr3+  Pr22  1  0.83023181  0.15578452  0.37608064  1
  Pr3+  Pr23  1  0.33477672  0.32272515  0.37428895  1
  Pr3+  Pr24  1  0.16545951  0.81925404  0.37361235  1
  Pr3+  Pr25  1  0.32816504  0.34549759  0.12301299  1
  Pr3+  Pr26  1  1.00555304  0.65054833  0.87769264  1
  Pr3+  Pr27  1  0.16548196  0.18078569  0.62673871  1
  Pr3+  Pr28  1  0.66965961  0.98892014  0.87731263  1
  Pr3+  Pr29  1  -0.00441194  0.67439406  0.62478212  1
  Pr3+  Pr30  1  0.50429067  0.84681159  0.12519770  1
  Pr3+  Pr31  1  0.33523928  0.65266357  0.37236135  1
  Pr3+  Pr32  1  0.16207608  0.82362302  0.87615368  1
  Pr3+  Pr33  1  0.33428633  0.98867580  0.87623081  1
  Pr3+  Pr34  1  0.83828825  0.51450764  0.12303702  1
  Pr3+  Pr35  1  0.83499016  0.82368865  0.87461551  1
  Pr3+  Pr36  1  -0.00105860  0.01330627  0.12354083  1
  Pr3+  Pr37  1  0.33440562  0.65384912  0.87735115  1
  Pr3+  Pr38  1  0.00062172  0.34422971  0.12139310  1
  Pr3+  Pr39  1  0.83611808  0.84511198  0.62531709  1
  Pr3+  Pr40  1  1.00140361  0.98720780  0.37495257  1
  Pr3+  Pr41  1  0.16395130  0.15595152  0.37268750  1
  Pr3+  Pr42  1  0.67008510  0.32258295  0.37424375  1
  Pr3+  Pr43  1  0.83561085  0.84471419  0.12489275  1
  Pr3+  Pr44  1  0.83330207  0.18012035  0.12477939  1
  Pr3+  Pr45  1  0.49844510  0.82066219  0.87502517  1
  Pr3+  Pr46  1  0.50314068  0.51348798  0.12378584  1
  Pr3+  Pr47  1  0.33062993  0.68010801  0.62474721  1
  Pr3+  Pr48  1  0.66449201  0.01167773  0.62543404  1
  Pr3+  Pr49  1  0.32854778  0.01262495  0.62360481  1
  Pr3+  Pr50  1  0.16954570  0.84308405  0.12485743  1
  Pr3+  Pr51  1  0.66272767  0.34556119  0.12170517  1
  Pr3+  Pr52  1  0.50039280  0.48736765  0.87524651  1
  Pr3+  Pr53  1  0.66987605  0.34483523  0.62840369  1
  Pr3+  Pr54  1  0.67319379  0.65406352  0.87492857  1
  Pr3+  Pr55  1  0.83410299  0.15761973  0.87435308  1
  Pr3+  Pr56  1  0.33216283  0.32038760  0.87516560  1
  Pr3+  Pr57  1  0.49759162  0.81967455  0.37523712  1
  Pr3+  Pr58  1  0.49405016  0.15211778  0.37289849  1
  Pr3+  Pr59  1  0.32796722  0.01604974  0.12641444  1
  Pr3+  Pr60  1  0.16456469  0.51026744  0.62726851  1
  Pr3+  Pr61  1  0.67168604  0.65133807  0.37502383  1
  Pr3+  Pr62  1  0.16947834  0.84686531  0.62454787  1
  Pr3+  Pr63  1  0.50440378  0.51265716  0.62679419  1
  Pr3+  Pr64  1  0.66874468  0.98657958  0.37312830  1
  Pr3+  Pr65  1  0.32789758  0.34646190  0.62655014  1
  Pr3+  Pr66  1  1.00337707  0.64978268  0.37218441  1
  Pr3+  Pr67  1  0.49705870  0.48778071  0.37499607  1
  Pr3+  Pr68  1  0.50216617  0.17810435  0.62575372  1
  Pr3+  Pr69  1  1.00108792  0.32395155  0.37524481  1
  Pr3+  Pr70  1  0.83055422  0.81929117  0.37547057  1
  Pr3+  Pr71  1  0.49809612  0.15537725  0.87729245  1
  Mn3.30+  Mn72  1  0.16475035  0.00131457  0.00070540  1
  Mn3.30+  Mn73  1  0.16716783  0.00112998  0.49781846  1
  Mn3.30+  Mn74  1  0.16386927  0.33432448  -0.00043011  1
  Mn3.30+  Mn75  1  0.16504649  0.33475322  0.49988854  1
  Mn3.30+  Mn76  1  0.16767043  0.66451074  0.00219817  1
  Mn3.30+  Mn77  1  0.16521367  0.66494593  0.49968669  1
  Mn3.30+  Mn78  1  0.50069165  0.00195176  0.00250830  1
  Mn3.30+  Mn79  1  0.49834912  -0.00056583  0.49956952  1
  Mn3.30+  Mn80  1  0.50003345  0.33253630  -0.00169788  1
  Mn3.30+  Mn81  1  0.50069347  0.33297302  0.50193329  1
  Mn3.30+  Mn82  1  0.49990018  0.66636821  0.00040758  1
  Mn3.30+  Mn83  1  0.50199695  0.66618927  0.50054480  1
  Mn3.30+  Mn84  1  0.83331406  0.00116447  0.00117745  1
  Mn3.30+  Mn85  1  0.83308936  0.00135427  0.50059249  1
  Mn3.30+  Mn86  1  0.83304670  0.33459182  -0.00236398  1
  Mn3.30+  Mn87  1  0.83411605  0.33488736  0.50065302  1
  Mn3.30+  Mn88  1  0.83711325  0.66637875  -0.00036766  1
  Mn3.30+  Mn89  1  0.83379105  0.66292796  0.50037073  1
  Mn3.30+  Mn90  1  0.00043574  0.16748952  0.24832251  1
  Mn3.30+  Mn91  1  -0.00175930  0.16646645  0.75107493  1
  Mn3.30+  Mn92  1  0.00187610  0.49976858  0.24620798  1
  Mn3.30+  Mn93  1  -0.00266894  0.49720287  0.75398570  1
  Mn3.30+  Mn94  1  0.00029440  0.83170955  0.24922986  1
  Mn3.30+  Mn95  1  0.00046559  0.83363536  0.75008539  1
  Mn3.30+  Mn96  1  0.33240750  0.16729812  0.24779333  1
  Mn3.30+  Mn97  1  0.33231982  0.16622041  0.75146171  1
  Mn3.30+  Mn98  1  0.33164956  0.50049455  0.24678965  1
  Mn3.30+  Mn99  1  0.33132143  0.50033510  0.75291907  1
  Mn3.30+  Mn100  1  0.33449403  0.83294334  0.24913883  1
  Mn3.30+  Mn101  1  0.33282149  0.83403745  0.75024445  1
  Mn3.30+  Mn102  1  0.66292217  0.16657719  0.24919619  1
  Mn3.30+  Mn103  1  0.66917882  0.16767208  0.75001073  1
  Mn3.30+  Mn104  1  0.66857524  0.49963218  0.24982692  1
  Mn3.30+  Mn105  1  0.67158815  0.49815412  0.75112005  1
  Mn3.30+  Mn106  1  0.66644742  0.83334411  0.24801767  1
  Mn3.30+  Mn107  1  0.66723317  0.83325186  0.75066157  1
  Mn3.30+  Mn108  1  0.16829367  0.00093815  0.25076218  1
  Mn3.30+  Mn109  1  0.16344576  0.00158391  0.75026227  1
  Mn3.30+  Mn110  1  0.16660537  0.33473730  0.24827251  1
  Mn3.30+  Mn111  1  0.16225799  0.33420252  0.75191403  1
  Mn3.30+  Mn112  1  0.16722431  0.66459631  0.24578448  1
  Mn3.30+  Mn113  1  0.16568248  0.66483996  0.75204074  1
  Mn3.30+  Mn114  1  0.49893870  0.00134877  0.24851146  1
  Mn3.30+  Mn115  1  0.50012904  -0.00000853  0.75008479  1
  Mn3.30+  Mn116  1  0.49951745  0.33231307  0.24815462  1
  Mn3.30+  Mn117  1  0.50131208  0.33292296  0.75149111  1
  Mn3.30+  Mn118  1  0.50034401  0.66615529  0.24837228  1
  Mn3.30+  Mn119  1  0.50185820  0.66634777  0.75111982  1
  Mn3.30+  Mn120  1  0.83131682  0.00050388  0.24751779  1
  Mn3.30+  Mn121  1  0.83506515  0.00191635  0.75148099  1
  Mn3.30+  Mn122  1  0.83329111  0.33616168  0.24863655  1
  Mn3.30+  Mn123  1  0.83422552  0.33359078  0.75305210  1
  Mn3.30+  Mn124  1  0.83519468  0.66537057  0.24868709  1
  Mn3.30+  Mn125  1  0.83574065  0.66378663  0.75141440  1
  Mn3.30+  Mn126  1  0.00114443  0.16734291  0.00068037  1
  Mn3.30+  Mn127  1  -0.00256231  0.16692474  0.50009119  1
  Mn3.30+  Mn128  1  0.00217986  0.49899690  -0.00031186  1
  Mn3.30+  Mn129  1  -0.00284968  0.49795863  0.49974150  1
  Mn3.30+  Mn130  1  0.00085158  0.83311357  0.00147283  1
  Mn3.30+  Mn131  1  -0.00015369  0.83225813  0.49917864  1
  Mn3.30+  Mn132  1  0.33210816  0.16713877  0.00116888  1
  Mn3.30+  Mn133  1  0.33255802  0.16625943  0.49880453  1
  Mn3.30+  Mn134  1  0.32979119  0.50064829  -0.00070447  1
  Mn3.30+  Mn135  1  0.33304096  0.50010730  0.50081766  1
  Mn3.30+  Mn136  1  0.33377010  0.83275232  0.00140648  1
  Mn3.30+  Mn137  1  0.33381992  0.83427761  0.49857151  1
  Mn3.30+  Mn138  1  0.66523660  0.16711255  0.00021037  1
  Mn3.30+  Mn139  1  0.66718661  0.16719216  0.50112838  1
  Mn3.30+  Mn140  1  0.66980213  0.49905321  -0.00252416  1
  Mn3.30+  Mn141  1  0.66978234  0.49903385  0.50206354  1
  Mn3.30+  Mn142  1  0.66742226  0.83407720  0.00153847  1
  Mn3.30+  Mn143  1  0.66616200  0.83250993  0.50056992  1
  O2-  O144  1  0.02632137  0.16115988  0.12664939  1
  O2-  O145  1  0.02226834  0.16469555  0.62179887  1
  O2-  O146  1  0.02964263  0.49059576  0.12218889  1
  O2-  O147  1  0.02132858  0.50184578  0.62876922  1
  O2-  O148  1  0.02565833  0.82639181  0.12690613  1
  O2-  O149  1  0.02571383  0.82436647  0.62228558  1
  O2-  O150  1  0.36087737  0.16360052  0.12512344  1
  O2-  O151  1  0.35766718  0.16094518  0.62580375  1
  O2-  O152  1  0.36119852  0.49154777  0.12271899  1
  O2-  O153  1  0.35987958  0.49498207  0.62862661  1
  O2-  O154  1  0.36000337  0.82645822  0.12515225  1
  O2-  O155  1  0.35259044  0.82811328  0.62464669  1
  O2-  O156  1  0.69002886  0.16270102  0.12596483  1
  O2-  O157  1  0.69575028  0.15851904  0.62615794  1
  O2-  O158  1  0.69227603  0.49426835  0.12162111  1
  O2-  O159  1  0.69589489  0.49280394  0.62733012  1
  O2-  O160  1  0.69167174  0.82847789  0.12415830  1
  O2-  O161  1  0.69142348  0.83343605  0.62560527  1
  O2-  O162  1  0.14465093  0.32554427  0.12486931  1
  O2-  O163  1  0.14721822  0.33065291  0.62550401  1
  O2-  O164  1  0.14047430  0.66297060  0.12375786  1
  O2-  O165  1  0.14063575  0.65965255  0.62791892  1
  O2-  O166  1  0.14164075  0.99071954  0.12804239  1
  O2-  O167  1  0.14681603  0.99508097  0.62296243  1
  O2-  O168  1  0.47346743  0.32815884  0.12157608  1
  O2-  O169  1  0.47185248  0.32701048  0.62684062  1
  O2-  O170  1  0.47397780  0.66056845  0.12272735  1
  O2-  O171  1  0.47544269  0.66089709  0.62608281  1
  O2-  O172  1  0.47121421  0.99258463  0.12522740  1
  O2-  O173  1  0.47322510  0.99943506  0.62319216  1
  O2-  O174  1  0.80602972  0.32875304  0.12441260  1
  O2-  O175  1  0.81149678  0.32474096  0.62790309  1
  O2-  O176  1  0.81359312  0.66234512  0.12441212  1
  O2-  O177  1  0.81771707  0.65761319  0.62632185  1
  O2-  O178  1  0.80437172  0.99380365  0.12552795  1
  O2-  O179  1  0.80748695  0.99205552  0.62594988  1
  O2-  O180  1  0.30768371  0.17586478  0.37298420  1
  O2-  O181  1  0.31145711  0.16942799  0.87543703  1
  O2-  O182  1  0.31469849  0.50418096  0.37254366  1
  O2-  O183  1  0.30205973  0.50761853  0.87552694  1
  O2-  O184  1  0.30949160  0.83749762  0.37366980  1
  O2-  O185  1  0.30734630  0.83973108  0.87575302  1
  O2-  O186  1  0.63814064  0.17459906  0.37428500  1
  O2-  O187  1  0.64099101  0.17024583  0.87442291  1
  O2-  O188  1  0.64115917  0.50143020  0.37705055  1
  O2-  O189  1  0.64326629  0.50667851  0.87474274  1
  O2-  O190  1  0.64239174  0.83856633  0.37330261  1
  O2-  O191  1  0.64275736  0.84028562  0.87771061  1
  O2-  O192  1  0.97472192  0.17267399  0.37209745  1
  O2-  O193  1  0.97747664  0.17216341  0.87932650  1
  O2-  O194  1  0.97570956  0.50249189  0.37053981  1
  O2-  O195  1  0.97194175  0.50709414  0.87789939  1
  O2-  O196  1  0.97472427  0.83885604  0.37379960  1
  O2-  O197  1  0.97938419  0.84112896  0.87712355  1
  O2-  O198  1  0.19569248  0.00811280  0.37311313  1
  O2-  O199  1  0.18997190  -0.00246393  0.87508365  1
  O2-  O200  1  0.19079361  0.33531747  0.37392284  1
  O2-  O201  1  0.18953345  0.33800334  0.87548586  1
  O2-  O202  1  0.19128838  0.66993282  0.37217962  1
  O2-  O203  1  0.19214014  0.67649548  0.87566382  1
  O2-  O204  1  0.52551062  0.00596269  0.37376383  1
  O2-  O205  1  0.52507961  0.00712711  0.87780381  1
  O2-  O206  1  0.52524901  0.33999648  0.37728650  1
  O2-  O207  1  0.52874723  0.33932769  0.87420907  1
  O2-  O208  1  0.52554738  0.66875281  0.37542798  1
  O2-  O209  1  0.52632332  0.67105669  0.87626037  1
  O2-  O210  1  0.85702268  0.00643107  0.37211274  1
  O2-  O211  1  0.86064252  0.00745429  0.87731094  1
  O2-  O212  1  0.85672569  0.34121422  0.37076481  1
  O2-  O213  1  0.86052681  0.33655144  0.87720517  1
  O2-  O214  1  0.85996641  0.67283497  0.37291653  1
  O2-  O215  1  0.86275633  0.67729091  0.87610446  1
  O2-  O216  1  0.23718500  0.09270559  0.02308531  1
  O2-  O217  1  0.23692787  0.09614836  0.52048023  1
  O2-  O218  1  0.23795571  0.42836004  0.02203186  1
  O2-  O219  1  0.24089728  0.42820386  0.52240707  1
  O2-  O220  1  0.23759518  0.76212975  0.01877277  1
  O2-  O221  1  0.23670027  0.75988905  0.51840735  1
  O2-  O222  1  0.56809599  0.09779174  0.01943809  1
  O2-  O223  1  0.56966884  0.09480476  0.51994218  1
  O2-  O224  1  0.56950429  0.42686966  0.01987600  1
  O2-  O225  1  0.57248562  0.42686645  0.52366566  1
  O2-  O226  1  0.56935441  0.76335470  0.01649940  1
  O2-  O227  1  0.57307104  0.76102825  0.51306889  1
  O2-  O228  1  0.90374603  0.09404150  0.02406573  1
  O2-  O229  1  0.90097869  0.09785625  0.51520281  1
  O2-  O230  1  0.90579257  0.42770356  0.02355807  1
  O2-  O231  1  0.90105503  0.43148841  0.51736110  1
  O2-  O232  1  0.90524871  0.76409361  0.01814927  1
  O2-  O233  1  0.90418854  0.75931637  0.51963269  1
  O2-  O234  1  0.26351690  0.26464207  0.23219033  1
  O2-  O235  1  0.26163433  0.26124489  0.73191830  1
  O2-  O236  1  0.26586236  0.59738862  0.22996475  1
  O2-  O237  1  0.26192126  0.59562702  0.72816706  1
  O2-  O238  1  0.26101377  0.92721497  0.22782128  1
  O2-  O239  1  0.26100838  0.92883111  0.73046893  1
  O2-  O240  1  0.59538551  0.26365053  0.23055611  1
  O2-  O241  1  0.59442046  0.25700201  0.72562296  1
  O2-  O242  1  0.59406138  0.59171182  0.23332272  1
  O2-  O243  1  0.59351989  0.58904033  0.73316676  1
  O2-  O244  1  0.59515454  0.93253443  0.22864799  1
  O2-  O245  1  0.59551070  0.93163747  0.73436946  1
  O2-  O246  1  0.92561793  0.26184256  0.22820610  1
  O2-  O247  1  0.92454198  0.25968005  0.73768669  1
  O2-  O248  1  0.93078174  0.59486787  0.22718956  1
  O2-  O249  1  0.93347301  0.59742835  0.73679705  1
  O2-  O250  1  0.92957473  0.92655890  0.22859998  1
  O2-  O251  1  0.92278534  0.92345653  0.73173622  1
  O2-  O252  1  0.09251432  0.24061948  0.27143233  1
  O2-  O253  1  0.09378524  0.23763201  0.76239133  1
  O2-  O254  1  0.09272274  0.57444576  0.26741659  1
  O2-  O255  1  0.09717740  0.56938973  0.77271979  1
  O2-  O256  1  0.09473096  0.90563077  0.27276746  1
  O2-  O257  1  0.09695497  0.90251209  0.76364368  1
  O2-  O258  1  0.42677623  0.24012653  0.27241062  1
  O2-  O259  1  0.42901945  0.24023576  0.77150355  1
  O2-  O260  1  0.42922900  0.57046936  0.26878197  1
  O2-  O261  1  0.42604328  0.57193936  0.77272025  1
  O2-  O262  1  0.43231169  0.90379854  0.26782691  1
  O2-  O263  1  0.42698974  0.90818824  0.77339662  1
  O2-  O264  1  0.76002086  0.23945410  0.27001524  1
  O2-  O265  1  0.76059553  0.23957555  0.77274076  1
  O2-  O266  1  0.76354773  0.57067132  0.27053068  1
  O2-  O267  1  0.76322997  0.57403424  0.77579181  1
  O2-  O268  1  0.76162713  0.90453568  0.27113986  1
  O2-  O269  1  0.76085165  0.90775817  0.77211044  1
  O2-  O270  1  0.07244477  0.07360662  0.47529724  1
  O2-  O271  1  0.06758789  0.06609777  0.98473998  1
  O2-  O272  1  0.06928305  0.40546717  0.48252841  1
  O2-  O273  1  0.06748980  0.40167489  0.97991078  1
  O2-  O274  1  0.07210438  0.73811986  0.47693303  1
  O2-  O275  1  0.07401680  0.73966377  0.97940474  1
  O2-  O276  1  0.40346242  0.07117046  0.47753268  1
  O2-  O277  1  0.40433652  0.07148552  0.98068726  1
  O2-  O278  1  0.40567087  0.40585664  0.48141668  1
  O2-  O279  1  0.40376960  0.40705967  0.97567794  1
  O2-  O280  1  0.40420496  0.73808548  0.47961856  1
  O2-  O281  1  0.40736236  0.73990805  0.97583989  1
  O2-  O282  1  0.73579577  0.07264307  0.47734954  1
  O2-  O283  1  0.73868829  0.07488683  0.97941691  1
  O2-  O284  1  0.73534337  0.40203526  0.48395906  1
  O2-  O285  1  0.73672730  0.40188860  0.97997941  1
  O2-  O286  1  0.74223024  0.73779664  0.47911309  1
  O2-  O287  1  0.74286194  0.73949940  0.97751778  1
  O2-  O288  1  0.09390580  0.23805936  0.47992274  1
  O2-  O289  1  0.09241417  0.24036244  0.98668429  1
  O2-  O290  1  0.09205814  0.57231983  0.48379497  1
  O2-  O291  1  0.09785198  0.57063527  0.97648605  1
  O2-  O292  1  0.09612086  0.90670677  0.47762285  1
  O2-  O293  1  0.09691537  0.90272608  0.98657784  1
  O2-  O294  1  0.42806485  0.23843634  0.48002346  1
  O2-  O295  1  0.42751021  0.24216008  0.97587016  1
  O2-  O296  1  0.42774787  0.57188016  0.48124906  1
  O2-  O297  1  0.42788045  0.57134859  0.97701175  1
  O2-  O298  1  0.42978176  0.90602325  0.47863275  1
  O2-  O299  1  0.42903977  0.90667720  0.97944405  1
  O2-  O300  1  0.75993974  0.24184794  0.47642268  1
  O2-  O301  1  0.76212197  0.23719463  0.98282937  1
  O2-  O302  1  0.76088669  0.57236359  0.47529838  1
  O2-  O303  1  0.76655455  0.57257663  0.97831699  1
  O2-  O304  1  0.76035004  0.90558268  0.47933999  1
  O2-  O305  1  0.76347343  0.90734153  0.97833836  1
  O2-  O306  1  0.07185952  0.07078935  0.27172133  1
  O2-  O307  1  0.06938481  0.06923310  0.76832975  1
  O2-  O308  1  0.06947206  0.40243067  0.26578558  1
  O2-  O309  1  0.06844410  0.40559299  0.77120447  1
  O2-  O310  1  0.07310276  0.74065786  0.27239183  1
  O2-  O311  1  0.07248929  0.73715734  0.77130672  1
  O2-  O312  1  0.40107005  0.06968314  0.27115852  1
  O2-  O313  1  0.40597585  0.07229691  0.77060637  1
  O2-  O314  1  0.40619473  0.40489836  0.26935056  1
  O2-  O315  1  0.40394462  0.40738066  0.77322974  1
  O2-  O316  1  0.40697562  0.73824082  0.27291778  1
  O2-  O317  1  0.40464868  0.73952060  0.77059034  1
  O2-  O318  1  0.73568894  0.07597358  0.27210894  1
  O2-  O319  1  0.73798334  0.07174809  0.77271172  1
  O2-  O320  1  0.73636539  0.40403081  0.26628267  1
  O2-  O321  1  0.73546545  0.40027866  0.77027194  1
  O2-  O322  1  0.74060992  0.73767028  0.27207545  1
  O2-  O323  1  0.74432910  0.74030669  0.77140225  1
  O2-  O324  1  0.23675315  0.09875957  0.22612388  1
  O2-  O325  1  0.23811804  0.09258471  0.72795680  1
  O2-  O326  1  0.23992715  0.42891053  0.22575952  1
  O2-  O327  1  0.23984339  0.42773182  0.72931781  1
  O2-  O328  1  0.23706784  0.76179367  0.23235408  1
  O2-  O329  1  0.23743102  0.76060906  0.72921447  1
  O2-  O330  1  0.56492623  0.09900913  0.23138072  1
  O2-  O331  1  0.57233035  0.09435185  0.72960259  1
  O2-  O332  1  0.57084930  0.42727124  0.22863301  1
  O2-  O333  1  0.57118286  0.42582426  0.72844045  1
  O2-  O334  1  0.56974254  0.76390800  0.23290062  1
  O2-  O335  1  0.57448529  0.76104343  0.73863261  1
  O2-  O336  1  0.90484318  0.09438342  0.22832792  1
  O2-  O337  1  0.90020050  0.09747710  0.73299255  1
  O2-  O338  1  0.90762952  0.42775349  0.22361463  1
  O2-  O339  1  0.89955616  0.43107594  0.73369258  1
  O2-  O340  1  0.90330071  0.76301862  0.23251549  1
  O2-  O341  1  0.90696973  0.76061978  0.72939976  1
  O2-  O342  1  0.26251160  0.26371700  0.01562460  1
  O2-  O343  1  0.26149988  0.26143784  0.51992714  1
  O2-  O344  1  0.26627712  0.59896196  0.02050302  1
  O2-  O345  1  0.26137415  0.59447032  0.52065181  1
  O2-  O346  1  0.26195975  0.92876013  0.02119485  1
  O2-  O347  1  0.26050311  0.92706894  0.51934868  1
  O2-  O348  1  0.59500372  0.26035259  0.01887503  1
  O2-  O349  1  0.59531921  0.26000116  0.52439299  1
  O2-  O350  1  0.59233612  0.59158143  0.01599074  1
  O2-  O351  1  0.59472009  0.58956507  0.51922933  1
  O2-  O352  1  0.59423113  0.93181039  0.02239735  1
  O2-  O353  1  0.59584242  0.93236273  0.51593505  1
  O2-  O354  1  0.92351251  0.25897169  0.02387402  1
  O2-  O355  1  0.92644421  0.26278404  0.51053653  1
  O2-  O356  1  0.93354716  0.59599042  0.02213277  1
  O2-  O357  1  0.93099986  0.59637546  0.51308581  1
  O2-  O358  1  0.92677755  0.92631562  0.02468286  1
  O2-  O359  1  0.92541255  0.92484417  0.51608699  1
