# generated using pymatgen
data_Sr7Ca15Pr50Mn72O216
_symmetry_space_group_name_H-M   'P 1'
_cell_length_a   16.55924069
_cell_length_b   16.60549717
_cell_length_c   15.59175122
_cell_angle_alpha   89.99538659
_cell_angle_beta   90.00637792
_cell_angle_gamma   90.00688771
_symmetry_Int_Tables_number   1
_chemical_formula_structural   Sr7Ca15Pr50Mn72O216
_chemical_formula_sum   'Sr7 Ca15 Pr50 Mn72 O216'
_cell_volume   4287.33274727
_cell_formula_units_Z   1
loop_
 _symmetry_equiv_pos_site_id
 _symmetry_equiv_pos_as_xyz
  1  'x, y, z'
loop_
 _atom_type_symbol
 _atom_type_oxidation_number
  Sr2+  2.0
  Ca2+  2.0
  Pr3+  3.0
  Mn3.30+  3.3
  O2-  -2.0
loop_
 _atom_site_type_symbol
 _atom_site_label
 _atom_site_symmetry_multiplicity
 _atom_site_fract_x
 _atom_site_fract_y
 _atom_site_fract_z
 _atom_site_occupancy
  Sr2+  Sr0  1  0.49798500  0.82283444  0.37628682  1
  Sr2+  Sr1  1  0.66955721  0.98844219  0.87467979  1
  Sr2+  Sr2  1  1.00282220  0.32484223  0.37376924  1
  Sr2+  Sr3  1  1.00151685  0.99160111  0.37724336  1
  Sr2+  Sr4  1  0.16885861  0.17716845  0.62574396  1
  Sr2+  Sr5  1  0.66539121  0.67485913  0.12484841  1
  Sr2+  Sr6  1  -0.00248307  0.34480495  0.12484546  1
  Ca2+  Ca7  1  0.33163970  0.34710028  0.62537423  1
  Ca2+  Ca8  1  1.00015440  0.65192370  0.87453624  1
  Ca2+  Ca9  1  0.49484392  0.48601576  0.87631376  1
  Ca2+  Ca10  1  0.66829646  0.32177936  0.37501293  1
  Ca2+  Ca11  1  1.00361124  0.65117264  0.37593936  1
  Ca2+  Ca12  1  0.33098910  0.67859950  0.62420204  1
  Ca2+  Ca13  1  0.16427065  0.15371441  0.87378396  1
  Ca2+  Ca14  1  0.33212619  0.35068199  0.12412462  1
  Ca2+  Ca15  1  0.83023493  0.48832387  0.87637387  1
  Ca2+  Ca16  1  0.82869568  0.81881820  0.87445686  1
  Ca2+  Ca17  1  0.50031999  0.51166459  0.62566846  1
  Ca2+  Ca18  1  -0.00162977  0.01623361  0.62481027  1
  Ca2+  Ca19  1  0.49737899  0.15208101  0.87435596  1
  Ca2+  Ca20  1  0.50397903  0.51498492  0.12445246  1
  Ca2+  Ca21  1  0.49657695  0.48584524  0.37381177  1
  Pr3+  Pr22  1  -0.00069104  0.34464044  0.62493915  1
  Pr3+  Pr23  1  0.33245967  0.67700693  0.12504864  1
  Pr3+  Pr24  1  0.33058285  0.01326680  0.62471475  1
  Pr3+  Pr25  1  0.66175960  0.34929947  0.12537301  1
  Pr3+  Pr26  1  0.16787146  0.84588145  0.12431573  1
  Pr3+  Pr27  1  1.00363288  0.98830124  0.87323641  1
  Pr3+  Pr28  1  0.83409174  0.84368082  0.12298359  1
  Pr3+  Pr29  1  0.49974510  0.15708664  0.37574126  1
  Pr3+  Pr30  1  0.66423224  0.01391542  0.62641001  1
  Pr3+  Pr31  1  0.33474813  0.98787646  0.37677537  1
  Pr3+  Pr32  1  0.49805374  0.82016882  0.87382365  1
  Pr3+  Pr33  1  0.50210744  0.18174739  0.62783797  1
  Pr3+  Pr34  1  -0.00480419  0.67608119  0.12463703  1
  Pr3+  Pr35  1  0.82960603  0.48512047  0.37493556  1
  Pr3+  Pr36  1  0.66471955  0.65269666  0.37461275  1
  Pr3+  Pr37  1  0.34028599  0.65154418  0.37705483  1
  Pr3+  Pr38  1  0.83103939  0.81890413  0.37577738  1
  Pr3+  Pr39  1  0.16553572  0.48836848  0.87442694  1
  Pr3+  Pr40  1  0.16236345  0.15604993  0.37566587  1
  Pr3+  Pr41  1  0.50435983  0.84390231  0.12533329  1
  Pr3+  Pr42  1  0.83574531  0.51179865  0.12359732  1
  Pr3+  Pr43  1  0.67214292  0.98684885  0.37560042  1
  Pr3+  Pr44  1  0.83579725  0.18040685  0.12324183  1
  Pr3+  Pr45  1  0.16063816  0.81858993  0.37556005  1
  Pr3+  Pr46  1  0.83856786  0.84935947  0.62704083  1
  Pr3+  Pr47  1  0.83241410  0.15674989  0.37419976  1
  Pr3+  Pr48  1  -0.00242245  0.01288345  0.12515528  1
  Pr3+  Pr49  1  0.66306373  0.01251934  0.12363213  1
  Pr3+  Pr50  1  -0.00335114  0.67857719  0.62558516  1
  Pr3+  Pr51  1  0.33873688  0.65017053  0.87276332  1
  Pr3+  Pr52  1  0.33154796  0.01208715  0.12491419  1
  Pr3+  Pr53  1  0.16771460  0.84611359  0.62545639  1
  Pr3+  Pr54  1  0.17226760  0.18317077  0.12354154  1
  Pr3+  Pr55  1  0.16471867  0.48757287  0.37552299  1
  Pr3+  Pr56  1  0.16730792  0.51004795  0.12569226  1
  Pr3+  Pr57  1  0.66523997  0.32469129  0.87492634  1
  Pr3+  Pr58  1  0.17237959  0.51179952  0.62460653  1
  Pr3+  Pr59  1  0.50319777  0.18127725  0.12225055  1
  Pr3+  Pr60  1  0.83550117  0.51217155  0.62661493  1
  Pr3+  Pr61  1  0.83821180  0.17808129  0.62683191  1
  Pr3+  Pr62  1  0.33668863  0.32330011  0.37515856  1
  Pr3+  Pr63  1  0.33529210  0.98957983  0.87295448  1
  Pr3+  Pr64  1  0.33882290  0.31876292  0.87450191  1
  Pr3+  Pr65  1  1.00414152  0.32030071  0.87597348  1
  Pr3+  Pr66  1  0.83161693  0.15500534  0.87587303  1
  Pr3+  Pr67  1  0.16138143  0.81662066  0.87439430  1
  Pr3+  Pr68  1  0.66173727  0.34896142  0.62478694  1
  Pr3+  Pr69  1  0.50032999  0.84437336  0.62477585  1
  Pr3+  Pr70  1  0.66407391  0.67728861  0.62565682  1
  Pr3+  Pr71  1  0.66898416  0.65226775  0.87546246  1
  Mn3.30+  Mn72  1  0.16682576  0.00143481  -0.00135502  1
  Mn3.30+  Mn73  1  0.16499828  0.00068230  0.50161745  1
  Mn3.30+  Mn74  1  0.16993062  0.33408753  -0.00021171  1
  Mn3.30+  Mn75  1  0.16901894  0.33344274  0.50161883  1
  Mn3.30+  Mn76  1  0.16499440  0.66476132  -0.00091296  1
  Mn3.30+  Mn77  1  0.16726141  0.66608032  0.50023610  1
  Mn3.30+  Mn78  1  0.49968678  0.00014944  -0.00254779  1
  Mn3.30+  Mn79  1  0.50024864  0.00099455  0.50057330  1
  Mn3.30+  Mn80  1  0.49778635  0.33587471  0.00098190  1
  Mn3.30+  Mn81  1  0.49998098  0.33663478  0.49970151  1
  Mn3.30+  Mn82  1  0.50057715  0.66386902  -0.00057511  1
  Mn3.30+  Mn83  1  0.49808938  0.66396736  0.50239037  1
  Mn3.30+  Mn84  1  0.83317382  -0.00212479  -0.00116340  1
  Mn3.30+  Mn85  1  0.83588592  0.00067868  0.50063853  1
  Mn3.30+  Mn86  1  0.83276855  0.33594623  -0.00184755  1
  Mn3.30+  Mn87  1  0.83135242  0.33281236  0.50016715  1
  Mn3.30+  Mn88  1  0.83328361  0.66648817  -0.00319563  1
  Mn3.30+  Mn89  1  0.83403709  0.66528772  0.49922396  1
  Mn3.30+  Mn90  1  0.00104473  0.16846833  0.24921738  1
  Mn3.30+  Mn91  1  0.00287013  0.16636326  0.74975698  1
  Mn3.30+  Mn92  1  -0.00011494  0.50028559  0.25084366  1
  Mn3.30+  Mn93  1  -0.00037768  0.50042455  0.75206055  1
  Mn3.30+  Mn94  1  -0.00038867  0.83203711  0.25079910  1
  Mn3.30+  Mn95  1  -0.00190977  0.83267787  0.75183130  1
  Mn3.30+  Mn96  1  0.33439554  0.16923454  0.24913325  1
  Mn3.30+  Mn97  1  0.33350387  0.16806633  0.75115744  1
  Mn3.30+  Mn98  1  0.33672321  0.49944611  0.24834989  1
  Mn3.30+  Mn99  1  0.33621216  0.49892560  0.74772325  1
  Mn3.30+  Mn100  1  0.33310141  0.83247019  0.25047564  1
  Mn3.30+  Mn101  1  0.33160987  0.83099829  0.74942246  1
  Mn3.30+  Mn102  1  0.66615124  0.16887652  0.24988956  1
  Mn3.30+  Mn103  1  0.66657336  0.16800195  0.75193743  1
  Mn3.30+  Mn104  1  0.66267331  0.49907263  0.25139686  1
  Mn3.30+  Mn105  1  0.66418238  0.50012150  0.75133022  1
  Mn3.30+  Mn106  1  0.66624239  0.83144861  0.25031711  1
  Mn3.30+  Mn107  1  0.66856342  0.83280444  0.75037639  1
  Mn3.30+  Mn108  1  0.16590644  0.00058580  0.24971965  1
  Mn3.30+  Mn109  1  0.16616651  0.00153539  0.74980017  1
  Mn3.30+  Mn110  1  0.16935797  0.33493042  0.24779783  1
  Mn3.30+  Mn111  1  0.16993288  0.33212511  0.75028069  1
  Mn3.30+  Mn112  1  0.16568567  0.66601754  0.25064315  1
  Mn3.30+  Mn113  1  0.16659918  0.66515679  0.74994842  1
  Mn3.30+  Mn114  1  0.49967045  0.00081377  0.25058074  1
  Mn3.30+  Mn115  1  0.50016649  0.00077270  0.75120191  1
  Mn3.30+  Mn116  1  0.49983184  0.33638978  0.24981875  1
  Mn3.30+  Mn117  1  0.49799888  0.33608392  0.74951216  1
  Mn3.30+  Mn118  1  0.49991592  0.66490351  0.25101649  1
  Mn3.30+  Mn119  1  0.49870007  0.66321084  0.74759036  1
  Mn3.30+  Mn120  1  0.83339280  -0.00079947  0.24930460  1
  Mn3.30+  Mn121  1  0.83540372  -0.00032119  0.75097908  1
  Mn3.30+  Mn122  1  0.83138411  0.33317992  0.25043855  1
  Mn3.30+  Mn123  1  0.83286708  0.33537244  0.75141471  1
  Mn3.30+  Mn124  1  0.83405582  0.66490454  0.25180969  1
  Mn3.30+  Mn125  1  0.83355691  0.66644272  0.75298056  1
  Mn3.30+  Mn126  1  0.00241944  0.16700545  -0.00066414  1
  Mn3.30+  Mn127  1  0.00106866  0.16784567  0.50085262  1
  Mn3.30+  Mn128  1  -0.00145733  0.50042195  -0.00300126  1
  Mn3.30+  Mn129  1  0.00088324  0.50028933  0.50030260  1
  Mn3.30+  Mn130  1  -0.00198631  0.83108434  -0.00290173  1
  Mn3.30+  Mn131  1  -0.00033183  0.83368421  0.49988701  1
  Mn3.30+  Mn132  1  0.33477231  0.16768871  -0.00139475  1
  Mn3.30+  Mn133  1  0.33307154  0.16967499  0.50074716  1
  Mn3.30+  Mn134  1  0.33604738  0.49906299  0.00182457  1
  Mn3.30+  Mn135  1  0.33685054  0.49947999  0.50213170  1
  Mn3.30+  Mn136  1  0.33266058  0.83218273  -0.00115984  1
  Mn3.30+  Mn137  1  0.33184943  0.83123704  0.50095813  1
  Mn3.30+  Mn138  1  0.66576184  0.16788363  -0.00238471  1
  Mn3.30+  Mn139  1  0.66713430  0.16917925  0.50067739  1
  Mn3.30+  Mn140  1  0.66375399  0.50048893  -0.00136327  1
  Mn3.30+  Mn141  1  0.66291119  0.49895628  0.49940911  1
  Mn3.30+  Mn142  1  0.66757317  0.83206106  -0.00165597  1
  Mn3.30+  Mn143  1  0.66709358  0.83212239  0.50101572  1
  O2-  O144  1  0.02626326  0.16159447  0.12264493  1
  O2-  O145  1  0.01826979  0.16444445  0.62682508  1
  O2-  O146  1  0.02150806  0.50200192  0.12304737  1
  O2-  O147  1  0.02592334  0.49421804  0.62644252  1
  O2-  O148  1  0.02557678  0.82380298  0.12355374  1
  O2-  O149  1  0.02533335  0.82389824  0.62673064  1
  O2-  O150  1  0.36165073  0.15734201  0.12523372  1
  O2-  O151  1  0.35974313  0.15981979  0.62592936  1
  O2-  O152  1  0.36196459  0.49713666  0.12514316  1
  O2-  O153  1  0.35997755  0.48970104  0.62492125  1
  O2-  O154  1  0.35837515  0.82753751  0.12342683  1
  O2-  O155  1  0.35559312  0.82770956  0.62631829  1
  O2-  O156  1  0.69067556  0.16220466  0.12276308  1
  O2-  O157  1  0.69277320  0.16339976  0.62723580  1
  O2-  O158  1  0.69207154  0.49685721  0.12512831  1
  O2-  O159  1  0.69250156  0.49774979  0.62489419  1
  O2-  O160  1  0.68929426  0.83172748  0.12531613  1
  O2-  O161  1  0.69348623  0.82697496  0.62532985  1
  O2-  O162  1  0.14675712  0.33113238  0.12269953  1
  O2-  O163  1  0.14306746  0.33318550  0.62856948  1
  O2-  O164  1  0.13993815  0.65988061  0.12570120  1
  O2-  O165  1  0.14028378  0.66073383  0.62640292  1
  O2-  O166  1  0.14170296  0.99416662  0.12385045  1
  O2-  O167  1  0.14042060  0.99355714  0.62701262  1
  O2-  O168  1  0.47195991  0.32408723  0.12496695  1
  O2-  O169  1  0.47239200  0.32507505  0.62511186  1
  O2-  O170  1  0.47611247  0.66128457  0.12499759  1
  O2-  O171  1  0.47233912  0.65655263  0.62569789  1
  O2-  O172  1  0.47577581  0.99389398  0.12310867  1
  O2-  O173  1  0.47563787  0.99545699  0.62555501  1
  O2-  O174  1  0.80758493  0.32945832  0.12328968  1
  O2-  O175  1  0.80724461  0.32719495  0.62600166  1
  O2-  O176  1  0.81498770  0.66019415  0.12519540  1
  O2-  O177  1  0.80834455  0.65982204  0.62559980  1
  O2-  O178  1  0.80679162  0.99316847  0.12368687  1
  O2-  O179  1  0.80805226  0.99822107  0.62549864  1
  O2-  O180  1  0.30678939  0.17441686  0.37320879  1
  O2-  O181  1  0.30587890  0.17141245  0.87504326  1
  O2-  O182  1  0.30788024  0.50478704  0.37474731  1
  O2-  O183  1  0.30884444  0.50474521  0.87520142  1
  O2-  O184  1  0.30650212  0.83839890  0.37610507  1
  O2-  O185  1  0.30637625  0.83923417  0.87415625  1
  O2-  O186  1  0.64329435  0.17306419  0.37575485  1
  O2-  O187  1  0.63979869  0.17517181  0.87450696  1
  O2-  O188  1  0.63890158  0.50585403  0.37657352  1
  O2-  O189  1  0.63726885  0.50340384  0.87383441  1
  O2-  O190  1  0.64797091  0.83914156  0.37671948  1
  O2-  O191  1  0.64170646  0.83367705  0.87256977  1
  O2-  O192  1  0.97793992  0.16945091  0.37446274  1
  O2-  O193  1  0.97602721  0.17055130  0.87607232  1
  O2-  O194  1  0.97537416  0.50486770  0.37740877  1
  O2-  O195  1  0.97308900  0.50574549  0.87314714  1
  O2-  O196  1  0.97346492  0.83978735  0.37528514  1
  O2-  O197  1  0.97009818  0.84389515  0.87420091  1
  O2-  O198  1  0.19061820  0.00535883  0.37447672  1
  O2-  O199  1  0.19128505  0.00526722  0.87483406  1
  O2-  O200  1  0.19202888  0.33876566  0.37292885  1
  O2-  O201  1  0.19435071  0.34145269  0.87555249  1
  O2-  O202  1  0.19520486  0.67173156  0.37388395  1
  O2-  O203  1  0.19402264  0.66840662  0.87383580  1
  O2-  O204  1  0.52756122  0.00785116  0.37717251  1
  O2-  O205  1  0.51968361  0.00337898  0.87405532  1
  O2-  O206  1  0.52709193  0.33932746  0.37450004  1
  O2-  O207  1  0.52324279  0.34358931  0.87536674  1
  O2-  O208  1  0.52149679  0.67166055  0.37729525  1
  O2-  O209  1  0.52408063  0.67428961  0.87235298  1
  O2-  O210  1  0.85179451  0.00748851  0.37478540  1
  O2-  O211  1  0.86086267  0.00837816  0.87588291  1
  O2-  O212  1  0.85262145  0.33673349  0.37660905  1
  O2-  O213  1  0.85866065  0.34093564  0.87400422  1
  O2-  O214  1  0.86157487  0.67113114  0.37611891  1
  O2-  O215  1  0.85988760  0.67606066  0.87362498  1
  O2-  O216  1  0.24139333  0.09515032  0.02300229  1
  O2-  O217  1  0.24410022  0.09283428  0.51663372  1
  O2-  O218  1  0.23881605  0.43153268  0.01910527  1
  O2-  O219  1  0.23893374  0.43039765  0.51645284  1
  O2-  O220  1  0.23709717  0.76030965  0.01964063  1
  O2-  O221  1  0.23368892  0.76237884  0.51867776  1
  O2-  O222  1  0.57402497  0.09349813  0.02046740  1
  O2-  O223  1  0.57334131  0.09619309  0.52248841  1
  O2-  O224  1  0.57018972  0.42762614  0.02473635  1
  O2-  O225  1  0.57105653  0.42842178  0.52623552  1
  O2-  O226  1  0.56715383  0.76287237  0.01529643  1
  O2-  O227  1  0.57066173  0.75772812  0.52450666  1
  O2-  O228  1  0.90654969  0.09264204  0.02169304  1
  O2-  O229  1  0.90282738  0.09643747  0.51655000  1
  O2-  O230  1  0.90342383  0.42928070  0.01777612  1
  O2-  O231  1  0.90334149  0.42639486  0.52070357  1
  O2-  O232  1  0.90582769  0.76002512  0.02257482  1
  O2-  O233  1  0.90505346  0.76344451  0.52106955  1
  O2-  O234  1  0.26584586  0.26276104  0.22653294  1
  O2-  O235  1  0.26723675  0.26518541  0.73248091  1
  O2-  O236  1  0.26179826  0.59345149  0.22840034  1
  O2-  O237  1  0.26585534  0.59337510  0.72802000  1
  O2-  O238  1  0.25956798  0.92857016  0.22986666  1
  O2-  O239  1  0.25968256  0.92797182  0.72910383  1
  O2-  O240  1  0.59256774  0.26154922  0.22766640  1
  O2-  O241  1  0.59361603  0.26438324  0.72972836  1
  O2-  O242  1  0.59448718  0.59505761  0.23679506  1
  O2-  O243  1  0.59818025  0.59693648  0.73215762  1
  O2-  O244  1  0.59384704  0.92946186  0.23098210  1
  O2-  O245  1  0.59314365  0.92549438  0.72727553  1
  O2-  O246  1  0.92405092  0.25631851  0.23020354  1
  O2-  O247  1  0.92921086  0.26089952  0.73263061  1
  O2-  O248  1  0.92633508  0.59287049  0.23060252  1
  O2-  O249  1  0.92689276  0.59347941  0.72750103  1
  O2-  O250  1  0.92727143  0.92436732  0.22504877  1
  O2-  O251  1  0.93158349  0.93064959  0.72670459  1
  O2-  O252  1  0.10084711  0.23937785  0.26456657  1
  O2-  O253  1  0.09520322  0.24009025  0.77389611  1
  O2-  O254  1  0.09711569  0.57324501  0.27013614  1
  O2-  O255  1  0.09673400  0.57018293  0.76804022  1
  O2-  O256  1  0.09497024  0.90071939  0.26523068  1
  O2-  O257  1  0.09470265  0.90361487  0.77240013  1
  O2-  O258  1  0.42979130  0.23906200  0.27245130  1
  O2-  O259  1  0.43078340  0.23646371  0.77256030  1
  O2-  O260  1  0.42659582  0.57227920  0.27279040  1
  O2-  O261  1  0.42925167  0.57024870  0.77371393  1
  O2-  O262  1  0.42482358  0.90978596  0.26847543  1
  O2-  O263  1  0.42530993  0.90404327  0.76851163  1
  O2-  O264  1  0.76230309  0.23702275  0.26591745  1
  O2-  O265  1  0.76078108  0.24029381  0.77260990  1
  O2-  O266  1  0.76056305  0.57096472  0.27205044  1
  O2-  O267  1  0.76222659  0.57113553  0.77259026  1
  O2-  O268  1  0.76173367  0.90522112  0.26983764  1
  O2-  O269  1  0.76787425  0.90369974  0.76652271  1
  O2-  O270  1  0.07752083  0.07569366  0.48304485  1
  O2-  O271  1  0.07080782  0.06980253  0.98187171  1
  O2-  O272  1  0.07550395  0.40768826  0.48410906  1
  O2-  O273  1  0.07218124  0.40786695  0.97720519  1
  O2-  O274  1  0.06920317  0.73732570  0.47849241  1
  O2-  O275  1  0.06866729  0.73819956  0.97598180  1
  O2-  O276  1  0.40624178  0.07564146  0.47837255  1
  O2-  O277  1  0.40219149  0.07027885  0.98109376  1
  O2-  O278  1  0.40558622  0.40534816  0.47782314  1
  O2-  O279  1  0.40292611  0.40367075  0.98086540  1
  O2-  O280  1  0.40322385  0.73632148  0.48476716  1
  O2-  O281  1  0.40427433  0.73641733  0.97941640  1
  O2-  O282  1  0.73769423  0.07132787  0.48179104  1
  O2-  O283  1  0.74344724  0.07443744  0.98184625  1
  O2-  O284  1  0.73577181  0.40428781  0.48078450  1
  O2-  O285  1  0.73336353  0.40619927  0.98162152  1
  O2-  O286  1  0.73947197  0.73706116  0.47917943  1
  O2-  O287  1  0.73880304  0.73771927  0.98034678  1
  O2-  O288  1  0.09724700  0.24067941  0.48274369  1
  O2-  O289  1  0.09760056  0.23822916  0.97916990  1
  O2-  O290  1  0.09880714  0.57232539  0.48187511  1
  O2-  O291  1  0.09560383  0.57045034  0.98080131  1
  O2-  O292  1  0.09594345  0.90071296  0.48322769  1
  O2-  O293  1  0.09329080  0.90282366  0.97945634  1
  O2-  O294  1  0.42973717  0.23978322  0.47808075  1
  O2-  O295  1  0.43097036  0.23584969  0.97701506  1
  O2-  O296  1  0.42874884  0.57018456  0.47670801  1
  O2-  O297  1  0.42720166  0.57212007  0.97706264  1
  O2-  O298  1  0.42323634  0.90932563  0.48393128  1
  O2-  O299  1  0.42639433  0.90403867  0.97869027  1
  O2-  O300  1  0.76358942  0.23616417  0.48287227  1
  O2-  O301  1  0.75998309  0.24134721  0.97850055  1
  O2-  O302  1  0.75989298  0.57002251  0.47879272  1
  O2-  O303  1  0.76147298  0.57218533  0.97739053  1
  O2-  O304  1  0.76516188  0.90636844  0.48212717  1
  O2-  O305  1  0.76585262  0.90274081  0.98175835  1
  O2-  O306  1  0.07511261  0.07417639  0.26653203  1
  O2-  O307  1  0.07301069  0.07217826  0.76989804  1
  O2-  O308  1  0.07630282  0.41156464  0.26636463  1
  O2-  O309  1  0.07185745  0.40509893  0.77156092  1
  O2-  O310  1  0.07019411  0.73732778  0.27268102  1
  O2-  O311  1  0.06830586  0.73825702  0.77353284  1
  O2-  O312  1  0.40529139  0.07348536  0.27262970  1
  O2-  O313  1  0.40441157  0.07156013  0.76756354  1
  O2-  O314  1  0.40517715  0.40506210  0.27093763  1
  O2-  O315  1  0.40346149  0.40395554  0.77066208  1
  O2-  O316  1  0.40283446  0.73503609  0.26569520  1
  O2-  O317  1  0.40591883  0.73827935  0.77078619  1
  O2-  O318  1  0.73666626  0.07256754  0.26832897  1
  O2-  O319  1  0.74299671  0.07433833  0.76847815  1
  O2-  O320  1  0.73365748  0.40522201  0.27023966  1
  O2-  O321  1  0.73430958  0.40609424  0.76750397  1
  O2-  O322  1  0.74246435  0.73757901  0.27293231  1
  O2-  O323  1  0.73678707  0.73533523  0.76765997  1
  O2-  O324  1  0.24128858  0.09671543  0.22881924  1
  O2-  O325  1  0.24388653  0.09119408  0.73059521  1
  O2-  O326  1  0.24002743  0.43006483  0.23081808  1
  O2-  O327  1  0.23730266  0.43128658  0.73328628  1
  O2-  O328  1  0.23593658  0.76004661  0.22772960  1
  O2-  O329  1  0.23449776  0.76224084  0.73290388  1
  O2-  O330  1  0.57161548  0.09585274  0.22904874  1
  O2-  O331  1  0.57572430  0.09480874  0.72842693  1
  O2-  O332  1  0.56995162  0.42814434  0.22385206  1
  O2-  O333  1  0.57132974  0.42799126  0.72537208  1
  O2-  O334  1  0.57058957  0.76161119  0.23264981  1
  O2-  O335  1  0.56893744  0.75905471  0.72705531  1
  O2-  O336  1  0.90453133  0.09209595  0.22749340  1
  O2-  O337  1  0.90513486  0.09627332  0.73453889  1
  O2-  O338  1  0.90010294  0.42881526  0.23478507  1
  O2-  O339  1  0.90736203  0.42604734  0.72602188  1
  O2-  O340  1  0.90534860  0.76132733  0.22975502  1
  O2-  O341  1  0.90493630  0.76043173  0.72634120  1
  O2-  O342  1  0.26703344  0.26157006  0.02198545  1
  O2-  O343  1  0.26600144  0.26518492  0.51751716  1
  O2-  O344  1  0.26332393  0.59243478  0.02112270  1
  O2-  O345  1  0.26495209  0.59395865  0.52181095  1
  O2-  O346  1  0.26007480  0.92829296  0.02030899  1
  O2-  O347  1  0.25893151  0.92830762  0.52068404  1
  O2-  O348  1  0.59311061  0.26458255  0.02017705  1
  O2-  O349  1  0.59222064  0.26208539  0.52234961  1
  O2-  O350  1  0.59505088  0.59519015  0.01377095  1
  O2-  O351  1  0.59704725  0.59707838  0.51782769  1
  O2-  O352  1  0.59368311  0.92589500  0.02043258  1
  O2-  O353  1  0.59537184  0.92724860  0.52136343  1
  O2-  O354  1  0.92580725  0.25703807  0.01536029  1
  O2-  O355  1  0.92593873  0.26117798  0.52218149  1
  O2-  O356  1  0.92680545  0.59406936  0.01856532  1
  O2-  O357  1  0.92670051  0.59271700  0.52346369  1
  O2-  O358  1  0.92939073  0.92736037  0.02246881  1
  O2-  O359  1  0.92881614  0.92919702  0.52456829  1
