# generated using pymatgen
data_Sr7Ca15Pr50Mn72O216
_symmetry_space_group_name_H-M   'P 1'
_cell_length_a   16.55846475
_cell_length_b   16.60427527
_cell_length_c   15.59320198
_cell_angle_alpha   90.00093367
_cell_angle_beta   90.00347863
_cell_angle_gamma   90.01125389
_symmetry_Int_Tables_number   1
_chemical_formula_structural   Sr7Ca15Pr50Mn72O216
_chemical_formula_sum   'Sr7 Ca15 Pr50 Mn72 O216'
_cell_volume   4287.21523866
_cell_formula_units_Z   1
loop_
 _symmetry_equiv_pos_site_id
 _symmetry_equiv_pos_as_xyz
  1  'x, y, z'
loop_
 _atom_type_symbol
 _atom_type_oxidation_number
  Sr2+  2.0
  Ca2+  2.0
  Pr3+  3.0
  Mn3.30+  3.3
  O2-  -2.0
loop_
 _atom_site_type_symbol
 _atom_site_label
 _atom_site_symmetry_multiplicity
 _atom_site_fract_x
 _atom_site_fract_y
 _atom_site_fract_z
 _atom_site_occupancy
  Sr2+  Sr0  1  0.66722885  0.67127594  0.62271614  1
  Sr2+  Sr1  1  -0.00515800  0.34811514  0.62413577  1
  Sr2+  Sr2  1  0.66718029  0.32536784  0.87486382  1
  Sr2+  Sr3  1  1.00029132  0.65643869  0.87808045  1
  Sr2+  Sr4  1  0.50384096  0.50947518  0.12413537  1
  Sr2+  Sr5  1  0.50120406  0.15703045  0.37445115  1
  Sr2+  Sr6  1  0.33775977  0.99090464  0.37468050  1
  Ca2+  Ca7  1  0.83591029  0.84636286  0.12366342  1
  Ca2+  Ca8  1  0.16955208  0.51642058  0.12535650  1
  Ca2+  Ca9  1  0.50069112  0.48837639  0.87186930  1
  Ca2+  Ca10  1  0.66245315  0.35116266  0.62342111  1
  Ca2+  Ca11  1  0.66313196  0.01440617  0.62746560  1
  Ca2+  Ca12  1  0.50461070  0.84739729  0.12541168  1
  Ca2+  Ca13  1  0.16958136  0.84530683  0.62507799  1
  Ca2+  Ca14  1  0.67091958  0.64904274  0.37684729  1
  Ca2+  Ca15  1  0.83213821  0.50990187  0.62432332  1
  Ca2+  Ca16  1  0.82530156  0.15043450  0.87422893  1
  Ca2+  Ca17  1  0.82569577  0.48346662  0.37954400  1
  Ca2+  Ca18  1  -0.00553472  0.68297620  0.12393046  1
  Ca2+  Ca19  1  0.66912269  0.32063277  0.37686227  1
  Ca2+  Ca20  1  0.50743214  0.51478395  0.62587746  1
  Ca2+  Ca21  1  0.67182628  0.98461931  0.87293403  1
  Pr3+  Pr22  1  0.83186944  0.18087277  0.62737228  1
  Pr3+  Pr23  1  0.50371937  0.17870218  0.12588478  1
  Pr3+  Pr24  1  0.50088436  0.81996117  0.87665648  1
  Pr3+  Pr25  1  0.33837154  0.32054511  0.37526689  1
  Pr3+  Pr26  1  0.83151145  0.48977806  0.87229934  1
  Pr3+  Pr27  1  0.33079828  0.34915386  0.12654449  1
  Pr3+  Pr28  1  0.83592111  0.51328701  0.12597679  1
  Pr3+  Pr29  1  0.83557265  0.17999445  0.12300590  1
  Pr3+  Pr30  1  -0.00579713  0.67512301  0.62561985  1
  Pr3+  Pr31  1  0.99970290  0.98745131  0.87399799  1
  Pr3+  Pr32  1  0.16950248  0.18078613  0.62514278  1
  Pr3+  Pr33  1  0.66569487  0.01015823  0.12327164  1
  Pr3+  Pr34  1  1.00217667  0.98660802  0.37581838  1
  Pr3+  Pr35  1  -0.00306272  0.34680542  0.12542952  1
  Pr3+  Pr36  1  0.16210822  0.48939356  0.87575949  1
  Pr3+  Pr37  1  0.83249856  0.84366050  0.62604740  1
  Pr3+  Pr38  1  0.50790634  0.18082431  0.62422839  1
  Pr3+  Pr39  1  0.66783691  0.98822036  0.37750146  1
  Pr3+  Pr40  1  0.16442135  0.82195436  0.37495785  1
  Pr3+  Pr41  1  1.00001452  0.32349917  0.87263288  1
  Pr3+  Pr42  1  0.33451508  0.67699980  0.12579147  1
  Pr3+  Pr43  1  0.33352351  0.34833174  0.62358777  1
  Pr3+  Pr44  1  0.16597688  0.84287613  0.12394028  1
  Pr3+  Pr45  1  0.33722372  0.98498483  0.87488356  1
  Pr3+  Pr46  1  0.82801480  0.15581699  0.37685612  1
  Pr3+  Pr47  1  -0.00658510  0.01136703  0.12390165  1
  Pr3+  Pr48  1  0.33993845  0.32377759  0.87470983  1
  Pr3+  Pr49  1  0.33735917  0.65065562  0.87609276  1
  Pr3+  Pr50  1  0.49779337  0.82283684  0.37417691  1
  Pr3+  Pr51  1  0.33169190  0.67995629  0.62433741  1
  Pr3+  Pr52  1  0.66423807  0.34639214  0.12653027  1
  Pr3+  Pr53  1  0.82937567  0.81915538  0.87643363  1
  Pr3+  Pr54  1  -0.00262369  0.01179560  0.62636890  1
  Pr3+  Pr55  1  0.50060550  0.15348327  0.87500974  1
  Pr3+  Pr56  1  0.16912559  0.17847575  0.12466625  1
  Pr3+  Pr57  1  0.82710014  0.81693339  0.37367237  1
  Pr3+  Pr58  1  0.33422037  0.01101275  0.12512072  1
  Pr3+  Pr59  1  0.50668372  0.84709634  0.62509736  1
  Pr3+  Pr60  1  1.00057538  0.65287963  0.37170273  1
  Pr3+  Pr61  1  0.16422016  0.15235570  0.37661326  1
  Pr3+  Pr62  1  0.16626168  0.51254149  0.62382830  1
  Pr3+  Pr63  1  0.66913468  0.65269343  0.87370707  1
  Pr3+  Pr64  1  0.99832606  0.32146926  0.37742623  1
  Pr3+  Pr65  1  0.33197108  0.01128602  0.62472721  1
  Pr3+  Pr66  1  0.16280274  0.48689192  0.37362260  1
  Pr3+  Pr67  1  0.50249473  0.48978196  0.37606566  1
  Pr3+  Pr68  1  0.66091765  0.68148803  0.12654550  1
  Pr3+  Pr69  1  0.16331587  0.15487828  0.87343936  1
  Pr3+  Pr70  1  0.16227463  0.81851088  0.87427293  1
  Pr3+  Pr71  1  0.33590041  0.65639893  0.37399240  1
  Mn3.30+  Mn72  1  0.16621232  -0.00031035  -0.00046816  1
  Mn3.30+  Mn73  1  0.16710748  -0.00212254  0.50125028  1
  Mn3.30+  Mn74  1  0.16700498  0.33539256  0.00047140  1
  Mn3.30+  Mn75  1  0.16656188  0.33410030  0.50029370  1
  Mn3.30+  Mn76  1  0.16574345  0.66551272  0.00290716  1
  Mn3.30+  Mn77  1  0.16561150  0.66790485  0.49922708  1
  Mn3.30+  Mn78  1  0.50290672  -0.00183037  -0.00116260  1
  Mn3.30+  Mn79  1  0.50146927  0.00113947  0.50094493  1
  Mn3.30+  Mn80  1  0.50125659  0.33475948  -0.00086847  1
  Mn3.30+  Mn81  1  0.50393377  0.33545742  0.50044751  1
  Mn3.30+  Mn82  1  0.50106365  0.66529171  0.00084637  1
  Mn3.30+  Mn83  1  0.50255121  0.66604163  0.49910072  1
  Mn3.30+  Mn84  1  0.83053895  -0.00046787  -0.00211080  1
  Mn3.30+  Mn85  1  0.83197701  -0.00050149  0.50279419  1
  Mn3.30+  Mn86  1  0.83252434  0.33322327  -0.00168030  1
  Mn3.30+  Mn87  1  0.82876520  0.33605124  0.50210227  1
  Mn3.30+  Mn88  1  0.83314539  0.66720385  0.00243760  1
  Mn3.30+  Mn89  1  0.83122295  0.66267956  0.49866095  1
  Mn3.30+  Mn90  1  -0.00083551  0.16662779  0.25042352  1
  Mn3.30+  Mn91  1  -0.00368368  0.16789978  0.75081338  1
  Mn3.30+  Mn92  1  -0.00126395  0.50112189  0.24892529  1
  Mn3.30+  Mn93  1  -0.00205501  0.50091967  0.74956188  1
  Mn3.30+  Mn94  1  -0.00399656  0.83213813  0.24922812  1
  Mn3.30+  Mn95  1  0.00077325  0.83209759  0.74822333  1
  Mn3.30+  Mn96  1  0.33465749  0.16644438  0.24992226  1
  Mn3.30+  Mn97  1  0.33537016  0.16713933  0.75009017  1
  Mn3.30+  Mn98  1  0.33246334  0.50175798  0.25038133  1
  Mn3.30+  Mn99  1  0.33616570  0.50078869  0.74840968  1
  Mn3.30+  Mn100  1  0.33476100  0.83398358  0.24770934  1
  Mn3.30+  Mn101  1  0.33343296  0.83185182  0.75034652  1
  Mn3.30+  Mn102  1  0.66790865  0.16659472  0.25074918  1
  Mn3.30+  Mn103  1  0.66841756  0.16721015  0.75137380  1
  Mn3.30+  Mn104  1  0.66971213  0.50024407  0.25242796  1
  Mn3.30+  Mn105  1  0.66503393  0.49851979  0.74802141  1
  Mn3.30+  Mn106  1  0.66647291  0.83237445  0.24953149  1
  Mn3.30+  Mn107  1  0.66645157  0.83333470  0.74930453  1
  Mn3.30+  Mn108  1  0.16600516  -0.00115749  0.24937966  1
  Mn3.30+  Mn109  1  0.16702221  -0.00139487  0.74930602  1
  Mn3.30+  Mn110  1  0.16573520  0.33366468  0.25042245  1
  Mn3.30+  Mn111  1  0.16774455  0.33532921  0.74893428  1
  Mn3.30+  Mn112  1  0.16493262  0.66635848  0.24743505  1
  Mn3.30+  Mn113  1  0.16601642  0.66711992  0.74912720  1
  Mn3.30+  Mn114  1  0.50104574  -0.00101927  0.24874144  1
  Mn3.30+  Mn115  1  0.50369743  -0.00016941  0.75177059  1
  Mn3.30+  Mn116  1  0.50201418  0.33455449  0.25172550  1
  Mn3.30+  Mn117  1  0.50326210  0.33587020  0.74920666  1
  Mn3.30+  Mn118  1  0.50308314  0.66691004  0.25088623  1
  Mn3.30+  Mn119  1  0.50071567  0.66447034  0.74918591  1
  Mn3.30+  Mn120  1  0.83282994  -0.00137650  0.25035547  1
  Mn3.30+  Mn121  1  0.82930445  0.00055287  0.74971040  1
  Mn3.30+  Mn122  1  0.83140089  0.33444911  0.25167959  1
  Mn3.30+  Mn123  1  0.83056170  0.33426524  0.74896987  1
  Mn3.30+  Mn124  1  0.83191049  0.66563510  0.24934823  1
  Mn3.30+  Mn125  1  0.83265573  0.66468913  0.74918320  1
  Mn3.30+  Mn126  1  -0.00213692  0.16723966  -0.00301502  1
  Mn3.30+  Mn127  1  -0.00213218  0.16733370  0.50200969  1
  Mn3.30+  Mn128  1  0.00142532  0.50229495  0.00349305  1
  Mn3.30+  Mn129  1  -0.00505830  0.50025700  0.49749978  1
  Mn3.30+  Mn130  1  -0.00252740  0.83257138  0.00070190  1
  Mn3.30+  Mn131  1  -0.00057694  0.83179342  0.50112799  1
  Mn3.30+  Mn132  1  0.33384915  0.16741608  -0.00074882  1
  Mn3.30+  Mn133  1  0.33655345  0.16654224  0.50099719  1
  Mn3.30+  Mn134  1  0.33313950  0.50027864  0.00114829  1
  Mn3.30+  Mn135  1  0.33554070  0.50199743  0.50013484  1
  Mn3.30+  Mn136  1  0.33489244  0.83165438  0.00146994  1
  Mn3.30+  Mn137  1  0.33312843  0.83430489  0.50050712  1
  Mn3.30+  Mn138  1  0.66911237  0.16585966  -0.00230732  1
  Mn3.30+  Mn139  1  0.66703945  0.16777907  0.50136303  1
  Mn3.30+  Mn140  1  0.66655337  0.49988194  -0.00062933  1
  Mn3.30+  Mn141  1  0.66738614  0.49881110  0.50057355  1
  Mn3.30+  Mn142  1  0.66698937  0.83423293  0.00127406  1
  Mn3.30+  Mn143  1  0.66610524  0.83134788  0.50040584  1
  O2-  O144  1  0.02508457  0.16070390  0.12180397  1
  O2-  O145  1  0.02561859  0.16107579  0.62579548  1
  O2-  O146  1  0.02899468  0.49058618  0.12708529  1
  O2-  O147  1  0.02236879  0.50408489  0.62153447  1
  O2-  O148  1  0.02209413  0.83258482  0.12389855  1
  O2-  O149  1  0.02725706  0.82467966  0.62305374  1
  O2-  O150  1  0.35730260  0.16190165  0.12210308  1
  O2-  O151  1  0.36108893  0.16052611  0.62679256  1
  O2-  O152  1  0.35450667  0.49730948  0.12725591  1
  O2-  O153  1  0.36325420  0.49699644  0.62121404  1
  O2-  O154  1  0.36270852  0.82538044  0.12374199  1
  O2-  O155  1  0.36153703  0.82716862  0.62796667  1
  O2-  O156  1  0.69315407  0.15802480  0.12398592  1
  O2-  O157  1  0.68940670  0.15720267  0.62704293  1
  O2-  O158  1  0.69102611  0.49486467  0.12688829  1
  O2-  O159  1  0.69059012  0.49583925  0.62368714  1
  O2-  O160  1  0.69474496  0.82853986  0.12638021  1
  O2-  O161  1  0.68943980  0.82614938  0.62382972  1
  O2-  O162  1  0.13912673  0.32297932  0.12696036  1
  O2-  O163  1  0.14548517  0.32920097  0.62371263  1
  O2-  O164  1  0.13871039  0.66303707  0.12680902  1
  O2-  O165  1  0.13912690  0.65867032  0.62228100  1
  O2-  O166  1  0.13824807  0.99455013  0.12386492  1
  O2-  O167  1  0.14169486  0.99320791  0.62609640  1
  O2-  O168  1  0.47639202  0.32814677  0.12568458  1
  O2-  O169  1  0.47504232  0.32680122  0.62430332  1
  O2-  O170  1  0.47801900  0.66124358  0.12541762  1
  O2-  O171  1  0.47498768  0.66100372  0.62444187  1
  O2-  O172  1  0.47750802  0.99458589  0.12195415  1
  O2-  O173  1  0.47521573  0.99528373  0.62940272  1
  O2-  O174  1  0.80961328  0.32776685  0.12489399  1
  O2-  O175  1  0.80533294  0.32702223  0.62645832  1
  O2-  O176  1  0.80415074  0.65917664  0.12690639  1
  O2-  O177  1  0.81744796  0.66014083  0.62367488  1
  O2-  O178  1  0.81002643  0.99338652  0.12258222  1
  O2-  O179  1  0.80500290  0.99144116  0.62487815  1
  O2-  O180  1  0.30875002  0.17131553  0.37621178  1
  O2-  O181  1  0.30757048  0.17416741  0.87533524  1
  O2-  O182  1  0.30572418  0.50702612  0.37468151  1
  O2-  O183  1  0.30567795  0.50228452  0.87600337  1
  O2-  O184  1  0.30833431  0.83515096  0.37187594  1
  O2-  O185  1  0.30643924  0.83660981  0.87602437  1
  O2-  O186  1  0.65061890  0.17219216  0.37449307  1
  O2-  O187  1  0.64166836  0.17300978  0.87526958  1
  O2-  O188  1  0.64478873  0.50518246  0.37546491  1
  O2-  O189  1  0.64334384  0.50512341  0.87471714  1
  O2-  O190  1  0.64126341  0.84141143  0.37524846  1
  O2-  O191  1  0.64397240  0.83794138  0.87502238  1
  O2-  O192  1  0.97316928  0.17081915  0.37828006  1
  O2-  O193  1  0.97009458  0.17485837  0.87438211  1
  O2-  O194  1  0.97067426  0.50495409  0.37178416  1
  O2-  O195  1  0.97763466  0.50031954  0.87870310  1
  O2-  O196  1  0.97223009  0.83911992  0.37643907  1
  O2-  O197  1  0.97470889  0.83804080  0.87571273  1
  O2-  O198  1  0.18656424  0.00408200  0.37511495  1
  O2-  O199  1  0.19286767  0.00643046  0.87459069  1
  O2-  O200  1  0.19312101  0.33797893  0.37569155  1
  O2-  O201  1  0.19511012  0.34163531  0.87358896  1
  O2-  O202  1  0.19163319  0.67429787  0.37342214  1
  O2-  O203  1  0.19224916  0.67082966  0.87707325  1
  O2-  O204  1  0.52350017  -0.00045340  0.37311798  1
  O2-  O205  1  0.52853080  0.00472694  0.87548459  1
  O2-  O206  1  0.52603139  0.34044524  0.37662303  1
  O2-  O207  1  0.51683976  0.34119379  0.87375450  1
  O2-  O208  1  0.52697810  0.67641496  0.37387050  1
  O2-  O209  1  0.52462796  0.67407476  0.87633337  1
  O2-  O210  1  0.85930124  0.00751031  0.37971206  1
  O2-  O211  1  0.85772453  0.00522708  0.87310079  1
  O2-  O212  1  0.85565005  0.33524412  0.37477391  1
  O2-  O213  1  0.85772854  0.34256834  0.87433008  1
  O2-  O214  1  0.85869140  0.67284121  0.37222199  1
  O2-  O215  1  0.85083922  0.67010240  0.87681633  1
  O2-  O216  1  0.23869587  0.09396744  0.02036008  1
  O2-  O217  1  0.23879320  0.09494917  0.52155863  1
  O2-  O218  1  0.23621495  0.42955756  0.02414671  1
  O2-  O219  1  0.24140716  0.42986451  0.51981218  1
  O2-  O220  1  0.23938075  0.75941931  0.02258868  1
  O2-  O221  1  0.23773146  0.76187506  0.52113803  1
  O2-  O222  1  0.57144823  0.09521914  0.02030212  1
  O2-  O223  1  0.57339667  0.09591150  0.51757845  1
  O2-  O224  1  0.57805296  0.42363399  0.01859544  1
  O2-  O225  1  0.56806354  0.43230339  0.51864377  1
  O2-  O226  1  0.57179300  0.76435021  0.02046525  1
  O2-  O227  1  0.56775326  0.76406838  0.51686654  1
  O2-  O228  1  0.90421263  0.09245937  0.02092280  1
  O2-  O229  1  0.90590119  0.09377151  0.52488809  1
  O2-  O230  1  0.90918115  0.42856834  0.02181481  1
  O2-  O231  1  0.89939600  0.43042906  0.51741884  1
  O2-  O232  1  0.90226751  0.76333951  0.01883777  1
  O2-  O233  1  0.90504434  0.76159409  0.51987010  1
  O2-  O234  1  0.25899750  0.26145892  0.22984024  1
  O2-  O235  1  0.26261230  0.26171673  0.72832589  1
  O2-  O236  1  0.26152627  0.59723609  0.23153393  1
  O2-  O237  1  0.26252275  0.59536678  0.72866025  1
  O2-  O238  1  0.25991899  0.92467783  0.22316324  1
  O2-  O239  1  0.26656563  0.92726605  0.73292985  1
  O2-  O240  1  0.59544539  0.25677991  0.22743270  1
  O2-  O241  1  0.59540238  0.26266814  0.72737217  1
  O2-  O242  1  0.59837620  0.59576597  0.23455842  1
  O2-  O243  1  0.59384583  0.59507517  0.73580784  1
  O2-  O244  1  0.59712807  0.92897975  0.23120282  1
  O2-  O245  1  0.59493596  0.92829835  0.72767395  1
  O2-  O246  1  0.92926349  0.26221379  0.23134134  1
  O2-  O247  1  0.92635994  0.26096449  0.73076983  1
  O2-  O248  1  0.92995557  0.59863544  0.22578641  1
  O2-  O249  1  0.92814510  0.59507755  0.73562144  1
  O2-  O250  1  0.92924641  0.93163670  0.23435439  1
  O2-  O251  1  0.92779134  0.92721891  0.72914588  1
  O2-  O252  1  0.09469926  0.23731510  0.27278199  1
  O2-  O253  1  0.09533224  0.24071833  0.77097613  1
  O2-  O254  1  0.09364621  0.57230152  0.27361543  1
  O2-  O255  1  0.09837804  0.57076710  0.76597627  1
  O2-  O256  1  0.09397346  0.90489441  0.26950373  1
  O2-  O257  1  0.09273248  0.90706683  0.77265978  1
  O2-  O258  1  0.42533520  0.24409697  0.26774793  1
  O2-  O259  1  0.43041411  0.23880282  0.77036308  1
  O2-  O260  1  0.42791506  0.57638296  0.27385262  1
  O2-  O261  1  0.42679590  0.57242416  0.77418982  1
  O2-  O262  1  0.42890478  0.90489457  0.26578361  1
  O2-  O263  1  0.42935317  0.90437528  0.77358784  1
  O2-  O264  1  0.76588915  0.23435367  0.26381423  1
  O2-  O265  1  0.76521323  0.23338512  0.76776346  1
  O2-  O266  1  0.76797664  0.56512525  0.26846730  1
  O2-  O267  1  0.75840722  0.57316526  0.76968564  1
  O2-  O268  1  0.75965791  0.90552786  0.27346753  1
  O2-  O269  1  0.76519814  0.90256305  0.76797458  1
  O2-  O270  1  0.07140859  0.07238067  0.48173325  1
  O2-  O271  1  0.06931433  0.07563953  0.97595165  1
  O2-  O272  1  0.06933198  0.40976654  0.47686449  1
  O2-  O273  1  0.07253656  0.40407324  0.97936566  1
  O2-  O274  1  0.07033705  0.73912471  0.47550970  1
  O2-  O275  1  0.07617816  0.74389198  0.98294722  1
  O2-  O276  1  0.40614811  0.07196327  0.48753469  1
  O2-  O277  1  0.40695522  0.07052313  0.97903283  1
  O2-  O278  1  0.40475744  0.40728101  0.47736327  1
  O2-  O279  1  0.39957313  0.40380564  0.98696732  1
  O2-  O280  1  0.40425422  0.73929668  0.48053385  1
  O2-  O281  1  0.40437777  0.73787685  0.97918638  1
  O2-  O282  1  0.74046185  0.07281897  0.47968706  1
  O2-  O283  1  0.73477181  0.06692146  0.98066432  1
  O2-  O284  1  0.73325595  0.40097096  0.48001208  1
  O2-  O285  1  0.74353875  0.40811739  0.98423205  1
  O2-  O286  1  0.74101396  0.73641241  0.47716381  1
  O2-  O287  1  0.73515533  0.73914056  0.98095184  1
  O2-  O288  1  0.09281418  0.23752975  0.47955084  1
  O2-  O289  1  0.09567528  0.24009355  0.97692900  1
  O2-  O290  1  0.09511325  0.57258343  0.47615524  1
  O2-  O291  1  0.09770228  0.57034379  0.98303613  1
  O2-  O292  1  0.09140646  0.90492753  0.47779801  1
  O2-  O293  1  0.09412483  0.90639682  0.97820089  1
  O2-  O294  1  0.42698753  0.24320715  0.48171533  1
  O2-  O295  1  0.42867820  0.23877204  0.97987086  1
  O2-  O296  1  0.42571448  0.57622707  0.47312704  1
  O2-  O297  1  0.42684378  0.57044784  0.97668986  1
  O2-  O298  1  0.43056175  0.90358913  0.48523595  1
  O2-  O299  1  0.42716649  0.90631251  0.97674790  1
  O2-  O300  1  0.76412984  0.23523409  0.48600580  1
  O2-  O301  1  0.76474316  0.23261347  0.98357739  1
  O2-  O302  1  0.76276232  0.56863036  0.48145825  1
  O2-  O303  1  0.76168791  0.57128206  0.98125451  1
  O2-  O304  1  0.76187635  0.90399778  0.47927237  1
  O2-  O305  1  0.76308027  0.90386188  0.97953153  1
  O2-  O306  1  0.07036025  0.07268029  0.27071541  1
  O2-  O307  1  0.06976400  0.07542882  0.77136850  1
  O2-  O308  1  0.07114494  0.40292429  0.27345462  1
  O2-  O309  1  0.07352204  0.40825672  0.76963754  1
  O2-  O310  1  0.07281635  0.74128910  0.27047118  1
  O2-  O311  1  0.07449714  0.73971294  0.76964069  1
  O2-  O312  1  0.40783144  0.07208394  0.25972057  1
  O2-  O313  1  0.40552702  0.07072381  0.77316843  1
  O2-  O314  1  0.40419145  0.40854407  0.27098439  1
  O2-  O315  1  0.40147419  0.40269849  0.76443744  1
  O2-  O316  1  0.40537403  0.73915481  0.26995710  1
  O2-  O317  1  0.40341422  0.73698493  0.77105716  1
  O2-  O318  1  0.73943536  0.07047942  0.27019480  1
  O2-  O319  1  0.73588805  0.06949891  0.77041439  1
  O2-  O320  1  0.73591211  0.39932250  0.26743479  1
  O2-  O321  1  0.74118887  0.40864952  0.76958098  1
  O2-  O322  1  0.73495837  0.73491853  0.27219721  1
  O2-  O323  1  0.74076603  0.73960182  0.76987620  1
  O2-  O324  1  0.23781055  0.09316924  0.22942413  1
  O2-  O325  1  0.23875358  0.09494703  0.72885338  1
  O2-  O326  1  0.23524417  0.42722146  0.22987024  1
  O2-  O327  1  0.24044367  0.43031176  0.72596076  1
  O2-  O328  1  0.23946489  0.76097512  0.22723192  1
  O2-  O329  1  0.23730601  0.76103526  0.72808161  1
  O2-  O330  1  0.57544577  0.09232176  0.22786964  1
  O2-  O331  1  0.56872327  0.09926263  0.73438460  1
  O2-  O332  1  0.57460099  0.42656180  0.23372546  1
  O2-  O333  1  0.56981690  0.42974876  0.72931031  1
  O2-  O334  1  0.57081399  0.76417948  0.22750373  1
  O2-  O335  1  0.56754034  0.76309703  0.73526538  1
  O2-  O336  1  0.90525768  0.09518195  0.22903642  1
  O2-  O337  1  0.90456371  0.09060583  0.72609224  1
  O2-  O338  1  0.90630684  0.42616051  0.22705403  1
  O2-  O339  1  0.90266991  0.43066874  0.73315795  1
  O2-  O340  1  0.89966601  0.76445872  0.23096996  1
  O2-  O341  1  0.90579594  0.76055430  0.73034791  1
  O2-  O342  1  0.25950729  0.26380067  0.02174765  1
  O2-  O343  1  0.26389445  0.25858198  0.52097802  1
  O2-  O344  1  0.26454263  0.59667253  0.01883752  1
  O2-  O345  1  0.26160119  0.59486056  0.52079392  1
  O2-  O346  1  0.26353278  0.92431014  0.02158384  1
  O2-  O347  1  0.26240296  0.92671745  0.52124663  1
  O2-  O348  1  0.59513786  0.25721639  0.02319881  1
  O2-  O349  1  0.59570172  0.26177907  0.52271243  1
  O2-  O350  1  0.59907298  0.59744205  0.01629559  1
  O2-  O351  1  0.59227235  0.59228298  0.51325317  1
  O2-  O352  1  0.59681218  0.92719796  0.01993150  1
  O2-  O353  1  0.59504391  0.93113218  0.52073804  1
  O2-  O354  1  0.93001767  0.26204670  0.02016258  1
  O2-  O355  1  0.92471707  0.26079679  0.51759812  1
  O2-  O356  1  0.92875151  0.59334049  0.02519821  1
  O2-  O357  1  0.93224217  0.59900491  0.51200211  1
  O2-  O358  1  0.92961291  0.93105261  0.01452099  1
  O2-  O359  1  0.92804620  0.92715376  0.52327749  1
