# generated using pymatgen
data_Sr7Ca15Pr50Mn72O216
_symmetry_space_group_name_H-M   'P 1'
_cell_length_a   16.55853891
_cell_length_b   16.60562657
_cell_length_c   15.59343956
_cell_angle_alpha   89.99552195
_cell_angle_beta   89.99827749
_cell_angle_gamma   90.01053245
_symmetry_Int_Tables_number   1
_chemical_formula_structural   Sr7Ca15Pr50Mn72O216
_chemical_formula_sum   'Sr7 Ca15 Pr50 Mn72 O216'
_cell_volume   4287.64867392
_cell_formula_units_Z   1
loop_
 _symmetry_equiv_pos_site_id
 _symmetry_equiv_pos_as_xyz
  1  'x, y, z'
loop_
 _atom_type_symbol
 _atom_type_oxidation_number
  Sr2+  2.0
  Ca2+  2.0
  Pr3+  3.0
  Mn3.30+  3.3
  O2-  -2.0
loop_
 _atom_site_type_symbol
 _atom_site_label
 _atom_site_symmetry_multiplicity
 _atom_site_fract_x
 _atom_site_fract_y
 _atom_site_fract_z
 _atom_site_occupancy
  Sr2+  Sr0  1  -0.00253178  0.67991902  0.62570896  1
  Sr2+  Sr1  1  0.33609437  0.65820574  0.37760408  1
  Sr2+  Sr2  1  0.66642409  0.65703694  0.87326003  1
  Sr2+  Sr3  1  0.83102146  0.82430699  0.37724475  1
  Sr2+  Sr4  1  0.66731976  0.32285762  0.87472224  1
  Sr2+  Sr5  1  -0.00279608  0.33962667  0.62705987  1
  Sr2+  Sr6  1  0.50141834  0.84361970  0.62391695  1
  Ca2+  Ca7  1  0.17219992  0.18510611  0.12431437  1
  Ca2+  Ca8  1  0.17101072  0.84771519  0.62344019  1
  Ca2+  Ca9  1  0.66990607  0.98382612  0.37841335  1
  Ca2+  Ca10  1  1.00571756  0.31412322  0.87274215  1
  Ca2+  Ca11  1  0.83467095  0.17902160  0.62516883  1
  Ca2+  Ca12  1  0.66967480  0.31921418  0.37528374  1
  Ca2+  Ca13  1  0.33208478  0.34578215  0.12575874  1
  Ca2+  Ca14  1  0.83519966  0.84588018  0.62332340  1
  Ca2+  Ca15  1  0.32982414  0.68526360  0.62354984  1
  Ca2+  Ca16  1  0.50370567  0.51537737  0.62506708  1
  Ca2+  Ca17  1  0.33605584  0.98438662  0.37554791  1
  Ca2+  Ca18  1  0.16293698  0.15476918  0.87474562  1
  Ca2+  Ca19  1  0.50230339  0.18263376  0.12560344  1
  Ca2+  Ca20  1  0.66475736  0.01032806  0.62100934  1
  Ca2+  Ca21  1  0.32979174  0.68153569  0.12609376  1
  Pr3+  Pr22  1  0.33114889  0.34548639  0.62453845  1
  Pr3+  Pr23  1  0.66263749  0.34574393  0.12498905  1
  Pr3+  Pr24  1  1.00307085  0.99055286  0.87438587  1
  Pr3+  Pr25  1  0.17430490  0.51355069  0.12483573  1
  Pr3+  Pr26  1  0.16952528  0.51402879  0.62560579  1
  Pr3+  Pr27  1  0.17176882  0.84527870  0.12515161  1
  Pr3+  Pr28  1  0.66472783  0.67968055  0.62579463  1
  Pr3+  Pr29  1  0.66459202  0.34470398  0.62560552  1
  Pr3+  Pr30  1  0.66002522  0.01470758  0.12840553  1
  Pr3+  Pr31  1  0.32997950  0.00866386  0.62197184  1
  Pr3+  Pr32  1  0.32911209  0.01555698  0.12828750  1
  Pr3+  Pr33  1  0.16868504  0.17852156  0.62562660  1
  Pr3+  Pr34  1  -0.00396018  0.00940587  0.62409648  1
  Pr3+  Pr35  1  0.66294473  0.67885011  0.12463409  1
  Pr3+  Pr36  1  0.16394274  0.82074571  0.87252451  1
  Pr3+  Pr37  1  0.83186449  0.15841882  0.87198683  1
  Pr3+  Pr38  1  0.33699226  0.31803989  0.87679662  1
  Pr3+  Pr39  1  0.83501978  0.51168518  0.12371482  1
  Pr3+  Pr40  1  1.00433175  0.65497131  0.37748431  1
  Pr3+  Pr41  1  1.00317634  0.31980123  0.37645639  1
  Pr3+  Pr42  1  0.16493333  0.82041955  0.37740768  1
  Pr3+  Pr43  1  0.83060433  0.48596555  0.87267996  1
  Pr3+  Pr44  1  0.66833518  0.99089255  0.87355386  1
  Pr3+  Pr45  1  -0.00038949  0.34519077  0.12339167  1
  Pr3+  Pr46  1  0.33734806  0.32188775  0.37321793  1
  Pr3+  Pr47  1  0.16312672  0.48329567  0.87413670  1
  Pr3+  Pr48  1  0.82707353  0.15281313  0.37719153  1
  Pr3+  Pr49  1  0.16434583  0.15335726  0.37386350  1
  Pr3+  Pr50  1  -0.00167160  0.67915400  0.12415899  1
  Pr3+  Pr51  1  1.00372874  0.65327619  0.87241586  1
  Pr3+  Pr52  1  0.49744517  0.82226787  0.37791565  1
  Pr3+  Pr53  1  0.49703278  0.82044641  0.87241197  1
  Pr3+  Pr54  1  0.83523920  0.18067405  0.12537654  1
  Pr3+  Pr55  1  -0.00160222  0.01405172  0.12583783  1
  Pr3+  Pr56  1  0.49811829  0.15377260  0.87699139  1
  Pr3+  Pr57  1  0.66789334  0.65706494  0.37761585  1
  Pr3+  Pr58  1  0.49640035  0.48751284  0.37705696  1
  Pr3+  Pr59  1  0.83797837  0.51147059  0.62597937  1
  Pr3+  Pr60  1  0.33819330  0.65395137  0.87255906  1
  Pr3+  Pr61  1  0.83470449  0.84685586  0.12507096  1
  Pr3+  Pr62  1  0.50313173  0.17328639  0.62459853  1
  Pr3+  Pr63  1  0.33419729  0.98874266  0.87514949  1
  Pr3+  Pr64  1  0.49823414  0.51103240  0.12456474  1
  Pr3+  Pr65  1  0.99985523  0.98532136  0.37534417  1
  Pr3+  Pr66  1  0.49949572  0.84300776  0.12648274  1
  Pr3+  Pr67  1  0.49803522  0.48491497  0.87313911  1
  Pr3+  Pr68  1  0.49817246  0.15080090  0.37311799  1
  Pr3+  Pr69  1  0.83061022  0.82167198  0.87249789  1
  Pr3+  Pr70  1  0.16640840  0.48876924  0.37597705  1
  Pr3+  Pr71  1  0.82947901  0.48666603  0.37692456  1
  Mn3.30+  Mn72  1  0.16740441  0.00376280  0.00117497  1
  Mn3.30+  Mn73  1  0.16628139  -0.00089122  0.49852625  1
  Mn3.30+  Mn74  1  0.16714486  0.33054102  -0.00050212  1
  Mn3.30+  Mn75  1  0.16758041  0.33333062  0.50054699  1
  Mn3.30+  Mn76  1  0.16920518  0.66618000  -0.00130069  1
  Mn3.30+  Mn77  1  0.16885191  0.66821903  0.50319380  1
  Mn3.30+  Mn78  1  0.49856537  0.00055489  0.00242977  1
  Mn3.30+  Mn79  1  0.50107358  -0.00091233  0.49831057  1
  Mn3.30+  Mn80  1  0.49830461  0.33138137  0.00221758  1
  Mn3.30+  Mn81  1  0.50219888  0.33243193  0.49971153  1
  Mn3.30+  Mn82  1  0.49754231  0.66575377  -0.00010744  1
  Mn3.30+  Mn83  1  0.49943775  0.66650934  0.50355307  1
  Mn3.30+  Mn84  1  0.83307189  0.00260012  0.00036052  1
  Mn3.30+  Mn85  1  0.82893022  -0.00084760  0.50232818  1
  Mn3.30+  Mn86  1  0.83510177  0.33311862  -0.00152823  1
  Mn3.30+  Mn87  1  0.83198461  0.33105628  0.50017451  1
  Mn3.30+  Mn88  1  0.83328325  0.66689521  -0.00063954  1
  Mn3.30+  Mn89  1  0.83443191  0.66813548  0.50031403  1
  Mn3.30+  Mn90  1  0.00114003  0.16695259  0.24904699  1
  Mn3.30+  Mn91  1  -0.00040628  0.16582403  0.74957914  1
  Mn3.30+  Mn92  1  0.00100099  0.49955259  0.24949810  1
  Mn3.30+  Mn93  1  0.00047370  0.49728627  0.74991351  1
  Mn3.30+  Mn94  1  0.00047088  0.83248262  0.25039563  1
  Mn3.30+  Mn95  1  -0.00058390  0.83439918  0.74738302  1
  Mn3.30+  Mn96  1  0.33306915  0.16800307  0.24843512  1
  Mn3.30+  Mn97  1  0.33219655  0.16504738  0.75118755  1
  Mn3.30+  Mn98  1  0.33380318  0.50069749  0.25043431  1
  Mn3.30+  Mn99  1  0.33466953  0.50099584  0.74725140  1
  Mn3.30+  Mn100  1  0.33373835  0.83338668  0.25146532  1
  Mn3.30+  Mn101  1  0.33102331  0.83432308  0.74736843  1
  Mn3.30+  Mn102  1  0.66433615  0.16772231  0.25168223  1
  Mn3.30+  Mn103  1  0.66775682  0.16534022  0.74757236  1
  Mn3.30+  Mn104  1  0.66562131  0.49966133  0.25116169  1
  Mn3.30+  Mn105  1  0.66629600  0.49992338  0.74900433  1
  Mn3.30+  Mn106  1  0.66663953  0.83432994  0.25089520  1
  Mn3.30+  Mn107  1  0.66740125  0.83562346  0.74784129  1
  Mn3.30+  Mn108  1  0.16776030  0.00116189  0.25089036  1
  Mn3.30+  Mn109  1  0.16572830  0.00094461  0.74963486  1
  Mn3.30+  Mn110  1  0.16921944  0.33305248  0.24871210  1
  Mn3.30+  Mn111  1  0.16582651  0.33106757  0.75079251  1
  Mn3.30+  Mn112  1  0.16911308  0.66633938  0.25036820  1
  Mn3.30+  Mn113  1  0.16927735  0.66827775  0.74723279  1
  Mn3.30+  Mn114  1  0.49794989  -0.00003833  0.25157292  1
  Mn3.30+  Mn115  1  0.50119249  -0.00071353  0.74821455  1
  Mn3.30+  Mn116  1  0.50086921  0.33213494  0.25001982  1
  Mn3.30+  Mn117  1  0.49964183  0.33184922  0.74867918  1
  Mn3.30+  Mn118  1  0.49782955  0.66643424  0.24968627  1
  Mn3.30+  Mn119  1  0.49933247  0.66559809  0.74741580  1
  Mn3.30+  Mn120  1  0.82967464  0.00043292  0.25064313  1
  Mn3.30+  Mn121  1  0.83216522  0.00086953  0.74701232  1
  Mn3.30+  Mn122  1  0.83230488  0.33337094  0.25080329  1
  Mn3.30+  Mn123  1  0.83460414  0.33099805  0.75002122  1
  Mn3.30+  Mn124  1  0.83318438  0.66701547  0.25083934  1
  Mn3.30+  Mn125  1  0.83400651  0.66794315  0.74925973  1
  Mn3.30+  Mn126  1  0.00383983  0.16765589  0.00084780  1
  Mn3.30+  Mn127  1  -0.00303919  0.16532486  0.49982484  1
  Mn3.30+  Mn128  1  0.00192733  0.49790311  -0.00119046  1
  Mn3.30+  Mn129  1  -0.00048514  0.49891428  0.50112700  1
  Mn3.30+  Mn130  1  0.00107433  0.83412408  -0.00074752  1
  Mn3.30+  Mn131  1  -0.00096964  0.83306006  0.50261133  1
  Mn3.30+  Mn132  1  0.33104428  0.16807998  0.00341081  1
  Mn3.30+  Mn133  1  0.33428309  0.16483364  0.49747337  1
  Mn3.30+  Mn134  1  0.33198963  0.49922046  -0.00067037  1
  Mn3.30+  Mn135  1  0.33590985  0.50267793  0.50296319  1
  Mn3.30+  Mn136  1  0.33279416  0.83307315  0.00015820  1
  Mn3.30+  Mn137  1  0.33273976  0.83473988  0.50082917  1
  Mn3.30+  Mn138  1  0.66549493  0.16750861  0.00091291  1
  Mn3.30+  Mn139  1  0.66698772  0.16541354  0.49997989  1
  Mn3.30+  Mn140  1  0.66660981  0.50018604  -0.00115007  1
  Mn3.30+  Mn141  1  0.66522554  0.49867363  0.50072174  1
  Mn3.30+  Mn142  1  0.66623187  0.83425461  -0.00070172  1
  Mn3.30+  Mn143  1  0.66768808  0.83578102  0.50187776  1
  O2-  O144  1  0.02890921  0.16165654  0.12688906  1
  O2-  O145  1  0.02534498  0.15915680  0.62324956  1
  O2-  O146  1  0.02880650  0.49358804  0.12254294  1
  O2-  O147  1  0.02433116  0.49458850  0.62552212  1
  O2-  O148  1  0.02736870  0.82793548  0.12411519  1
  O2-  O149  1  0.02745482  0.83927844  0.62539518  1
  O2-  O150  1  0.36209557  0.15977277  0.12721360  1
  O2-  O151  1  0.35808704  0.15865881  0.62211478  1
  O2-  O152  1  0.35458036  0.49108175  0.12290216  1
  O2-  O153  1  0.36242929  0.48927332  0.62543985  1
  O2-  O154  1  0.35474592  0.82842630  0.12609416  1
  O2-  O155  1  0.35154519  0.83838864  0.62493996  1
  O2-  O156  1  0.69179595  0.16138032  0.12668882  1
  O2-  O157  1  0.69142894  0.15676642  0.62368258  1
  O2-  O158  1  0.69114224  0.49504180  0.12584703  1
  O2-  O159  1  0.69407713  0.49317252  0.62385234  1
  O2-  O160  1  0.69053514  0.82717513  0.12403609  1
  O2-  O161  1  0.69340341  0.82651660  0.62649806  1
  O2-  O162  1  0.14213066  0.33031705  0.12281553  1
  O2-  O163  1  0.14801131  0.32729516  0.62387895  1
  O2-  O164  1  0.14184230  0.66192395  0.12285261  1
  O2-  O165  1  0.14486754  0.65985755  0.62590474  1
  O2-  O166  1  0.14155254  0.99057981  0.12634116  1
  O2-  O167  1  0.14178216  0.99528656  0.62206626  1
  O2-  O168  1  0.47408304  0.32872881  0.12499376  1
  O2-  O169  1  0.47316711  0.32083466  0.62406952  1
  O2-  O170  1  0.47146882  0.66059124  0.12282316  1
  O2-  O171  1  0.47410676  0.66160698  0.62564980  1
  O2-  O172  1  0.47208827  0.98988107  0.12649834  1
  O2-  O173  1  0.47411355  1.00464718  0.62254842  1
  O2-  O174  1  0.80833598  0.32930832  0.12547487  1
  O2-  O175  1  0.80945354  0.32773155  0.62259511  1
  O2-  O176  1  0.80746932  0.65963201  0.12447148  1
  O2-  O177  1  0.80892042  0.65794507  0.62432745  1
  O2-  O178  1  0.80571142  0.99610491  0.12495600  1
  O2-  O179  1  0.80621913  0.98963215  0.62542568  1
  O2-  O180  1  0.30654338  0.17601032  0.37257737  1
  O2-  O181  1  0.30570852  0.17028728  0.87923124  1
  O2-  O182  1  0.31053254  0.50189629  0.37824119  1
  O2-  O183  1  0.30722646  0.50681688  0.87360840  1
  O2-  O184  1  0.30929202  0.83779289  0.37535969  1
  O2-  O185  1  0.30840476  0.83980748  0.87349505  1
  O2-  O186  1  0.64068431  0.17712480  0.37435698  1
  O2-  O187  1  0.64242127  0.16578966  0.87614549  1
  O2-  O188  1  0.63947467  0.50958885  0.37601859  1
  O2-  O189  1  0.64194387  0.50131715  0.87391562  1
  O2-  O190  1  0.64218150  0.83568796  0.37410069  1
  O2-  O191  1  0.64129422  0.84136629  0.87489331  1
  O2-  O192  1  0.97323663  0.17093990  0.37268165  1
  O2-  O193  1  0.97640702  0.16463140  0.87729238  1
  O2-  O194  1  0.97557080  0.50621675  0.37473005  1
  O2-  O195  1  0.97566816  0.50694891  0.87650232  1
  O2-  O196  1  0.98065395  0.83577257  0.37499895  1
  O2-  O197  1  0.97510112  0.84019239  0.87568709  1
  O2-  O198  1  0.19339873  0.00733215  0.37324761  1
  O2-  O199  1  0.19054462  0.01005496  0.87857140  1
  O2-  O200  1  0.19290127  0.33963640  0.37689170  1
  O2-  O201  1  0.19444492  0.33725447  0.87552079  1
  O2-  O202  1  0.18605994  0.67062489  0.37803180  1
  O2-  O203  1  0.19404938  0.67196387  0.87243594  1
  O2-  O204  1  0.52744933  0.00338031  0.37337852  1
  O2-  O205  1  0.52353337  0.00541561  0.87795942  1
  O2-  O206  1  0.52822810  0.34140462  0.37609760  1
  O2-  O207  1  0.51763048  0.33580377  0.87542680  1
  O2-  O208  1  0.52340569  0.67172024  0.37725506  1
  O2-  O209  1  0.51694226  0.67188233  0.87419186  1
  O2-  O210  1  0.85665489  0.00564335  0.37428194  1
  O2-  O211  1  0.85928128  0.01005976  0.87574876  1
  O2-  O212  1  0.85913238  0.33859976  0.37391878  1
  O2-  O213  1  0.86111541  0.33719205  0.87759275  1
  O2-  O214  1  0.85974434  0.66833485  0.37495133  1
  O2-  O215  1  0.86028640  0.67369170  0.87584501  1
  O2-  O216  1  0.23918461  0.09609649  0.02800478  1
  O2-  O217  1  0.23591443  0.09471877  0.51887966  1
  O2-  O218  1  0.23412147  0.43163456  0.01458437  1
  O2-  O219  1  0.24126197  0.42988454  0.52138870  1
  O2-  O220  1  0.23567935  0.76375767  0.01632585  1
  O2-  O221  1  0.23688548  0.76424468  0.51797312  1
  O2-  O222  1  0.56870407  0.09359842  0.02353632  1
  O2-  O223  1  0.56856089  0.09724747  0.51403523  1
  O2-  O224  1  0.57059513  0.42526859  0.02040969  1
  O2-  O225  1  0.57115497  0.42755710  0.52464334  1
  O2-  O226  1  0.56965231  0.75873669  0.01980573  1
  O2-  O227  1  0.57713014  0.75879891  0.51800679  1
  O2-  O228  1  0.90614908  0.09521684  0.02380211  1
  O2-  O229  1  0.90101432  0.09248741  0.52110386  1
  O2-  O230  1  0.90643050  0.42738194  0.02252862  1
  O2-  O231  1  0.90155260  0.42790839  0.51529439  1
  O2-  O232  1  0.90619974  0.76018188  0.02174398  1
  O2-  O233  1  0.90560961  0.76307740  0.52092282  1
  O2-  O234  1  0.26496997  0.26559912  0.23040560  1
  O2-  O235  1  0.26315557  0.26100800  0.73003460  1
  O2-  O236  1  0.26111157  0.59603625  0.22795750  1
  O2-  O237  1  0.26645053  0.59622355  0.72715663  1
  O2-  O238  1  0.26099222  0.92764668  0.22926465  1
  O2-  O239  1  0.26195388  0.93252477  0.73530093  1
  O2-  O240  1  0.59588827  0.26259343  0.22906165  1
  O2-  O241  1  0.59421882  0.25711512  0.72746437  1
  O2-  O242  1  0.59393114  0.59457220  0.22900250  1
  O2-  O243  1  0.59550251  0.59208282  0.72854719  1
  O2-  O244  1  0.59209327  0.92527115  0.22710011  1
  O2-  O245  1  0.59727452  0.93189355  0.73207172  1
  O2-  O246  1  0.93066164  0.26116443  0.22855891  1
  O2-  O247  1  0.92692472  0.25610477  0.73652343  1
  O2-  O248  1  0.92942688  0.59289905  0.22734251  1
  O2-  O249  1  0.92666463  0.59324299  0.73461649  1
  O2-  O250  1  0.92813230  0.92651164  0.22947603  1
  O2-  O251  1  0.92868605  0.93050962  0.73402548  1
  O2-  O252  1  0.09498021  0.24033790  0.27304791  1
  O2-  O253  1  0.09687134  0.23377367  0.76688186  1
  O2-  O254  1  0.09582107  0.57165811  0.26945093  1
  O2-  O255  1  0.09581094  0.57103443  0.76953341  1
  O2-  O256  1  0.09573989  0.90590521  0.27100456  1
  O2-  O257  1  0.09318820  0.90798714  0.77387624  1
  O2-  O258  1  0.42924892  0.23966801  0.27380393  1
  O2-  O259  1  0.42634483  0.23593509  0.77105983  1
  O2-  O260  1  0.43045322  0.56815318  0.26648268  1
  O2-  O261  1  0.42751921  0.57023884  0.77248208  1
  O2-  O262  1  0.42944902  0.90362777  0.26949869  1
  O2-  O263  1  0.42720326  0.90756933  0.77123104  1
  O2-  O264  1  0.76475412  0.23665016  0.26732415  1
  O2-  O265  1  0.76053090  0.23828604  0.76735399  1
  O2-  O266  1  0.76177098  0.57224616  0.27066627  1
  O2-  O267  1  0.76293073  0.57088242  0.76727090  1
  O2-  O268  1  0.75972623  0.90453107  0.26305825  1
  O2-  O269  1  0.76047552  0.90929662  0.77554554  1
  O2-  O270  1  0.06995074  0.07178454  0.47757444  1
  O2-  O271  1  0.06868457  0.06860622  0.98581534  1
  O2-  O272  1  0.07459777  0.40723919  0.47675501  1
  O2-  O273  1  0.07200990  0.40010310  0.97695606  1
  O2-  O274  1  0.07278183  0.74027880  0.48050325  1
  O2-  O275  1  0.07461432  0.73549144  0.97805622  1
  O2-  O276  1  0.40290827  0.07210407  0.47530111  1
  O2-  O277  1  0.40332493  0.07122796  0.98069984  1
  O2-  O278  1  0.40638023  0.40341588  0.48001475  1
  O2-  O279  1  0.40488138  0.40718275  0.97803823  1
  O2-  O280  1  0.40942076  0.74475560  0.48447450  1
  O2-  O281  1  0.40548547  0.73948045  0.97830225  1
  O2-  O282  1  0.73641664  0.07270585  0.47512570  1
  O2-  O283  1  0.73843733  0.07298861  0.98167404  1
  O2-  O284  1  0.73664300  0.40413810  0.47786834  1
  O2-  O285  1  0.74338343  0.40760807  0.98269197  1
  O2-  O286  1  0.73793399  0.73582135  0.48338312  1
  O2-  O287  1  0.74265161  0.74148501  0.98188325  1
  O2-  O288  1  0.09437623  0.23787952  0.47903761  1
  O2-  O289  1  0.09754620  0.23535603  0.97939301  1
  O2-  O290  1  0.09523697  0.57271732  0.48160824  1
  O2-  O291  1  0.09737996  0.57107768  0.97823434  1
  O2-  O292  1  0.09321866  0.90809839  0.47589468  1
  O2-  O293  1  0.09636613  0.90652908  0.97900887  1
  O2-  O294  1  0.42976334  0.23826570  0.47654691  1
  O2-  O295  1  0.42645114  0.23758908  0.97911361  1
  O2-  O296  1  0.43059425  0.56985305  0.48237621  1
  O2-  O297  1  0.42806483  0.57004006  0.97810635  1
  O2-  O298  1  0.42784549  0.90818064  0.47960920  1
  O2-  O299  1  0.42847085  0.90499552  0.97959409  1
  O2-  O300  1  0.76076270  0.23788321  0.48024320  1
  O2-  O301  1  0.76646143  0.23747581  0.98399230  1
  O2-  O302  1  0.76012920  0.57117738  0.47939416  1
  O2-  O303  1  0.76562057  0.57180340  0.98189438  1
  O2-  O304  1  0.75890591  0.90735841  0.48198092  1
  O2-  O305  1  0.76352468  0.90928753  0.97876050  1
  O2-  O306  1  0.06986140  0.07098258  0.27152638  1
  O2-  O307  1  0.06926457  0.06969875  0.76557355  1
  O2-  O308  1  0.07217557  0.40514164  0.27025704  1
  O2-  O309  1  0.07413931  0.40320865  0.77335450  1
  O2-  O310  1  0.07223615  0.73704974  0.26839126  1
  O2-  O311  1  0.07140959  0.74116630  0.77251310  1
  O2-  O312  1  0.40095446  0.07008265  0.27224576  1
  O2-  O313  1  0.40522751  0.07243907  0.77194847  1
  O2-  O314  1  0.40823623  0.40589417  0.27124668  1
  O2-  O315  1  0.40292995  0.40429479  0.77013021  1
  O2-  O316  1  0.40944857  0.74268830  0.26867389  1
  O2-  O317  1  0.40402219  0.74198019  0.76814541  1
  O2-  O318  1  0.73313403  0.07262529  0.27167478  1
  O2-  O319  1  0.74075609  0.07443339  0.77312331  1
  O2-  O320  1  0.73650644  0.40643591  0.27187998  1
  O2-  O321  1  0.74135997  0.40738173  0.76675490  1
  O2-  O322  1  0.73479953  0.73645990  0.26600015  1
  O2-  O323  1  0.74199117  0.74235317  0.76865602  1
  O2-  O324  1  0.23521235  0.09832266  0.22785881  1
  O2-  O325  1  0.23962474  0.09374627  0.72693262  1
  O2-  O326  1  0.23701471  0.43179257  0.23484063  1
  O2-  O327  1  0.23931349  0.43031765  0.73036355  1
  O2-  O328  1  0.23654550  0.76346783  0.23391391  1
  O2-  O329  1  0.23577371  0.76709114  0.73107011  1
  O2-  O330  1  0.56711000  0.09590468  0.22873443  1
  O2-  O331  1  0.57059746  0.09538293  0.73497429  1
  O2-  O332  1  0.57065951  0.42773046  0.22737942  1
  O2-  O333  1  0.57180110  0.42584204  0.72881941  1
  O2-  O334  1  0.57289978  0.76020753  0.22882808  1
  O2-  O335  1  0.57573546  0.75973702  0.73392136  1
  O2-  O336  1  0.90454252  0.09428055  0.22871364  1
  O2-  O337  1  0.90371588  0.09300844  0.72638269  1
  O2-  O338  1  0.90558447  0.42781958  0.22921100  1
  O2-  O339  1  0.90403708  0.42890810  0.73351498  1
  O2-  O340  1  0.90626755  0.75868082  0.22514625  1
  O2-  O341  1  0.90424674  0.76623948  0.73236179  1
  O2-  O342  1  0.26569384  0.26614116  0.02129493  1
  O2-  O343  1  0.26335581  0.25974033  0.51920439  1
  O2-  O344  1  0.26374227  0.59726008  0.02062674  1
  O2-  O345  1  0.26238646  0.59445096  0.52481788  1
  O2-  O346  1  0.26126954  0.93060698  0.01960930  1
  O2-  O347  1  0.25992441  0.92937768  0.51634070  1
  O2-  O348  1  0.59529143  0.26047705  0.02047457  1
  O2-  O349  1  0.59493869  0.25897598  0.52415455  1
  O2-  O350  1  0.59071957  0.59283151  0.02227118  1
  O2-  O351  1  0.59709450  0.59520180  0.52011182  1
  O2-  O352  1  0.59295964  0.92881355  0.02193954  1
  O2-  O353  1  0.59474702  0.92904431  0.51846822  1
  O2-  O354  1  0.92984621  0.25954264  0.02300536  1
  O2-  O355  1  0.92760921  0.25928897  0.51284641  1
  O2-  O356  1  0.92872163  0.59513468  0.02050764  1
  O2-  O357  1  0.92549166  0.59225723  0.51779305  1
  O2-  O358  1  0.92510645  0.93063975  0.02218763  1
  O2-  O359  1  0.92832737  0.92991285  0.51495030  1
