# generated using pymatgen
data_Sr7Ca15Pr50Mn72O216
_symmetry_space_group_name_H-M   'P 1'
_cell_length_a   16.55739147
_cell_length_b   16.60377388
_cell_length_c   15.59476942
_cell_angle_alpha   89.99846818
_cell_angle_beta   90.00304121
_cell_angle_gamma   89.99850890
_symmetry_Int_Tables_number   1
_chemical_formula_structural   Sr7Ca15Pr50Mn72O216
_chemical_formula_sum   'Sr7 Ca15 Pr50 Mn72 O216'
_cell_volume   4287.23889613
_cell_formula_units_Z   1
loop_
 _symmetry_equiv_pos_site_id
 _symmetry_equiv_pos_as_xyz
  1  'x, y, z'
loop_
 _atom_type_symbol
 _atom_type_oxidation_number
  Sr2+  2.0
  Ca2+  2.0
  Pr3+  3.0
  Mn3.30+  3.3
  O2-  -2.0
loop_
 _atom_site_type_symbol
 _atom_site_label
 _atom_site_symmetry_multiplicity
 _atom_site_fract_x
 _atom_site_fract_y
 _atom_site_fract_z
 _atom_site_occupancy
  Sr2+  Sr0  1  0.82975688  0.48875002  0.37435372  1
  Sr2+  Sr1  1  0.66274405  0.34403390  0.62626246  1
  Sr2+  Sr2  1  0.49802683  0.49125049  0.87333455  1
  Sr2+  Sr3  1  0.83222835  0.84090060  0.12152512  1
  Sr2+  Sr4  1  0.50223991  0.84303219  0.12203869  1
  Sr2+  Sr5  1  0.16570546  0.82415774  0.87473070  1
  Sr2+  Sr6  1  1.00107924  0.99029630  0.37692691  1
  Ca2+  Ca7  1  0.66277808  0.68540596  0.12391570  1
  Ca2+  Ca8  1  -0.00429860  0.01305677  0.62930517  1
  Ca2+  Ca9  1  0.66831674  0.98743968  0.37320934  1
  Ca2+  Ca10  1  0.66169606  0.34700375  0.12440139  1
  Ca2+  Ca11  1  0.67014614  0.98050814  0.87519797  1
  Ca2+  Ca12  1  0.33185225  0.68400162  0.12283384  1
  Ca2+  Ca13  1  0.66384059  0.67922298  0.62666640  1
  Ca2+  Ca14  1  0.49854869  0.81943775  0.87627821  1
  Ca2+  Ca15  1  1.00344634  0.98410077  0.87418828  1
  Ca2+  Ca16  1  0.83099267  0.82014851  0.87626815  1
  Ca2+  Ca17  1  0.49852644  0.15152202  0.37662594  1
  Ca2+  Ca18  1  0.50542025  0.18206564  0.62440910  1
  Ca2+  Ca19  1  0.50756125  0.51664072  0.62602324  1
  Ca2+  Ca20  1  0.16112771  0.14898493  0.87487329  1
  Ca2+  Ca21  1  0.33389738  0.01153520  0.12248498  1
  Pr3+  Pr22  1  0.33623416  0.32093554  0.87523422  1
  Pr3+  Pr23  1  0.82705752  0.48885609  0.87613394  1
  Pr3+  Pr24  1  0.82726906  0.14925555  0.87423179  1
  Pr3+  Pr25  1  0.50410712  0.51640130  0.12427867  1
  Pr3+  Pr26  1  0.49850191  0.48640450  0.37637660  1
  Pr3+  Pr27  1  0.50186077  0.17768605  0.12462476  1
  Pr3+  Pr28  1  0.83556507  0.17809255  0.62501630  1
  Pr3+  Pr29  1  0.16521593  0.49028913  0.87501933  1
  Pr3+  Pr30  1  0.17261735  0.51802024  0.12499842  1
  Pr3+  Pr31  1  -0.00329002  0.00882246  0.12192728  1
  Pr3+  Pr32  1  0.16326938  0.48689358  0.37454319  1
  Pr3+  Pr33  1  0.17366619  0.84960660  0.12188913  1
  Pr3+  Pr34  1  0.33671943  0.98511840  0.87545398  1
  Pr3+  Pr35  1  1.00337506  0.31802858  0.87493137  1
  Pr3+  Pr36  1  0.82763208  0.14893333  0.37575730  1
  Pr3+  Pr37  1  0.66630589  0.32156141  0.87598347  1
  Pr3+  Pr38  1  -0.00337593  0.34445108  0.12493738  1
  Pr3+  Pr39  1  0.16449933  0.15221679  0.37558501  1
  Pr3+  Pr40  1  0.67101615  0.65452297  0.37301854  1
  Pr3+  Pr41  1  0.83037944  0.82529236  0.37350824  1
  Pr3+  Pr42  1  0.83218542  0.51418983  0.62398924  1
  Pr3+  Pr43  1  0.34062347  0.65695286  0.87682310  1
  Pr3+  Pr44  1  0.16385312  0.82349613  0.37503453  1
  Pr3+  Pr45  1  0.33905970  0.65563091  0.37375333  1
  Pr3+  Pr46  1  0.50188913  0.82325529  0.37407718  1
  Pr3+  Pr47  1  0.66225977  0.01431390  0.62620003  1
  Pr3+  Pr48  1  -0.00652300  0.34605281  0.62514635  1
  Pr3+  Pr49  1  0.33503873  0.34507700  0.62524080  1
  Pr3+  Pr50  1  -0.00264780  0.68168285  0.12435255  1
  Pr3+  Pr51  1  0.66552205  0.65877870  0.87770689  1
  Pr3+  Pr52  1  0.33018337  0.34598739  0.12491440  1
  Pr3+  Pr53  1  0.16893925  0.51286607  0.62468728  1
  Pr3+  Pr54  1  0.66316660  0.00691506  0.12404673  1
  Pr3+  Pr55  1  0.83142501  0.51376188  0.12622030  1
  Pr3+  Pr56  1  -0.00414589  0.67984381  0.62609635  1
  Pr3+  Pr57  1  0.33458680  0.67844250  0.62600477  1
  Pr3+  Pr58  1  0.66906659  0.31985297  0.37455775  1
  Pr3+  Pr59  1  0.16855665  0.84801345  0.62778122  1
  Pr3+  Pr60  1  0.83555642  0.84645708  0.62792323  1
  Pr3+  Pr61  1  0.49866205  0.15599384  0.87213465  1
  Pr3+  Pr62  1  1.00057406  0.65747009  0.87628050  1
  Pr3+  Pr63  1  0.17091965  0.17486166  0.12361563  1
  Pr3+  Pr64  1  1.00098143  0.65686062  0.37377733  1
  Pr3+  Pr65  1  0.50719674  0.84383874  0.62752196  1
  Pr3+  Pr66  1  0.16611320  0.17663227  0.62606949  1
  Pr3+  Pr67  1  0.83397649  0.17517388  0.12483068  1
  Pr3+  Pr68  1  0.33929186  0.31516486  0.37466588  1
  Pr3+  Pr69  1  0.99981711  0.31888290  0.37540176  1
  Pr3+  Pr70  1  0.33804383  0.98950027  0.37494323  1
  Pr3+  Pr71  1  0.33494100  0.01348667  0.62719778  1
  Mn3.30+  Mn72  1  0.16625727  0.00097046  -0.00314623  1
  Mn3.30+  Mn73  1  0.16646839  0.00048522  0.50338610  1
  Mn3.30+  Mn74  1  0.16623664  0.33194571  -0.00085568  1
  Mn3.30+  Mn75  1  0.16685732  0.33273851  0.50062913  1
  Mn3.30+  Mn76  1  0.16903757  0.66910456  -0.00078607  1
  Mn3.30+  Mn77  1  0.16750191  0.66789347  0.50051161  1
  Mn3.30+  Mn78  1  0.50089033  -0.00120247  -0.00244340  1
  Mn3.30+  Mn79  1  0.50265808  0.00159208  0.49934713  1
  Mn3.30+  Mn80  1  0.49993918  0.33421365  0.00099997  1
  Mn3.30+  Mn81  1  0.50174171  0.33186594  0.50080486  1
  Mn3.30+  Mn82  1  0.50061242  0.66940134  0.00208275  1
  Mn3.30+  Mn83  1  0.50356853  0.66630486  0.50004703  1
  Mn3.30+  Mn84  1  0.83233250  -0.00383856  -0.00347898  1
  Mn3.30+  Mn85  1  0.83218934  -0.00125862  0.50153312  1
  Mn3.30+  Mn86  1  0.83131029  0.33206393  0.00185317  1
  Mn3.30+  Mn87  1  0.83058082  0.33360234  0.49931733  1
  Mn3.30+  Mn88  1  0.83209128  0.66847992  0.00062454  1
  Mn3.30+  Mn89  1  0.83095485  0.66783657  0.50058674  1
  Mn3.30+  Mn90  1  0.00024761  0.16437729  0.24930850  1
  Mn3.30+  Mn91  1  -0.00034742  0.16332149  0.75229700  1
  Mn3.30+  Mn92  1  -0.00027791  0.49973491  0.24953521  1
  Mn3.30+  Mn93  1  -0.00176040  0.50050403  0.75088408  1
  Mn3.30+  Mn94  1  0.00045378  0.83510810  0.24924573  1
  Mn3.30+  Mn95  1  -0.00065712  0.83559759  0.75204769  1
  Mn3.30+  Mn96  1  0.33571806  0.16382533  0.24925518  1
  Mn3.30+  Mn97  1  0.33236930  0.16687107  0.75036516  1
  Mn3.30+  Mn98  1  0.33407363  0.50105316  0.25054110  1
  Mn3.30+  Mn99  1  0.33542183  0.50059131  0.74763472  1
  Mn3.30+  Mn100  1  0.33435519  0.83527337  0.24839091  1
  Mn3.30+  Mn101  1  0.33659836  0.83330607  0.75081279  1
  Mn3.30+  Mn102  1  0.66447163  0.16506781  0.25009745  1
  Mn3.30+  Mn103  1  0.66459025  0.16566701  0.75033111  1
  Mn3.30+  Mn104  1  0.66556892  0.49975062  0.24808189  1
  Mn3.30+  Mn105  1  0.66378944  0.50107912  0.74961482  1
  Mn3.30+  Mn106  1  0.66578420  0.83522719  0.24860850  1
  Mn3.30+  Mn107  1  0.66873361  0.83215835  0.75259379  1
  Mn3.30+  Mn108  1  0.16840380  0.00029433  0.24917447  1
  Mn3.30+  Mn109  1  0.16405636  0.00104766  0.75079943  1
  Mn3.30+  Mn110  1  0.16682204  0.33232095  0.25024764  1
  Mn3.30+  Mn111  1  0.16593604  0.33218665  0.74988973  1
  Mn3.30+  Mn112  1  0.16973620  0.66941450  0.24973436  1
  Mn3.30+  Mn113  1  0.16714439  0.66766995  0.75042715  1
  Mn3.30+  Mn114  1  0.49998854  0.00076225  0.24940645  1
  Mn3.30+  Mn115  1  0.50285311  -0.00048713  0.75228337  1
  Mn3.30+  Mn116  1  0.50119513  0.33166334  0.24968777  1
  Mn3.30+  Mn117  1  0.50035622  0.33458480  0.74942336  1
  Mn3.30+  Mn118  1  0.50175014  0.66849436  0.24833659  1
  Mn3.30+  Mn119  1  0.50221212  0.66685383  0.74930785  1
  Mn3.30+  Mn120  1  0.83163210  -0.00239012  0.24903202  1
  Mn3.30+  Mn121  1  0.83352818  -0.00245674  0.75252591  1
  Mn3.30+  Mn122  1  0.82997489  0.33235201  0.24802907  1
  Mn3.30+  Mn123  1  0.83195221  0.33316704  0.75105539  1
  Mn3.30+  Mn124  1  0.83229829  0.66808320  0.24828552  1
  Mn3.30+  Mn125  1  0.83073799  0.66804031  0.75087416  1
  Mn3.30+  Mn126  1  0.00068517  0.16364710  -0.00232126  1
  Mn3.30+  Mn127  1  -0.00077685  0.16441210  0.50119304  1
  Mn3.30+  Mn128  1  -0.00061288  0.49986600  0.00160884  1
  Mn3.30+  Mn129  1  -0.00105431  0.50061170  0.49852840  1
  Mn3.30+  Mn130  1  0.00032651  0.83478644  -0.00254902  1
  Mn3.30+  Mn131  1  -0.00042659  0.83575201  0.50183788  1
  Mn3.30+  Mn132  1  0.33203046  0.16465885  -0.00268996  1
  Mn3.30+  Mn133  1  0.33698634  0.16619852  0.50286367  1
  Mn3.30+  Mn134  1  0.33418422  0.50173289  0.00093356  1
  Mn3.30+  Mn135  1  0.33553144  0.49978819  0.50087445  1
  Mn3.30+  Mn136  1  0.33599429  0.83407399  -0.00001074  1
  Mn3.30+  Mn137  1  0.33516383  0.83445534  0.50081430  1
  Mn3.30+  Mn138  1  0.66599018  0.16480300  0.00019398  1
  Mn3.30+  Mn139  1  0.66318310  0.16530336  0.49866428  1
  Mn3.30+  Mn140  1  0.66471019  0.50048419  0.00125382  1
  Mn3.30+  Mn141  1  0.66463736  0.50064191  0.50147406  1
  Mn3.30+  Mn142  1  0.66648578  0.83407087  -0.00277151  1
  Mn3.30+  Mn143  1  0.66795911  0.83379653  0.50105581  1
  O2-  O144  1  0.02600051  0.15870255  0.12314386  1
  O2-  O145  1  0.02162459  0.16177993  0.62684699  1
  O2-  O146  1  0.02853233  0.49298610  0.12538898  1
  O2-  O147  1  0.02480463  0.49481888  0.62337730  1
  O2-  O148  1  0.02781785  0.82927596  0.12297606  1
  O2-  O149  1  0.02542863  0.82416731  0.62573932  1
  O2-  O150  1  0.35699036  0.15949290  0.12165627  1
  O2-  O151  1  0.36284000  0.16167139  0.62659787  1
  O2-  O152  1  0.35912499  0.49188615  0.12875185  1
  O2-  O153  1  0.36261381  0.49357018  0.62370529  1
  O2-  O154  1  0.35248199  0.82838767  0.12656413  1
  O2-  O155  1  0.36216594  0.82855914  0.62611979  1
  O2-  O156  1  0.69147197  0.15526643  0.12380083  1
  O2-  O157  1  0.69222217  0.16163986  0.62499267  1
  O2-  O158  1  0.68959354  0.49045595  0.12513178  1
  O2-  O159  1  0.69069803  0.49657001  0.62635660  1
  O2-  O160  1  0.68318311  0.83473741  0.12270173  1
  O2-  O161  1  0.69132472  0.82514751  0.62651559  1
  O2-  O162  1  0.14124863  0.32363004  0.12586441  1
  O2-  O163  1  0.13729588  0.32627359  0.62605645  1
  O2-  O164  1  0.14102782  0.66395070  0.12562884  1
  O2-  O165  1  0.13970963  0.66067080  0.62562587  1
  O2-  O166  1  0.14206672  0.99880479  0.12166920  1
  O2-  O167  1  0.13950027  0.99708909  0.62640968  1
  O2-  O168  1  0.47265924  0.32600193  0.12621944  1
  O2-  O169  1  0.47698351  0.32458093  0.62403144  1
  O2-  O170  1  0.47346815  0.66313821  0.12746101  1
  O2-  O171  1  0.47789977  0.66460310  0.62333939  1
  O2-  O172  1  0.47567063  0.99865691  0.12192232  1
  O2-  O173  1  0.47767181  0.99008157  0.62685971  1
  O2-  O174  1  0.80406884  0.32197589  0.12469555  1
  O2-  O175  1  0.81405113  0.32655072  0.62590383  1
  O2-  O176  1  0.80741960  0.66292143  0.12481521  1
  O2-  O177  1  0.80748686  0.66253833  0.62646395  1
  O2-  O178  1  0.80827889  0.99916749  0.12141747  1
  O2-  O179  1  0.80606010  0.99606504  0.62769623  1
  O2-  O180  1  0.30804348  0.16820895  0.37847278  1
  O2-  O181  1  0.30353852  0.17470171  0.87339078  1
  O2-  O182  1  0.30756787  0.50671930  0.37446998  1
  O2-  O183  1  0.30878261  0.50704340  0.87273006  1
  O2-  O184  1  0.30731286  0.84121766  0.37517965  1
  O2-  O185  1  0.31406637  0.83563013  0.87298235  1
  O2-  O186  1  0.63936772  0.17377313  0.37334160  1
  O2-  O187  1  0.64220204  0.17452224  0.87701665  1
  O2-  O188  1  0.64192452  0.50684870  0.37293249  1
  O2-  O189  1  0.64709372  0.50930329  0.87595847  1
  O2-  O190  1  0.64560607  0.84109107  0.37612858  1
  O2-  O191  1  0.64031885  0.83480604  0.87414194  1
  O2-  O192  1  0.97411546  0.17087074  0.37479475  1
  O2-  O193  1  0.97038100  0.17443965  0.87543938  1
  O2-  O194  1  0.97962696  0.50831551  0.37400074  1
  O2-  O195  1  0.97256656  0.50749806  0.87805212  1
  O2-  O196  1  0.97623006  0.83490917  0.37772193  1
  O2-  O197  1  0.97471883  0.83710129  0.87338320  1
  O2-  O198  1  0.19300850  0.00332180  0.37888143  1
  O2-  O199  1  0.19243026  0.00461452  0.87316821  1
  O2-  O200  1  0.19431578  0.33907559  0.37477439  1
  O2-  O201  1  0.19227699  0.34332970  0.87334133  1
  O2-  O202  1  0.19460717  0.67518790  0.37546646  1
  O2-  O203  1  0.19469621  0.66469729  0.87320784  1
  O2-  O204  1  0.52575975  0.00697370  0.37732941  1
  O2-  O205  1  0.52890760  0.01136691  0.87304453  1
  O2-  O206  1  0.52552312  0.34003089  0.37400227  1
  O2-  O207  1  0.52189687  0.33518487  0.87634932  1
  O2-  O208  1  0.52683658  0.67252217  0.37423765  1
  O2-  O209  1  0.52067530  0.66925775  0.87525002  1
  O2-  O210  1  0.85211230  0.00026238  0.37639670  1
  O2-  O211  1  0.86249449  0.00587449  0.87390770  1
  O2-  O212  1  0.85669933  0.33442850  0.37254204  1
  O2-  O213  1  0.85899755  0.34040590  0.87706826  1
  O2-  O214  1  0.85708116  0.67397772  0.37335529  1
  O2-  O215  1  0.85712913  0.66757056  0.87594543  1
  O2-  O216  1  0.23681453  0.09565742  0.01663339  1
  O2-  O217  1  0.24073390  0.09500040  0.52357385  1
  O2-  O218  1  0.23787159  0.43052313  0.02049339  1
  O2-  O219  1  0.23649814  0.42631617  0.52197372  1
  O2-  O220  1  0.23816441  0.76101662  0.01833552  1
  O2-  O221  1  0.23930929  0.76093790  0.52275758  1
  O2-  O222  1  0.57083620  0.09560304  0.02011198  1
  O2-  O223  1  0.57091825  0.09514624  0.52487547  1
  O2-  O224  1  0.57040965  0.42954471  0.02001666  1
  O2-  O225  1  0.56654580  0.43420050  0.51578387  1
  O2-  O226  1  0.57479381  0.75892446  0.01420837  1
  O2-  O227  1  0.57110110  0.76471495  0.51538875  1
  O2-  O228  1  0.90410542  0.09405474  0.01998210  1
  O2-  O229  1  0.89971950  0.09419067  0.51710218  1
  O2-  O230  1  0.90350567  0.42583597  0.02458078  1
  O2-  O231  1  0.90539744  0.42689013  0.52099553  1
  O2-  O232  1  0.91120093  0.75599000  0.01740800  1
  O2-  O233  1  0.90590535  0.76148126  0.52127620  1
  O2-  O234  1  0.26376007  0.25953656  0.23115912  1
  O2-  O235  1  0.26045150  0.26085364  0.72581961  1
  O2-  O236  1  0.26275787  0.59974394  0.22834833  1
  O2-  O237  1  0.26002413  0.59165154  0.72487161  1
  O2-  O238  1  0.26325278  0.93141675  0.22802842  1
  O2-  O239  1  0.26304647  0.92692896  0.72976728  1
  O2-  O240  1  0.59589957  0.26213433  0.22659946  1
  O2-  O241  1  0.59215718  0.26136554  0.73853444  1
  O2-  O242  1  0.59554131  0.59613463  0.22695957  1
  O2-  O243  1  0.59703434  0.59806788  0.73236310  1
  O2-  O244  1  0.59381790  0.93048097  0.23435533  1
  O2-  O245  1  0.59909881  0.92567787  0.72903024  1
  O2-  O246  1  0.92757002  0.25904551  0.22825349  1
  O2-  O247  1  0.92923200  0.26138573  0.73217091  1
  O2-  O248  1  0.92766965  0.59349737  0.22820658  1
  O2-  O249  1  0.92643684  0.59461433  0.72948712  1
  O2-  O250  1  0.92974405  0.92645224  0.23077521  1
  O2-  O251  1  0.92789543  0.92762789  0.72575798  1
  O2-  O252  1  0.09430106  0.23952890  0.27232878  1
  O2-  O253  1  0.09381270  0.23613279  0.77236355  1
  O2-  O254  1  0.09991659  0.57542234  0.26994774  1
  O2-  O255  1  0.09268735  0.57144543  0.77066341  1
  O2-  O256  1  0.09931664  0.90420928  0.26553881  1
  O2-  O257  1  0.09482145  0.90425875  0.76432256  1
  O2-  O258  1  0.43013266  0.23591547  0.27091858  1
  O2-  O259  1  0.42324754  0.24052624  0.77250427  1
  O2-  O260  1  0.43036326  0.57314711  0.27218479  1
  O2-  O261  1  0.42342769  0.57699551  0.76623059  1
  O2-  O262  1  0.42747940  0.90813728  0.27394621  1
  O2-  O263  1  0.43113426  0.90574236  0.77204406  1
  O2-  O264  1  0.76110131  0.23590304  0.27086931  1
  O2-  O265  1  0.76007459  0.23760538  0.77077064  1
  O2-  O266  1  0.75936376  0.57390258  0.26598519  1
  O2-  O267  1  0.76246528  0.57118683  0.76862778  1
  O2-  O268  1  0.76052043  0.90585396  0.26680058  1
  O2-  O269  1  0.76660524  0.90032903  0.76877654  1
  O2-  O270  1  0.07773550  0.07687496  0.48183043  1
  O2-  O271  1  0.06781655  0.06968226  0.97833926  1
  O2-  O272  1  0.07058396  0.40607680  0.47819238  1
  O2-  O273  1  0.07025262  0.40530039  0.97937200  1
  O2-  O274  1  0.07165298  0.73882693  0.47965613  1
  O2-  O275  1  0.07202251  0.73653080  0.98103611  1
  O2-  O276  1  0.40338173  0.06902768  0.48463125  1
  O2-  O277  1  0.40604650  0.07398117  0.97375435  1
  O2-  O278  1  0.40410761  0.40213016  0.47856393  1
  O2-  O279  1  0.40058930  0.40270812  0.98450439  1
  O2-  O280  1  0.40783800  0.73828453  0.47945832  1
  O2-  O281  1  0.40630813  0.73927402  0.98249901  1
  O2-  O282  1  0.73438051  0.07051217  0.47975667  1
  O2-  O283  1  0.73864466  0.06929202  0.97638833  1
  O2-  O284  1  0.73501084  0.40474683  0.48134640  1
  O2-  O285  1  0.73779383  0.40709188  0.97879036  1
  O2-  O286  1  0.73972226  0.74146642  0.47605871  1
  O2-  O287  1  0.73948420  0.73981583  0.98141750  1
  O2-  O288  1  0.09555580  0.24079206  0.47891650  1
  O2-  O289  1  0.09375198  0.23628149  0.97718416  1
  O2-  O290  1  0.09610907  0.57346467  0.47886866  1
  O2-  O291  1  0.09620774  0.57324662  0.98104517  1
  O2-  O292  1  0.09799817  0.90254604  0.48522592  1
  O2-  O293  1  0.09588036  0.90671075  0.98485936  1
  O2-  O294  1  0.42747462  0.23790720  0.47650646  1
  O2-  O295  1  0.42621406  0.23724841  0.97933854  1
  O2-  O296  1  0.42915156  0.57521771  0.47696996  1
  O2-  O297  1  0.42592194  0.57346451  0.98446583  1
  O2-  O298  1  0.43035848  0.90735741  0.47900504  1
  O2-  O299  1  0.43045748  0.90823953  0.97470758  1
  O2-  O300  1  0.76008588  0.23588767  0.47909193  1
  O2-  O301  1  0.76092448  0.23699823  0.97868070  1
  O2-  O302  1  0.75919142  0.57303120  0.48261091  1
  O2-  O303  1  0.76162451  0.57192871  0.98327689  1
  O2-  O304  1  0.76536196  0.90182574  0.48686344  1
  O2-  O305  1  0.76302494  0.90386458  0.97616538  1
  O2-  O306  1  0.07577699  0.07366674  0.26853646  1
  O2-  O307  1  0.06806814  0.07183621  0.77183736  1
  O2-  O308  1  0.07077774  0.40464839  0.27179016  1
  O2-  O309  1  0.07034382  0.40579037  0.77052982  1
  O2-  O310  1  0.07312253  0.73907699  0.27091587  1
  O2-  O311  1  0.06956408  0.73677613  0.76835782  1
  O2-  O312  1  0.40529421  0.07106820  0.26928930  1
  O2-  O313  1  0.40287962  0.07251840  0.77136549  1
  O2-  O314  1  0.40484757  0.40175315  0.27158916  1
  O2-  O315  1  0.40078864  0.40261560  0.76632199  1
  O2-  O316  1  0.40708414  0.74228216  0.27390211  1
  O2-  O317  1  0.40592517  0.73718971  0.76579035  1
  O2-  O318  1  0.73725852  0.07251659  0.27102782  1
  O2-  O319  1  0.73699575  0.06814091  0.77173739  1
  O2-  O320  1  0.73557593  0.40350219  0.26737309  1
  O2-  O321  1  0.73829063  0.40681455  0.77315529  1
  O2-  O322  1  0.74091754  0.74271265  0.27000976  1
  O2-  O323  1  0.73845349  0.73759210  0.77306622  1
  O2-  O324  1  0.23676606  0.09666046  0.23428889  1
  O2-  O325  1  0.23998442  0.09394159  0.72629551  1
  O2-  O326  1  0.23597391  0.42838911  0.22930069  1
  O2-  O327  1  0.23859680  0.42857446  0.72733701  1
  O2-  O328  1  0.23614767  0.76575193  0.23315331  1
  O2-  O329  1  0.24222642  0.75920687  0.72620058  1
  O2-  O330  1  0.57183200  0.09374282  0.22655217  1
  O2-  O331  1  0.57066477  0.09650648  0.72758683  1
  O2-  O332  1  0.56703298  0.43084349  0.23250253  1
  O2-  O333  1  0.56972911  0.43177138  0.73225219  1
  O2-  O334  1  0.57352910  0.76231771  0.23673842  1
  O2-  O335  1  0.57309734  0.76123537  0.73261942  1
  O2-  O336  1  0.90473592  0.09186936  0.23025817  1
  O2-  O337  1  0.90076710  0.09679790  0.73189604  1
  O2-  O338  1  0.90290807  0.42263912  0.22460403  1
  O2-  O339  1  0.90434801  0.42928487  0.72997971  1
  O2-  O340  1  0.91032902  0.75809159  0.23152904  1
  O2-  O341  1  0.90643166  0.75905393  0.72961177  1
  O2-  O342  1  0.26236852  0.26102685  0.02103297  1
  O2-  O343  1  0.26263468  0.25936352  0.52210145  1
  O2-  O344  1  0.26185925  0.59619650  0.02240186  1
  O2-  O345  1  0.26163896  0.59423404  0.52158890  1
  O2-  O346  1  0.26338260  0.92980609  0.01739232  1
  O2-  O347  1  0.26114987  0.92939485  0.52462469  1
  O2-  O348  1  0.59412598  0.26154008  0.02133436  1
  O2-  O349  1  0.59496258  0.26240981  0.51438299  1
  O2-  O350  1  0.59459041  0.59614203  0.02275813  1
  O2-  O351  1  0.59806313  0.59956495  0.51765656  1
  O2-  O352  1  0.59735268  0.93095768  0.01384770  1
  O2-  O353  1  0.59607149  0.92674716  0.52240282  1
  O2-  O354  1  0.92925125  0.25916653  0.02154658  1
  O2-  O355  1  0.92845923  0.26037613  0.51864616  1
  O2-  O356  1  0.92739582  0.59260155  0.02381691  1
  O2-  O357  1  0.92740307  0.59487813  0.51979482  1
  O2-  O358  1  0.92902565  0.92801008  0.01837636  1
  O2-  O359  1  0.92883562  0.92726712  0.52552386  1
