# generated using pymatgen
data_Sr7Ca15Pr50Mn72O216
_symmetry_space_group_name_H-M   'P 1'
_cell_length_a   16.55859653
_cell_length_b   16.60390789
_cell_length_c   15.59291038
_cell_angle_alpha   89.99739024
_cell_angle_beta   89.99309492
_cell_angle_gamma   89.99592873
_symmetry_Int_Tables_number   1
_chemical_formula_structural   Sr7Ca15Pr50Mn72O216
_chemical_formula_sum   'Sr7 Ca15 Pr50 Mn72 O216'
_cell_volume   4287.07437289
_cell_formula_units_Z   1
loop_
 _symmetry_equiv_pos_site_id
 _symmetry_equiv_pos_as_xyz
  1  'x, y, z'
loop_
 _atom_type_symbol
 _atom_type_oxidation_number
  Sr2+  2.0
  Ca2+  2.0
  Pr3+  3.0
  Mn3.30+  3.3
  O2-  -2.0
loop_
 _atom_site_type_symbol
 _atom_site_label
 _atom_site_symmetry_multiplicity
 _atom_site_fract_x
 _atom_site_fract_y
 _atom_site_fract_z
 _atom_site_occupancy
  Sr2+  Sr0  1  0.16674980  0.16135799  0.87729940  1
  Sr2+  Sr1  1  0.16601693  0.82442155  0.87432796  1
  Sr2+  Sr2  1  0.66516293  0.32717504  0.87588957  1
  Sr2+  Sr3  1  0.00340375  0.34148471  0.12501786  1
  Sr2+  Sr4  1  0.49792072  0.50613531  0.12566242  1
  Sr2+  Sr5  1  0.83175702  0.48853757  0.87509140  1
  Sr2+  Sr6  1  -0.00129428  0.01031495  0.62557550  1
  Ca2+  Ca7  1  0.17307371  0.18924121  0.12454937  1
  Ca2+  Ca8  1  0.33102229  0.34726335  0.12378711  1
  Ca2+  Ca9  1  0.66637644  0.98580323  0.37595143  1
  Ca2+  Ca10  1  0.49472975  0.48128403  0.87344596  1
  Ca2+  Ca11  1  0.50482802  0.51413624  0.62556547  1
  Ca2+  Ca12  1  0.33160762  0.67911605  0.12399420  1
  Ca2+  Ca13  1  0.33776178  0.32169655  0.87633516  1
  Ca2+  Ca14  1  0.66331478  0.68000698  0.62565307  1
  Ca2+  Ca15  1  0.16693662  0.48483594  0.37524571  1
  Ca2+  Ca16  1  0.49523168  0.15221041  0.37547444  1
  Ca2+  Ca17  1  0.33113957  0.34982733  0.62587091  1
  Ca2+  Ca18  1  0.32886261  0.01480017  0.62610011  1
  Ca2+  Ca19  1  0.83100813  0.48463025  0.37399983  1
  Ca2+  Ca20  1  0.49607743  0.48564186  0.37651253  1
  Ca2+  Ca21  1  0.82930347  0.81812279  0.87275098  1
  Pr3+  Pr22  1  0.50311593  0.84650383  0.62486084  1
  Pr3+  Pr23  1  -0.00141316  0.34361030  0.62535919  1
  Pr3+  Pr24  1  0.83647255  0.50846880  0.12424304  1
  Pr3+  Pr25  1  0.82967064  0.15242248  0.37374925  1
  Pr3+  Pr26  1  0.33866348  0.32129445  0.37493051  1
  Pr3+  Pr27  1  0.33498241  0.98820801  0.87450097  1
  Pr3+  Pr28  1  0.66495964  0.32419720  0.37439758  1
  Pr3+  Pr29  1  -0.00021502  0.67441912  0.12378126  1
  Pr3+  Pr30  1  0.49874374  0.82030279  0.37560636  1
  Pr3+  Pr31  1  -0.00147216  0.01360324  0.12389460  1
  Pr3+  Pr32  1  0.16391309  0.82035282  0.37532284  1
  Pr3+  Pr33  1  0.49548616  0.81880020  0.87515651  1
  Pr3+  Pr34  1  0.66884200  0.65272121  0.87372148  1
  Pr3+  Pr35  1  0.16417823  0.15638701  0.37233351  1
  Pr3+  Pr36  1  0.33354431  0.67813907  0.62516247  1
  Pr3+  Pr37  1  1.00334378  0.98733306  0.87388059  1
  Pr3+  Pr38  1  0.66376424  0.67596800  0.12479598  1
  Pr3+  Pr39  1  0.83414767  0.84552343  0.62589678  1
  Pr3+  Pr40  1  0.83038345  0.15901582  0.87612695  1
  Pr3+  Pr41  1  0.66958419  0.98708808  0.87432939  1
  Pr3+  Pr42  1  0.16700115  0.48789697  0.87313483  1
  Pr3+  Pr43  1  1.00486690  0.64906302  0.37513453  1
  Pr3+  Pr44  1  0.17072983  0.85107945  0.62712191  1
  Pr3+  Pr45  1  1.00339711  0.98634741  0.37553825  1
  Pr3+  Pr46  1  0.49452863  0.15937021  0.87490844  1
  Pr3+  Pr47  1  0.83441069  0.18116209  0.12583723  1
  Pr3+  Pr48  1  0.33648818  0.98826435  0.37538691  1
  Pr3+  Pr49  1  0.33936350  0.65073429  0.37433756  1
  Pr3+  Pr50  1  0.17221331  0.18012868  0.62450103  1
  Pr3+  Pr51  1  0.17595836  0.51092310  0.12618434  1
  Pr3+  Pr52  1  0.50078763  0.84330162  0.12546344  1
  Pr3+  Pr53  1  0.32842581  0.01690644  0.12429547  1
  Pr3+  Pr54  1  0.49822357  0.18034856  0.62245670  1
  Pr3+  Pr55  1  0.66232379  0.01318158  0.62254262  1
  Pr3+  Pr56  1  1.00333828  0.32225916  0.87610532  1
  Pr3+  Pr57  1  0.66942929  0.64997469  0.37661195  1
  Pr3+  Pr58  1  0.66130420  0.01299393  0.12771285  1
  Pr3+  Pr59  1  1.00402174  0.32277594  0.37435441  1
  Pr3+  Pr60  1  0.83554198  0.17806709  0.62448643  1
  Pr3+  Pr61  1  1.00275198  0.65426602  0.87460459  1
  Pr3+  Pr62  1  0.33934686  0.65127857  0.87573204  1
  Pr3+  Pr63  1  0.66248267  0.34744723  0.12420325  1
  Pr3+  Pr64  1  0.17171969  0.51192869  0.62314091  1
  Pr3+  Pr65  1  0.83681379  0.84424668  0.12349014  1
  Pr3+  Pr66  1  -0.00231834  0.67824149  0.62584646  1
  Pr3+  Pr67  1  0.83405768  0.51114863  0.62586778  1
  Pr3+  Pr68  1  0.66111086  0.34809473  0.62624412  1
  Pr3+  Pr69  1  0.17096342  0.84501800  0.12315840  1
  Pr3+  Pr70  1  0.82988502  0.82081724  0.37602027  1
  Pr3+  Pr71  1  0.50063449  0.18250240  0.12748393  1
  Mn3.30+  Mn72  1  0.16571369  0.00321107  -0.00019241  1
  Mn3.30+  Mn73  1  0.16850675  0.00242991  0.50027131  1
  Mn3.30+  Mn74  1  0.17082072  0.33487841  -0.00040320  1
  Mn3.30+  Mn75  1  0.17002605  0.33489055  0.49989446  1
  Mn3.30+  Mn76  1  0.16976357  0.66651545  -0.00089126  1
  Mn3.30+  Mn77  1  0.16806308  0.66582099  0.49947259  1
  Mn3.30+  Mn78  1  0.49930937  0.00073859  0.00077050  1
  Mn3.30+  Mn79  1  0.49827548  0.00144859  0.49910664  1
  Mn3.30+  Mn80  1  0.49706689  0.33444460  -0.00045171  1
  Mn3.30+  Mn81  1  0.49816221  0.33610140  0.50137288  1
  Mn3.30+  Mn82  1  0.49931341  0.66287376  0.00164261  1
  Mn3.30+  Mn83  1  0.50258674  0.66387362  0.50076209  1
  Mn3.30+  Mn84  1  0.83231882  -0.00072465  -0.00001371  1
  Mn3.30+  Mn85  1  0.83151568  -0.00070103  0.49868833  1
  Mn3.30+  Mn86  1  0.83312654  0.33398260  0.00056722  1
  Mn3.30+  Mn87  1  0.83195307  0.33392504  0.49869651  1
  Mn3.30+  Mn88  1  0.83276906  0.66651358  -0.00138902  1
  Mn3.30+  Mn89  1  0.83216924  0.66389340  0.50027189  1
  Mn3.30+  Mn90  1  0.00094678  0.16750242  0.24847704  1
  Mn3.30+  Mn91  1  0.00075513  0.16650460  0.74995739  1
  Mn3.30+  Mn92  1  0.00259019  0.49811696  0.25078020  1
  Mn3.30+  Mn93  1  0.00080449  0.49926310  0.74965420  1
  Mn3.30+  Mn94  1  0.00073263  0.83111000  0.24904658  1
  Mn3.30+  Mn95  1  -0.00142943  0.83327724  0.75095495  1
  Mn3.30+  Mn96  1  0.33261090  0.16977210  0.24966587  1
  Mn3.30+  Mn97  1  0.33274087  0.16816954  0.74970232  1
  Mn3.30+  Mn98  1  0.33462198  0.49977749  0.25147792  1
  Mn3.30+  Mn99  1  0.33782558  0.49783423  0.74819280  1
  Mn3.30+  Mn100  1  0.33298306  0.83208829  0.24966013  1
  Mn3.30+  Mn101  1  0.33392632  0.83401550  0.74961330  1
  Mn3.30+  Mn102  1  0.66359902  0.16571101  0.25372914  1
  Mn3.30+  Mn103  1  0.66464372  0.16779409  0.74948525  1
  Mn3.30+  Mn104  1  0.66647328  0.49909894  0.25260125  1
  Mn3.30+  Mn105  1  0.66394016  0.50103455  0.74966617  1
  Mn3.30+  Mn106  1  0.66682093  0.83285242  0.25050791  1
  Mn3.30+  Mn107  1  0.66662820  0.83206448  0.74994377  1
  Mn3.30+  Mn108  1  0.16685236  0.00211673  0.24842568  1
  Mn3.30+  Mn109  1  0.16734059  0.00387461  0.75056288  1
  Mn3.30+  Mn110  1  0.17031158  0.33634240  0.25012329  1
  Mn3.30+  Mn111  1  0.17069333  0.33333427  0.74977304  1
  Mn3.30+  Mn112  1  0.16960200  0.66473005  0.25064866  1
  Mn3.30+  Mn113  1  0.16818999  0.66765166  0.74977835  1
  Mn3.30+  Mn114  1  0.49896665  0.00069481  0.25238851  1
  Mn3.30+  Mn115  1  0.49867779  0.00145709  0.74867457  1
  Mn3.30+  Mn116  1  0.49840400  0.33468657  0.25139741  1
  Mn3.30+  Mn117  1  0.49592795  0.33489967  0.74857751  1
  Mn3.30+  Mn118  1  0.49960650  0.66332630  0.24924885  1
  Mn3.30+  Mn119  1  0.50232533  0.66343847  0.74895963  1
  Mn3.30+  Mn120  1  0.83101653  -0.00151024  0.24999801  1
  Mn3.30+  Mn121  1  0.83282383  -0.00012111  0.75082001  1
  Mn3.30+  Mn122  1  0.83398165  0.33462684  0.25154320  1
  Mn3.30+  Mn123  1  0.83104113  0.33315388  0.74991862  1
  Mn3.30+  Mn124  1  0.83401396  0.66384740  0.25161723  1
  Mn3.30+  Mn125  1  0.83093068  0.66683761  0.74898993  1
  Mn3.30+  Mn126  1  0.00124413  0.16798801  0.00201522  1
  Mn3.30+  Mn127  1  0.00020337  0.16633361  0.49977012  1
  Mn3.30+  Mn128  1  0.00258959  0.49869369  0.00078123  1
  Mn3.30+  Mn129  1  0.00056959  0.49814166  0.49851390  1
  Mn3.30+  Mn130  1  -0.00018972  0.83190828  -0.00158792  1
  Mn3.30+  Mn131  1  -0.00077936  0.83244849  0.50079588  1
  Mn3.30+  Mn132  1  0.33101236  0.17075285  0.00023285  1
  Mn3.30+  Mn133  1  0.33456108  0.16741989  0.49960521  1
  Mn3.30+  Mn134  1  0.33589911  0.49850010  -0.00032957  1
  Mn3.30+  Mn135  1  0.33672498  0.49920499  0.50095419  1
  Mn3.30+  Mn136  1  0.33321030  0.83179382  0.00046021  1
  Mn3.30+  Mn137  1  0.33326653  0.83410221  0.50048299  1
  Mn3.30+  Mn138  1  0.66467596  0.16728120  0.00035666  1
  Mn3.30+  Mn139  1  0.66409816  0.16680761  0.49704941  1
  Mn3.30+  Mn140  1  0.66509067  0.49977348  -0.00140869  1
  Mn3.30+  Mn141  1  0.66524500  0.50043732  0.50014640  1
  Mn3.30+  Mn142  1  0.66755520  0.83282810  -0.00051727  1
  Mn3.30+  Mn143  1  0.66595661  0.83239287  0.49965203  1
  O2-  O144  1  0.02730434  0.16069045  0.12632449  1
  O2-  O145  1  0.02552447  0.16643386  0.62341507  1
  O2-  O146  1  0.02928970  0.50242777  0.12530663  1
  O2-  O147  1  0.02681048  0.49406860  0.62423726  1
  O2-  O148  1  0.02711593  0.82419473  0.12513394  1
  O2-  O149  1  0.02591248  0.82682377  0.62457366  1
  O2-  O150  1  0.35847253  0.16175360  0.12698894  1
  O2-  O151  1  0.35578830  0.15605299  0.62332069  1
  O2-  O152  1  0.34879604  0.49132672  0.12503674  1
  O2-  O153  1  0.36205295  0.49615618  0.62509873  1
  O2-  O154  1  0.35673057  0.82792003  0.12652016  1
  O2-  O155  1  0.35934838  0.82658671  0.62536940  1
  O2-  O156  1  0.69055993  0.15997089  0.12860818  1
  O2-  O157  1  0.69167201  0.16068786  0.62121885  1
  O2-  O158  1  0.69121076  0.49717268  0.12798784  1
  O2-  O159  1  0.69164768  0.49452837  0.62360133  1
  O2-  O160  1  0.69329283  0.82551157  0.12392474  1
  O2-  O161  1  0.69035953  0.82817365  0.62304025  1
  O2-  O162  1  0.15230594  0.33926006  0.12575606  1
  O2-  O163  1  0.14224404  0.32914378  0.62390217  1
  O2-  O164  1  0.14341809  0.65963366  0.12516221  1
  O2-  O165  1  0.14232777  0.65995169  0.62297872  1
  O2-  O166  1  0.14150025  0.99161971  0.12455331  1
  O2-  O167  1  0.14820034  0.99998543  0.62367940  1
  O2-  O168  1  0.47474146  0.32931454  0.12692397  1
  O2-  O169  1  0.47155222  0.32615626  0.62347605  1
  O2-  O170  1  0.47468471  0.66314361  0.12600030  1
  O2-  O171  1  0.47591590  0.66017936  0.62393932  1
  O2-  O172  1  0.47359626  0.99285106  0.12603794  1
  O2-  O173  1  0.47156295  0.99388961  0.62257222  1
  O2-  O174  1  0.80782334  0.33007371  0.12722173  1
  O2-  O175  1  0.80661060  0.32486802  0.62211250  1
  O2-  O176  1  0.80881518  0.65798492  0.12679754  1
  O2-  O177  1  0.80550431  0.65849424  0.62343709  1
  O2-  O178  1  0.80443814  0.99144834  0.12329413  1
  O2-  O179  1  0.80654532  0.99550368  0.62271096  1
  O2-  O180  1  0.30693985  0.17350044  0.37334959  1
  O2-  O181  1  0.31616326  0.17547543  0.87570623  1
  O2-  O182  1  0.30824293  0.50605970  0.37772768  1
  O2-  O183  1  0.30951255  0.50727132  0.87222406  1
  O2-  O184  1  0.30721446  0.83985897  0.37482780  1
  O2-  O185  1  0.31615937  0.83820353  0.87352198  1
  O2-  O186  1  0.63562667  0.17731773  0.37575480  1
  O2-  O187  1  0.63991698  0.16767676  0.87535021  1
  O2-  O188  1  0.63859017  0.50251542  0.37724371  1
  O2-  O189  1  0.63959865  0.50555762  0.87160785  1
  O2-  O190  1  0.64208889  0.83874292  0.37570292  1
  O2-  O191  1  0.63836387  0.83976623  0.87679638  1
  O2-  O192  1  0.97603631  0.17247100  0.37369952  1
  O2-  O193  1  0.97513006  0.17372042  0.87678683  1
  O2-  O194  1  0.97300300  0.50287842  0.37616422  1
  O2-  O195  1  0.98162169  0.50542269  0.87406609  1
  O2-  O196  1  0.97540773  0.83822941  0.37461231  1
  O2-  O197  1  0.97254908  0.83873212  0.87497645  1
  O2-  O198  1  0.19171217  0.00559465  0.37384258  1
  O2-  O199  1  0.19098366  0.00446462  0.87709229  1
  O2-  O200  1  0.19350297  0.33671999  0.37719221  1
  O2-  O201  1  0.19435041  0.33890553  0.87257831  1
  O2-  O202  1  0.19458990  0.67544708  0.37696782  1
  O2-  O203  1  0.19384743  0.66774877  0.87412974  1
  O2-  O204  1  0.52445934  0.00484024  0.37480049  1
  O2-  O205  1  0.52535202  0.00817093  0.87680519  1
  O2-  O206  1  0.52233558  0.34183483  0.37713212  1
  O2-  O207  1  0.51649484  0.32942561  0.87352712  1
  O2-  O208  1  0.52604720  0.67455982  0.37546579  1
  O2-  O209  1  0.52514495  0.67405444  0.87505471  1
  O2-  O210  1  0.86021823  0.00330635  0.37547392  1
  O2-  O211  1  0.85939035  0.01146345  0.87804922  1
  O2-  O212  1  0.85943396  0.33878921  0.37605052  1
  O2-  O213  1  0.85703824  0.32989574  0.87557775  1
  O2-  O214  1  0.86163684  0.67438486  0.37584992  1
  O2-  O215  1  0.85888128  0.67337453  0.87326489  1
  O2-  O216  1  0.23849539  0.09794733  0.02392730  1
  O2-  O217  1  0.23573794  0.09948319  0.51306143  1
  O2-  O218  1  0.23625315  0.43460237  0.01138972  1
  O2-  O219  1  0.23926343  0.42921645  0.52057193  1
  O2-  O220  1  0.23774072  0.76082729  0.01965338  1
  O2-  O221  1  0.23747320  0.76334023  0.52166271  1
  O2-  O222  1  0.57122382  0.09398817  0.02390641  1
  O2-  O223  1  0.57057775  0.09314794  0.52246965  1
  O2-  O224  1  0.57458622  0.42298745  0.01668374  1
  O2-  O225  1  0.57208131  0.42947436  0.52465777  1
  O2-  O226  1  0.57172113  0.76100145  0.02132880  1
  O2-  O227  1  0.56887453  0.76330137  0.51778974  1
  O2-  O228  1  0.90299521  0.09297614  0.02426677  1
  O2-  O229  1  0.90125388  0.09523831  0.51569377  1
  O2-  O230  1  0.90994646  0.42751808  0.01901916  1
  O2-  O231  1  0.90502130  0.42461600  0.52422539  1
  O2-  O232  1  0.90632637  0.75758987  0.02284137  1
  O2-  O233  1  0.90363573  0.75834567  0.52277592  1
  O2-  O234  1  0.26609274  0.26758878  0.23233079  1
  O2-  O235  1  0.26087125  0.26102317  0.72419560  1
  O2-  O236  1  0.26633038  0.59783855  0.23077852  1
  O2-  O237  1  0.26420286  0.59384751  0.72825210  1
  O2-  O238  1  0.26072102  0.93087862  0.22918142  1
  O2-  O239  1  0.26188645  0.92968253  0.73114729  1
  O2-  O240  1  0.59432223  0.26091767  0.22959587  1
  O2-  O241  1  0.59097109  0.26023039  0.72658572  1
  O2-  O242  1  0.59872852  0.59678109  0.23480050  1
  O2-  O243  1  0.59798434  0.59907206  0.72975167  1
  O2-  O244  1  0.59317069  0.92446240  0.22781515  1
  O2-  O245  1  0.59509463  0.92899946  0.72934501  1
  O2-  O246  1  0.92394252  0.25766885  0.23214496  1
  O2-  O247  1  0.92722373  0.25925021  0.72965624  1
  O2-  O248  1  0.93083598  0.59317917  0.23060453  1
  O2-  O249  1  0.92674700  0.59286057  0.72878774  1
  O2-  O250  1  0.93112331  0.92448823  0.22775170  1
  O2-  O251  1  0.92357259  0.92525599  0.73157124  1
  O2-  O252  1  0.09660853  0.24373933  0.26930822  1
  O2-  O253  1  0.09107116  0.24296875  0.76733462  1
  O2-  O254  1  0.09677574  0.57103233  0.27389005  1
  O2-  O255  1  0.09568807  0.57424016  0.76773304  1
  O2-  O256  1  0.09405926  0.90328602  0.27035786  1
  O2-  O257  1  0.09259205  0.91019806  0.76514099  1
  O2-  O258  1  0.43013830  0.23686980  0.27232772  1
  O2-  O259  1  0.42961551  0.23446543  0.76263119  1
  O2-  O260  1  0.42912878  0.57097303  0.27410684  1
  O2-  O261  1  0.43006308  0.57093100  0.77239703  1
  O2-  O262  1  0.42747637  0.90539361  0.27127812  1
  O2-  O263  1  0.43027671  0.90630962  0.77060336  1
  O2-  O264  1  0.75810463  0.23768606  0.27173144  1
  O2-  O265  1  0.76125239  0.23583807  0.76583417  1
  O2-  O266  1  0.76258644  0.56971421  0.27373130  1
  O2-  O267  1  0.75981390  0.57432190  0.76859966  1
  O2-  O268  1  0.76383152  0.90289619  0.26800584  1
  O2-  O269  1  0.76040146  0.90539356  0.77107427  1
  O2-  O270  1  0.07331897  0.07298245  0.47628763  1
  O2-  O271  1  0.06745225  0.07031102  0.98275801  1
  O2-  O272  1  0.07101575  0.40298044  0.48217573  1
  O2-  O273  1  0.07610310  0.40797707  0.97631589  1
  O2-  O274  1  0.07098597  0.73830839  0.47886407  1
  O2-  O275  1  0.07103179  0.73514557  0.98174090  1
  O2-  O276  1  0.40416037  0.07199339  0.47754317  1
  O2-  O277  1  0.40194596  0.07261223  0.98169289  1
  O2-  O278  1  0.40383863  0.40518186  0.47972044  1
  O2-  O279  1  0.40369531  0.40336418  0.98048712  1
  O2-  O280  1  0.40535092  0.73744908  0.48056157  1
  O2-  O281  1  0.40849914  0.73682858  0.98021477  1
  O2-  O282  1  0.73713476  0.06983928  0.47566565  1
  O2-  O283  1  0.73706531  0.07142666  0.98071777  1
  O2-  O284  1  0.73537505  0.40302835  0.48236221  1
  O2-  O285  1  0.74081893  0.40725625  0.98806065  1
  O2-  O286  1  0.74124595  0.73758710  0.47660359  1
  O2-  O287  1  0.73597400  0.73925506  0.98070772  1
  O2-  O288  1  0.09620694  0.24013052  0.47903515  1
  O2-  O289  1  0.09196249  0.24676075  0.98432240  1
  O2-  O290  1  0.09700708  0.57168225  0.47786770  1
  O2-  O291  1  0.09694369  0.57372026  0.97906330  1
  O2-  O292  1  0.09610906  0.90749769  0.48084381  1
  O2-  O293  1  0.09034998  0.90812552  0.98214395  1
  O2-  O294  1  0.42847407  0.23650730  0.47871613  1
  O2-  O295  1  0.43103434  0.23480399  0.98717527  1
  O2-  O296  1  0.43062016  0.57260173  0.47723673  1
  O2-  O297  1  0.42888055  0.56924825  0.97631955  1
  O2-  O298  1  0.42814037  0.90523561  0.47760756  1
  O2-  O299  1  0.42924384  0.90618152  0.98117543  1
  O2-  O300  1  0.76121576  0.23862188  0.47641455  1
  O2-  O301  1  0.75946660  0.23553720  0.98654936  1
  O2-  O302  1  0.76424592  0.56817550  0.47661883  1
  O2-  O303  1  0.75897858  0.57573279  0.98145818  1
  O2-  O304  1  0.76176312  0.90360444  0.48175694  1
  O2-  O305  1  0.76255124  0.90453376  0.97599879  1
  O2-  O306  1  0.07045812  0.07042671  0.27061949  1
  O2-  O307  1  0.06959517  0.07385750  0.76995373  1
  O2-  O308  1  0.07294205  0.40561143  0.27170125  1
  O2-  O309  1  0.07423040  0.40536061  0.76942977  1
  O2-  O310  1  0.07138994  0.73675352  0.27104107  1
  O2-  O311  1  0.06907986  0.73770103  0.76744220  1
  O2-  O312  1  0.39974318  0.07080571  0.26706587  1
  O2-  O313  1  0.40505022  0.07332582  0.77271265  1
  O2-  O314  1  0.40470254  0.40601709  0.27016622  1
  O2-  O315  1  0.40195823  0.40234841  0.77093818  1
  O2-  O316  1  0.40822048  0.73916314  0.27248212  1
  O2-  O317  1  0.40645291  0.73590813  0.76802642  1
  O2-  O318  1  0.73299411  0.07242004  0.27426616  1
  O2-  O319  1  0.73736771  0.07142190  0.76922392  1
  O2-  O320  1  0.73818839  0.40445077  0.26950641  1
  O2-  O321  1  0.73793936  0.40667042  0.76187667  1
  O2-  O322  1  0.73912126  0.73794691  0.27163388  1
  O2-  O323  1  0.73740503  0.73994276  0.77004911  1
  O2-  O324  1  0.23610961  0.10097715  0.22874563  1
  O2-  O325  1  0.23881189  0.09762400  0.73271906  1
  O2-  O326  1  0.23689059  0.43336319  0.23880049  1
  O2-  O327  1  0.23785648  0.43143486  0.72985334  1
  O2-  O328  1  0.23569274  0.76493702  0.23298591  1
  O2-  O329  1  0.23922863  0.76080362  0.72662505  1
  O2-  O330  1  0.57002457  0.09327745  0.22827933  1
  O2-  O331  1  0.57093478  0.09399864  0.72639375  1
  O2-  O332  1  0.57675237  0.42318699  0.23158075  1
  O2-  O333  1  0.57012907  0.42755141  0.72819481  1
  O2-  O334  1  0.57229236  0.75987029  0.22905887  1
  O2-  O335  1  0.56869572  0.76379878  0.73232664  1
  O2-  O336  1  0.90172049  0.09127821  0.22884929  1
  O2-  O337  1  0.90254557  0.09681030  0.73274604  1
  O2-  O338  1  0.90738240  0.42929033  0.23011830  1
  O2-  O339  1  0.90736098  0.42408218  0.72776811  1
  O2-  O340  1  0.90631663  0.76011217  0.22853457  1
  O2-  O341  1  0.90431776  0.75742359  0.72540876  1
  O2-  O342  1  0.26348255  0.26474542  0.02049383  1
  O2-  O343  1  0.26375421  0.26251712  0.52157244  1
  O2-  O344  1  0.26480008  0.59662555  0.01926963  1
  O2-  O345  1  0.26564165  0.59434667  0.52138981  1
  O2-  O346  1  0.25993672  0.92967834  0.01908798  1
  O2-  O347  1  0.26159005  0.93108166  0.52037186  1
  O2-  O348  1  0.59212865  0.25921792  0.02331881  1
  O2-  O349  1  0.59260468  0.26376594  0.52138924  1
  O2-  O350  1  0.59610625  0.59715890  0.01760728  1
  O2-  O351  1  0.60149309  0.59969010  0.51782678  1
  O2-  O352  1  0.59653859  0.92683602  0.02189526  1
  O2-  O353  1  0.59095444  0.92817944  0.52152225  1
  O2-  O354  1  0.92380702  0.25690700  0.01999161  1
  O2-  O355  1  0.92740418  0.26077627  0.51958315  1
  O2-  O356  1  0.92889052  0.59200734  0.01891576  1
  O2-  O357  1  0.92871637  0.59384145  0.52157359  1
  O2-  O358  1  0.92620952  0.92737752  0.02306222  1
  O2-  O359  1  0.92425894  0.92435116  0.51791188  1
