# generated using pymatgen
data_Sr7Ca15Pr50Mn72O216
_symmetry_space_group_name_H-M   'P 1'
_cell_length_a   16.55972240
_cell_length_b   16.60416765
_cell_length_c   15.59393828
_cell_angle_alpha   90.00013743
_cell_angle_beta   90.00183700
_cell_angle_gamma   90.00423970
_symmetry_Int_Tables_number   1
_chemical_formula_structural   Sr7Ca15Pr50Mn72O216
_chemical_formula_sum   'Sr7 Ca15 Pr50 Mn72 O216'
_cell_volume   4287.71559973
_cell_formula_units_Z   1
loop_
 _symmetry_equiv_pos_site_id
 _symmetry_equiv_pos_as_xyz
  1  'x, y, z'
loop_
 _atom_type_symbol
 _atom_type_oxidation_number
  Sr2+  2.0
  Ca2+  2.0
  Pr3+  3.0
  Mn3.30+  3.3
  O2-  -2.0
loop_
 _atom_site_type_symbol
 _atom_site_label
 _atom_site_symmetry_multiplicity
 _atom_site_fract_x
 _atom_site_fract_y
 _atom_site_fract_z
 _atom_site_occupancy
  Sr2+  Sr0  1  0.83239296  0.49075148  0.37305607  1
  Sr2+  Sr1  1  0.33439762  0.32504998  0.87859194  1
  Sr2+  Sr2  1  0.16445723  0.82046124  0.37310012  1
  Sr2+  Sr3  1  1.00428104  0.65710109  0.37544528  1
  Sr2+  Sr4  1  0.83488295  0.17446694  0.12620082  1
  Sr2+  Sr5  1  0.17179449  0.50937087  0.12529583  1
  Sr2+  Sr6  1  0.83124975  0.82260188  0.87421474  1
  Ca2+  Ca7  1  0.66912713  0.32158202  0.37409139  1
  Ca2+  Ca8  1  0.66370168  0.01528989  0.12537085  1
  Ca2+  Ca9  1  0.83920871  0.51345871  0.12690249  1
  Ca2+  Ca10  1  -0.00102747  0.01294115  0.12709997  1
  Ca2+  Ca11  1  0.83622627  0.84509254  0.62466868  1
  Ca2+  Ca12  1  0.49543863  0.48644532  0.37591233  1
  Ca2+  Ca13  1  0.33208361  0.67900151  0.62490975  1
  Ca2+  Ca14  1  0.16217676  0.15144781  0.37369142  1
  Ca2+  Ca15  1  0.32921847  0.34908526  0.12532866  1
  Ca2+  Ca16  1  0.32578152  0.68183315  0.12496605  1
  Ca2+  Ca17  1  0.50240452  0.51695448  0.62412929  1
  Ca2+  Ca18  1  0.16865168  0.84417143  0.12840908  1
  Ca2+  Ca19  1  0.17192924  0.51921419  0.62432798  1
  Ca2+  Ca20  1  0.49414961  0.81692392  0.37423456  1
  Ca2+  Ca21  1  0.33690259  0.65182071  0.87607142  1
  Pr3+  Pr22  1  0.66857201  0.65393590  0.87559787  1
  Pr3+  Pr23  1  -0.00268432  0.00814381  0.62352620  1
  Pr3+  Pr24  1  0.66029170  0.34997103  0.62158905  1
  Pr3+  Pr25  1  0.50189713  0.17981222  0.62331508  1
  Pr3+  Pr26  1  1.00452245  0.32080809  0.37422285  1
  Pr3+  Pr27  1  0.67052468  0.98602374  0.87789499  1
  Pr3+  Pr28  1  0.16569462  0.15398187  0.87605057  1
  Pr3+  Pr29  1  0.33080565  0.35112615  0.62561292  1
  Pr3+  Pr30  1  0.66570836  0.01044223  0.62513524  1
  Pr3+  Pr31  1  0.83714410  0.18021155  0.62365138  1
  Pr3+  Pr32  1  -0.00191961  0.34854764  0.62427991  1
  Pr3+  Pr33  1  0.16496494  0.81849844  0.87693658  1
  Pr3+  Pr34  1  0.32959320  0.01169135  0.62329108  1
  Pr3+  Pr35  1  0.49514371  0.15376207  0.87567960  1
  Pr3+  Pr36  1  0.50059300  0.84260602  0.62260530  1
  Pr3+  Pr37  1  0.83429443  0.51319308  0.62302987  1
  Pr3+  Pr38  1  0.33676431  0.65393356  0.37448767  1
  Pr3+  Pr39  1  0.50322202  0.84587593  0.12737586  1
  Pr3+  Pr40  1  0.83256605  0.81988722  0.37487937  1
  Pr3+  Pr41  1  0.66674272  0.67537290  0.12618300  1
  Pr3+  Pr42  1  0.33376841  0.32409053  0.37257250  1
  Pr3+  Pr43  1  0.66766471  0.32141082  0.87554129  1
  Pr3+  Pr44  1  0.16783070  0.48793180  0.87392200  1
  Pr3+  Pr45  1  0.49706989  0.51112769  0.12612776  1
  Pr3+  Pr46  1  0.32958650  0.00982111  0.12668259  1
  Pr3+  Pr47  1  1.00455222  0.31973287  0.87550200  1
  Pr3+  Pr48  1  1.00354242  0.98801962  0.37114476  1
  Pr3+  Pr49  1  0.66606064  0.65411599  0.37426695  1
  Pr3+  Pr50  1  -0.00553770  0.34843242  0.12537304  1
  Pr3+  Pr51  1  0.17010992  0.18086500  0.12727829  1
  Pr3+  Pr52  1  0.17075103  0.17936326  0.62293134  1
  Pr3+  Pr53  1  0.00033543  0.67552181  0.12729068  1
  Pr3+  Pr54  1  0.66319752  0.67850547  0.62396090  1
  Pr3+  Pr55  1  0.49945072  0.15557308  0.37434953  1
  Pr3+  Pr56  1  0.17010733  0.84325834  0.62233497  1
  Pr3+  Pr57  1  0.83100538  0.15335104  0.87694473  1
  Pr3+  Pr58  1  0.83064535  0.15571625  0.37323977  1
  Pr3+  Pr59  1  0.33571474  0.98280713  0.37388895  1
  Pr3+  Pr60  1  0.83764437  0.84681030  0.12463386  1
  Pr3+  Pr61  1  0.49472474  0.81747586  0.87581045  1
  Pr3+  Pr62  1  0.67026393  0.98646761  0.37227490  1
  Pr3+  Pr63  1  0.83033682  0.48837003  0.87624795  1
  Pr3+  Pr64  1  -0.00192033  0.68107700  0.62334548  1
  Pr3+  Pr65  1  0.50344432  0.18001046  0.12634199  1
  Pr3+  Pr66  1  0.33590093  0.98713028  0.87640796  1
  Pr3+  Pr67  1  0.16264753  0.49252268  0.37549251  1
  Pr3+  Pr68  1  0.49433585  0.48785044  0.87381974  1
  Pr3+  Pr69  1  0.66738961  0.34524314  0.12842899  1
  Pr3+  Pr70  1  1.00134373  0.98599301  0.87842265  1
  Pr3+  Pr71  1  1.00273424  0.65437285  0.87501291  1
  Mn3.30+  Mn72  1  0.16628359  -0.00159976  0.00345318  1
  Mn3.30+  Mn73  1  0.16600341  0.00041754  0.49740757  1
  Mn3.30+  Mn74  1  0.16791244  0.33377999  0.00061128  1
  Mn3.30+  Mn75  1  0.16750898  0.33521543  0.50117048  1
  Mn3.30+  Mn76  1  0.17057319  0.66572212  0.00024607  1
  Mn3.30+  Mn77  1  0.16922962  0.66661745  0.50171893  1
  Mn3.30+  Mn78  1  0.50111905  -0.00075572  0.00177271  1
  Mn3.30+  Mn79  1  0.50000572  -0.00165216  0.49834554  1
  Mn3.30+  Mn80  1  0.49854244  0.33431076  0.00309374  1
  Mn3.30+  Mn81  1  0.49926488  0.33684337  0.49719138  1
  Mn3.30+  Mn82  1  0.49623077  0.66649018  0.00262464  1
  Mn3.30+  Mn83  1  0.49836411  0.66484704  0.49922512  1
  Mn3.30+  Mn84  1  0.83380349  -0.00019812  0.00306867  1
  Mn3.30+  Mn85  1  0.83349897  -0.00151002  0.49932190  1
  Mn3.30+  Mn86  1  0.83394097  0.33361466  0.00107112  1
  Mn3.30+  Mn87  1  0.83133208  0.33475688  0.49808267  1
  Mn3.30+  Mn88  1  0.83389653  0.66623423  0.00040639  1
  Mn3.30+  Mn89  1  0.83231155  0.66682412  0.49912447  1
  Mn3.30+  Mn90  1  0.00156057  0.16640653  0.24956226  1
  Mn3.30+  Mn91  1  0.00063117  0.16501136  0.74927179  1
  Mn3.30+  Mn92  1  -0.00012815  0.50069371  0.25054116  1
  Mn3.30+  Mn93  1  0.00145653  0.50117128  0.74833314  1
  Mn3.30+  Mn94  1  0.00280653  0.83313636  0.24711004  1
  Mn3.30+  Mn95  1  -0.00068604  0.83286547  0.75088397  1
  Mn3.30+  Mn96  1  0.33206705  0.16727088  0.25143157  1
  Mn3.30+  Mn97  1  0.33375537  0.16776800  0.74990794  1
  Mn3.30+  Mn98  1  0.33329776  0.50065693  0.25063594  1
  Mn3.30+  Mn99  1  0.33370140  0.50418733  0.74698748  1
  Mn3.30+  Mn100  1  0.33310842  0.83021781  0.24895544  1
  Mn3.30+  Mn101  1  0.33309729  0.83056982  0.75036384  1
  Mn3.30+  Mn102  1  0.66698220  0.16738755  0.24994732  1
  Mn3.30+  Mn103  1  0.66620000  0.16721475  0.74959700  1
  Mn3.30+  Mn104  1  0.66596561  0.49843986  0.25084345  1
  Mn3.30+  Mn105  1  0.66379777  0.50064219  0.74960198  1
  Mn3.30+  Mn106  1  0.66554559  0.83329263  0.25007391  1
  Mn3.30+  Mn107  1  0.66670451  0.83261236  0.74881115  1
  Mn3.30+  Mn108  1  0.16584076  -0.00038803  0.24873355  1
  Mn3.30+  Mn109  1  0.16665325  -0.00117397  0.75062461  1
  Mn3.30+  Mn110  1  0.16809615  0.33408794  0.25022557  1
  Mn3.30+  Mn111  1  0.16734108  0.33455669  0.74888104  1
  Mn3.30+  Mn112  1  0.16896079  0.66662391  0.24798845  1
  Mn3.30+  Mn113  1  0.17042363  0.66597512  0.75013321  1
  Mn3.30+  Mn114  1  0.50114443  -0.00116283  0.25084367  1
  Mn3.30+  Mn115  1  0.49975071  -0.00130627  0.74904075  1
  Mn3.30+  Mn116  1  0.49953122  0.33542175  0.25167484  1
  Mn3.30+  Mn117  1  0.49832917  0.33495080  0.74888165  1
  Mn3.30+  Mn118  1  0.49733527  0.66598669  0.24879046  1
  Mn3.30+  Mn119  1  0.49709463  0.66541162  0.74885719  1
  Mn3.30+  Mn120  1  0.83469793  0.00041247  0.24772614  1
  Mn3.30+  Mn121  1  0.83273817  -0.00172612  0.74964761  1
  Mn3.30+  Mn122  1  0.83294660  0.33413095  0.25116046  1
  Mn3.30+  Mn123  1  0.83263571  0.33388640  0.74938307  1
  Mn3.30+  Mn124  1  0.83321193  0.66495287  0.25035937  1
  Mn3.30+  Mn125  1  0.83297891  0.66799381  0.74928408  1
  Mn3.30+  Mn126  1  0.00010737  0.16513194  0.00186211  1
  Mn3.30+  Mn127  1  0.00222406  0.16652190  0.49940190  1
  Mn3.30+  Mn128  1  -0.00008497  0.50072595  0.00013976  1
  Mn3.30+  Mn129  1  0.00184587  0.50140304  0.50092676  1
  Mn3.30+  Mn130  1  0.00185739  0.83250161  0.00204333  1
  Mn3.30+  Mn131  1  0.00011306  0.83350500  0.49941342  1
  Mn3.30+  Mn132  1  0.33359375  0.16788491  0.00257277  1
  Mn3.30+  Mn133  1  0.33213520  0.16748332  0.49638564  1
  Mn3.30+  Mn134  1  0.33285303  0.50191966  0.00043636  1
  Mn3.30+  Mn135  1  0.33394621  0.50272458  0.50196939  1
  Mn3.30+  Mn136  1  0.33138972  0.83108680  0.00212480  1
  Mn3.30+  Mn137  1  0.33491041  0.82999755  0.49892709  1
  Mn3.30+  Mn138  1  0.66574297  0.16652083  0.00158693  1
  Mn3.30+  Mn139  1  0.66739180  0.16806139  0.49928069  1
  Mn3.30+  Mn140  1  0.66700270  0.49974032  0.00357973  1
  Mn3.30+  Mn141  1  0.66257135  0.49943359  0.49617544  1
  Mn3.30+  Mn142  1  0.66657516  0.83292582  0.00199145  1
  Mn3.30+  Mn143  1  0.66577740  0.83276523  0.49855152  1
  O2-  O144  1  0.02585408  0.16132257  0.12437526  1
  O2-  O145  1  0.02713787  0.15646462  0.62447525  1
  O2-  O146  1  0.02077831  0.49622315  0.12409726  1
  O2-  O147  1  0.02712613  0.49507471  0.62627806  1
  O2-  O148  1  0.02751333  0.82308101  0.12345694  1
  O2-  O149  1  0.02555815  0.83335072  0.62750081  1
  O2-  O150  1  0.36023141  0.15656704  0.12665262  1
  O2-  O151  1  0.35825814  0.15935373  0.62068903  1
  O2-  O152  1  0.35436364  0.49206226  0.12680771  1
  O2-  O153  1  0.36275220  0.49497490  0.62365133  1
  O2-  O154  1  0.35971592  0.83091669  0.12467648  1
  O2-  O155  1  0.35735157  0.82893758  0.62476125  1
  O2-  O156  1  0.68441599  0.16277432  0.12656893  1
  O2-  O157  1  0.69293650  0.15950832  0.62523933  1
  O2-  O158  1  0.69632237  0.49444867  0.12592199  1
  O2-  O159  1  0.69037132  0.49715359  0.62388067  1
  O2-  O160  1  0.69329833  0.82328002  0.12614719  1
  O2-  O161  1  0.69323946  0.82689463  0.62209510  1
  O2-  O162  1  0.13975234  0.32914773  0.12386248  1
  O2-  O163  1  0.14070627  0.32474029  0.62466266  1
  O2-  O164  1  0.14328346  0.66078019  0.12216109  1
  O2-  O165  1  0.14224953  0.66535013  0.62779070  1
  O2-  O166  1  0.14134783  0.99239496  0.12436127  1
  O2-  O167  1  0.14229163  0.99315329  0.62392499  1
  O2-  O168  1  0.47173548  0.32697392  0.12785888  1
  O2-  O169  1  0.47424659  0.32503511  0.62186226  1
  O2-  O170  1  0.46876384  0.65954877  0.12452398  1
  O2-  O171  1  0.47509829  0.66299924  0.62508756  1
  O2-  O172  1  0.47349429  0.99453482  0.12796977  1
  O2-  O173  1  0.47300370  0.99268293  0.62290090  1
  O2-  O174  1  0.81117818  0.32822037  0.12596055  1
  O2-  O175  1  0.80570443  0.32774709  0.62621695  1
  O2-  O176  1  0.81094645  0.66100375  0.12611525  1
  O2-  O177  1  0.80738685  0.66043471  0.62456092  1
  O2-  O178  1  0.80603854  0.99506941  0.12603296  1
  O2-  O179  1  0.80948140  0.99355754  0.62483611  1
  O2-  O180  1  0.30328085  0.17606579  0.37473504  1
  O2-  O181  1  0.30995271  0.16751694  0.87855591  1
  O2-  O182  1  0.30633142  0.50552581  0.37809580  1
  O2-  O183  1  0.31156450  0.50669955  0.87190648  1
  O2-  O184  1  0.31379458  0.83459575  0.37405429  1
  O2-  O185  1  0.30852370  0.84202679  0.87682825  1
  O2-  O186  1  0.64365304  0.17205538  0.37503655  1
  O2-  O187  1  0.63910224  0.17332348  0.87407598  1
  O2-  O188  1  0.63595127  0.50832485  0.37329594  1
  O2-  O189  1  0.63929974  0.50473604  0.87697431  1
  O2-  O190  1  0.63712884  0.83990151  0.37344689  1
  O2-  O191  1  0.63937513  0.83847900  0.87753445  1
  O2-  O192  1  0.97465533  0.17271588  0.37647222  1
  O2-  O193  1  0.97542993  0.17199884  0.87429603  1
  O2-  O194  1  0.98380757  0.49989323  0.37692135  1
  O2-  O195  1  0.97408320  0.50543111  0.87263965  1
  O2-  O196  1  0.97606764  0.83916051  0.37196460  1
  O2-  O197  1  0.98007885  0.83685832  0.87647900  1
  O2-  O198  1  0.19167827  0.00665094  0.37363397  1
  O2-  O199  1  0.19294755  0.00613255  0.87742551  1
  O2-  O200  1  0.19005321  0.34407228  0.37899571  1
  O2-  O201  1  0.18443340  0.33672144  0.87311026  1
  O2-  O202  1  0.19071673  0.66429730  0.37568984  1
  O2-  O203  1  0.19488493  0.67256035  0.87423386  1
  O2-  O204  1  0.52724963  0.00727769  0.37476005  1
  O2-  O205  1  0.52620419  0.00538065  0.87417748  1
  O2-  O206  1  0.52694895  0.34035129  0.37514432  1
  O2-  O207  1  0.52439731  0.33933313  0.87605183  1
  O2-  O208  1  0.52380067  0.67484499  0.37308551  1
  O2-  O209  1  0.52559086  0.67077590  0.87737210  1
  O2-  O210  1  0.85846304  0.00477976  0.37350539  1
  O2-  O211  1  0.85602315  0.00479457  0.87587716  1
  O2-  O212  1  0.85993396  0.33419315  0.37476477  1
  O2-  O213  1  0.85957917  0.34029380  0.87282913  1
  O2-  O214  1  0.85385002  0.67240614  0.37552852  1
  O2-  O215  1  0.85708331  0.66733303  0.87291436  1
  O2-  O216  1  0.23851432  0.09461911  0.02246028  1
  O2-  O217  1  0.23914478  0.09252323  0.52130427  1
  O2-  O218  1  0.24021810  0.42768252  0.00987632  1
  O2-  O219  1  0.23816638  0.43184760  0.52441632  1
  O2-  O220  1  0.23447029  0.76661694  0.01928487  1
  O2-  O221  1  0.23988531  0.76064819  0.51975120  1
  O2-  O222  1  0.56808732  0.09515240  0.01792852  1
  O2-  O223  1  0.57273352  0.09370602  0.52045768  1
  O2-  O224  1  0.57496211  0.42726124  0.02506354  1
  O2-  O225  1  0.56817771  0.42986227  0.52428406  1
  O2-  O226  1  0.56959781  0.76014897  0.02204578  1
  O2-  O227  1  0.57312161  0.75971196  0.52207672  1
  O2-  O228  1  0.90749487  0.09436712  0.01376480  1
  O2-  O229  1  0.90587096  0.09522457  0.52047067  1
  O2-  O230  1  0.90318963  0.42975514  0.01860693  1
  O2-  O231  1  0.90489510  0.42588045  0.52300489  1
  O2-  O232  1  0.90800320  0.75999387  0.02225219  1
  O2-  O233  1  0.90531773  0.76289726  0.52029411  1
  O2-  O234  1  0.26237431  0.26269624  0.22728078  1
  O2-  O235  1  0.26030215  0.26101227  0.72752843  1
  O2-  O236  1  0.26652054  0.59821074  0.23400158  1
  O2-  O237  1  0.26420172  0.59758480  0.72742384  1
  O2-  O238  1  0.26443438  0.92830855  0.23476218  1
  O2-  O239  1  0.26168274  0.92878314  0.72933909  1
  O2-  O240  1  0.59174191  0.26089351  0.22982170  1
  O2-  O241  1  0.59576602  0.26196225  0.72856006  1
  O2-  O242  1  0.59093775  0.59327056  0.22611158  1
  O2-  O243  1  0.59634886  0.59748393  0.73288329  1
  O2-  O244  1  0.59799759  0.92863003  0.22680630  1
  O2-  O245  1  0.59316961  0.92650265  0.72761749  1
  O2-  O246  1  0.93314089  0.26291716  0.23384395  1
  O2-  O247  1  0.92897956  0.26058114  0.72763627  1
  O2-  O248  1  0.92750116  0.59263565  0.23193411  1
  O2-  O249  1  0.92792123  0.59440384  0.72779770  1
  O2-  O250  1  0.92791549  0.92745965  0.22617317  1
  O2-  O251  1  0.93075832  0.92899352  0.73481677  1
  O2-  O252  1  0.09747366  0.23824908  0.27111228  1
  O2-  O253  1  0.09419424  0.23573128  0.76890801  1
  O2-  O254  1  0.09635317  0.57150457  0.26547792  1
  O2-  O255  1  0.09623291  0.57510604  0.77286531  1
  O2-  O256  1  0.09159284  0.90949868  0.26910656  1
  O2-  O257  1  0.09579879  0.90495415  0.77164950  1
  O2-  O258  1  0.42869730  0.23980831  0.27320191  1
  O2-  O259  1  0.43093421  0.23609520  0.76580349  1
  O2-  O260  1  0.42898477  0.56990143  0.27221252  1
  O2-  O261  1  0.43058044  0.57164993  0.76984026  1
  O2-  O262  1  0.43068938  0.90432566  0.27026252  1
  O2-  O263  1  0.42778505  0.90415956  0.77042565  1
  O2-  O264  1  0.76193737  0.23966075  0.26967951  1
  O2-  O265  1  0.76282470  0.23950962  0.77172658  1
  O2-  O266  1  0.75281130  0.57583790  0.26970952  1
  O2-  O267  1  0.75951884  0.57005595  0.76964058  1
  O2-  O268  1  0.76312959  0.90498503  0.27101413  1
  O2-  O269  1  0.75563344  0.90941836  0.76917541  1
  O2-  O270  1  0.06843337  0.07148380  0.47994837  1
  O2-  O271  1  0.07446750  0.07368119  0.97731905  1
  O2-  O272  1  0.07128825  0.40344358  0.48311401  1
  O2-  O273  1  0.06960262  0.40659526  0.97942381  1
  O2-  O274  1  0.07268250  0.74033725  0.48974222  1
  O2-  O275  1  0.07343167  0.73645359  0.97818315  1
  O2-  O276  1  0.40526159  0.07209533  0.47627710  1
  O2-  O277  1  0.40521251  0.07036683  0.98040697  1
  O2-  O278  1  0.39993830  0.40337467  0.48151853  1
  O2-  O279  1  0.41074989  0.41049083  0.98299799  1
  O2-  O280  1  0.40675612  0.73711169  0.48165105  1
  O2-  O281  1  0.40407484  0.73986220  0.97696074  1
  O2-  O282  1  0.73949275  0.07066950  0.47960058  1
  O2-  O283  1  0.73805134  0.07520960  0.97855755  1
  O2-  O284  1  0.72939731  0.40474780  0.48224314  1
  O2-  O285  1  0.73748126  0.40564688  0.97837693  1
  O2-  O286  1  0.73592736  0.74033097  0.47715211  1
  O2-  O287  1  0.73509820  0.73709525  0.98340514  1
  O2-  O288  1  0.09651621  0.23645013  0.47940841  1
  O2-  O289  1  0.09534955  0.23734161  0.98009011  1
  O2-  O290  1  0.09878911  0.57240571  0.48684698  1
  O2-  O291  1  0.09526596  0.57293874  0.97485360  1
  O2-  O292  1  0.09174225  0.90893169  0.48104127  1
  O2-  O293  1  0.09417546  0.90656528  0.97691006  1
  O2-  O294  1  0.42812435  0.23987697  0.47663757  1
  O2-  O295  1  0.43091840  0.23495450  0.98383886  1
  O2-  O296  1  0.42845903  0.57187987  0.47475180  1
  O2-  O297  1  0.43107034  0.57035863  0.98215521  1
  O2-  O298  1  0.42896333  0.90329872  0.47876142  1
  O2-  O299  1  0.42973798  0.90487867  0.98089867  1
  O2-  O300  1  0.76477479  0.23668967  0.48339703  1
  O2-  O301  1  0.76042960  0.24124943  0.97670817  1
  O2-  O302  1  0.75607989  0.57302893  0.48217693  1
  O2-  O303  1  0.75843698  0.57246799  0.97811263  1
  O2-  O304  1  0.75837374  0.90536923  0.47503771  1
  O2-  O305  1  0.75934053  0.90650865  0.98327443  1
  O2-  O306  1  0.07247991  0.07366040  0.26910207  1
  O2-  O307  1  0.07212552  0.06951886  0.77198633  1
  O2-  O308  1  0.07185555  0.40475686  0.26801569  1
  O2-  O309  1  0.07058273  0.40489936  0.76943321  1
  O2-  O310  1  0.07300747  0.73763758  0.26287766  1
  O2-  O311  1  0.07198763  0.73836703  0.76949813  1
  O2-  O312  1  0.40445289  0.07223683  0.27406516  1
  O2-  O313  1  0.40568024  0.07060087  0.76909683  1
  O2-  O314  1  0.40650909  0.40671752  0.27163374  1
  O2-  O315  1  0.40521707  0.40687289  0.76679246  1
  O2-  O316  1  0.40531135  0.73793311  0.26799419  1
  O2-  O317  1  0.40587354  0.73816664  0.77357160  1
  O2-  O318  1  0.74048441  0.07347246  0.27168054  1
  O2-  O319  1  0.73744883  0.07352435  0.77152478  1
  O2-  O320  1  0.73422931  0.40245501  0.26917071  1
  O2-  O321  1  0.73566927  0.40636552  0.77041680  1
  O2-  O322  1  0.73817253  0.74095196  0.27111142  1
  O2-  O323  1  0.73456969  0.73636759  0.76782120  1
  O2-  O324  1  0.23883384  0.09217767  0.22698992  1
  O2-  O325  1  0.23836569  0.09451295  0.72984017  1
  O2-  O326  1  0.24001906  0.42754176  0.23817722  1
  O2-  O327  1  0.23887688  0.43214868  0.72894648  1
  O2-  O328  1  0.23898621  0.76169265  0.22851617  1
  O2-  O329  1  0.23519198  0.76522546  0.73295253  1
  O2-  O330  1  0.56922407  0.09523944  0.23401540  1
  O2-  O331  1  0.57117333  0.09344149  0.72720958  1
  O2-  O332  1  0.57311999  0.42628490  0.22408163  1
  O2-  O333  1  0.57125999  0.42980958  0.72824272  1
  O2-  O334  1  0.57294777  0.75754164  0.22555474  1
  O2-  O335  1  0.56972250  0.76110140  0.73025997  1
  O2-  O336  1  0.90767418  0.09365338  0.23608640  1
  O2-  O337  1  0.90510245  0.09419935  0.72962687  1
  O2-  O338  1  0.90565502  0.42668827  0.22887317  1
  O2-  O339  1  0.90276927  0.42771635  0.72790018  1
  O2-  O340  1  0.90633286  0.76200404  0.22995173  1
  O2-  O341  1  0.90756412  0.76161101  0.72594673  1
  O2-  O342  1  0.26182291  0.25873632  0.02471441  1
  O2-  O343  1  0.26153059  0.26419805  0.52201210  1
  O2-  O344  1  0.26498618  0.59824233  0.01724167  1
  O2-  O345  1  0.26652808  0.59793259  0.52051067  1
  O2-  O346  1  0.26464651  0.93049173  0.01798045  1
  O2-  O347  1  0.26294056  0.92623499  0.51766681  1
  O2-  O348  1  0.59479416  0.26233191  0.02082999  1
  O2-  O349  1  0.59267374  0.26035423  0.52134615  1
  O2-  O350  1  0.59416764  0.59347454  0.02327263  1
  O2-  O351  1  0.59471073  0.59723858  0.51748314  1
  O2-  O352  1  0.59560066  0.92837622  0.02327559  1
  O2-  O353  1  0.59618416  0.92681288  0.52211506  1
  O2-  O354  1  0.93239836  0.26366797  0.01519887  1
  O2-  O355  1  0.93229007  0.25910817  0.52273977  1
  O2-  O356  1  0.93147061  0.59543052  0.01578580  1
  O2-  O357  1  0.92700931  0.59210077  0.52295394  1
  O2-  O358  1  0.92978686  0.92705470  0.02223377  1
  O2-  O359  1  0.92759882  0.92864925  0.51667111  1
