# generated using pymatgen
data_Sr7Ca15Pr50Mn72O216
_symmetry_space_group_name_H-M   'P 1'
_cell_length_a   16.55961227
_cell_length_b   16.60651663
_cell_length_c   15.59225696
_cell_angle_alpha   89.99711353
_cell_angle_beta   89.99391638
_cell_angle_gamma   90.01148267
_symmetry_Int_Tables_number   1
_chemical_formula_structural   Sr7Ca15Pr50Mn72O216
_chemical_formula_sum   'Sr7 Ca15 Pr50 Mn72 O216'
_cell_volume   4287.83120289
_cell_formula_units_Z   1
loop_
 _symmetry_equiv_pos_site_id
 _symmetry_equiv_pos_as_xyz
  1  'x, y, z'
loop_
 _atom_type_symbol
 _atom_type_oxidation_number
  Sr2+  2.0
  Ca2+  2.0
  Pr3+  3.0
  Mn3.30+  3.3
  O2-  -2.0
loop_
 _atom_site_type_symbol
 _atom_site_label
 _atom_site_symmetry_multiplicity
 _atom_site_fract_x
 _atom_site_fract_y
 _atom_site_fract_z
 _atom_site_occupancy
  Sr2+  Sr0  1  0.66871372  0.32100391  0.87562186  1
  Sr2+  Sr1  1  0.33017729  0.01250043  0.12410369  1
  Sr2+  Sr2  1  1.00122234  0.32765663  0.87389670  1
  Sr2+  Sr3  1  -0.00247336  0.34599560  0.62611542  1
  Sr2+  Sr4  1  1.00080446  0.99111278  0.87421336  1
  Sr2+  Sr5  1  1.00169412  0.65710361  0.87571041  1
  Sr2+  Sr6  1  0.50178637  0.84300420  0.62668532  1
  Ca2+  Ca7  1  0.83223484  0.81970550  0.87778170  1
  Ca2+  Ca8  1  0.83723128  0.51361002  0.12144039  1
  Ca2+  Ca9  1  1.00365485  0.31938814  0.37540100  1
  Ca2+  Ca10  1  0.66948489  0.98397669  0.37494715  1
  Ca2+  Ca11  1  0.49570702  0.15271620  0.87490534  1
  Ca2+  Ca12  1  0.16073198  0.48683722  0.87523950  1
  Ca2+  Ca13  1  0.83840283  0.84828210  0.12323883  1
  Ca2+  Ca14  1  0.32838086  0.68263321  0.12582644  1
  Ca2+  Ca15  1  0.49709003  0.81987805  0.87537701  1
  Ca2+  Ca16  1  0.16530603  0.81809364  0.37344335  1
  Ca2+  Ca17  1  0.33273109  0.01408210  0.62682984  1
  Ca2+  Ca18  1  0.83797624  0.51214305  0.62921906  1
  Ca2+  Ca19  1  0.16899628  0.18012269  0.12192801  1
  Ca2+  Ca20  1  0.33483153  0.65432689  0.37340219  1
  Ca2+  Ca21  1  0.33643306  0.31637485  0.87511962  1
  Pr3+  Pr22  1  0.66486167  0.01068037  0.12655068  1
  Pr3+  Pr23  1  0.83669278  0.17957838  0.62576186  1
  Pr3+  Pr24  1  0.66918223  0.32042859  0.37473491  1
  Pr3+  Pr25  1  0.83593183  0.84411133  0.62688118  1
  Pr3+  Pr26  1  0.83143327  0.48682744  0.87575993  1
  Pr3+  Pr27  1  0.17055910  0.84516864  0.12481528  1
  Pr3+  Pr28  1  0.33894982  0.98771734  0.87523836  1
  Pr3+  Pr29  1  0.49557023  0.48877806  0.37491243  1
  Pr3+  Pr30  1  0.49935613  0.51375027  0.12384910  1
  Pr3+  Pr31  1  0.17280429  0.84775762  0.62507562  1
  Pr3+  Pr32  1  -0.00260373  0.01324587  0.62612146  1
  Pr3+  Pr33  1  0.66684152  0.68025238  0.12469766  1
  Pr3+  Pr34  1  -0.00160092  0.01210510  0.12389320  1
  Pr3+  Pr35  1  0.16669917  0.51283697  0.62735321  1
  Pr3+  Pr36  1  -0.00180036  0.67543372  0.62626406  1
  Pr3+  Pr37  1  0.32806397  0.34690014  0.62673356  1
  Pr3+  Pr38  1  1.00648799  0.98390280  0.37553284  1
  Pr3+  Pr39  1  0.16344921  0.15561163  0.37376714  1
  Pr3+  Pr40  1  0.50087115  0.17686502  0.62694391  1
  Pr3+  Pr41  1  0.32743238  0.34218592  0.12272929  1
  Pr3+  Pr42  1  0.49670413  0.15139353  0.37468216  1
  Pr3+  Pr43  1  0.66327777  0.34742629  0.12319505  1
  Pr3+  Pr44  1  0.50097757  0.17827866  0.12301835  1
  Pr3+  Pr45  1  0.66891834  0.98632429  0.87546214  1
  Pr3+  Pr46  1  0.66196472  0.01009255  0.62373930  1
  Pr3+  Pr47  1  0.33088058  0.67985521  0.62442295  1
  Pr3+  Pr48  1  0.33589158  0.65651384  0.87726221  1
  Pr3+  Pr49  1  0.16401295  0.15602535  0.87630185  1
  Pr3+  Pr50  1  1.00374069  0.65522471  0.37398021  1
  Pr3+  Pr51  1  0.16261811  0.48673875  0.37408210  1
  Pr3+  Pr52  1  0.83218356  0.48727562  0.37405841  1
  Pr3+  Pr53  1  0.83040871  0.82063071  0.37358790  1
  Pr3+  Pr54  1  0.66440419  0.67943899  0.62534513  1
  Pr3+  Pr55  1  0.16301039  0.82343756  0.87608485  1
  Pr3+  Pr56  1  0.16858976  0.18075954  0.62688258  1
  Pr3+  Pr57  1  0.66906956  0.65494773  0.37510770  1
  Pr3+  Pr58  1  0.83171273  0.15213791  0.37542119  1
  Pr3+  Pr59  1  0.33529066  0.31949421  0.37522874  1
  Pr3+  Pr60  1  0.33526054  0.98680475  0.37436413  1
  Pr3+  Pr61  1  0.50184272  0.51255334  0.62625668  1
  Pr3+  Pr62  1  0.49986278  0.84538482  0.12333895  1
  Pr3+  Pr63  1  0.49629689  0.48515198  0.87559283  1
  Pr3+  Pr64  1  0.17038557  0.51544987  0.12291694  1
  Pr3+  Pr65  1  0.83127127  0.15671680  0.87455005  1
  Pr3+  Pr66  1  0.67030186  0.65747648  0.87467288  1
  Pr3+  Pr67  1  0.49776624  0.81887286  0.37493733  1
  Pr3+  Pr68  1  -0.00136583  0.34725285  0.12393803  1
  Pr3+  Pr69  1  0.83591231  0.17772772  0.12427603  1
  Pr3+  Pr70  1  0.66509842  0.34612082  0.62680701  1
  Pr3+  Pr71  1  -0.00459460  0.68168455  0.12359273  1
  Mn3.30+  Mn72  1  0.16744563  0.00170868  0.00005016  1
  Mn3.30+  Mn73  1  0.16908677  -0.00016632  0.50040962  1
  Mn3.30+  Mn74  1  0.16696245  0.33436991  -0.00250529  1
  Mn3.30+  Mn75  1  0.16486424  0.33438720  0.50030549  1
  Mn3.30+  Mn76  1  0.16749987  0.66689207  0.00028219  1
  Mn3.30+  Mn77  1  0.16791350  0.66758806  0.49746653  1
  Mn3.30+  Mn78  1  0.50007348  0.00044746  -0.00071163  1
  Mn3.30+  Mn79  1  0.49960417  -0.00232308  0.50026217  1
  Mn3.30+  Mn80  1  0.49687538  0.33115559  -0.00266164  1
  Mn3.30+  Mn81  1  0.49960487  0.33272179  0.50118733  1
  Mn3.30+  Mn82  1  0.49876731  0.66826957  0.00107142  1
  Mn3.30+  Mn83  1  0.49865911  0.66625998  0.49890736  1
  Mn3.30+  Mn84  1  0.83318208  -0.00214960  -0.00046918  1
  Mn3.30+  Mn85  1  0.83264875  -0.00152338  0.49948164  1
  Mn3.30+  Mn86  1  0.83260469  0.33383017  0.00121156  1
  Mn3.30+  Mn87  1  0.83559172  0.33461325  0.49889655  1
  Mn3.30+  Mn88  1  0.83424889  0.66769919  -0.00020094  1
  Mn3.30+  Mn89  1  0.83409250  0.66485436  0.50092630  1
  Mn3.30+  Mn90  1  0.00122563  0.16774180  0.24929504  1
  Mn3.30+  Mn91  1  0.00037890  0.16871533  0.75146243  1
  Mn3.30+  Mn92  1  -0.00114678  0.49994966  0.24881088  1
  Mn3.30+  Mn93  1  0.00023197  0.50079916  0.75112110  1
  Mn3.30+  Mn94  1  0.00078831  0.83343646  0.24976227  1
  Mn3.30+  Mn95  1  0.00060766  0.83328740  0.75119432  1
  Mn3.30+  Mn96  1  0.33061540  0.16618675  0.24835923  1
  Mn3.30+  Mn97  1  0.33457222  0.16616035  0.75089011  1
  Mn3.30+  Mn98  1  0.33166392  0.50167890  0.24894646  1
  Mn3.30+  Mn99  1  0.33139533  0.49966821  0.75377024  1
  Mn3.30+  Mn100  1  0.33184559  0.83132100  0.25198907  1
  Mn3.30+  Mn101  1  0.33525553  0.83495086  0.74936150  1
  Mn3.30+  Mn102  1  0.66694039  0.16523327  0.25087904  1
  Mn3.30+  Mn103  1  0.66488232  0.16570598  0.75126922  1
  Mn3.30+  Mn104  1  0.66719482  0.50080968  0.24856530  1
  Mn3.30+  Mn105  1  0.66793531  0.49995378  0.74961375  1
  Mn3.30+  Mn106  1  0.66830593  0.83404446  0.24845664  1
  Mn3.30+  Mn107  1  0.66667901  0.83296468  0.75277922  1
  Mn3.30+  Mn108  1  0.16777324  -0.00003411  0.25022357  1
  Mn3.30+  Mn109  1  0.16891382  0.00136328  0.74930845  1
  Mn3.30+  Mn110  1  0.16454506  0.33265841  0.24927119  1
  Mn3.30+  Mn111  1  0.16722814  0.33630390  0.75290730  1
  Mn3.30+  Mn112  1  0.16883862  0.66772370  0.25066869  1
  Mn3.30+  Mn113  1  0.16651801  0.66669810  0.75140363  1
  Mn3.30+  Mn114  1  0.50070684  -0.00124106  0.25043670  1
  Mn3.30+  Mn115  1  0.49942991  -0.00088473  0.75030278  1
  Mn3.30+  Mn116  1  0.49885635  0.33338328  0.24905939  1
  Mn3.30+  Mn117  1  0.49746164  0.33099304  0.75223848  1
  Mn3.30+  Mn118  1  0.49703344  0.66663903  0.24815503  1
  Mn3.30+  Mn119  1  0.50020211  0.66778715  0.75210845  1
  Mn3.30+  Mn120  1  0.83358772  -0.00174471  0.25068651  1
  Mn3.30+  Mn121  1  0.83231597  -0.00173953  0.75126126  1
  Mn3.30+  Mn122  1  0.83475660  0.33418930  0.24973651  1
  Mn3.30+  Mn123  1  0.83306083  0.33424472  0.74990439  1
  Mn3.30+  Mn124  1  0.83426481  0.66644610  0.24795697  1
  Mn3.30+  Mn125  1  0.83415555  0.66612993  0.75135565  1
  Mn3.30+  Mn126  1  0.00189728  0.16821606  0.00036724  1
  Mn3.30+  Mn127  1  -0.00021438  0.16816517  0.49873845  1
  Mn3.30+  Mn128  1  0.00124195  0.50153326  -0.00010764  1
  Mn3.30+  Mn129  1  -0.00214170  0.49905102  0.49977570  1
  Mn3.30+  Mn130  1  -0.00166007  0.83481436  -0.00175598  1
  Mn3.30+  Mn131  1  0.00279134  0.83202833  0.50066302  1
  Mn3.30+  Mn132  1  0.33282397  0.16698071  -0.00143444  1
  Mn3.30+  Mn133  1  0.33265956  0.16494012  0.50144242  1
  Mn3.30+  Mn134  1  0.33076852  0.49913361  -0.00183086  1
  Mn3.30+  Mn135  1  0.33208858  0.50166266  0.49938467  1
  Mn3.30+  Mn136  1  0.33418693  0.83302091  0.00007225  1
  Mn3.30+  Mn137  1  0.33275236  0.83358710  0.49869188  1
  Mn3.30+  Mn138  1  0.66508278  0.16585131  -0.00106174  1
  Mn3.30+  Mn139  1  0.66670949  0.16472538  0.49914036  1
  Mn3.30+  Mn140  1  0.66711493  0.50124837  0.00105066  1
  Mn3.30+  Mn141  1  0.66825984  0.49975543  0.50092483  1
  Mn3.30+  Mn142  1  0.66848073  0.83352617  0.00051842  1
  Mn3.30+  Mn143  1  0.66651760  0.83380391  0.49888239  1
  O2-  O144  1  0.02592539  0.16049282  0.12623149  1
  O2-  O145  1  0.02259476  0.16178893  0.62441490  1
  O2-  O146  1  0.02571403  0.49656564  0.12593806  1
  O2-  O147  1  0.02271144  0.50401958  0.62254124  1
  O2-  O148  1  0.02580009  0.83097394  0.12480201  1
  O2-  O149  1  0.02756454  0.82652112  0.62377782  1
  O2-  O150  1  0.35687138  0.17060076  0.12411264  1
  O2-  O151  1  0.35748961  0.16194520  0.62473477  1
  O2-  O152  1  0.35751815  0.48875630  0.12388023  1
  O2-  O153  1  0.35832476  0.49493640  0.62720341  1
  O2-  O154  1  0.35674356  0.82774300  0.12823354  1
  O2-  O155  1  0.35348930  0.82590117  0.62341826  1
  O2-  O156  1  0.69191538  0.15952604  0.12755923  1
  O2-  O157  1  0.69278092  0.15781935  0.62181758  1
  O2-  O158  1  0.69295898  0.49525761  0.12607428  1
  O2-  O159  1  0.69432057  0.49410674  0.62346359  1
  O2-  O160  1  0.69568617  0.82904087  0.12527931  1
  O2-  O161  1  0.69090532  0.82945960  0.62523739  1
  O2-  O162  1  0.14341927  0.32597306  0.12559794  1
  O2-  O163  1  0.14844811  0.32922313  0.62477466  1
  O2-  O164  1  0.14022411  0.66364104  0.12519470  1
  O2-  O165  1  0.14295707  0.66157114  0.62348750  1
  O2-  O166  1  0.14215596  0.99180906  0.12682660  1
  O2-  O167  1  0.14103051  0.99502612  0.62383121  1
  O2-  O168  1  0.47240656  0.32740119  0.12215250  1
  O2-  O169  1  0.47230179  0.32687950  0.62568693  1
  O2-  O170  1  0.47021562  0.66159420  0.12515049  1
  O2-  O171  1  0.47570486  0.66075256  0.62572518  1
  O2-  O172  1  0.47970206  0.99375382  0.12588548  1
  O2-  O173  1  0.47553208  0.99715782  0.62490748  1
  O2-  O174  1  0.80577352  0.32453361  0.12667131  1
  O2-  O175  1  0.80771761  0.32626724  0.62331564  1
  O2-  O176  1  0.80901617  0.65702642  0.12495492  1
  O2-  O177  1  0.80786120  0.65811237  0.62469594  1
  O2-  O178  1  0.80891892  0.99523437  0.12587835  1
  O2-  O179  1  0.80638625  0.99270174  0.62562158  1
  O2-  O180  1  0.30889474  0.17086284  0.37587338  1
  O2-  O181  1  0.30794043  0.16933951  0.87423853  1
  O2-  O182  1  0.30762898  0.50681426  0.37288368  1
  O2-  O183  1  0.30282866  0.51186191  0.87585521  1
  O2-  O184  1  0.30592214  0.84161315  0.37609748  1
  O2-  O185  1  0.30757588  0.83880373  0.87257927  1
  O2-  O186  1  0.63969612  0.17465886  0.37531817  1
  O2-  O187  1  0.64021648  0.16613146  0.87554548  1
  O2-  O188  1  0.63963380  0.50488151  0.37405253  1
  O2-  O189  1  0.64077416  0.50783346  0.87650863  1
  O2-  O190  1  0.64331971  0.83502913  0.37260725  1
  O2-  O191  1  0.63960357  0.83666077  0.87724508  1
  O2-  O192  1  0.97570004  0.17181163  0.37424422  1
  O2-  O193  1  0.97596026  0.17004408  0.87543729  1
  O2-  O194  1  0.97520522  0.50827920  0.37375099  1
  O2-  O195  1  0.97555247  0.50119936  0.87778429  1
  O2-  O196  1  0.97406155  0.83589096  0.37675575  1
  O2-  O197  1  0.97511382  0.83649177  0.87475304  1
  O2-  O198  1  0.19238693  0.00978248  0.37590585  1
  O2-  O199  1  0.19344039  0.00608993  0.87327552  1
  O2-  O200  1  0.19197298  0.33937029  0.37572026  1
  O2-  O201  1  0.19363114  0.34213801  0.87409040  1
  O2-  O202  1  0.19325564  0.67216080  0.37432712  1
  O2-  O203  1  0.19300571  0.67678250  0.87647938  1
  O2-  O204  1  0.52688953  0.00469535  0.37372117  1
  O2-  O205  1  0.52498511  0.00851749  0.87534611  1
  O2-  O206  1  0.52524386  0.34028798  0.37669911  1
  O2-  O207  1  0.52163535  0.33976750  0.87537321  1
  O2-  O208  1  0.52549343  0.66830358  0.37267257  1
  O2-  O209  1  0.52481189  0.67084787  0.87650303  1
  O2-  O210  1  0.86221165  0.00427099  0.37529293  1
  O2-  O211  1  0.85222232  0.01010072  0.87441188  1
  O2-  O212  1  0.86135730  0.34072469  0.37340701  1
  O2-  O213  1  0.85014981  0.33668996  0.87635283  1
  O2-  O214  1  0.85914948  0.67402457  0.37370574  1
  O2-  O215  1  0.85222404  0.67493834  0.87581458  1
  O2-  O216  1  0.23635062  0.09838355  0.01705345  1
  O2-  O217  1  0.23565012  0.09714901  0.51925212  1
  O2-  O218  1  0.23806290  0.42729199  0.02353478  1
  O2-  O219  1  0.23754021  0.42968426  0.51930966  1
  O2-  O220  1  0.23863262  0.76219317  0.01827768  1
  O2-  O221  1  0.23893801  0.76077801  0.52140288  1
  O2-  O222  1  0.57438730  0.09289019  0.02436811  1
  O2-  O223  1  0.57022865  0.09449041  0.51959136  1
  O2-  O224  1  0.56980774  0.42725855  0.02045335  1
  O2-  O225  1  0.57158101  0.42628438  0.52283990  1
  O2-  O226  1  0.57517551  0.76154083  0.02526569  1
  O2-  O227  1  0.57505901  0.75745178  0.51516532  1
  O2-  O228  1  0.90506487  0.09288787  0.02031306  1
  O2-  O229  1  0.90342091  0.09243950  0.52033267  1
  O2-  O230  1  0.90658784  0.42846225  0.02119805  1
  O2-  O231  1  0.89978760  0.43371563  0.51774497  1
  O2-  O232  1  0.90534689  0.76087322  0.02345501  1
  O2-  O233  1  0.90445346  0.75904529  0.52230103  1
  O2-  O234  1  0.26239687  0.26594302  0.23594981  1
  O2-  O235  1  0.26232306  0.26064767  0.73015464  1
  O2-  O236  1  0.26099909  0.59519805  0.22524925  1
  O2-  O237  1  0.26260322  0.59631060  0.72908387  1
  O2-  O238  1  0.26037055  0.92774806  0.23329422  1
  O2-  O239  1  0.26394500  0.92971647  0.72844578  1
  O2-  O240  1  0.59347436  0.26228565  0.22899952  1
  O2-  O241  1  0.59468363  0.25784823  0.72530500  1
  O2-  O242  1  0.59320113  0.59585625  0.22760551  1
  O2-  O243  1  0.59492123  0.59211321  0.72827297  1
  O2-  O244  1  0.59391191  0.92535284  0.22809212  1
  O2-  O245  1  0.59873255  0.93027891  0.73466982  1
  O2-  O246  1  0.92604499  0.26118522  0.22647711  1
  O2-  O247  1  0.92212928  0.25819569  0.73167659  1
  O2-  O248  1  0.93016743  0.59806932  0.23223963  1
  O2-  O249  1  0.92735893  0.59468537  0.73252624  1
  O2-  O250  1  0.93149357  0.93052436  0.23309257  1
  O2-  O251  1  0.92719643  0.92559130  0.72576563  1
  O2-  O252  1  0.09515223  0.24017871  0.27115700  1
  O2-  O253  1  0.09905955  0.24110424  0.76686453  1
  O2-  O254  1  0.09747343  0.57314123  0.27024445  1
  O2-  O255  1  0.09874940  0.57247493  0.76690363  1
  O2-  O256  1  0.09647174  0.90477809  0.27314729  1
  O2-  O257  1  0.09906804  0.90593103  0.76575630  1
  O2-  O258  1  0.42815713  0.23836771  0.27085513  1
  O2-  O259  1  0.43010366  0.23428519  0.76854799  1
  O2-  O260  1  0.43112789  0.56916431  0.26664359  1
  O2-  O261  1  0.42746693  0.57062264  0.77157167  1
  O2-  O262  1  0.42851984  0.90433058  0.27127956  1
  O2-  O263  1  0.42972939  0.90558990  0.77451653  1
  O2-  O264  1  0.76203224  0.23817703  0.27262588  1
  O2-  O265  1  0.76091875  0.23518286  0.76496822  1
  O2-  O266  1  0.76019190  0.57452355  0.27358788  1
  O2-  O267  1  0.76103015  0.57427685  0.77357926  1
  O2-  O268  1  0.76409714  0.90619344  0.27138578  1
  O2-  O269  1  0.76281780  0.90301399  0.77247270  1
  O2-  O270  1  0.07140727  0.07148935  0.48046498  1
  O2-  O271  1  0.07449673  0.07473810  0.98236578  1
  O2-  O272  1  0.07004680  0.40767065  0.47736495  1
  O2-  O273  1  0.07270618  0.40586894  0.98794501  1
  O2-  O274  1  0.07179886  0.73653120  0.48061785  1
  O2-  O275  1  0.07455292  0.74278834  0.98381674  1
  O2-  O276  1  0.40710231  0.07150393  0.47754267  1
  O2-  O277  1  0.40365924  0.07296816  0.98169376  1
  O2-  O278  1  0.40337832  0.40625884  0.48005884  1
  O2-  O279  1  0.40172285  0.40463915  0.97665013  1
  O2-  O280  1  0.40456485  0.73818219  0.47771401  1
  O2-  O281  1  0.40644909  0.73985358  0.98007744  1
  O2-  O282  1  0.73650045  0.07150242  0.47626850  1
  O2-  O283  1  0.73778360  0.07114058  0.98239540  1
  O2-  O284  1  0.73783155  0.40376677  0.47747276  1
  O2-  O285  1  0.73898665  0.40790542  0.98433368  1
  O2-  O286  1  0.74078215  0.73770184  0.48073566  1
  O2-  O287  1  0.73532956  0.73718666  0.98369400  1
  O2-  O288  1  0.09727871  0.23847850  0.48261960  1
  O2-  O289  1  0.09765567  0.24129031  0.98038602  1
  O2-  O290  1  0.09545563  0.57252682  0.47837587  1
  O2-  O291  1  0.09947162  0.57086964  0.98327247  1
  O2-  O292  1  0.09893552  0.90524826  0.47837305  1
  O2-  O293  1  0.09563451  0.90665653  0.98242537  1
  O2-  O294  1  0.42882708  0.23825209  0.47906795  1
  O2-  O295  1  0.43018673  0.23471670  0.98005517  1
  O2-  O296  1  0.42931045  0.56974495  0.48289770  1
  O2-  O297  1  0.42706850  0.56891354  0.97950587  1
  O2-  O298  1  0.42777558  0.90518647  0.47508958  1
  O2-  O299  1  0.42929266  0.90468415  0.98033308  1
  O2-  O300  1  0.76128388  0.23844552  0.47782562  1
  O2-  O301  1  0.76112791  0.23372388  0.98441368  1
  O2-  O302  1  0.76086406  0.57433007  0.47449599  1
  O2-  O303  1  0.76084013  0.57506687  0.97774712  1
  O2-  O304  1  0.76468546  0.90320439  0.48133839  1
  O2-  O305  1  0.76111008  0.90498093  0.97641914  1
  O2-  O306  1  0.07180617  0.07025401  0.27158160  1
  O2-  O307  1  0.07617905  0.07537400  0.76567708  1
  O2-  O308  1  0.07003150  0.40388977  0.26987321  1
  O2-  O309  1  0.07560109  0.40975904  0.76414382  1
  O2-  O310  1  0.07048455  0.73708966  0.26700479  1
  O2-  O311  1  0.07575215  0.74146041  0.76783366  1
  O2-  O312  1  0.40688386  0.07224093  0.27073539  1
  O2-  O313  1  0.40482594  0.07099844  0.76851147  1
  O2-  O314  1  0.40470697  0.40494626  0.27142597  1
  O2-  O315  1  0.40153761  0.40555557  0.77215698  1
  O2-  O316  1  0.40603937  0.73869738  0.27534083  1
  O2-  O317  1  0.40345307  0.73790750  0.76779694  1
  O2-  O318  1  0.73972515  0.06977545  0.27310781  1
  O2-  O319  1  0.73696782  0.07163493  0.76906186  1
  O2-  O320  1  0.73839924  0.40364813  0.27138984  1
  O2-  O321  1  0.73852069  0.40680321  0.76716824  1
  O2-  O322  1  0.73826100  0.73723017  0.26954018  1
  O2-  O323  1  0.73810082  0.73745576  0.76490123  1
  O2-  O324  1  0.23479441  0.09917868  0.23199795  1
  O2-  O325  1  0.23863464  0.09682320  0.73045973  1
  O2-  O326  1  0.23512972  0.42833113  0.23032616  1
  O2-  O327  1  0.24020850  0.42846871  0.72652720  1
  O2-  O328  1  0.23657466  0.76150544  0.23020704  1
  O2-  O329  1  0.23908348  0.76142109  0.72995345  1
  O2-  O330  1  0.57152830  0.09459033  0.22979918  1
  O2-  O331  1  0.57308485  0.09204784  0.72610616  1
  O2-  O332  1  0.57075200  0.42779445  0.22773470  1
  O2-  O333  1  0.57052900  0.42619259  0.72968833  1
  O2-  O334  1  0.57000497  0.76002730  0.22808235  1
  O2-  O335  1  0.57725586  0.75722291  0.73186481  1
  O2-  O336  1  0.90451369  0.09389559  0.23024812  1
  O2-  O337  1  0.90411680  0.09121499  0.72931002  1
  O2-  O338  1  0.90178092  0.42949100  0.22635100  1
  O2-  O339  1  0.90219368  0.42961277  0.73536968  1
  O2-  O340  1  0.90332860  0.76253245  0.22797674  1
  O2-  O341  1  0.90686960  0.75723563  0.72594967  1
  O2-  O342  1  0.26271620  0.26279815  0.01462013  1
  O2-  O343  1  0.26327989  0.26229136  0.51857818  1
  O2-  O344  1  0.26367605  0.59679465  0.02339227  1
  O2-  O345  1  0.26002231  0.59411364  0.52229217  1
  O2-  O346  1  0.25956017  0.92597057  0.01617305  1
  O2-  O347  1  0.26405086  0.93148210  0.52201373  1
  O2-  O348  1  0.59390657  0.25920083  0.02417333  1
  O2-  O349  1  0.59632025  0.25939135  0.52181118  1
  O2-  O350  1  0.59319724  0.59481051  0.02284912  1
  O2-  O351  1  0.59505101  0.59256280  0.52091646  1
  O2-  O352  1  0.59802360  0.92709942  0.02035378  1
  O2-  O353  1  0.59512573  0.92879842  0.51655782  1
  O2-  O354  1  0.92658187  0.25964111  0.02338943  1
  O2-  O355  1  0.92376776  0.25913100  0.51820970  1
  O2-  O356  1  0.92893764  0.59517898  0.01940437  1
  O2-  O357  1  0.93056773  0.59785829  0.51499023  1
  O2-  O358  1  0.92813791  0.92849791  0.02095518  1
  O2-  O359  1  0.93043841  0.92645635  0.52163884  1
