# generated using pymatgen
data_Sr7Ca15Pr50Mn72O216
_symmetry_space_group_name_H-M   'P 1'
_cell_length_a   16.56110796
_cell_length_b   16.60428651
_cell_length_c   15.59280052
_cell_angle_alpha   89.99927448
_cell_angle_beta   90.00278104
_cell_angle_gamma   90.00088039
_symmetry_Int_Tables_number   1
_chemical_formula_structural   Sr7Ca15Pr50Mn72O216
_chemical_formula_sum   'Sr7 Ca15 Pr50 Mn72 O216'
_cell_volume   4287.79219360
_cell_formula_units_Z   1
loop_
 _symmetry_equiv_pos_site_id
 _symmetry_equiv_pos_as_xyz
  1  'x, y, z'
loop_
 _atom_type_symbol
 _atom_type_oxidation_number
  Sr2+  2.0
  Ca2+  2.0
  Pr3+  3.0
  Mn3.30+  3.3
  O2-  -2.0
loop_
 _atom_site_type_symbol
 _atom_site_label
 _atom_site_symmetry_multiplicity
 _atom_site_fract_x
 _atom_site_fract_y
 _atom_site_fract_z
 _atom_site_occupancy
  Sr2+  Sr0  1  0.66952713  0.32163200  0.87709783  1
  Sr2+  Sr1  1  1.00214903  0.32047610  0.87613136  1
  Sr2+  Sr2  1  0.83646505  0.17827504  0.12205097  1
  Sr2+  Sr3  1  0.49882234  0.15755284  0.87812696  1
  Sr2+  Sr4  1  0.49857373  0.49058427  0.37448826  1
  Sr2+  Sr5  1  0.33552938  0.34196522  0.12299780  1
  Sr2+  Sr6  1  0.66379030  0.67487048  0.12282264  1
  Ca2+  Ca7  1  -0.00403922  0.01611711  0.12218914  1
  Ca2+  Ca8  1  0.50716198  0.18564789  0.12152822  1
  Ca2+  Ca9  1  -0.00449681  0.34589085  0.12232546  1
  Ca2+  Ca10  1  -0.00327458  0.34673263  0.62793277  1
  Ca2+  Ca11  1  -0.00379974  0.68308028  0.62749307  1
  Ca2+  Ca12  1  0.82914622  0.15501658  0.87750694  1
  Ca2+  Ca13  1  0.16579796  0.82096050  0.87451670  1
  Ca2+  Ca14  1  0.66419840  0.01583634  0.62690398  1
  Ca2+  Ca15  1  0.33530153  0.98839403  0.87565126  1
  Ca2+  Ca16  1  0.49944442  0.48691259  0.87669345  1
  Ca2+  Ca17  1  0.16212770  0.81730227  0.37577027  1
  Ca2+  Ca18  1  0.33699620  0.65109330  0.87524845  1
  Ca2+  Ca19  1  0.16480459  0.15507314  0.87844451  1
  Ca2+  Ca20  1  0.66959535  0.65163739  0.87659977  1
  Ca2+  Ca21  1  0.66198233  0.34519475  0.12028366  1
  Pr3+  Pr22  1  0.83747382  0.84791358  0.12376253  1
  Pr3+  Pr23  1  1.00336560  0.65478486  0.87301081  1
  Pr3+  Pr24  1  0.33473326  0.98573127  0.37390924  1
  Pr3+  Pr25  1  0.82779877  0.82019829  0.87545313  1
  Pr3+  Pr26  1  0.16862986  0.17956413  0.62765353  1
  Pr3+  Pr27  1  0.83681618  0.84655714  0.62631635  1
  Pr3+  Pr28  1  0.83666438  0.18067059  0.62766639  1
  Pr3+  Pr29  1  0.66471910  0.34556875  0.62868522  1
  Pr3+  Pr30  1  1.00474539  0.98533645  0.37238200  1
  Pr3+  Pr31  1  0.16618763  0.51176026  0.62768202  1
  Pr3+  Pr32  1  0.83062447  0.15390713  0.37339062  1
  Pr3+  Pr33  1  0.33053282  0.67889857  0.62768932  1
  Pr3+  Pr34  1  0.50317576  0.51280916  0.62807090  1
  Pr3+  Pr35  1  0.67034534  0.99383849  0.87456912  1
  Pr3+  Pr36  1  0.33784379  0.32210948  0.87697639  1
  Pr3+  Pr37  1  0.33226322  0.01289421  0.12179148  1
  Pr3+  Pr38  1  0.16769324  0.84572607  0.62761938  1
  Pr3+  Pr39  1  0.33334107  0.65345119  0.37574543  1
  Pr3+  Pr40  1  0.16505454  0.15441480  0.37233619  1
  Pr3+  Pr41  1  0.49759420  0.15528991  0.37226853  1
  Pr3+  Pr42  1  0.50503932  0.50898795  0.12116617  1
  Pr3+  Pr43  1  0.16961177  0.50925878  0.12207637  1
  Pr3+  Pr44  1  1.00233488  0.32048186  0.37412038  1
  Pr3+  Pr45  1  0.32984308  0.01288606  0.62827389  1
  Pr3+  Pr46  1  0.66278946  0.01559889  0.12411777  1
  Pr3+  Pr47  1  0.50343797  0.85057279  0.62589381  1
  Pr3+  Pr48  1  1.00174419  0.99280290  0.87768090  1
  Pr3+  Pr49  1  0.66857773  0.65168517  0.37404548  1
  Pr3+  Pr50  1  0.16952505  0.84549348  0.12322388  1
  Pr3+  Pr51  1  0.33796116  0.32156296  0.37318130  1
  Pr3+  Pr52  1  0.50265315  0.84448299  0.12370582  1
  Pr3+  Pr53  1  0.16388440  0.48657925  0.37505990  1
  Pr3+  Pr54  1  0.16557679  0.17951538  0.12200869  1
  Pr3+  Pr55  1  0.83183339  0.50601077  0.12174596  1
  Pr3+  Pr56  1  0.16523409  0.48711928  0.87507517  1
  Pr3+  Pr57  1  1.00413138  0.65376538  0.37653484  1
  Pr3+  Pr58  1  -0.00371756  0.67749068  0.12233936  1
  Pr3+  Pr59  1  0.66938184  0.32178274  0.37311606  1
  Pr3+  Pr60  1  -0.00113228  0.01255714  0.62601399  1
  Pr3+  Pr61  1  0.83893950  0.51438988  0.62802445  1
  Pr3+  Pr62  1  0.83130618  0.81877751  0.37456822  1
  Pr3+  Pr63  1  0.66999322  0.98723930  0.37523868  1
  Pr3+  Pr64  1  0.83009799  0.48618952  0.87537300  1
  Pr3+  Pr65  1  0.82984993  0.48653657  0.37469781  1
  Pr3+  Pr66  1  0.33183902  0.34586570  0.62716056  1
  Pr3+  Pr67  1  0.50341803  0.17789628  0.62806188  1
  Pr3+  Pr68  1  0.33120489  0.67465963  0.12269723  1
  Pr3+  Pr69  1  0.49636282  0.82251384  0.87557981  1
  Pr3+  Pr70  1  0.49706947  0.82015018  0.37445955  1
  Pr3+  Pr71  1  0.66294204  0.67961069  0.62746009  1
  Mn3.30+  Mn72  1  0.16687485  0.00026060  -0.00158359  1
  Mn3.30+  Mn73  1  0.16664781  -0.00149514  0.49895311  1
  Mn3.30+  Mn74  1  0.16586955  0.33198471  -0.00007680  1
  Mn3.30+  Mn75  1  0.16580700  0.33281665  0.50137126  1
  Mn3.30+  Mn76  1  0.16745131  0.66759363  -0.00375339  1
  Mn3.30+  Mn77  1  0.16433136  0.66756050  0.50300359  1
  Mn3.30+  Mn78  1  0.49862281  0.00174825  -0.00109096  1
  Mn3.30+  Mn79  1  0.50100739  0.00160943  0.50038453  1
  Mn3.30+  Mn80  1  0.50155381  0.33340874  -0.00082850  1
  Mn3.30+  Mn81  1  0.50068776  0.33331905  0.50022025  1
  Mn3.30+  Mn82  1  0.49981004  0.66550691  -0.00427379  1
  Mn3.30+  Mn83  1  0.49887464  0.66715168  0.50154329  1
  Mn3.30+  Mn84  1  0.83514420  0.00221725  0.00008182  1
  Mn3.30+  Mn85  1  0.83303683  0.00029230  0.50094052  1
  Mn3.30+  Mn86  1  0.83352997  0.33070903  0.00026530  1
  Mn3.30+  Mn87  1  0.83522959  0.33347382  0.50133732  1
  Mn3.30+  Mn88  1  0.83130324  0.66632575  -0.00027163  1
  Mn3.30+  Mn89  1  0.83481800  0.66695841  0.50152471  1
  Mn3.30+  Mn90  1  -0.00164731  0.16663657  0.24785952  1
  Mn3.30+  Mn91  1  0.00079688  0.16776787  0.75290307  1
  Mn3.30+  Mn92  1  -0.00048891  0.49868860  0.24872185  1
  Mn3.30+  Mn93  1  0.00001581  0.49933414  0.74962505  1
  Mn3.30+  Mn94  1  0.00194223  0.83355336  0.24826677  1
  Mn3.30+  Mn95  1  0.00087929  0.83436226  0.75267965  1
  Mn3.30+  Mn96  1  0.33427725  0.16690303  0.24555880  1
  Mn3.30+  Mn97  1  0.33281203  0.16521345  0.75408186  1
  Mn3.30+  Mn98  1  0.33383430  0.49900430  0.24859786  1
  Mn3.30+  Mn99  1  0.33515688  0.50109786  0.75202877  1
  Mn3.30+  Mn100  1  0.33132148  0.83183309  0.24991884  1
  Mn3.30+  Mn101  1  0.33279579  0.83366293  0.75330828  1
  Mn3.30+  Mn102  1  0.66562662  0.16924063  0.24723604  1
  Mn3.30+  Mn103  1  0.66891690  0.16580613  0.75149720  1
  Mn3.30+  Mn104  1  0.66595513  0.49755540  0.24902141  1
  Mn3.30+  Mn105  1  0.66698415  0.50086401  0.75260509  1
  Mn3.30+  Mn106  1  0.66700959  0.83238553  0.24871875  1
  Mn3.30+  Mn107  1  0.66591251  0.83506003  0.75046133  1
  Mn3.30+  Mn108  1  0.16542615  -0.00134661  0.24674432  1
  Mn3.30+  Mn109  1  0.16750110  0.00051500  0.75525554  1
  Mn3.30+  Mn110  1  0.16626875  0.33320553  0.24730736  1
  Mn3.30+  Mn111  1  0.16498905  0.33170206  0.75080359  1
  Mn3.30+  Mn112  1  0.16528201  0.66667566  0.24950598  1
  Mn3.30+  Mn113  1  0.16655367  0.66815190  0.75153392  1
  Mn3.30+  Mn114  1  0.50007135  0.00127563  0.24878175  1
  Mn3.30+  Mn115  1  0.50003986  0.00157690  0.75188092  1
  Mn3.30+  Mn116  1  0.50238865  0.33400978  0.24817025  1
  Mn3.30+  Mn117  1  0.49993817  0.33361287  0.75260549  1
  Mn3.30+  Mn118  1  0.49894556  0.66560131  0.24913351  1
  Mn3.30+  Mn119  1  0.49951795  0.66661241  0.75387230  1
  Mn3.30+  Mn120  1  0.83531797  0.00048594  0.24942223  1
  Mn3.30+  Mn121  1  0.83297248  0.00179747  0.74911731  1
  Mn3.30+  Mn122  1  0.83417468  0.33242878  0.24643044  1
  Mn3.30+  Mn123  1  0.83484264  0.33166747  0.75194503  1
  Mn3.30+  Mn124  1  0.83380466  0.66534242  0.24814946  1
  Mn3.30+  Mn125  1  0.83255517  0.66777622  0.75114380  1
  Mn3.30+  Mn126  1  -0.00112174  0.16710907  -0.00122869  1
  Mn3.30+  Mn127  1  0.00017480  0.16748889  0.50088265  1
  Mn3.30+  Mn128  1  0.00049084  0.49803269  -0.00047430  1
  Mn3.30+  Mn129  1  -0.00093323  0.49971168  0.50208005  1
  Mn3.30+  Mn130  1  0.00169508  0.83507371  -0.00169369  1
  Mn3.30+  Mn131  1  0.00119525  0.83259270  0.50045543  1
  Mn3.30+  Mn132  1  0.33352455  0.16613816  -0.00005348  1
  Mn3.30+  Mn133  1  0.33326604  0.16607920  0.49974083  1
  Mn3.30+  Mn134  1  0.33577701  0.50047058  -0.00216946  1
  Mn3.30+  Mn135  1  0.33294870  0.49993682  0.50164529  1
  Mn3.30+  Mn136  1  0.33247879  0.83237360  -0.00309062  1
  Mn3.30+  Mn137  1  0.33108944  0.83324140  0.49998467  1
  Mn3.30+  Mn138  1  0.66737713  0.16839769  -0.00002820  1
  Mn3.30+  Mn139  1  0.66687638  0.16665195  0.50054859  1
  Mn3.30+  Mn140  1  0.66572253  0.49953051  -0.00268487  1
  Mn3.30+  Mn141  1  0.66780391  0.49936174  0.50179415  1
  Mn3.30+  Mn142  1  0.66609098  0.83306277  -0.00065710  1
  Mn3.30+  Mn143  1  0.66690746  0.83421597  0.50089929  1
  O2-  O144  1  0.02303860  0.15882749  0.12536664  1
  O2-  O145  1  0.02619780  0.15885758  0.62490340  1
  O2-  O146  1  0.02564756  0.49499151  0.12301623  1
  O2-  O147  1  0.02312404  0.49116840  0.62473837  1
  O2-  O148  1  0.02609825  0.82414165  0.12354364  1
  O2-  O149  1  0.02363108  0.83079237  0.62859392  1
  O2-  O150  1  0.36278023  0.15986310  0.12457766  1
  O2-  O151  1  0.35859197  0.16058470  0.62667082  1
  O2-  O152  1  0.35900419  0.50341667  0.12221752  1
  O2-  O153  1  0.35887444  0.49569410  0.62692180  1
  O2-  O154  1  0.35916509  0.82380170  0.12357187  1
  O2-  O155  1  0.35901502  0.82741440  0.62603429  1
  O2-  O156  1  0.68745208  0.16088415  0.12559068  1
  O2-  O157  1  0.69118906  0.16232188  0.62445684  1
  O2-  O158  1  0.68724467  0.49515945  0.12379008  1
  O2-  O159  1  0.69376487  0.49587733  0.62575728  1
  O2-  O160  1  0.69233643  0.83025170  0.12701228  1
  O2-  O161  1  0.69333397  0.82497422  0.62609820  1
  O2-  O162  1  0.13847899  0.32964423  0.12430488  1
  O2-  O163  1  0.13909631  0.32635073  0.62581985  1
  O2-  O164  1  0.14047986  0.65844125  0.12083216  1
  O2-  O165  1  0.13774677  0.65991533  0.62700506  1
  O2-  O166  1  0.13759641  0.99152193  0.12492127  1
  O2-  O167  1  0.14235764  0.99368346  0.62694873  1
  O2-  O168  1  0.48368935  0.33334545  0.12433926  1
  O2-  O169  1  0.47663317  0.32679255  0.62600034  1
  O2-  O170  1  0.47534010  0.66075146  0.12161041  1
  O2-  O171  1  0.47503179  0.66202699  0.62798236  1
  O2-  O172  1  0.47549481  0.99053641  0.12541178  1
  O2-  O173  1  0.47375518  0.99832086  0.62615814  1
  O2-  O174  1  0.80665408  0.33690900  0.12523053  1
  O2-  O175  1  0.80820554  0.32826841  0.62526655  1
  O2-  O176  1  0.81341019  0.65870481  0.12508241  1
  O2-  O177  1  0.80636986  0.66392323  0.62770885  1
  O2-  O178  1  0.80811717  0.99385525  0.12671269  1
  O2-  O179  1  0.80706350  0.99312837  0.62306176  1
  O2-  O180  1  0.30933435  0.17241078  0.37173521  1
  O2-  O181  1  0.30683677  0.17565166  0.87605744  1
  O2-  O182  1  0.30768955  0.50435237  0.37714956  1
  O2-  O183  1  0.30809341  0.50378293  0.87367800  1
  O2-  O184  1  0.30421686  0.83901006  0.37549842  1
  O2-  O185  1  0.30735713  0.84425739  0.87524093  1
  O2-  O186  1  0.64161510  0.17381434  0.37428892  1
  O2-  O187  1  0.64916598  0.16061199  0.87526488  1
  O2-  O188  1  0.64876466  0.50306198  0.37809916  1
  O2-  O189  1  0.64268703  0.50665972  0.87291959  1
  O2-  O190  1  0.64123591  0.83915427  0.37443222  1
  O2-  O191  1  0.64071103  0.84634352  0.87281169  1
  O2-  O192  1  0.97466998  0.17319971  0.37611076  1
  O2-  O193  1  0.97253821  0.16396501  0.87346273  1
  O2-  O194  1  0.97407600  0.50670217  0.37754422  1
  O2-  O195  1  0.97501914  0.50721717  0.87424056  1
  O2-  O196  1  0.97474115  0.83755416  0.37229752  1
  O2-  O197  1  0.97189541  0.84153929  0.87541904  1
  O2-  O198  1  0.19257941  0.00759777  0.37147814  1
  O2-  O199  1  0.19492423  0.01191723  0.87632570  1
  O2-  O200  1  0.19327132  0.33783093  0.37476782  1
  O2-  O201  1  0.19325237  0.33956884  0.87471435  1
  O2-  O202  1  0.18976511  0.67145194  0.37829669  1
  O2-  O203  1  0.19411915  0.67316951  0.87411214  1
  O2-  O204  1  0.52614226  0.00631018  0.37326201  1
  O2-  O205  1  0.52580913  -0.00086874  0.87516177  1
  O2-  O206  1  0.52472364  0.33401563  0.37627525  1
  O2-  O207  1  0.51846745  0.33852280  0.87336175  1
  O2-  O208  1  0.52407353  0.67269203  0.37701834  1
  O2-  O209  1  0.52974516  0.67705895  0.87330780  1
  O2-  O210  1  0.85929144  0.00450832  0.37603688  1
  O2-  O211  1  0.85594678  0.00571820  0.87350444  1
  O2-  O212  1  0.85889684  0.33873976  0.37570854  1
  O2-  O213  1  0.85376565  0.33998243  0.87478002  1
  O2-  O214  1  0.85969272  0.66965242  0.37332519  1
  O2-  O215  1  0.85937476  0.67199776  0.87475356  1
  O2-  O216  1  0.23916355  0.09219930  0.02592402  1
  O2-  O217  1  0.23825910  0.09465144  0.51938562  1
  O2-  O218  1  0.23913822  0.42831385  0.01640373  1
  O2-  O219  1  0.23783225  0.42812872  0.52286833  1
  O2-  O220  1  0.23941043  0.75906119  0.02263738  1
  O2-  O221  1  0.23668991  0.75881491  0.52528890  1
  O2-  O222  1  0.57109544  0.09296565  0.02213131  1
  O2-  O223  1  0.56772366  0.09750585  0.51680869  1
  O2-  O224  1  0.57347662  0.42754160  0.01551850  1
  O2-  O225  1  0.57515146  0.42740548  0.52464100  1
  O2-  O226  1  0.56739648  0.76383889  0.01649368  1
  O2-  O227  1  0.57170720  0.76326408  0.52075001  1
  O2-  O228  1  0.90803305  0.09166233  0.01612537  1
  O2-  O229  1  0.90530716  0.09606461  0.52073940  1
  O2-  O230  1  0.90578173  0.42829860  0.01705717  1
  O2-  O231  1  0.90122614  0.43083888  0.51814414  1
  O2-  O232  1  0.90391217  0.76077541  0.01945706  1
  O2-  O233  1  0.90242055  0.76467864  0.51747208  1
  O2-  O234  1  0.25789960  0.25722065  0.23030474  1
  O2-  O235  1  0.26058291  0.26094592  0.72816309  1
  O2-  O236  1  0.25892854  0.59407701  0.23087027  1
  O2-  O237  1  0.26010492  0.59282062  0.72799918  1
  O2-  O238  1  0.26273462  0.92638863  0.22653362  1
  O2-  O239  1  0.26025980  0.92619558  0.72776789  1
  O2-  O240  1  0.59912931  0.26582140  0.23249280  1
  O2-  O241  1  0.59483135  0.25829844  0.73029522  1
  O2-  O242  1  0.59091289  0.59168457  0.23533665  1
  O2-  O243  1  0.59408668  0.59465061  0.72722114  1
  O2-  O244  1  0.59462538  0.92939596  0.23067550  1
  O2-  O245  1  0.59610598  0.92930908  0.72567851  1
  O2-  O246  1  0.93129574  0.26596204  0.23278866  1
  O2-  O247  1  0.93013785  0.26063625  0.72663059  1
  O2-  O248  1  0.92894537  0.59317975  0.22942871  1
  O2-  O249  1  0.92884105  0.59709358  0.72902494  1
  O2-  O250  1  0.93226631  0.92768840  0.22834153  1
  O2-  O251  1  0.92707856  0.92939337  0.72969445  1
  O2-  O252  1  0.09342824  0.23785522  0.27041028  1
  O2-  O253  1  0.09861236  0.23309578  0.76932226  1
  O2-  O254  1  0.09433683  0.57196945  0.27083660  1
  O2-  O255  1  0.09617434  0.57369347  0.77130968  1
  O2-  O256  1  0.09688218  0.90212152  0.27237206  1
  O2-  O257  1  0.09717555  0.90768038  0.77397162  1
  O2-  O258  1  0.42842671  0.24199025  0.26979283  1
  O2-  O259  1  0.42405223  0.23984720  0.76740730  1
  O2-  O260  1  0.42215687  0.57634919  0.26910749  1
  O2-  O261  1  0.43165166  0.56950089  0.76963582  1
  O2-  O262  1  0.42717569  0.90484883  0.27151545  1
  O2-  O263  1  0.43137399  0.90345014  0.76529749  1
  O2-  O264  1  0.76205868  0.24014469  0.27272118  1
  O2-  O265  1  0.76617964  0.23504510  0.76541923  1
  O2-  O266  1  0.75914762  0.57081351  0.26900520  1
  O2-  O267  1  0.76461967  0.57193964  0.76851554  1
  O2-  O268  1  0.76308572  0.90573150  0.27116887  1
  O2-  O269  1  0.76270874  0.90537262  0.76984817  1
  O2-  O270  1  0.07238640  0.06969159  0.47886517  1
  O2-  O271  1  0.07308974  0.07232041  0.98132278  1
  O2-  O272  1  0.07377009  0.40582936  0.47712586  1
  O2-  O273  1  0.07690510  0.40987703  0.97936023  1
  O2-  O274  1  0.06999543  0.73771877  0.48170078  1
  O2-  O275  1  0.07002847  0.73819703  0.97983534  1
  O2-  O276  1  0.40362900  0.07114791  0.47810298  1
  O2-  O277  1  0.40119624  0.06787931  0.98130035  1
  O2-  O278  1  0.40363366  0.40174256  0.48453417  1
  O2-  O279  1  0.40665342  0.40792832  0.98062877  1
  O2-  O280  1  0.40226131  0.74073784  0.47897633  1
  O2-  O281  1  0.40361577  0.73708236  0.97634186  1
  O2-  O282  1  0.73876583  0.07414827  0.47630059  1
  O2-  O283  1  0.73732246  0.06932720  0.98652828  1
  O2-  O284  1  0.73927159  0.40385713  0.48122202  1
  O2-  O285  1  0.74351461  0.41031477  0.98159302  1
  O2-  O286  1  0.73850401  0.73674465  0.47854282  1
  O2-  O287  1  0.73690559  0.74137799  0.97644136  1
  O2-  O288  1  0.09588143  0.23697164  0.47800187  1
  O2-  O289  1  0.09642010  0.23506096  0.98266110  1
  O2-  O290  1  0.09540710  0.57176245  0.48019350  1
  O2-  O291  1  0.09448479  0.57404391  0.97684336  1
  O2-  O292  1  0.09623471  0.90367344  0.47859234  1
  O2-  O293  1  0.09776418  0.90631306  0.97579854  1
  O2-  O294  1  0.42746265  0.23688053  0.48005795  1
  O2-  O295  1  0.42309308  0.24369327  0.98330768  1
  O2-  O296  1  0.42323446  0.57472376  0.48430874  1
  O2-  O297  1  0.42975118  0.57206924  0.97677128  1
  O2-  O298  1  0.42955329  0.90659904  0.47967008  1
  O2-  O299  1  0.42905672  0.90285909  0.98406764  1
  O2-  O300  1  0.76378397  0.23961912  0.47985257  1
  O2-  O301  1  0.76404088  0.23701621  0.98153102  1
  O2-  O302  1  0.76246818  0.57194722  0.48156725  1
  O2-  O303  1  0.76139967  0.57187661  0.98175889  1
  O2-  O304  1  0.76200059  0.90378098  0.47808052  1
  O2-  O305  1  0.76269904  0.90637905  0.98098044  1
  O2-  O306  1  0.07293341  0.07358501  0.27230204  1
  O2-  O307  1  0.06960447  0.06927893  0.76701908  1
  O2-  O308  1  0.07218086  0.40756483  0.27348020  1
  O2-  O309  1  0.07758447  0.40845484  0.76938461  1
  O2-  O310  1  0.06886559  0.73569236  0.26719941  1
  O2-  O311  1  0.07185658  0.74017163  0.77129372  1
  O2-  O312  1  0.40449810  0.07064737  0.27113148  1
  O2-  O313  1  0.40126112  0.06884634  0.76901447  1
  O2-  O314  1  0.40524382  0.40538016  0.26824667  1
  O2-  O315  1  0.40217375  0.40435136  0.76581363  1
  O2-  O316  1  0.40310713  0.73919800  0.27185028  1
  O2-  O317  1  0.40327066  0.73726573  0.77293067  1
  O2-  O318  1  0.73610579  0.07291902  0.27058889  1
  O2-  O319  1  0.73882535  0.07008254  0.76492850  1
  O2-  O320  1  0.74162542  0.40621551  0.27213697  1
  O2-  O321  1  0.74032725  0.40685554  0.76625090  1
  O2-  O322  1  0.74060474  0.73875751  0.27363977  1
  O2-  O323  1  0.73519315  0.73856834  0.77297560  1
  O2-  O324  1  0.23812328  0.09219211  0.22599288  1
  O2-  O325  1  0.23900534  0.09325038  0.72690498  1
  O2-  O326  1  0.23719665  0.43007914  0.23165231  1
  O2-  O327  1  0.23970651  0.42715722  0.72886958  1
  O2-  O328  1  0.23763207  0.75791218  0.22692349  1
  O2-  O329  1  0.23834528  0.75935236  0.72652421  1
  O2-  O330  1  0.56953200  0.09879798  0.22971236  1
  O2-  O331  1  0.57172262  0.09420420  0.73109035  1
  O2-  O332  1  0.57223560  0.42833909  0.23222839  1
  O2-  O333  1  0.57384687  0.42669994  0.72771841  1
  O2-  O334  1  0.56826539  0.76241358  0.23386055  1
  O2-  O335  1  0.56986309  0.76346538  0.72802062  1
  O2-  O336  1  0.90488290  0.09571049  0.23697966  1
  O2-  O337  1  0.90702988  0.09289990  0.72530276  1
  O2-  O338  1  0.90287916  0.43013293  0.23283224  1
  O2-  O339  1  0.90354692  0.42875638  0.73297204  1
  O2-  O340  1  0.90634980  0.76296079  0.22886025  1
  O2-  O341  1  0.90103676  0.76331422  0.73347091  1
  O2-  O342  1  0.25734278  0.25779665  0.02004868  1
  O2-  O343  1  0.26177469  0.26106574  0.52074626  1
  O2-  O344  1  0.25958915  0.59219881  0.01902436  1
  O2-  O345  1  0.25810844  0.59541312  0.52261291  1
  O2-  O346  1  0.26004297  0.92567658  0.02435437  1
  O2-  O347  1  0.26230598  0.92802221  0.52133543  1
  O2-  O348  1  0.59508349  0.26027222  0.01658634  1
  O2-  O349  1  0.59615993  0.26147581  0.52111092  1
  O2-  O350  1  0.59021969  0.59102652  0.01786558  1
  O2-  O351  1  0.59569645  0.59400093  0.52090493  1
  O2-  O352  1  0.59522764  0.92787858  0.02128744  1
  O2-  O353  1  0.59603768  0.93090975  0.52113080  1
  O2-  O354  1  0.93064382  0.26305566  0.01986100  1
  O2-  O355  1  0.92942520  0.26480847  0.52187887  1
  O2-  O356  1  0.92843400  0.59212305  0.01847015  1
  O2-  O357  1  0.92844065  0.59780837  0.52373853  1
  O2-  O358  1  0.92875984  0.92796439  0.02136831  1
  O2-  O359  1  0.93002998  0.92821614  0.51928001  1
