# generated using pymatgen
data_Sr7Ca15Pr50Mn72O216
_symmetry_space_group_name_H-M   'P 1'
_cell_length_a   16.55994856
_cell_length_b   16.60596793
_cell_length_c   15.59201407
_cell_angle_alpha   90.00188448
_cell_angle_beta   90.00368780
_cell_angle_gamma   90.00861504
_symmetry_Int_Tables_number   1
_chemical_formula_structural   Sr7Ca15Pr50Mn72O216
_chemical_formula_sum   'Sr7 Ca15 Pr50 Mn72 O216'
_cell_volume   4287.70986149
_cell_formula_units_Z   1
loop_
 _symmetry_equiv_pos_site_id
 _symmetry_equiv_pos_as_xyz
  1  'x, y, z'
loop_
 _atom_type_symbol
 _atom_type_oxidation_number
  Sr2+  2.0
  Ca2+  2.0
  Pr3+  3.0
  Mn3.30+  3.3
  O2-  -2.0
loop_
 _atom_site_type_symbol
 _atom_site_label
 _atom_site_symmetry_multiplicity
 _atom_site_fract_x
 _atom_site_fract_y
 _atom_site_fract_z
 _atom_site_occupancy
  Sr2+  Sr0  1  0.66299360  0.34316330  0.12548466  1
  Sr2+  Sr1  1  0.50187491  0.17759014  0.12582176  1
  Sr2+  Sr2  1  0.66612001  0.00899522  0.62193173  1
  Sr2+  Sr3  1  0.16818282  0.50654709  0.12480369  1
  Sr2+  Sr4  1  0.16894576  0.49014791  0.87667491  1
  Sr2+  Sr5  1  0.49901385  0.82373297  0.37464086  1
  Sr2+  Sr6  1  0.33268540  0.01079235  0.12613617  1
  Ca2+  Ca7  1  0.49853157  0.51452966  0.62253603  1
  Ca2+  Ca8  1  0.49627715  0.48668416  0.37517672  1
  Ca2+  Ca9  1  0.33289017  0.67849033  0.62415423  1
  Ca2+  Ca10  1  1.00626635  0.98561114  0.87633515  1
  Ca2+  Ca11  1  0.34128851  0.64926511  0.37623302  1
  Ca2+  Ca12  1  0.33311721  0.32019601  0.87670665  1
  Ca2+  Ca13  1  0.82860459  0.14923806  0.37410416  1
  Ca2+  Ca14  1  0.33613673  0.65001082  0.87324438  1
  Ca2+  Ca15  1  0.33071056  0.34918990  0.62555703  1
  Ca2+  Ca16  1  0.66788281  0.98742331  0.37372594  1
  Ca2+  Ca17  1  0.83599787  0.51173636  0.12602861  1
  Ca2+  Ca18  1  1.00219925  0.98491958  0.37332866  1
  Ca2+  Ca19  1  0.50305686  0.84633244  0.12720770  1
  Ca2+  Ca20  1  -0.00256392  0.35006599  0.12508289  1
  Ca2+  Ca21  1  0.17139395  0.18100070  0.12490926  1
  Pr3+  Pr22  1  0.33095111  0.67588295  0.12529776  1
  Pr3+  Pr23  1  0.17109243  0.18215548  0.62412682  1
  Pr3+  Pr24  1  0.17065922  0.84554928  0.62483886  1
  Pr3+  Pr25  1  0.16991813  0.84496341  0.12496897  1
  Pr3+  Pr26  1  0.66626048  0.65437348  0.37559370  1
  Pr3+  Pr27  1  0.83588754  0.84712483  0.12532067  1
  Pr3+  Pr28  1  0.50252678  0.50862631  0.12715330  1
  Pr3+  Pr29  1  1.00503033  0.65248673  0.87530158  1
  Pr3+  Pr30  1  -0.00181269  0.34651813  0.62454351  1
  Pr3+  Pr31  1  0.83097545  0.48678714  0.87628859  1
  Pr3+  Pr32  1  0.50239185  0.17863071  0.62432657  1
  Pr3+  Pr33  1  0.50031887  0.84469398  0.62379957  1
  Pr3+  Pr34  1  0.66765100  0.98918377  0.87574119  1
  Pr3+  Pr35  1  0.33015701  0.01158130  0.62337882  1
  Pr3+  Pr36  1  0.82798307  0.82391993  0.37451802  1
  Pr3+  Pr37  1  0.16739206  0.48828330  0.37368533  1
  Pr3+  Pr38  1  0.83150430  0.82159551  0.87561899  1
  Pr3+  Pr39  1  0.16214924  0.15143676  0.37266681  1
  Pr3+  Pr40  1  0.16632294  0.82060188  0.87693740  1
  Pr3+  Pr41  1  1.00649392  0.32365235  0.87785440  1
  Pr3+  Pr42  1  0.66725759  0.65262376  0.87447516  1
  Pr3+  Pr43  1  0.33120180  0.34211240  0.12434003  1
  Pr3+  Pr44  1  0.49647595  0.15645670  0.87760682  1
  Pr3+  Pr45  1  0.17443642  0.51497002  0.62501422  1
  Pr3+  Pr46  1  0.66076491  0.67925019  0.62473249  1
  Pr3+  Pr47  1  0.49875299  0.15395727  0.37236823  1
  Pr3+  Pr48  1  -0.00100746  0.67497597  0.12411372  1
  Pr3+  Pr49  1  0.66177763  0.01215833  0.12831970  1
  Pr3+  Pr50  1  0.49332167  0.81676364  0.87564509  1
  Pr3+  Pr51  1  0.49291256  0.48482437  0.87397736  1
  Pr3+  Pr52  1  0.83666454  0.18258379  0.12750290  1
  Pr3+  Pr53  1  0.66191056  0.67859240  0.12540080  1
  Pr3+  Pr54  1  0.82935960  0.48792167  0.37444239  1
  Pr3+  Pr55  1  0.83534916  0.84870919  0.62493500  1
  Pr3+  Pr56  1  0.33707898  0.98657742  0.37306976  1
  Pr3+  Pr57  1  0.83496546  0.51361140  0.62439362  1
  Pr3+  Pr58  1  0.33692987  0.98855024  0.87666343  1
  Pr3+  Pr59  1  0.66049470  0.34775208  0.62478300  1
  Pr3+  Pr60  1  0.16665713  0.82117642  0.37293388  1
  Pr3+  Pr61  1  0.16460313  0.15525541  0.87707877  1
  Pr3+  Pr62  1  1.00299784  0.65553805  0.37436522  1
  Pr3+  Pr63  1  0.83364495  0.15582333  0.87639926  1
  Pr3+  Pr64  1  -0.00420458  0.01322924  0.62427719  1
  Pr3+  Pr65  1  0.66773683  0.32082382  0.87617723  1
  Pr3+  Pr66  1  -0.00210011  0.01431413  0.12592762  1
  Pr3+  Pr67  1  1.00222562  0.32103619  0.37265361  1
  Pr3+  Pr68  1  0.33580029  0.32267493  0.37472249  1
  Pr3+  Pr69  1  0.66862498  0.32012867  0.37399353  1
  Pr3+  Pr70  1  0.83564104  0.17827858  0.62322832  1
  Pr3+  Pr71  1  -0.00043719  0.68073266  0.62587818  1
  Mn3.30+  Mn72  1  0.16643521  0.00146089  0.00078115  1
  Mn3.30+  Mn73  1  0.16415342  -0.00057793  0.49817388  1
  Mn3.30+  Mn74  1  0.16693396  0.33300212  0.00150853  1
  Mn3.30+  Mn75  1  0.16826122  0.33433602  0.49987708  1
  Mn3.30+  Mn76  1  0.16868824  0.66397685  0.00003867  1
  Mn3.30+  Mn77  1  0.17154080  0.66704202  0.49838124  1
  Mn3.30+  Mn78  1  0.50071525  -0.00129167  0.00221376  1
  Mn3.30+  Mn79  1  0.50049470  -0.00032212  0.49847981  1
  Mn3.30+  Mn80  1  0.49872343  0.33247206  -0.00056616  1
  Mn3.30+  Mn81  1  0.49797706  0.33603537  0.50117579  1
  Mn3.30+  Mn82  1  0.49779797  0.66539551  0.00049364  1
  Mn3.30+  Mn83  1  0.49635882  0.66499809  0.49974799  1
  Mn3.30+  Mn84  1  0.83528360  0.00116119  -0.00081721  1
  Mn3.30+  Mn85  1  0.83343351  0.00153565  0.49669289  1
  Mn3.30+  Mn86  1  0.83560967  0.33547976  0.00293932  1
  Mn3.30+  Mn87  1  0.83206109  0.33217516  0.49912815  1
  Mn3.30+  Mn88  1  0.83247781  0.66544342  0.00052455  1
  Mn3.30+  Mn89  1  0.83288498  0.66799764  0.50053268  1
  Mn3.30+  Mn90  1  -0.00035085  0.16728116  0.25012953  1
  Mn3.30+  Mn91  1  0.00161446  0.16673183  0.75047584  1
  Mn3.30+  Mn92  1  -0.00183326  0.50003298  0.24895610  1
  Mn3.30+  Mn93  1  0.00225458  0.49976533  0.74938615  1
  Mn3.30+  Mn94  1  -0.00038315  0.83392935  0.25005950  1
  Mn3.30+  Mn95  1  0.00126505  0.83497881  0.75174110  1
  Mn3.30+  Mn96  1  0.33079796  0.16661088  0.24853396  1
  Mn3.30+  Mn97  1  0.33319302  0.16902455  0.74999507  1
  Mn3.30+  Mn98  1  0.33530121  0.49978745  0.25139916  1
  Mn3.30+  Mn99  1  0.33491326  0.49931621  0.74853251  1
  Mn3.30+  Mn100  1  0.33558985  0.83120804  0.24898071  1
  Mn3.30+  Mn101  1  0.33289994  0.83070488  0.75030020  1
  Mn3.30+  Mn102  1  0.66835074  0.16567993  0.25197039  1
  Mn3.30+  Mn103  1  0.66680914  0.16650403  0.74854941  1
  Mn3.30+  Mn104  1  0.66635145  0.49947111  0.25015563  1
  Mn3.30+  Mn105  1  0.66318553  0.49999233  0.74897233  1
  Mn3.30+  Mn106  1  0.66501499  0.83333226  0.25004185  1
  Mn3.30+  Mn107  1  0.66471293  0.83384036  0.75081767  1
  Mn3.30+  Mn108  1  0.16547953  0.00009044  0.24919709  1
  Mn3.30+  Mn109  1  0.16544796  0.00080243  0.75085902  1
  Mn3.30+  Mn110  1  0.16545156  0.33228726  0.24796427  1
  Mn3.30+  Mn111  1  0.17002330  0.33485858  0.75071113  1
  Mn3.30+  Mn112  1  0.16945554  0.66475571  0.25086836  1
  Mn3.30+  Mn113  1  0.17050491  0.66653543  0.75051191  1
  Mn3.30+  Mn114  1  0.50072105  -0.00156659  0.24968415  1
  Mn3.30+  Mn115  1  0.50006167  0.00013504  0.74968057  1
  Mn3.30+  Mn116  1  0.50083364  0.33419457  0.25181638  1
  Mn3.30+  Mn117  1  0.49553436  0.33412214  0.74764522  1
  Mn3.30+  Mn118  1  0.49758680  0.66634717  0.25177794  1
  Mn3.30+  Mn119  1  0.49624858  0.66411992  0.74775317  1
  Mn3.30+  Mn120  1  0.83297419  0.00149103  0.25188709  1
  Mn3.30+  Mn121  1  0.83586369  0.00139026  0.75236372  1
  Mn3.30+  Mn122  1  0.83466627  0.33450085  0.24928642  1
  Mn3.30+  Mn123  1  0.83312843  0.33331231  0.74966459  1
  Mn3.30+  Mn124  1  0.83253987  0.66620938  0.24915232  1
  Mn3.30+  Mn125  1  0.83313546  0.66714100  0.75038563  1
  Mn3.30+  Mn126  1  0.00219808  0.16842205  0.00327641  1
  Mn3.30+  Mn127  1  -0.00106183  0.16557858  0.49591217  1
  Mn3.30+  Mn128  1  -0.00092349  0.49956496  0.00236307  1
  Mn3.30+  Mn129  1  0.00125634  0.50070801  0.49954484  1
  Mn3.30+  Mn130  1  0.00053361  0.83412063  -0.00015199  1
  Mn3.30+  Mn131  1  0.00033546  0.83460344  0.49826916  1
  Mn3.30+  Mn132  1  0.33126264  0.16740733  0.00161211  1
  Mn3.30+  Mn133  1  0.33323308  0.16808509  0.49923534  1
  Mn3.30+  Mn134  1  0.33348389  0.49837117  -0.00172088  1
  Mn3.30+  Mn135  1  0.33682676  0.50111073  0.50141498  1
  Mn3.30+  Mn136  1  0.33469806  0.83174739  0.00158189  1
  Mn3.30+  Mn137  1  0.33391322  0.83005110  0.49907017  1
  Mn3.30+  Mn138  1  0.66686550  0.16702745  0.00045051  1
  Mn3.30+  Mn139  1  0.66816290  0.16485245  0.49885251  1
  Mn3.30+  Mn140  1  0.66672066  0.49907737  0.00153923  1
  Mn3.30+  Mn141  1  0.66223108  0.50021217  0.49950338  1
  Mn3.30+  Mn142  1  0.66457720  0.83286925  -0.00001951  1
  Mn3.30+  Mn143  1  0.66531449  0.83444342  0.49893317  1
  O2-  O144  1  0.02925697  0.15799626  0.12646482  1
  O2-  O145  1  0.02675984  0.15968297  0.62176413  1
  O2-  O146  1  0.01841265  0.50154203  0.12684067  1
  O2-  O147  1  0.02710045  0.49515665  0.62228700  1
  O2-  O148  1  0.02509695  0.82531409  0.12444420  1
  O2-  O149  1  0.02639243  0.82864444  0.62550765  1
  O2-  O150  1  0.35262556  0.16928700  0.12621884  1
  O2-  O151  1  0.35828560  0.15724329  0.62364505  1
  O2-  O152  1  0.35841805  0.49187645  0.12503549  1
  O2-  O153  1  0.35885323  0.49053119  0.62458184  1
  O2-  O154  1  0.36099157  0.82337892  0.12368488  1
  O2-  O155  1  0.35569685  0.82774666  0.62489894  1
  O2-  O156  1  0.69178155  0.16046729  0.12768164  1
  O2-  O157  1  0.69202069  0.16465006  0.62433507  1
  O2-  O158  1  0.69216360  0.49961613  0.12581889  1
  O2-  O159  1  0.69263802  0.49599880  0.62479191  1
  O2-  O160  1  0.69245836  0.82717542  0.12344235  1
  O2-  O161  1  0.69064483  0.82766842  0.62647765  1
  O2-  O162  1  0.14052310  0.32673951  0.12753247  1
  O2-  O163  1  0.14119406  0.32944208  0.62306754  1
  O2-  O164  1  0.14316606  0.66475818  0.12530643  1
  O2-  O165  1  0.14252909  0.66456446  0.62333665  1
  O2-  O166  1  0.14036992  0.99192189  0.12504429  1
  O2-  O167  1  0.13941594  0.99399216  0.62363707  1
  O2-  O168  1  0.47694332  0.33556978  0.12576633  1
  O2-  O169  1  0.47122882  0.32257610  0.62447395  1
  O2-  O170  1  0.47460507  0.65613522  0.12620695  1
  O2-  O171  1  0.47375028  0.66015053  0.62406806  1
  O2-  O172  1  0.48313339  0.99319787  0.12422908  1
  O2-  O173  1  0.47428270  0.99558837  0.62385316  1
  O2-  O174  1  0.81095756  0.32820182  0.12555828  1
  O2-  O175  1  0.80541279  0.32595138  0.62263128  1
  O2-  O176  1  0.80705131  0.65995812  0.12400391  1
  O2-  O177  1  0.80652123  0.66197735  0.62601418  1
  O2-  O178  1  0.80655868  0.99629279  0.12347864  1
  O2-  O179  1  0.81611141  0.99733762  0.62645430  1
  O2-  O180  1  0.30649819  0.17302201  0.37525965  1
  O2-  O181  1  0.30888114  0.17017293  0.87466279  1
  O2-  O182  1  0.30966650  0.50459946  0.37675565  1
  O2-  O183  1  0.31632954  0.50777917  0.87330660  1
  O2-  O184  1  0.30953524  0.84045018  0.37470898  1
  O2-  O185  1  0.30968549  0.84140305  0.87640564  1
  O2-  O186  1  0.64244414  0.17288546  0.37619540  1
  O2-  O187  1  0.64270039  0.17123553  0.87228639  1
  O2-  O188  1  0.63950141  0.50658246  0.37716784  1
  O2-  O189  1  0.63909435  0.50434884  0.87286883  1
  O2-  O190  1  0.65016897  0.83817004  0.37496868  1
  O2-  O191  1  0.63907232  0.83915365  0.87537238  1
  O2-  O192  1  0.97009436  0.17675959  0.37408772  1
  O2-  O193  1  0.97587585  0.17793599  0.87782745  1
  O2-  O194  1  0.97429304  0.50652218  0.37646841  1
  O2-  O195  1  0.97565641  0.50303919  0.87502691  1
  O2-  O196  1  0.97234573  0.83647740  0.37334221  1
  O2-  O197  1  0.97474192  0.83885384  0.87675353  1
  O2-  O198  1  0.19266083  0.00297380  0.37413644  1
  O2-  O199  1  0.19354784  0.00667965  0.87615013  1
  O2-  O200  1  0.19061738  0.33842710  0.37612828  1
  O2-  O201  1  0.18878725  0.33289096  0.87292334  1
  O2-  O202  1  0.19674533  0.67332768  0.37513379  1
  O2-  O203  1  0.19269208  0.67300911  0.87581547  1
  O2-  O204  1  0.52355204  0.00483567  0.37560570  1
  O2-  O205  1  0.52305456  0.00604024  0.87607025  1
  O2-  O206  1  0.52471402  0.34040813  0.37817393  1
  O2-  O207  1  0.52479617  0.33712017  0.87149011  1
  O2-  O208  1  0.52463148  0.67149318  0.37511574  1
  O2-  O209  1  0.52467580  0.67006897  0.87500291  1
  O2-  O210  1  0.86169833  0.00231507  0.37407781  1
  O2-  O211  1  0.86500316  0.00766388  0.87644576  1
  O2-  O212  1  0.85897521  0.34257333  0.37556662  1
  O2-  O213  1  0.86124671  0.33877034  0.87687859  1
  O2-  O214  1  0.85836972  0.67496157  0.37611231  1
  O2-  O215  1  0.85979186  0.67308286  0.87427064  1
  O2-  O216  1  0.23473192  0.09705794  0.01738431  1
  O2-  O217  1  0.23703537  0.09443581  0.51935662  1
  O2-  O218  1  0.24249735  0.42208803  0.01911621  1
  O2-  O219  1  0.23693792  0.43248963  0.51588958  1
  O2-  O220  1  0.23897125  0.76039770  0.02084348  1
  O2-  O221  1  0.23501790  0.76475443  0.51699720  1
  O2-  O222  1  0.57594709  0.09038744  0.01678433  1
  O2-  O223  1  0.56915396  0.09680274  0.51641297  1
  O2-  O224  1  0.57065423  0.42963196  0.01501068  1
  O2-  O225  1  0.57072346  0.42762524  0.52625674  1
  O2-  O226  1  0.56759864  0.76067858  0.02074130  1
  O2-  O227  1  0.57034089  0.75705263  0.52277273  1
  O2-  O228  1  0.90623274  0.09811501  0.02272934  1
  O2-  O229  1  0.90559583  0.09454301  0.52132405  1
  O2-  O230  1  0.90118497  0.43256100  0.01842022  1
  O2-  O231  1  0.90205011  0.42627247  0.52186877  1
  O2-  O232  1  0.90450366  0.76074541  0.02021349  1
  O2-  O233  1  0.90643022  0.76283973  0.52292559  1
  O2-  O234  1  0.26083887  0.26198085  0.23303314  1
  O2-  O235  1  0.26063169  0.26135723  0.72570180  1
  O2-  O236  1  0.26423558  0.59183059  0.23150442  1
  O2-  O237  1  0.26341461  0.59441632  0.72634917  1
  O2-  O238  1  0.25862457  0.92280160  0.23157079  1
  O2-  O239  1  0.26032616  0.93023271  0.72991061  1
  O2-  O240  1  0.59404783  0.26072751  0.23950658  1
  O2-  O241  1  0.59344423  0.26341592  0.72904383  1
  O2-  O242  1  0.59544129  0.59560509  0.23059722  1
  O2-  O243  1  0.59683989  0.59754030  0.73203102  1
  O2-  O244  1  0.59740429  0.92526359  0.23187390  1
  O2-  O245  1  0.59145609  0.92623906  0.73204262  1
  O2-  O246  1  0.93226358  0.26365560  0.22764907  1
  O2-  O247  1  0.92868205  0.26061332  0.72737018  1
  O2-  O248  1  0.92931582  0.59820423  0.23458103  1
  O2-  O249  1  0.92856815  0.59439183  0.72884660  1
  O2-  O250  1  0.92615429  0.92832319  0.22619262  1
  O2-  O251  1  0.92813761  0.92734784  0.72911892  1
  O2-  O252  1  0.09299305  0.23923698  0.27528424  1
  O2-  O253  1  0.09557621  0.23749056  0.76720164  1
  O2-  O254  1  0.09284598  0.57455496  0.27394044  1
  O2-  O255  1  0.09515015  0.57677937  0.76659744  1
  O2-  O256  1  0.09415451  0.90408833  0.26805953  1
  O2-  O257  1  0.09790841  0.90519348  0.77091643  1
  O2-  O258  1  0.42573933  0.24208397  0.27255861  1
  O2-  O259  1  0.43107075  0.23529214  0.76821563  1
  O2-  O260  1  0.43244442  0.56763929  0.26804604  1
  O2-  O261  1  0.43091817  0.56871312  0.76701507  1
  O2-  O262  1  0.42365587  0.90812219  0.26765115  1
  O2-  O263  1  0.42652851  0.90350248  0.76899959  1
  O2-  O264  1  0.76362982  0.23715004  0.27091207  1
  O2-  O265  1  0.76211280  0.24024245  0.77146091  1
  O2-  O266  1  0.75875466  0.57383997  0.27462478  1
  O2-  O267  1  0.76210436  0.57257295  0.77049914  1
  O2-  O268  1  0.76514243  0.90358134  0.26457677  1
  O2-  O269  1  0.76349494  0.90869544  0.77253220  1
  O2-  O270  1  0.06897818  0.07087667  0.47523554  1
  O2-  O271  1  0.07035163  0.07131902  0.97798718  1
  O2-  O272  1  0.07258390  0.40410924  0.47863081  1
  O2-  O273  1  0.07071153  0.40511272  0.98560473  1
  O2-  O274  1  0.07157188  0.73935644  0.47896198  1
  O2-  O275  1  0.07337404  0.73918801  0.97914739  1
  O2-  O276  1  0.40465686  0.07198103  0.47820976  1
  O2-  O277  1  0.40651754  0.07410832  0.98020322  1
  O2-  O278  1  0.40299945  0.40390418  0.48009404  1
  O2-  O279  1  0.40494608  0.40352268  0.97813325  1
  O2-  O280  1  0.40199125  0.73543210  0.48221243  1
  O2-  O281  1  0.40362393  0.73449795  0.97713349  1
  O2-  O282  1  0.73985929  0.06927091  0.47803546  1
  O2-  O283  1  0.74300171  0.07264557  0.97698782  1
  O2-  O284  1  0.73603772  0.40628830  0.47991264  1
  O2-  O285  1  0.73980335  0.40662451  0.97559098  1
  O2-  O286  1  0.73892499  0.73889547  0.48085323  1
  O2-  O287  1  0.73727677  0.73966769  0.97819397  1
  O2-  O288  1  0.09413325  0.23689873  0.47917161  1
  O2-  O289  1  0.09440089  0.23957418  0.97847666  1
  O2-  O290  1  0.09910000  0.57567034  0.47797199  1
  O2-  O291  1  0.08988821  0.57606041  0.98094088  1
  O2-  O292  1  0.09534147  0.90281622  0.47905136  1
  O2-  O293  1  0.09631965  0.90517265  0.98146960  1
  O2-  O294  1  0.42929797  0.23868794  0.47726762  1
  O2-  O295  1  0.42583631  0.23964288  0.98089266  1
  O2-  O296  1  0.43173677  0.56854707  0.47936588  1
  O2-  O297  1  0.43172815  0.56806485  0.98458315  1
  O2-  O298  1  0.42326012  0.90731337  0.48388603  1
  O2-  O299  1  0.42768802  0.90604407  0.97834668  1
  O2-  O300  1  0.76324067  0.23824010  0.47706590  1
  O2-  O301  1  0.76348195  0.24033566  0.98064241  1
  O2-  O302  1  0.76089558  0.57208646  0.48074967  1
  O2-  O303  1  0.75885701  0.57367722  0.97474824  1
  O2-  O304  1  0.76621755  0.90523102  0.48553282  1
  O2-  O305  1  0.76284120  0.90674389  0.97746956  1
  O2-  O306  1  0.06723537  0.07170837  0.27338742  1
  O2-  O307  1  0.07145738  0.07102742  0.77188523  1
  O2-  O308  1  0.07260016  0.40797915  0.27119730  1
  O2-  O309  1  0.07045341  0.40214827  0.76543324  1
  O2-  O310  1  0.07364627  0.73917108  0.27115295  1
  O2-  O311  1  0.07179938  0.73962641  0.77056877  1
  O2-  O312  1  0.40530135  0.07577601  0.27127876  1
  O2-  O313  1  0.40467923  0.07087749  0.76970039  1
  O2-  O314  1  0.40460050  0.40462110  0.26895623  1
  O2-  O315  1  0.40310104  0.40255928  0.77327387  1
  O2-  O316  1  0.40162673  0.73246117  0.26783220  1
  O2-  O317  1  0.40529156  0.73617965  0.77262577  1
  O2-  O318  1  0.73788468  0.06818432  0.27030036  1
  O2-  O319  1  0.74396055  0.07366709  0.77396144  1
  O2-  O320  1  0.73875627  0.40726905  0.27454271  1
  O2-  O321  1  0.73700997  0.40606097  0.76984696  1
  O2-  O322  1  0.73795855  0.73900994  0.26887770  1
  O2-  O323  1  0.73803262  0.74036131  0.77231345  1
  O2-  O324  1  0.23333585  0.09639361  0.23389084  1
  O2-  O325  1  0.23697132  0.09475140  0.72877629  1
  O2-  O326  1  0.24116578  0.42412927  0.23527992  1
  O2-  O327  1  0.23836212  0.43002471  0.72931427  1
  O2-  O328  1  0.23952608  0.76060080  0.22845502  1
  O2-  O329  1  0.23571186  0.76468904  0.73359212  1
  O2-  O330  1  0.57492564  0.09238968  0.23419917  1
  O2-  O331  1  0.57128890  0.09657055  0.73254000  1
  O2-  O332  1  0.57281829  0.42889613  0.23366286  1
  O2-  O333  1  0.56753698  0.42780152  0.72642026  1
  O2-  O334  1  0.57193919  0.75905785  0.22691053  1
  O2-  O335  1  0.56709098  0.75852768  0.72973128  1
  O2-  O336  1  0.90508710  0.09557057  0.22670215  1
  O2-  O337  1  0.90658022  0.09690166  0.73025681  1
  O2-  O338  1  0.90254469  0.43286840  0.23376344  1
  O2-  O339  1  0.90280982  0.42697217  0.72779863  1
  O2-  O340  1  0.90552707  0.76099456  0.22790443  1
  O2-  O341  1  0.90516276  0.76153627  0.72933671  1
  O2-  O342  1  0.25986936  0.26068647  0.01860495  1
  O2-  O343  1  0.26150764  0.26342386  0.52156433  1
  O2-  O344  1  0.26289474  0.59230642  0.01809482  1
  O2-  O345  1  0.26426330  0.59459692  0.52399628  1
  O2-  O346  1  0.25901113  0.92545240  0.01849208  1
  O2-  O347  1  0.26028641  0.92720828  0.51989723  1
  O2-  O348  1  0.59282705  0.26146624  0.01115136  1
  O2-  O349  1  0.59388105  0.26310072  0.51973073  1
  O2-  O350  1  0.59505061  0.59588883  0.01933489  1
  O2-  O351  1  0.59746398  0.59715916  0.51857725  1
  O2-  O352  1  0.59905558  0.92882539  0.01662344  1
  O2-  O353  1  0.58897158  0.92294935  0.51906374  1
  O2-  O354  1  0.93039848  0.26374128  0.02378789  1
  O2-  O355  1  0.92934839  0.26112036  0.52176890  1
  O2-  O356  1  0.92866587  0.59665917  0.01576474  1
  O2-  O357  1  0.92735318  0.59673581  0.52141314  1
  O2-  O358  1  0.92609078  0.92813800  0.02402020  1
  O2-  O359  1  0.92855368  0.92739787  0.52109241  1
