# generated using pymatgen
data_Sr7Ca15Pr50Mn72O216
_symmetry_space_group_name_H-M   'P 1'
_cell_length_a   16.55891839
_cell_length_b   16.60419885
_cell_length_c   15.59327196
_cell_angle_alpha   90.00716067
_cell_angle_beta   90.00454757
_cell_angle_gamma   89.98923197
_symmetry_Int_Tables_number   1
_chemical_formula_structural   Sr7Ca15Pr50Mn72O216
_chemical_formula_sum   'Sr7 Ca15 Pr50 Mn72 O216'
_cell_volume   4287.33216776
_cell_formula_units_Z   1
loop_
 _symmetry_equiv_pos_site_id
 _symmetry_equiv_pos_as_xyz
  1  'x, y, z'
loop_
 _atom_type_symbol
 _atom_type_oxidation_number
  Sr2+  2.0
  Ca2+  2.0
  Pr3+  3.0
  Mn3.30+  3.3
  O2-  -2.0
loop_
 _atom_site_type_symbol
 _atom_site_label
 _atom_site_symmetry_multiplicity
 _atom_site_fract_x
 _atom_site_fract_y
 _atom_site_fract_z
 _atom_site_occupancy
  Sr2+  Sr0  1  0.66654965  0.34458921  0.12533620  1
  Sr2+  Sr1  1  0.33531594  0.99090338  0.87641742  1
  Sr2+  Sr2  1  0.33407974  0.67313169  0.12455882  1
  Sr2+  Sr3  1  0.66801540  0.99108819  0.37720996  1
  Sr2+  Sr4  1  0.83441893  0.51003639  0.12416328  1
  Sr2+  Sr5  1  0.83065351  0.82434149  0.37675316  1
  Sr2+  Sr6  1  0.83003968  0.48958156  0.37352655  1
  Ca2+  Ca7  1  0.67072256  0.32084679  0.37334941  1
  Ca2+  Ca8  1  0.83439536  0.18286720  0.12744847  1
  Ca2+  Ca9  1  0.33896997  0.31792004  0.87512459  1
  Ca2+  Ca10  1  -0.00409582  0.67835900  0.12641088  1
  Ca2+  Ca11  1  0.33627777  0.98656178  0.37399702  1
  Ca2+  Ca12  1  0.83459808  0.85048810  0.62206119  1
  Ca2+  Ca13  1  0.66465923  0.01321492  0.62027034  1
  Ca2+  Ca14  1  0.17074232  0.85081870  0.62454856  1
  Ca2+  Ca15  1  0.67026254  0.31988056  0.87722585  1
  Ca2+  Ca16  1  0.50567537  0.51365013  0.12517942  1
  Ca2+  Ca17  1  0.82645109  0.48066141  0.87692024  1
  Ca2+  Ca18  1  0.49993574  0.15094883  0.37371047  1
  Ca2+  Ca19  1  0.16758960  0.51574094  0.12478221  1
  Ca2+  Ca20  1  0.66365550  0.34526732  0.62388929  1
  Ca2+  Ca21  1  0.16293955  0.15077204  0.37535165  1
  Pr3+  Pr22  1  0.83388377  0.50962583  0.62608990  1
  Pr3+  Pr23  1  0.49829315  0.82430275  0.37546874  1
  Pr3+  Pr24  1  0.16802084  0.84349062  0.12550048  1
  Pr3+  Pr25  1  1.00198716  0.98742885  0.37614644  1
  Pr3+  Pr26  1  1.00146248  0.65202329  0.87666796  1
  Pr3+  Pr27  1  0.49611245  0.48190916  0.87725791  1
  Pr3+  Pr28  1  0.17169246  0.17956104  0.62398230  1
  Pr3+  Pr29  1  0.33805970  0.31823301  0.37468644  1
  Pr3+  Pr30  1  0.82844174  0.15765463  0.87706868  1
  Pr3+  Pr31  1  0.33290999  0.34496874  0.62610328  1
  Pr3+  Pr32  1  0.16415800  0.82103989  0.87384099  1
  Pr3+  Pr33  1  0.17060713  0.17950517  0.12650385  1
  Pr3+  Pr34  1  0.66601372  0.67959880  0.62411549  1
  Pr3+  Pr35  1  0.33558189  0.65383731  0.37377314  1
  Pr3+  Pr36  1  0.99853802  0.32248941  0.87629176  1
  Pr3+  Pr37  1  0.82865468  0.15671429  0.37296329  1
  Pr3+  Pr38  1  -0.00530671  0.68289730  0.62483882  1
  Pr3+  Pr39  1  0.50008556  0.48631438  0.37243303  1
  Pr3+  Pr40  1  0.49618267  0.82177410  0.87381687  1
  Pr3+  Pr41  1  0.16628374  0.48709901  0.87823661  1
  Pr3+  Pr42  1  0.83567208  0.84115511  0.12638434  1
  Pr3+  Pr43  1  0.50480985  0.51073759  0.62491690  1
  Pr3+  Pr44  1  0.67111970  0.64909543  0.87372312  1
  Pr3+  Pr45  1  -0.00353038  0.34474559  0.62525642  1
  Pr3+  Pr46  1  0.50653712  0.17827453  0.62257002  1
  Pr3+  Pr47  1  0.32809528  0.68317973  0.62542390  1
  Pr3+  Pr48  1  0.16317074  0.48911784  0.37198473  1
  Pr3+  Pr49  1  0.67009566  0.98911050  0.87373753  1
  Pr3+  Pr50  1  0.50261931  0.84417895  0.12501148  1
  Pr3+  Pr51  1  0.33103855  0.01194592  0.12674177  1
  Pr3+  Pr52  1  0.33112847  0.34903244  0.12363904  1
  Pr3+  Pr53  1  -0.00165897  0.01290872  0.62368626  1
  Pr3+  Pr54  1  0.49978608  0.15702720  0.87701503  1
  Pr3+  Pr55  1  0.16854024  0.51186236  0.62552829  1
  Pr3+  Pr56  1  1.00238420  0.32035868  0.37394464  1
  Pr3+  Pr57  1  0.50262020  0.17784742  0.12766271  1
  Pr3+  Pr58  1  0.83109697  0.82001114  0.87216609  1
  Pr3+  Pr59  1  0.66601046  0.01223053  0.12884387  1
  Pr3+  Pr60  1  0.67127744  0.65483555  0.37537653  1
  Pr3+  Pr61  1  0.99949486  0.65443707  0.37303366  1
  Pr3+  Pr62  1  0.16642178  0.15473232  0.87517199  1
  Pr3+  Pr63  1  -0.00553235  0.34599279  0.12508540  1
  Pr3+  Pr64  1  0.50394270  0.85142884  0.62443436  1
  Pr3+  Pr65  1  0.33075180  0.01318729  0.62362396  1
  Pr3+  Pr66  1  0.83027502  0.17834051  0.62261288  1
  Pr3+  Pr67  1  0.66326247  0.67322500  0.12647226  1
  Pr3+  Pr68  1  1.00356653  0.98795840  0.87423549  1
  Pr3+  Pr69  1  0.16344058  0.82109275  0.37608365  1
  Pr3+  Pr70  1  -0.00579036  0.01503496  0.12652309  1
  Pr3+  Pr71  1  0.33552929  0.65465636  0.87618310  1
  Mn3.30+  Mn72  1  0.16572776  -0.00031337  0.00106305  1
  Mn3.30+  Mn73  1  0.16845828  0.00044101  0.49821132  1
  Mn3.30+  Mn74  1  0.16749417  0.33418690  0.00009924  1
  Mn3.30+  Mn75  1  0.16772995  0.33267257  0.49878436  1
  Mn3.30+  Mn76  1  0.16548373  0.66591163  0.00223420  1
  Mn3.30+  Mn77  1  0.16577350  0.66784618  0.50129488  1
  Mn3.30+  Mn78  1  0.50110281  -0.00001211  0.00109227  1
  Mn3.30+  Mn79  1  0.49876988  0.00171628  0.49692097  1
  Mn3.30+  Mn80  1  0.50049904  0.33347533  0.00133911  1
  Mn3.30+  Mn81  1  0.50321703  0.33086072  0.49732298  1
  Mn3.30+  Mn82  1  0.50097784  0.66503437  -0.00062635  1
  Mn3.30+  Mn83  1  0.49963995  0.66707770  0.50092488  1
  Mn3.30+  Mn84  1  0.83394959  0.00076285  0.00006374  1
  Mn3.30+  Mn85  1  0.83147188  0.00060577  0.50142157  1
  Mn3.30+  Mn86  1  0.83137344  0.33349466  0.00104355  1
  Mn3.30+  Mn87  1  0.83008273  0.33430425  0.49944124  1
  Mn3.30+  Mn88  1  0.83412927  0.66426290  -0.00073200  1
  Mn3.30+  Mn89  1  0.83290183  0.66771101  0.50124151  1
  Mn3.30+  Mn90  1  0.00073421  0.16707775  0.25073120  1
  Mn3.30+  Mn91  1  -0.00075757  0.16759823  0.74946398  1
  Mn3.30+  Mn92  1  -0.00048477  0.50100876  0.24776861  1
  Mn3.30+  Mn93  1  -0.00139605  0.49932475  0.75246763  1
  Mn3.30+  Mn94  1  -0.00028899  0.83171644  0.25040383  1
  Mn3.30+  Mn95  1  -0.00088838  0.83483646  0.74693026  1
  Mn3.30+  Mn96  1  0.33360784  0.16515981  0.25370280  1
  Mn3.30+  Mn97  1  0.33633284  0.16748158  0.75007726  1
  Mn3.30+  Mn98  1  0.33267458  0.50006907  0.24763979  1
  Mn3.30+  Mn99  1  0.33469479  0.49887958  0.75090977  1
  Mn3.30+  Mn100  1  0.33246797  0.83269696  0.24969677  1
  Mn3.30+  Mn101  1  0.33218069  0.83546435  0.74990880  1
  Mn3.30+  Mn102  1  0.66642733  0.16867671  0.25103419  1
  Mn3.30+  Mn103  1  0.66622199  0.16776681  0.74922061  1
  Mn3.30+  Mn104  1  0.66604140  0.49872170  0.24890314  1
  Mn3.30+  Mn105  1  0.66751230  0.49481596  0.75119223  1
  Mn3.30+  Mn106  1  0.66778516  0.83337064  0.25099663  1
  Mn3.30+  Mn107  1  0.66724971  0.83533041  0.74753894  1
  Mn3.30+  Mn108  1  0.16701396  0.00062859  0.25203099  1
  Mn3.30+  Mn109  1  0.16715917  -0.00051873  0.74929109  1
  Mn3.30+  Mn110  1  0.16733233  0.33351211  0.24933014  1
  Mn3.30+  Mn111  1  0.16850594  0.33334400  0.75262520  1
  Mn3.30+  Mn112  1  0.16599781  0.66579503  0.24753567  1
  Mn3.30+  Mn113  1  0.16524269  0.66788058  0.74944821  1
  Mn3.30+  Mn114  1  0.49802577  -0.00055424  0.25224879  1
  Mn3.30+  Mn115  1  0.50160375  0.00257758  0.74927409  1
  Mn3.30+  Mn116  1  0.50203702  0.33249612  0.25073530  1
  Mn3.30+  Mn117  1  0.50257418  0.33154953  0.75098967  1
  Mn3.30+  Mn118  1  0.50014408  0.66591344  0.25011487  1
  Mn3.30+  Mn119  1  0.50025835  0.66643093  0.74905562  1
  Mn3.30+  Mn120  1  0.83244951  0.00092560  0.25005818  1
  Mn3.30+  Mn121  1  0.83247792  0.00091153  0.74752163  1
  Mn3.30+  Mn122  1  0.83224559  0.33428115  0.25030493  1
  Mn3.30+  Mn123  1  0.82895935  0.33305751  0.74966795  1
  Mn3.30+  Mn124  1  0.83340002  0.66636646  0.24889822  1
  Mn3.30+  Mn125  1  0.83325748  0.66535520  0.74988159  1
  Mn3.30+  Mn126  1  -0.00128037  0.16739965  0.00087962  1
  Mn3.30+  Mn127  1  0.00139687  0.16710926  0.49936357  1
  Mn3.30+  Mn128  1  -0.00157923  0.50084088  0.00063271  1
  Mn3.30+  Mn129  1  -0.00043993  0.49970359  0.49974982  1
  Mn3.30+  Mn130  1  -0.00078903  0.83180031  0.00005512  1
  Mn3.30+  Mn131  1  -0.00019028  0.83419349  0.50198771  1
  Mn3.30+  Mn132  1  0.33440659  0.16837387  0.00077499  1
  Mn3.30+  Mn133  1  0.33508513  0.16462219  0.49570119  1
  Mn3.30+  Mn134  1  0.33323657  0.49971442  0.00158104  1
  Mn3.30+  Mn135  1  0.33398743  0.49930784  0.49955777  1
  Mn3.30+  Mn136  1  0.33302709  0.83271510  0.00073667  1
  Mn3.30+  Mn137  1  0.33160528  0.83524648  0.49974170  1
  Mn3.30+  Mn138  1  0.66750906  0.16852757  0.00294208  1
  Mn3.30+  Mn139  1  0.66532530  0.16810245  0.49750368  1
  Mn3.30+  Mn140  1  0.66611432  0.49764790  -0.00024066  1
  Mn3.30+  Mn141  1  0.66749946  0.49665326  0.50044093  1
  Mn3.30+  Mn142  1  0.66734925  0.83201938  -0.00147391  1
  Mn3.30+  Mn143  1  0.66810990  0.83598758  0.50194391  1
  O2-  O144  1  0.02739558  0.16265791  0.12684720  1
  O2-  O145  1  0.02796908  0.16365590  0.62493739  1
  O2-  O146  1  0.02637308  0.49173912  0.12365045  1
  O2-  O147  1  0.02507408  0.49250832  0.62709927  1
  O2-  O148  1  0.02361818  0.82655529  0.12451257  1
  O2-  O149  1  0.02942741  0.83011141  0.62497786  1
  O2-  O150  1  0.35732316  0.16111960  0.12796705  1
  O2-  O151  1  0.36019689  0.16160487  0.62091986  1
  O2-  O152  1  0.36224556  0.49577385  0.12487264  1
  O2-  O153  1  0.35995561  0.49343324  0.62649734  1
  O2-  O154  1  0.35759306  0.82995655  0.12342775  1
  O2-  O155  1  0.35879893  0.82963933  0.62409107  1
  O2-  O156  1  0.69217360  0.15866160  0.12621393  1
  O2-  O157  1  0.68708937  0.15705337  0.62354169  1
  O2-  O158  1  0.68391138  0.50538741  0.12343358  1
  O2-  O159  1  0.69011869  0.49041980  0.62697033  1
  O2-  O160  1  0.69145757  0.82422460  0.12262331  1
  O2-  O161  1  0.69332761  0.82641308  0.62654057  1
  O2-  O162  1  0.13837984  0.32414041  0.12528223  1
  O2-  O163  1  0.14190533  0.32776242  0.62653656  1
  O2-  O164  1  0.13857929  0.66255942  0.12362876  1
  O2-  O165  1  0.13863695  0.65732834  0.62610451  1
  O2-  O166  1  0.13878484  0.99409420  0.12571806  1
  O2-  O167  1  0.14285961  0.99724840  0.62458639  1
  O2-  O168  1  0.47331984  0.32488993  0.12719295  1
  O2-  O169  1  0.47489918  0.32697658  0.62299877  1
  O2-  O170  1  0.48443412  0.66137597  0.12420451  1
  O2-  O171  1  0.47237127  0.65875138  0.62465142  1
  O2-  O172  1  0.47561816  0.99428974  0.12667556  1
  O2-  O173  1  0.47480097  1.00077542  0.62155749  1
  O2-  O174  1  0.81757965  0.32847991  0.12579367  1
  O2-  O175  1  0.80648645  0.32746078  0.62491082  1
  O2-  O176  1  0.80803865  0.66941306  0.12035676  1
  O2-  O177  1  0.80928656  0.65662169  0.62765795  1
  O2-  O178  1  0.80986418  0.98988552  0.12255981  1
  O2-  O179  1  0.80753663  0.99757300  0.62619095  1
  O2-  O180  1  0.30239921  0.17455771  0.37423301  1
  O2-  O181  1  0.31004049  0.17307210  0.87719221  1
  O2-  O182  1  0.30750371  0.50427582  0.37399826  1
  O2-  O183  1  0.30937655  0.50696085  0.87421641  1
  O2-  O184  1  0.30775492  0.83807149  0.37606563  1
  O2-  O185  1  0.30924583  0.83500307  0.87642699  1
  O2-  O186  1  0.64234511  0.17592709  0.37411633  1
  O2-  O187  1  0.64436025  0.17199863  0.87659661  1
  O2-  O188  1  0.64318320  0.50857074  0.37615584  1
  O2-  O189  1  0.63908879  0.50434337  0.87404328  1
  O2-  O190  1  0.64261096  0.83350303  0.37791408  1
  O2-  O191  1  0.64000114  0.84159404  0.87187123  1
  O2-  O192  1  0.97376141  0.17079989  0.37516587  1
  O2-  O193  1  0.97327928  0.17178723  0.87357176  1
  O2-  O194  1  0.98141241  0.50561373  0.37425212  1
  O2-  O195  1  0.97102496  0.50477310  0.87517029  1
  O2-  O196  1  0.98094450  0.83838643  0.37678823  1
  O2-  O197  1  0.97477861  0.84034908  0.87277570  1
  O2-  O198  1  0.19353717  0.00567931  0.37429731  1
  O2-  O199  1  0.18480987  0.00575500  0.87572604  1
  O2-  O200  1  0.19449267  0.34385553  0.37307812  1
  O2-  O201  1  0.19702236  0.33979461  0.87601333  1
  O2-  O202  1  0.19131480  0.67223666  0.37687681  1
  O2-  O203  1  0.19113290  0.67361339  0.87349080  1
  O2-  O204  1  0.51918141  -0.00226391  0.37406772  1
  O2-  O205  1  0.52641236  0.00692473  0.87747513  1
  O2-  O206  1  0.52830327  0.34108051  0.37364444  1
  O2-  O207  1  0.52764718  0.33495480  0.87633494  1
  O2-  O208  1  0.52579053  0.67458790  0.37864947  1
  O2-  O209  1  0.52620112  0.67496098  0.87180882  1
  O2-  O210  1  0.85813153  0.00712668  0.37611658  1
  O2-  O211  1  0.85969977  0.00858793  0.87503266  1
  O2-  O212  1  0.85827658  0.33279144  0.37610373  1
  O2-  O213  1  0.85513046  0.33139631  0.87378926  1
  O2-  O214  1  0.85514460  0.66878814  0.37852499  1
  O2-  O215  1  0.85877604  0.67413735  0.87275680  1
  O2-  O216  1  0.23954984  0.09491881  0.02007061  1
  O2-  O217  1  0.23871743  0.09430313  0.52276904  1
  O2-  O218  1  0.23564586  0.42901345  0.02369461  1
  O2-  O219  1  0.23938776  0.42795996  0.52184069  1
  O2-  O220  1  0.23387759  0.76150937  0.01703063  1
  O2-  O221  1  0.23587030  0.76329635  0.52248970  1
  O2-  O222  1  0.57429639  0.09270379  0.02264942  1
  O2-  O223  1  0.57042991  0.09535080  0.51275640  1
  O2-  O224  1  0.56483540  0.43145212  0.01737374  1
  O2-  O225  1  0.56868358  0.43029648  0.51686098  1
  O2-  O226  1  0.57221380  0.76100646  0.01790632  1
  O2-  O227  1  0.57143581  0.76185710  0.52344613  1
  O2-  O228  1  0.90395079  0.09555134  0.02323178  1
  O2-  O229  1  0.90772464  0.09453701  0.52221577  1
  O2-  O230  1  0.90946541  0.42483046  0.01563518  1
  O2-  O231  1  0.90470665  0.42497325  0.52268620  1
  O2-  O232  1  0.90312475  0.76524200  0.01387107  1
  O2-  O233  1  0.90516361  0.76047206  0.52486056  1
  O2-  O234  1  0.26250169  0.26285453  0.22817156  1
  O2-  O235  1  0.26282509  0.25894202  0.72790917  1
  O2-  O236  1  0.25866270  0.59496963  0.23514692  1
  O2-  O237  1  0.26105703  0.59611671  0.72922595  1
  O2-  O238  1  0.25842659  0.92704222  0.22728398  1
  O2-  O239  1  0.26267141  0.92825146  0.73055593  1
  O2-  O240  1  0.59075910  0.25752185  0.22784581  1
  O2-  O241  1  0.59594091  0.26112136  0.72629661  1
  O2-  O242  1  0.59474228  0.59693642  0.23753328  1
  O2-  O243  1  0.59661283  0.59333340  0.72878801  1
  O2-  O244  1  0.59299902  0.92340475  0.22739426  1
  O2-  O245  1  0.59608646  0.93251497  0.72674450  1
  O2-  O246  1  0.93248965  0.26218492  0.23477249  1
  O2-  O247  1  0.92739725  0.26117964  0.72874509  1
  O2-  O248  1  0.93067005  0.59709553  0.23286695  1
  O2-  O249  1  0.93000382  0.59478771  0.72880720  1
  O2-  O250  1  0.92842383  0.92756565  0.23100282  1
  O2-  O251  1  0.93020611  0.93169386  0.73122874  1
  O2-  O252  1  0.09692418  0.23732181  0.27347578  1
  O2-  O253  1  0.09566725  0.24073348  0.77312558  1
  O2-  O254  1  0.09395538  0.57357613  0.27062678  1
  O2-  O255  1  0.09639034  0.57196661  0.77278438  1
  O2-  O256  1  0.09570856  0.90616710  0.27050444  1
  O2-  O257  1  0.09303036  0.90649315  0.77087718  1
  O2-  O258  1  0.42771962  0.23551828  0.27353172  1
  O2-  O259  1  0.43300311  0.23776278  0.76793766  1
  O2-  O260  1  0.42658869  0.57465926  0.27300421  1
  O2-  O261  1  0.42829050  0.57161103  0.77190910  1
  O2-  O262  1  0.42799216  0.90230744  0.26641710  1
  O2-  O263  1  0.43384086  0.90624453  0.76562058  1
  O2-  O264  1  0.76222661  0.23982848  0.26753866  1
  O2-  O265  1  0.76413794  0.23405863  0.76476260  1
  O2-  O266  1  0.75748249  0.57642818  0.26634997  1
  O2-  O267  1  0.76078948  0.56565726  0.77064795  1
  O2-  O268  1  0.75935473  0.90546895  0.26211393  1
  O2-  O269  1  0.76193676  0.90796948  0.77288167  1
  O2-  O270  1  0.07194448  0.07029878  0.48129814  1
  O2-  O271  1  0.07022342  0.07351714  0.98122635  1
  O2-  O272  1  0.07295219  0.40497646  0.48057562  1
  O2-  O273  1  0.07348217  0.40505413  0.97665860  1
  O2-  O274  1  0.07089116  0.73696283  0.48024590  1
  O2-  O275  1  0.07156026  0.74043640  0.97569490  1
  O2-  O276  1  0.39998294  0.06865202  0.47808019  1
  O2-  O277  1  0.41020327  0.07464275  0.98507558  1
  O2-  O278  1  0.40763348  0.40164801  0.47931813  1
  O2-  O279  1  0.40264595  0.40232948  0.97895155  1
  O2-  O280  1  0.40189110  0.73962871  0.48065881  1
  O2-  O281  1  0.40837886  0.73892418  0.97791866  1
  O2-  O282  1  0.74309786  0.07863545  0.48033628  1
  O2-  O283  1  0.73858245  0.07088005  0.97997801  1
  O2-  O284  1  0.73563944  0.40276912  0.48046679  1
  O2-  O285  1  0.73561631  0.40518688  0.98103996  1
  O2-  O286  1  0.73546841  0.73605788  0.48612137  1
  O2-  O287  1  0.73875376  0.73843342  0.97466882  1
  O2-  O288  1  0.09613381  0.23870293  0.47778159  1
  O2-  O289  1  0.09582112  0.23916409  0.97718443  1
  O2-  O290  1  0.09676943  0.57260749  0.48075159  1
  O2-  O291  1  0.09326824  0.57253421  0.97605889  1
  O2-  O292  1  0.09645419  0.90851896  0.47880612  1
  O2-  O293  1  0.09259667  0.90367599  0.97982508  1
  O2-  O294  1  0.43039231  0.23558809  0.47568864  1
  O2-  O295  1  0.42911109  0.23881465  0.98310860  1
  O2-  O296  1  0.42724371  0.57184720  0.47770666  1
  O2-  O297  1  0.42823397  0.57435550  0.97669968  1
  O2-  O298  1  0.42959949  0.90280106  0.48415915  1
  O2-  O299  1  0.43279120  0.90465823  0.98338342  1
  O2-  O300  1  0.76380756  0.23749224  0.48314166  1
  O2-  O301  1  0.76128309  0.23767586  0.98417632  1
  O2-  O302  1  0.75887032  0.57248775  0.48704077  1
  O2-  O303  1  0.76231391  0.57159584  0.97551420  1
  O2-  O304  1  0.76063052  0.90736164  0.48631479  1
  O2-  O305  1  0.76252055  0.90525069  0.97738409  1
  O2-  O306  1  0.06982778  0.06987928  0.26906166  1
  O2-  O307  1  0.07170581  0.07411403  0.76939704  1
  O2-  O308  1  0.07356382  0.40457519  0.27081253  1
  O2-  O309  1  0.07208717  0.40653242  0.77285023  1
  O2-  O310  1  0.07395115  0.73941439  0.27275767  1
  O2-  O311  1  0.06917975  0.73806092  0.77058093  1
  O2-  O312  1  0.40044953  0.06894415  0.26802719  1
  O2-  O313  1  0.40760572  0.07482181  0.76849711  1
  O2-  O314  1  0.40491075  0.40299313  0.27070887  1
  O2-  O315  1  0.40596402  0.40138779  0.77116505  1
  O2-  O316  1  0.40790074  0.73928573  0.27249652  1
  O2-  O317  1  0.40279815  0.73965215  0.76848516  1
  O2-  O318  1  0.74007466  0.07516611  0.26780979  1
  O2-  O319  1  0.73976443  0.07431990  0.77245527  1
  O2-  O320  1  0.73646793  0.40570576  0.26732022  1
  O2-  O321  1  0.73563179  0.40076483  0.77226230  1
  O2-  O322  1  0.73634726  0.73789524  0.26642355  1
  O2-  O323  1  0.73755758  0.73723482  0.77005218  1
  O2-  O324  1  0.23807583  0.09332268  0.22673930  1
  O2-  O325  1  0.23935745  0.09519448  0.73065025  1
  O2-  O326  1  0.23757045  0.42863192  0.22537794  1
  O2-  O327  1  0.23880917  0.42837769  0.72903272  1
  O2-  O328  1  0.23593392  0.76226762  0.23323072  1
  O2-  O329  1  0.23423658  0.76165981  0.72791702  1
  O2-  O330  1  0.57324003  0.09121406  0.23122809  1
  O2-  O331  1  0.57031486  0.09849457  0.73521029  1
  O2-  O332  1  0.56757983  0.43289032  0.23292614  1
  O2-  O333  1  0.56739747  0.42950129  0.73274474  1
  O2-  O334  1  0.57209076  0.76049227  0.23104286  1
  O2-  O335  1  0.57093791  0.76219216  0.72713023  1
  O2-  O336  1  0.90605828  0.09607974  0.22831682  1
  O2-  O337  1  0.90472479  0.09421444  0.72646966  1
  O2-  O338  1  0.90996212  0.42505004  0.23242798  1
  O2-  O339  1  0.90435485  0.42395843  0.72914303  1
  O2-  O340  1  0.90521269  0.76004656  0.23184386  1
  O2-  O341  1  0.90556976  0.76596623  0.72702396  1
  O2-  O342  1  0.25917650  0.26120819  0.02417198  1
  O2-  O343  1  0.26386157  0.26161226  0.52071853  1
  O2-  O344  1  0.25938832  0.59436677  0.01333056  1
  O2-  O345  1  0.25997124  0.59727960  0.52123318  1
  O2-  O346  1  0.25835108  0.92690114  0.02284778  1
  O2-  O347  1  0.26254095  0.92896047  0.52013729  1
  O2-  O348  1  0.58991568  0.25676123  0.02160900  1
  O2-  O349  1  0.59496656  0.26129549  0.52391475  1
  O2-  O350  1  0.59811162  0.59754769  0.01191645  1
  O2-  O351  1  0.59498605  0.59288305  0.52236386  1
  O2-  O352  1  0.59644621  0.92784129  0.02161692  1
  O2-  O353  1  0.59273452  0.92740281  0.52245844  1
  O2-  O354  1  0.93196474  0.26171126  0.01598759  1
  O2-  O355  1  0.92785984  0.26182198  0.52060465  1
  O2-  O356  1  0.93200998  0.59988071  0.01819878  1
  O2-  O357  1  0.92836385  0.59453166  0.52081810  1
  O2-  O358  1  0.92964635  0.92859576  0.01914410  1
  O2-  O359  1  0.92991499  0.93040032  0.51867009  1
