# generated using pymatgen
data_Sr7Ca15Pr50Mn72O216
_symmetry_space_group_name_H-M   'P 1'
_cell_length_a   16.55692185
_cell_length_b   16.60669739
_cell_length_c   15.59329274
_cell_angle_alpha   89.99210965
_cell_angle_beta   89.99758797
_cell_angle_gamma   89.99886151
_symmetry_Int_Tables_number   1
_chemical_formula_structural   Sr7Ca15Pr50Mn72O216
_chemical_formula_sum   'Sr7 Ca15 Pr50 Mn72 O216'
_cell_volume   4287.46609415
_cell_formula_units_Z   1
loop_
 _symmetry_equiv_pos_site_id
 _symmetry_equiv_pos_as_xyz
  1  'x, y, z'
loop_
 _atom_type_symbol
 _atom_type_oxidation_number
  Sr2+  2.0
  Ca2+  2.0
  Pr3+  3.0
  Mn3.30+  3.3
  O2-  -2.0
loop_
 _atom_site_type_symbol
 _atom_site_label
 _atom_site_symmetry_multiplicity
 _atom_site_fract_x
 _atom_site_fract_y
 _atom_site_fract_z
 _atom_site_occupancy
  Sr2+  Sr0  1  1.00068286  0.65801826  0.37403416  1
  Sr2+  Sr1  1  0.66337319  0.32816750  0.87445419  1
  Sr2+  Sr2  1  0.83440048  0.84197256  0.12373547  1
  Sr2+  Sr3  1  0.66726891  0.65777460  0.87320826  1
  Sr2+  Sr4  1  0.83410002  0.17609655  0.12441306  1
  Sr2+  Sr5  1  0.66292989  0.01091102  0.62935670  1
  Sr2+  Sr6  1  0.33252891  0.00913625  0.12280855  1
  Ca2+  Ca7  1  0.49704221  0.14914458  0.87382289  1
  Ca2+  Ca8  1  0.33920486  0.65003716  0.87415561  1
  Ca2+  Ca9  1  0.17008289  0.51589791  0.12400879  1
  Ca2+  Ca10  1  1.00258909  0.65426429  0.87604406  1
  Ca2+  Ca11  1  0.49775366  0.82030211  0.37700351  1
  Ca2+  Ca12  1  0.67144861  0.31818561  0.37584088  1
  Ca2+  Ca13  1  0.66291609  0.34653742  0.62622059  1
  Ca2+  Ca14  1  0.33564319  0.98558460  0.87474642  1
  Ca2+  Ca15  1  0.16984794  0.84775049  0.62706294  1
  Ca2+  Ca16  1  0.66212405  0.68204115  0.62777111  1
  Ca2+  Ca17  1  1.00234988  0.31815906  0.37567587  1
  Ca2+  Ca18  1  0.66847767  0.98780465  0.87356006  1
  Ca2+  Ca19  1  0.49877428  0.48962714  0.87409315  1
  Ca2+  Ca20  1  -0.00393058  0.01336564  0.62652094  1
  Ca2+  Ca21  1  0.16368949  0.81696229  0.87487522  1
  Pr3+  Pr22  1  0.33227106  0.34636354  0.62431365  1
  Pr3+  Pr23  1  0.66447568  0.68155964  0.12199859  1
  Pr3+  Pr24  1  0.50352312  0.84605117  0.62626022  1
  Pr3+  Pr25  1  -0.00365851  0.34551229  0.12560329  1
  Pr3+  Pr26  1  0.50784079  0.18127911  0.62727549  1
  Pr3+  Pr27  1  0.34302875  0.32073017  0.87468990  1
  Pr3+  Pr28  1  0.16308198  0.15335272  0.37625633  1
  Pr3+  Pr29  1  0.49957193  0.15394381  0.37469999  1
  Pr3+  Pr30  1  0.82686618  0.15379873  0.87607224  1
  Pr3+  Pr31  1  0.82968635  0.82122344  0.87443787  1
  Pr3+  Pr32  1  0.33180949  0.01021997  0.62797111  1
  Pr3+  Pr33  1  0.16663505  0.15233315  0.87417844  1
  Pr3+  Pr34  1  0.83460081  0.84757658  0.62702599  1
  Pr3+  Pr35  1  0.17060853  0.17779915  0.12377812  1
  Pr3+  Pr36  1  0.83600084  0.51093052  0.12313900  1
  Pr3+  Pr37  1  -0.00107822  0.67943778  0.62719003  1
  Pr3+  Pr38  1  0.83086271  0.48493768  0.37517083  1
  Pr3+  Pr39  1  0.16633843  0.49047903  0.87487594  1
  Pr3+  Pr40  1  -0.00447122  0.34684107  0.62424339  1
  Pr3+  Pr41  1  -0.00052398  0.67876593  0.12290290  1
  Pr3+  Pr42  1  0.32891623  0.68283367  0.62851499  1
  Pr3+  Pr43  1  1.00205910  0.98795025  0.37671010  1
  Pr3+  Pr44  1  0.83166679  0.82083578  0.37612885  1
  Pr3+  Pr45  1  0.33740006  0.65622854  0.37598050  1
  Pr3+  Pr46  1  0.50311825  0.17859093  0.12273756  1
  Pr3+  Pr47  1  0.67046785  0.65635156  0.37676977  1
  Pr3+  Pr48  1  0.66956069  0.98678779  0.37686045  1
  Pr3+  Pr49  1  0.50685561  0.51417338  0.62668191  1
  Pr3+  Pr50  1  0.15955310  0.48610810  0.37462245  1
  Pr3+  Pr51  1  -0.00436052  0.01110291  0.12365382  1
  Pr3+  Pr52  1  0.16939101  0.51413084  0.62549270  1
  Pr3+  Pr53  1  0.33691464  0.98360483  0.37508008  1
  Pr3+  Pr54  1  1.00417397  0.98537895  0.87370484  1
  Pr3+  Pr55  1  0.83195994  0.17904610  0.62626579  1
  Pr3+  Pr56  1  0.49649474  0.82175466  0.87275337  1
  Pr3+  Pr57  1  0.83105684  0.15513909  0.37495906  1
  Pr3+  Pr58  1  0.83103954  0.51212593  0.62694840  1
  Pr3+  Pr59  1  0.16352499  0.82034925  0.37564415  1
  Pr3+  Pr60  1  0.49884770  0.48643511  0.37457257  1
  Pr3+  Pr61  1  0.32813305  0.34884822  0.12530264  1
  Pr3+  Pr62  1  0.50237838  0.84661966  0.12273879  1
  Pr3+  Pr63  1  0.83005917  0.48934151  0.87486305  1
  Pr3+  Pr64  1  0.16944466  0.84524019  0.12388889  1
  Pr3+  Pr65  1  0.32931680  0.67871347  0.12164153  1
  Pr3+  Pr66  1  0.33579826  0.31903180  0.37473227  1
  Pr3+  Pr67  1  0.66638896  0.34533054  0.12507992  1
  Pr3+  Pr68  1  0.16801176  0.17787926  0.62632146  1
  Pr3+  Pr69  1  0.66342571  0.01269413  0.12165346  1
  Pr3+  Pr70  1  1.00166408  0.32041058  0.87393210  1
  Pr3+  Pr71  1  0.50273339  0.51393642  0.12301879  1
  Mn3.30+  Mn72  1  0.16872502  -0.00245277  -0.00325984  1
  Mn3.30+  Mn73  1  0.16580054  -0.00140059  0.50403386  1
  Mn3.30+  Mn74  1  0.16799589  0.33470395  -0.00093028  1
  Mn3.30+  Mn75  1  0.16463181  0.33298227  0.50027723  1
  Mn3.30+  Mn76  1  0.16727638  0.66621592  -0.00368343  1
  Mn3.30+  Mn77  1  0.16679893  0.66837213  0.50164587  1
  Mn3.30+  Mn78  1  0.49837106  0.00088069  -0.00384705  1
  Mn3.30+  Mn79  1  0.50045631  -0.00087192  0.50005915  1
  Mn3.30+  Mn80  1  0.49926010  0.33412664  -0.00017576  1
  Mn3.30+  Mn81  1  0.50335506  0.33310824  0.49819559  1
  Mn3.30+  Mn82  1  0.49726266  0.66584013  -0.00320531  1
  Mn3.30+  Mn83  1  0.50175736  0.66794662  0.50075919  1
  Mn3.30+  Mn84  1  0.83251490  -0.00081612  -0.00155518  1
  Mn3.30+  Mn85  1  0.83416093  0.00105775  0.50272424  1
  Mn3.30+  Mn86  1  0.83299686  0.33288039  -0.00017818  1
  Mn3.30+  Mn87  1  0.83106034  0.33324678  0.49989114  1
  Mn3.30+  Mn88  1  0.83512189  0.66698559  -0.00191251  1
  Mn3.30+  Mn89  1  0.83220485  0.66644458  0.50273730  1
  Mn3.30+  Mn90  1  -0.00003082  0.16744108  0.25075744  1
  Mn3.30+  Mn91  1  -0.00101083  0.16509494  0.74953496  1
  Mn3.30+  Mn92  1  0.00168586  0.49949306  0.24952449  1
  Mn3.30+  Mn93  1  -0.00005610  0.50197521  0.75102591  1
  Mn3.30+  Mn94  1  0.00031409  0.83299757  0.24974929  1
  Mn3.30+  Mn95  1  0.00333675  0.83311576  0.74972996  1
  Mn3.30+  Mn96  1  0.33314125  0.16518376  0.24915406  1
  Mn3.30+  Mn97  1  0.33654857  0.16503686  0.75065698  1
  Mn3.30+  Mn98  1  0.33101490  0.50123216  0.25044059  1
  Mn3.30+  Mn99  1  0.33612198  0.50089262  0.75004339  1
  Mn3.30+  Mn100  1  0.33484936  0.83228269  0.24968165  1
  Mn3.30+  Mn101  1  0.32917450  0.83359953  0.75343715  1
  Mn3.30+  Mn102  1  0.66705356  0.16790402  0.24918959  1
  Mn3.30+  Mn103  1  0.66436428  0.16789005  0.75331623  1
  Mn3.30+  Mn104  1  0.66698948  0.49988826  0.25039879  1
  Mn3.30+  Mn105  1  0.66541161  0.50078764  0.75069879  1
  Mn3.30+  Mn106  1  0.66517043  0.83395346  0.25066709  1
  Mn3.30+  Mn107  1  0.66585101  0.83403193  0.75043553  1
  Mn3.30+  Mn108  1  0.16724722  -0.00008213  0.25005851  1
  Mn3.30+  Mn109  1  0.16641099  -0.00334335  0.74977634  1
  Mn3.30+  Mn110  1  0.16428272  0.33360661  0.24977662  1
  Mn3.30+  Mn111  1  0.16838278  0.33377488  0.75051974  1
  Mn3.30+  Mn112  1  0.16727095  0.66528657  0.24888223  1
  Mn3.30+  Mn113  1  0.16683039  0.66914774  0.75356969  1
  Mn3.30+  Mn114  1  0.50008562  -0.00091009  0.24975305  1
  Mn3.30+  Mn115  1  0.49886061  0.00069728  0.75374042  1
  Mn3.30+  Mn116  1  0.50090909  0.33298715  0.25042123  1
  Mn3.30+  Mn117  1  0.50184639  0.33416290  0.75107184  1
  Mn3.30+  Mn118  1  0.50049458  0.66864085  0.25052471  1
  Mn3.30+  Mn119  1  0.49859439  0.66559396  0.75093024  1
  Mn3.30+  Mn120  1  0.83335309  -0.00059197  0.24947817  1
  Mn3.30+  Mn121  1  0.83329385  0.00113747  0.75005817  1
  Mn3.30+  Mn122  1  0.83428650  0.33199894  0.25199728  1
  Mn3.30+  Mn123  1  0.83020009  0.33397857  0.74903737  1
  Mn3.30+  Mn124  1  0.83441055  0.66572399  0.25006035  1
  Mn3.30+  Mn125  1  0.83258674  0.66767734  0.74944466  1
  Mn3.30+  Mn126  1  0.00020113  0.16577946  -0.00138078  1
  Mn3.30+  Mn127  1  -0.00093946  0.16686536  0.50172924  1
  Mn3.30+  Mn128  1  0.00298639  0.50079242  -0.00048985  1
  Mn3.30+  Mn129  1  -0.00124425  0.50067201  0.49943097  1
  Mn3.30+  Mn130  1  0.00167065  0.83133324  -0.00359992  1
  Mn3.30+  Mn131  1  0.00183590  0.83471980  0.50441492  1
  Mn3.30+  Mn132  1  0.33581078  0.16488413  -0.00143433  1
  Mn3.30+  Mn133  1  0.33446599  0.16514760  0.50125873  1
  Mn3.30+  Mn134  1  0.33314326  0.50083091  -0.00067122  1
  Mn3.30+  Mn135  1  0.33392538  0.50085160  0.49936440  1
  Mn3.30+  Mn136  1  0.33109428  0.83295548  -0.00454667  1
  Mn3.30+  Mn137  1  0.33332407  0.83302807  0.50179923  1
  Mn3.30+  Mn138  1  0.66453887  0.16772321  -0.00338768  1
  Mn3.30+  Mn139  1  0.66641662  0.16812166  0.50042483  1
  Mn3.30+  Mn140  1  0.66599287  0.50147369  -0.00179986  1
  Mn3.30+  Mn141  1  0.66630954  0.49845655  0.50009039  1
  Mn3.30+  Mn142  1  0.66637825  0.83567644  -0.00217104  1
  Mn3.30+  Mn143  1  0.66469876  0.83254277  0.50097232  1
  O2-  O144  1  0.02637456  0.15967147  0.12287904  1
  O2-  O145  1  0.02444913  0.16129874  0.62657844  1
  O2-  O146  1  0.02903260  0.49112535  0.12241873  1
  O2-  O147  1  0.02538285  0.49410149  0.62470662  1
  O2-  O148  1  0.02512543  0.82871634  0.12070431  1
  O2-  O149  1  0.02955809  0.82470081  0.62751219  1
  O2-  O150  1  0.35829465  0.16409689  0.12310795  1
  O2-  O151  1  0.36246029  0.15955644  0.62508932  1
  O2-  O152  1  0.35848328  0.49730146  0.12668525  1
  O2-  O153  1  0.36065597  0.49478401  0.62168124  1
  O2-  O154  1  0.35829750  0.82668547  0.12210070  1
  O2-  O155  1  0.35953498  0.83064086  0.62653606  1
  O2-  O156  1  0.68520180  0.15985567  0.12377238  1
  O2-  O157  1  0.68815590  0.16270891  0.62713450  1
  O2-  O158  1  0.69115182  0.49521771  0.12569741  1
  O2-  O159  1  0.68820226  0.48980846  0.62287741  1
  O2-  O160  1  0.68399896  0.83099509  0.12380400  1
  O2-  O161  1  0.68876831  0.82903769  0.62597430  1
  O2-  O162  1  0.13973352  0.32374351  0.12542527  1
  O2-  O163  1  0.14055309  0.32748154  0.62716272  1
  O2-  O164  1  0.14325697  0.66135266  0.12123366  1
  O2-  O165  1  0.14250169  0.65956170  0.62652955  1
  O2-  O166  1  0.14025394  0.99430369  0.12195880  1
  O2-  O167  1  0.13814424  0.99270495  0.62608420  1
  O2-  O168  1  0.47270012  0.32760297  0.12671456  1
  O2-  O169  1  0.47527781  0.32880809  0.62174693  1
  O2-  O170  1  0.47382475  0.66222881  0.12272347  1
  O2-  O171  1  0.47267369  0.66077045  0.62656246  1
  O2-  O172  1  0.48128822  0.99486468  0.12436960  1
  O2-  O173  1  0.47598987  0.99528311  0.62642341  1
  O2-  O174  1  0.81133014  0.33400500  0.12684384  1
  O2-  O175  1  0.80501843  0.32815373  0.62459100  1
  O2-  O176  1  0.80913018  0.66047087  0.12494008  1
  O2-  O177  1  0.80479370  0.66123367  0.62552518  1
  O2-  O178  1  0.80850399  0.99697045  0.12296871  1
  O2-  O179  1  0.81148922  0.99672517  0.62591037  1
  O2-  O180  1  0.30779290  0.17117868  0.37692198  1
  O2-  O181  1  0.30864901  0.17604564  0.87440969  1
  O2-  O182  1  0.30538454  0.50760804  0.37599701  1
  O2-  O183  1  0.31018816  0.50075405  0.87482465  1
  O2-  O184  1  0.30768330  0.83479073  0.37735973  1
  O2-  O185  1  0.30393422  0.84331313  0.87423208  1
  O2-  O186  1  0.64261315  0.17312468  0.37347802  1
  O2-  O187  1  0.63826229  0.17551122  0.87548166  1
  O2-  O188  1  0.64099096  0.51056831  0.37468023  1
  O2-  O189  1  0.64176162  0.50342235  0.87679124  1
  O2-  O190  1  0.64071087  0.83776558  0.37558706  1
  O2-  O191  1  0.64260588  0.83879496  0.87460169  1
  O2-  O192  1  0.97593185  0.17117319  0.37790791  1
  O2-  O193  1  0.97356132  0.17170745  0.87353074  1
  O2-  O194  1  0.97472137  0.50583204  0.37789033  1
  O2-  O195  1  0.97431742  0.50662860  0.87484761  1
  O2-  O196  1  0.97587006  0.83958129  0.37953796  1
  O2-  O197  1  0.97259249  0.83937507  0.87253716  1
  O2-  O198  1  0.19261826  0.00589635  0.37851846  1
  O2-  O199  1  0.19422246  0.00757724  0.87370327  1
  O2-  O200  1  0.19240480  0.33854647  0.37442330  1
  O2-  O201  1  0.19637084  0.34091035  0.87244811  1
  O2-  O202  1  0.19296160  0.67331436  0.37782506  1
  O2-  O203  1  0.19670977  0.67068129  0.87385775  1
  O2-  O204  1  0.52574941  0.00634853  0.37405330  1
  O2-  O205  1  0.52638255  0.00226190  0.87500580  1
  O2-  O206  1  0.52822005  0.33851794  0.37358264  1
  O2-  O207  1  0.51350392  0.34602162  0.87769715  1
  O2-  O208  1  0.52673422  0.67535299  0.37515336  1
  O2-  O209  1  0.51894141  0.67348419  0.87428514  1
  O2-  O210  1  0.85759425  0.00503284  0.37790024  1
  O2-  O211  1  0.85981653  0.00533687  0.87369810  1
  O2-  O212  1  0.86147165  0.33742017  0.37586106  1
  O2-  O213  1  0.85814558  0.33990423  0.87352729  1
  O2-  O214  1  0.85097006  0.67198356  0.37698038  1
  O2-  O215  1  0.85969233  0.67236688  0.87315173  1
  O2-  O216  1  0.23705937  0.09797831  0.01576840  1
  O2-  O217  1  0.23683218  0.09203514  0.52443968  1
  O2-  O218  1  0.23729583  0.43002895  0.02265902  1
  O2-  O219  1  0.23624885  0.42591159  0.52069425  1
  O2-  O220  1  0.23764430  0.75953836  0.02208443  1
  O2-  O221  1  0.23858369  0.76358301  0.52312488  1
  O2-  O222  1  0.57140052  0.09394979  0.01962916  1
  O2-  O223  1  0.56956897  0.09931820  0.51482803  1
  O2-  O224  1  0.57356429  0.42591022  0.02440732  1
  O2-  O225  1  0.56781594  0.43211155  0.51513906  1
  O2-  O226  1  0.57042751  0.76103267  0.01736809  1
  O2-  O227  1  0.56985262  0.76067257  0.52195392  1
  O2-  O228  1  0.90751627  0.09073927  0.01693502  1
  O2-  O229  1  0.90360766  0.09665737  0.51916994  1
  O2-  O230  1  0.90898120  0.42774029  0.01911747  1
  O2-  O231  1  0.90256514  0.42815665  0.52227003  1
  O2-  O232  1  0.90891520  0.75751296  0.01748549  1
  O2-  O233  1  0.90683150  0.76254382  0.52279745  1
  O2-  O234  1  0.26016854  0.26282659  0.23075821  1
  O2-  O235  1  0.26324460  0.25937353  0.72738852  1
  O2-  O236  1  0.26425589  0.59701516  0.23184724  1
  O2-  O237  1  0.26205106  0.59343542  0.72927945  1
  O2-  O238  1  0.25914994  0.92511228  0.23446430  1
  O2-  O239  1  0.26022486  0.92798625  0.72687073  1
  O2-  O240  1  0.59473926  0.25965476  0.22647463  1
  O2-  O241  1  0.59480790  0.26398858  0.72774261  1
  O2-  O242  1  0.59426742  0.59719278  0.22853899  1
  O2-  O243  1  0.59584510  0.59378102  0.72652696  1
  O2-  O244  1  0.59550377  0.92998958  0.23068426  1
  O2-  O245  1  0.58832709  0.92406513  0.73290416  1
  O2-  O246  1  0.93054452  0.26210712  0.23166012  1
  O2-  O247  1  0.92661738  0.26273647  0.72926443  1
  O2-  O248  1  0.92870951  0.59075249  0.22573448  1
  O2-  O249  1  0.92592078  0.59376199  0.72692867  1
  O2-  O250  1  0.92997848  0.92871274  0.23376106  1
  O2-  O251  1  0.93140645  0.92790040  0.72907582  1
  O2-  O252  1  0.09742809  0.23627952  0.26939863  1
  O2-  O253  1  0.09417121  0.23893713  0.77150400  1
  O2-  O254  1  0.09729822  0.57064708  0.26806993  1
  O2-  O255  1  0.09890170  0.57159126  0.76747394  1
  O2-  O256  1  0.09447416  0.90643170  0.27050217  1
  O2-  O257  1  0.09583868  0.90369159  0.77638162  1
  O2-  O258  1  0.42783217  0.23939733  0.27143260  1
  O2-  O259  1  0.43226168  0.23807617  0.76959034  1
  O2-  O260  1  0.43102919  0.57387601  0.27141524  1
  O2-  O261  1  0.43058778  0.56790727  0.76823482  1
  O2-  O262  1  0.42895193  0.90328095  0.27064347  1
  O2-  O263  1  0.42584999  0.90356841  0.76868226  1
  O2-  O264  1  0.76239728  0.23865892  0.26930788  1
  O2-  O265  1  0.76346806  0.23704028  0.76803421  1
  O2-  O266  1  0.76180280  0.57110307  0.26986989  1
  O2-  O267  1  0.76345778  0.57099528  0.76705847  1
  O2-  O268  1  0.76052530  0.90690788  0.27416061  1
  O2-  O269  1  0.76460243  0.90692437  0.76685558  1
  O2-  O270  1  0.07407212  0.07263601  0.47920415  1
  O2-  O271  1  0.07389599  0.07076002  0.97780909  1
  O2-  O272  1  0.06853280  0.40479960  0.47983991  1
  O2-  O273  1  0.07256999  0.40544556  0.97522374  1
  O2-  O274  1  0.07440706  0.74060997  0.48214894  1
  O2-  O275  1  0.07132236  0.73542307  0.97952932  1
  O2-  O276  1  0.40511173  0.07013781  0.47870418  1
  O2-  O277  1  0.40458029  0.06974520  0.97736870  1
  O2-  O278  1  0.40580553  0.40391066  0.47646402  1
  O2-  O279  1  0.39992513  0.40198787  0.98867715  1
  O2-  O280  1  0.40295275  0.73678395  0.48484053  1
  O2-  O281  1  0.40104725  0.73868789  0.97683906  1
  O2-  O282  1  0.73816223  0.07499884  0.47774127  1
  O2-  O283  1  0.73683162  0.07306028  0.97795684  1
  O2-  O284  1  0.73900212  0.40510261  0.47413458  1
  O2-  O285  1  0.74213044  0.41019209  0.98398718  1
  O2-  O286  1  0.73949651  0.74146251  0.47944894  1
  O2-  O287  1  0.74065922  0.74296367  0.98405695  1
  O2-  O288  1  0.09633037  0.23776987  0.48337062  1
  O2-  O289  1  0.09632829  0.23888520  0.97687301  1
  O2-  O290  1  0.09759774  0.56982784  0.48422272  1
  O2-  O291  1  0.09661868  0.57225700  0.97783493  1
  O2-  O292  1  0.09494067  0.90703618  0.47686606  1
  O2-  O293  1  0.09458853  0.90301963  0.97636889  1
  O2-  O294  1  0.43087669  0.24031191  0.47805539  1
  O2-  O295  1  0.42993289  0.23600267  0.97928982  1
  O2-  O296  1  0.43188771  0.57432701  0.47663795  1
  O2-  O297  1  0.43040401  0.56687149  0.98219129  1
  O2-  O298  1  0.42717397  0.90315394  0.47908507  1
  O2-  O299  1  0.42913641  0.90297535  0.98156832  1
  O2-  O300  1  0.76368472  0.23651369  0.48115037  1
  O2-  O301  1  0.76019507  0.23909816  0.98253779  1
  O2-  O302  1  0.76039076  0.56909859  0.48046793  1
  O2-  O303  1  0.76464364  0.57270444  0.98254125  1
  O2-  O304  1  0.76197759  0.90585149  0.48109830  1
  O2-  O305  1  0.76169783  0.90773545  0.97796750  1
  O2-  O306  1  0.07208449  0.07183785  0.27102988  1
  O2-  O307  1  0.07517171  0.07133199  0.77160670  1
  O2-  O308  1  0.06969895  0.40274483  0.27325588  1
  O2-  O309  1  0.07259675  0.40681836  0.77099331  1
  O2-  O310  1  0.07723039  0.74142856  0.26547484  1
  O2-  O311  1  0.06827818  0.73395854  0.77088362  1
  O2-  O312  1  0.40776804  0.07088139  0.27253711  1
  O2-  O313  1  0.40175640  0.06823661  0.77010536  1
  O2-  O314  1  0.40255476  0.40679975  0.27155664  1
  O2-  O315  1  0.40176623  0.40139986  0.76194240  1
  O2-  O316  1  0.40464269  0.73636992  0.26818211  1
  O2-  O317  1  0.39983243  0.73838496  0.77002850  1
  O2-  O318  1  0.73809734  0.07267111  0.27023323  1
  O2-  O319  1  0.73752061  0.07495797  0.77455519  1
  O2-  O320  1  0.73953736  0.40357950  0.27191655  1
  O2-  O321  1  0.74239885  0.41098417  0.76918119  1
  O2-  O322  1  0.73800064  0.74000054  0.26805765  1
  O2-  O323  1  0.74352785  0.74386197  0.76904927  1
  O2-  O324  1  0.23550745  0.09570012  0.23288253  1
  O2-  O325  1  0.23758266  0.09333252  0.72825479  1
  O2-  O326  1  0.23422848  0.42788474  0.22870441  1
  O2-  O327  1  0.24092337  0.42919708  0.72706630  1
  O2-  O328  1  0.23990545  0.76036010  0.22895292  1
  O2-  O329  1  0.23655213  0.76205551  0.72654174  1
  O2-  O330  1  0.57134272  0.09519794  0.23124180  1
  O2-  O331  1  0.56832985  0.09749724  0.73417761  1
  O2-  O332  1  0.57121239  0.42903477  0.22894924  1
  O2-  O333  1  0.57044156  0.42865601  0.73225618  1
  O2-  O334  1  0.57125161  0.76001290  0.22650674  1
  O2-  O335  1  0.56761872  0.76037339  0.73321689  1
  O2-  O336  1  0.90826315  0.09175736  0.23352761  1
  O2-  O337  1  0.90256627  0.09626148  0.73211117  1
  O2-  O338  1  0.90530051  0.42818983  0.23021901  1
  O2-  O339  1  0.90536161  0.42665022  0.72865518  1
  O2-  O340  1  0.90955537  0.75748301  0.23426138  1
  O2-  O341  1  0.90620562  0.76214375  0.72674190  1
  O2-  O342  1  0.26251547  0.26227313  0.02028644  1
  O2-  O343  1  0.26244870  0.25951336  0.52107205  1
  O2-  O344  1  0.26270219  0.59453125  0.01713348  1
  O2-  O345  1  0.26168081  0.59708272  0.52213025  1
  O2-  O346  1  0.25704885  0.92377232  0.02163756  1
  O2-  O347  1  0.26388602  0.92984806  0.51794748  1
  O2-  O348  1  0.59254186  0.26194684  0.02393674  1
  O2-  O349  1  0.59601482  0.26329798  0.52168314  1
  O2-  O350  1  0.59468306  0.59391606  0.02308247  1
  O2-  O351  1  0.59652087  0.59680783  0.52143458  1
  O2-  O352  1  0.59260503  0.92758068  0.01917854  1
  O2-  O353  1  0.59273484  0.92760882  0.51764352  1
  O2-  O354  1  0.93117326  0.26319071  0.01574635  1
  O2-  O355  1  0.92515122  0.26147502  0.52430922  1
  O2-  O356  1  0.92959780  0.59119732  0.02294643  1
  O2-  O357  1  0.92606848  0.59293034  0.52467014  1
  O2-  O358  1  0.93111763  0.92799746  0.01523107  1
  O2-  O359  1  0.93056230  0.92777707  0.52344522  1
