# generated using pymatgen
data_Sr7Ca15Pr50Mn72O216
_symmetry_space_group_name_H-M   'P 1'
_cell_length_a   16.55798443
_cell_length_b   16.60545242
_cell_length_c   15.59274507
_cell_angle_alpha   89.99698604
_cell_angle_beta   89.99593085
_cell_angle_gamma   90.00606061
_symmetry_Int_Tables_number   1
_chemical_formula_structural   Sr7Ca15Pr50Mn72O216
_chemical_formula_sum   'Sr7 Ca15 Pr50 Mn72 O216'
_cell_volume   4287.26922871
_cell_formula_units_Z   1
loop_
 _symmetry_equiv_pos_site_id
 _symmetry_equiv_pos_as_xyz
  1  'x, y, z'
loop_
 _atom_type_symbol
 _atom_type_oxidation_number
  Sr2+  2.0
  Ca2+  2.0
  Pr3+  3.0
  Mn3.30+  3.3
  O2-  -2.0
loop_
 _atom_site_type_symbol
 _atom_site_label
 _atom_site_symmetry_multiplicity
 _atom_site_fract_x
 _atom_site_fract_y
 _atom_site_fract_z
 _atom_site_occupancy
  Sr2+  Sr0  1  0.49964262  0.17817595  0.62652687  1
  Sr2+  Sr1  1  0.50062029  0.17614859  0.12326465  1
  Sr2+  Sr2  1  0.33566566  0.98884358  0.87458580  1
  Sr2+  Sr3  1  0.17004043  0.50974959  0.62768813  1
  Sr2+  Sr4  1  0.50075898  0.49309388  0.87519577  1
  Sr2+  Sr5  1  0.83103824  0.82398735  0.37452966  1
  Sr2+  Sr6  1  0.66777825  0.65825969  0.37451761  1
  Ca2+  Ca7  1  1.00139232  0.65316039  0.37480697  1
  Ca2+  Ca8  1  0.49396400  0.81928894  0.87534442  1
  Ca2+  Ca9  1  -0.00105653  0.34861489  0.12501658  1
  Ca2+  Ca10  1  0.49632560  0.48598520  0.37523777  1
  Ca2+  Ca11  1  0.17050927  0.18136239  0.12329376  1
  Ca2+  Ca12  1  0.16333505  0.48659861  0.87427412  1
  Ca2+  Ca13  1  0.66780160  0.65375279  0.87557927  1
  Ca2+  Ca14  1  0.16142742  0.81816822  0.87683609  1
  Ca2+  Ca15  1  0.83054291  0.81637921  0.87541703  1
  Ca2+  Ca16  1  0.16849883  0.84719930  0.11932425  1
  Ca2+  Ca17  1  1.00668407  0.98085715  0.87553414  1
  Ca2+  Ca18  1  0.32953395  0.34984893  0.62636008  1
  Ca2+  Ca19  1  1.00477492  0.64958699  0.87568968  1
  Ca2+  Ca20  1  0.67077231  0.98555992  0.37514978  1
  Ca2+  Ca21  1  0.17409242  0.18426197  0.62658227  1
  Pr3+  Pr22  1  0.83164513  0.49242399  0.37443470  1
  Pr3+  Pr23  1  0.16818918  0.84346983  0.62905566  1
  Pr3+  Pr24  1  0.16217540  0.15120232  0.87534014  1
  Pr3+  Pr25  1  0.32803023  0.68290689  0.12232194  1
  Pr3+  Pr26  1  0.50256904  0.51229408  0.12401195  1
  Pr3+  Pr27  1  0.33506404  0.98697394  0.37488263  1
  Pr3+  Pr28  1  1.00465695  0.32050365  0.37389089  1
  Pr3+  Pr29  1  0.49741566  0.15309713  0.37548426  1
  Pr3+  Pr30  1  0.33890859  0.65195701  0.37452086  1
  Pr3+  Pr31  1  0.00036907  0.01083489  0.12217111  1
  Pr3+  Pr32  1  1.00231578  0.98577182  0.37433428  1
  Pr3+  Pr33  1  0.83088597  0.48941372  0.87547879  1
  Pr3+  Pr34  1  0.66332487  0.34624556  0.62564947  1
  Pr3+  Pr35  1  -0.00220219  0.67816463  0.62714521  1
  Pr3+  Pr36  1  0.15976392  0.81778987  0.37327297  1
  Pr3+  Pr37  1  0.49586463  0.15624997  0.87453003  1
  Pr3+  Pr38  1  -0.00329586  0.67977699  0.12313700  1
  Pr3+  Pr39  1  0.83686792  0.51379029  0.12470298  1
  Pr3+  Pr40  1  -0.00174763  0.01273596  0.62756563  1
  Pr3+  Pr41  1  0.32734090  0.01560138  0.12230902  1
  Pr3+  Pr42  1  0.83013742  0.15190798  0.37489638  1
  Pr3+  Pr43  1  0.00099098  0.34829103  0.62443178  1
  Pr3+  Pr44  1  0.16415548  0.15265300  0.37506975  1
  Pr3+  Pr45  1  0.83595465  0.84496800  0.62641922  1
  Pr3+  Pr46  1  0.33308455  0.65672541  0.87535624  1
  Pr3+  Pr47  1  0.16759942  0.51230468  0.12250715  1
  Pr3+  Pr48  1  0.66419188  0.01118625  0.62410094  1
  Pr3+  Pr49  1  0.32820882  0.01511129  0.62744244  1
  Pr3+  Pr50  1  0.49920496  0.82173604  0.37484820  1
  Pr3+  Pr51  1  0.66941550  0.32068628  0.87498590  1
  Pr3+  Pr52  1  0.50124849  0.84581260  0.12239515  1
  Pr3+  Pr53  1  0.83765618  0.51471870  0.62557025  1
  Pr3+  Pr54  1  0.32867320  0.67698912  0.62763424  1
  Pr3+  Pr55  1  0.66720544  0.32321526  0.37537688  1
  Pr3+  Pr56  1  0.66473500  0.67797385  0.62691602  1
  Pr3+  Pr57  1  0.33169833  0.34510115  0.12394705  1
  Pr3+  Pr58  1  0.83783575  0.18017901  0.62489349  1
  Pr3+  Pr59  1  0.66383232  0.01138843  0.12595837  1
  Pr3+  Pr60  1  0.66779143  0.98581657  0.87467425  1
  Pr3+  Pr61  1  0.66510091  0.67961605  0.12307773  1
  Pr3+  Pr62  1  0.33315458  0.32587885  0.87231425  1
  Pr3+  Pr63  1  0.66235878  0.34555017  0.12447790  1
  Pr3+  Pr64  1  0.16378742  0.48783122  0.37520788  1
  Pr3+  Pr65  1  1.00676100  0.32439745  0.87621496  1
  Pr3+  Pr66  1  0.49906103  0.50926305  0.62652517  1
  Pr3+  Pr67  1  0.83907140  0.18105601  0.12525322  1
  Pr3+  Pr68  1  0.50111422  0.84413100  0.62776781  1
  Pr3+  Pr69  1  0.83516786  0.84538640  0.12352675  1
  Pr3+  Pr70  1  0.33727730  0.32284670  0.37696387  1
  Pr3+  Pr71  1  0.83483679  0.15316286  0.87530467  1
  Mn3.30+  Mn72  1  0.16473424  -0.00274898  -0.00232222  1
  Mn3.30+  Mn73  1  0.16651908  0.00001802  0.50180758  1
  Mn3.30+  Mn74  1  0.16561262  0.33319312  0.00217125  1
  Mn3.30+  Mn75  1  0.17000678  0.33293910  0.50075873  1
  Mn3.30+  Mn76  1  0.16315793  0.66811612  -0.00166909  1
  Mn3.30+  Mn77  1  0.16575511  0.66562668  0.49954141  1
  Mn3.30+  Mn78  1  0.49874009  -0.00070728  -0.00123707  1
  Mn3.30+  Mn79  1  0.50041892  -0.00064509  0.50001964  1
  Mn3.30+  Mn80  1  0.49965530  0.33407759  -0.00158900  1
  Mn3.30+  Mn81  1  0.49905010  0.33436674  0.50179933  1
  Mn3.30+  Mn82  1  0.49960326  0.66822209  -0.00219314  1
  Mn3.30+  Mn83  1  0.49937242  0.66486801  0.50010613  1
  Mn3.30+  Mn84  1  0.83566024  -0.00211962  -0.00347557  1
  Mn3.30+  Mn85  1  0.83231446  -0.00058572  0.50067927  1
  Mn3.30+  Mn86  1  0.83656075  0.33380269  0.00109472  1
  Mn3.30+  Mn87  1  0.83414357  0.33444046  0.49900405  1
  Mn3.30+  Mn88  1  0.83361703  0.66777257  -0.00384361  1
  Mn3.30+  Mn89  1  0.83313873  0.66832915  0.49864990  1
  Mn3.30+  Mn90  1  0.00223063  0.16702160  0.24758863  1
  Mn3.30+  Mn91  1  0.00311535  0.16666021  0.74940450  1
  Mn3.30+  Mn92  1  0.00038599  0.50068043  0.24982517  1
  Mn3.30+  Mn93  1  0.00238216  0.50155751  0.75154438  1
  Mn3.30+  Mn94  1  0.00124540  0.83197078  0.24786745  1
  Mn3.30+  Mn95  1  -0.00022684  0.83142989  0.75558801  1
  Mn3.30+  Mn96  1  0.33151147  0.16797248  0.24934576  1
  Mn3.30+  Mn97  1  0.33087600  0.16931758  0.74878902  1
  Mn3.30+  Mn98  1  0.33391821  0.50020232  0.24875230  1
  Mn3.30+  Mn99  1  0.33164821  0.50046198  0.75213269  1
  Mn3.30+  Mn100  1  0.32987982  0.83434478  0.24848987  1
  Mn3.30+  Mn101  1  0.33265861  0.83369203  0.75359042  1
  Mn3.30+  Mn102  1  0.66680762  0.16618254  0.25056383  1
  Mn3.30+  Mn103  1  0.66736346  0.16564591  0.74999104  1
  Mn3.30+  Mn104  1  0.66535480  0.50091724  0.25175917  1
  Mn3.30+  Mn105  1  0.66759883  0.50125857  0.75091333  1
  Mn3.30+  Mn106  1  0.66740869  0.83420171  0.24945266  1
  Mn3.30+  Mn107  1  0.66675760  0.83067075  0.75410568  1
  Mn3.30+  Mn108  1  0.16681747  -0.00051471  0.24733698  1
  Mn3.30+  Mn109  1  0.16450938  -0.00184522  0.75240484  1
  Mn3.30+  Mn110  1  0.16659699  0.33241917  0.24782372  1
  Mn3.30+  Mn111  1  0.16894686  0.33381936  0.74950051  1
  Mn3.30+  Mn112  1  0.16550611  0.66738667  0.24859101  1
  Mn3.30+  Mn113  1  0.16350980  0.66609271  0.75328984  1
  Mn3.30+  Mn114  1  0.50045151  -0.00040455  0.25076635  1
  Mn3.30+  Mn115  1  0.49899276  -0.00069874  0.75035472  1
  Mn3.30+  Mn116  1  0.50002445  0.33353454  0.25044739  1
  Mn3.30+  Mn117  1  0.49906281  0.33470530  0.74966379  1
  Mn3.30+  Mn118  1  0.49942440  0.66603546  0.24975914  1
  Mn3.30+  Mn119  1  0.49954461  0.66722425  0.75263369  1
  Mn3.30+  Mn120  1  0.83239806  -0.00019265  0.24880644  1
  Mn3.30+  Mn121  1  0.83581283  -0.00239639  0.75367507  1
  Mn3.30+  Mn122  1  0.83511562  0.33442722  0.24975996  1
  Mn3.30+  Mn123  1  0.83555350  0.33358099  0.75015540  1
  Mn3.30+  Mn124  1  0.83343359  0.66818034  0.25090613  1
  Mn3.30+  Mn125  1  0.83336266  0.66797010  0.75415965  1
  Mn3.30+  Mn126  1  0.00235027  0.16707601  0.00145753  1
  Mn3.30+  Mn127  1  0.00270580  0.16661860  0.50136054  1
  Mn3.30+  Mn128  1  0.00180268  0.50002735  -0.00024948  1
  Mn3.30+  Mn129  1  0.00086927  0.50232732  0.49920185  1
  Mn3.30+  Mn130  1  0.00059942  0.83195401  -0.00344404  1
  Mn3.30+  Mn131  1  0.00009372  0.83138403  0.49980214  1
  Mn3.30+  Mn132  1  0.33060750  0.16839510  -0.00062002  1
  Mn3.30+  Mn133  1  0.33172248  0.16868543  0.50173476  1
  Mn3.30+  Mn134  1  0.33220517  0.50112648  -0.00148174  1
  Mn3.30+  Mn135  1  0.33332297  0.49943060  0.50015742  1
  Mn3.30+  Mn136  1  0.33080415  0.83523717  -0.00268600  1
  Mn3.30+  Mn137  1  0.33149657  0.83268075  0.50020842  1
  Mn3.30+  Mn138  1  0.66787135  0.16554518  -0.00040038  1
  Mn3.30+  Mn139  1  0.66612522  0.16620407  0.50001940  1
  Mn3.30+  Mn140  1  0.66780528  0.50093365  -0.00108050  1
  Mn3.30+  Mn141  1  0.66535873  0.50132675  0.49880193  1
  Mn3.30+  Mn142  1  0.66645600  0.83128782  -0.00459909  1
  Mn3.30+  Mn143  1  0.66740011  0.83340341  0.50099902  1
  O2-  O144  1  0.02913212  0.15647244  0.12455134  1
  O2-  O145  1  0.03010391  0.15975780  0.62448413  1
  O2-  O146  1  0.02370019  0.49607802  0.12586357  1
  O2-  O147  1  0.01961066  0.49801147  0.62493500  1
  O2-  O148  1  0.02668852  0.82663977  0.12373545  1
  O2-  O149  1  0.02436260  0.82586492  0.62745436  1
  O2-  O150  1  0.35190220  0.16406450  0.12445276  1
  O2-  O151  1  0.35223645  0.16027997  0.62391837  1
  O2-  O152  1  0.35820140  0.49509514  0.12434656  1
  O2-  O153  1  0.35472089  0.49951088  0.62692259  1
  O2-  O154  1  0.35736347  0.83060589  0.12403747  1
  O2-  O155  1  0.35642509  0.82609476  0.62663255  1
  O2-  O156  1  0.69416742  0.16021407  0.12425841  1
  O2-  O157  1  0.69447653  0.16051567  0.62513964  1
  O2-  O158  1  0.69229275  0.49341545  0.12452985  1
  O2-  O159  1  0.69373445  0.49437117  0.62553736  1
  O2-  O160  1  0.69100300  0.82849034  0.11955344  1
  O2-  O161  1  0.69204253  0.82657680  0.62939970  1
  O2-  O162  1  0.14028957  0.32639876  0.12648937  1
  O2-  O163  1  0.14312652  0.32821676  0.62364663  1
  O2-  O164  1  0.13989967  0.65877234  0.12324813  1
  O2-  O165  1  0.14226065  0.66557035  0.62791278  1
  O2-  O166  1  0.14276361  0.99087005  0.12148738  1
  O2-  O167  1  0.14052208  0.99000431  0.62836493  1
  O2-  O168  1  0.47665588  0.33159163  0.12296820  1
  O2-  O169  1  0.47408272  0.33497839  0.62536193  1
  O2-  O170  1  0.47371350  0.66185866  0.12512417  1
  O2-  O171  1  0.47309649  0.66064818  0.62574889  1
  O2-  O172  1  0.47320539  0.99389883  0.12358213  1
  O2-  O173  1  0.47342026  0.99258201  0.62434855  1
  O2-  O174  1  0.80626660  0.32825186  0.12480481  1
  O2-  O175  1  0.80800102  0.32807751  0.62284724  1
  O2-  O176  1  0.80961713  0.66251147  0.12292768  1
  O2-  O177  1  0.80969847  0.66312158  0.62733229  1
  O2-  O178  1  0.80805100  0.99537166  0.12071015  1
  O2-  O179  1  0.80889830  0.99496548  0.62883163  1
  O2-  O180  1  0.30725081  0.17272992  0.37654216  1
  O2-  O181  1  0.30641412  0.17577332  0.87461897  1
  O2-  O182  1  0.30776059  0.50473616  0.37109499  1
  O2-  O183  1  0.30576538  0.50607675  0.87777729  1
  O2-  O184  1  0.30438896  0.83922663  0.37362175  1
  O2-  O185  1  0.30509106  0.83304877  0.87530707  1
  O2-  O186  1  0.64117189  0.17581745  0.37600310  1
  O2-  O187  1  0.64223090  0.17211121  0.87460908  1
  O2-  O188  1  0.63896091  0.50276172  0.37538760  1
  O2-  O189  1  0.65071662  0.50486868  0.87487020  1
  O2-  O190  1  0.64281893  0.83992883  0.37661882  1
  O2-  O191  1  0.63453909  0.84098382  0.87467639  1
  O2-  O192  1  0.97504352  0.17162034  0.37520332  1
  O2-  O193  1  0.97645445  0.17819054  0.87596543  1
  O2-  O194  1  0.97618994  0.50532879  0.37419572  1
  O2-  O195  1  0.97518484  0.49845562  0.87540144  1
  O2-  O196  1  0.98099229  0.84046866  0.37302827  1
  O2-  O197  1  0.97020936  0.84095372  0.87550674  1
  O2-  O198  1  0.19131769  0.00522280  0.37562654  1
  O2-  O199  1  0.18760306  0.00621853  0.87432672  1
  O2-  O200  1  0.19254818  0.33950366  0.37352126  1
  O2-  O201  1  0.18771336  0.33880933  0.87653247  1
  O2-  O202  1  0.19468913  0.67252716  0.37174828  1
  O2-  O203  1  0.19024138  0.67505104  0.87678850  1
  O2-  O204  1  0.52623583  0.00388324  0.37726492  1
  O2-  O205  1  0.52346683  0.00879399  0.87492048  1
  O2-  O206  1  0.52379638  0.33999318  0.37713895  1
  O2-  O207  1  0.52625692  0.33605663  0.87468427  1
  O2-  O208  1  0.51824922  0.67553320  0.37372060  1
  O2-  O209  1  0.52554089  0.67421890  0.87560221  1
  O2-  O210  1  0.85921214  0.00479188  0.37499978  1
  O2-  O211  1  0.86537519  0.00832711  0.87508118  1
  O2-  O212  1  0.86055224  0.34104240  0.37544441  1
  O2-  O213  1  0.86162303  0.33885971  0.87701578  1
  O2-  O214  1  0.85752475  0.66603035  0.37422593  1
  O2-  O215  1  0.86200523  0.66950141  0.87535006  1
  O2-  O216  1  0.23583283  0.09561863  0.01831437  1
  O2-  O217  1  0.23544026  0.09539771  0.52090289  1
  O2-  O218  1  0.23902187  0.42557667  0.02332895  1
  O2-  O219  1  0.23912779  0.42907725  0.51312469  1
  O2-  O220  1  0.23712492  0.76096445  0.02210830  1
  O2-  O221  1  0.23639877  0.76172358  0.51989300  1
  O2-  O222  1  0.57643601  0.08994673  0.01766218  1
  O2-  O223  1  0.57397066  0.09240559  0.51979418  1
  O2-  O224  1  0.57375734  0.42607200  0.02066338  1
  O2-  O225  1  0.57423946  0.42658478  0.52375161  1
  O2-  O226  1  0.57225518  0.76000672  0.02367229  1
  O2-  O227  1  0.57161843  0.75967963  0.52088120  1
  O2-  O228  1  0.90741779  0.09780483  0.02115653  1
  O2-  O229  1  0.90502390  0.09418092  0.52113287  1
  O2-  O230  1  0.90417197  0.42979637  0.01956441  1
  O2-  O231  1  0.90578752  0.42803126  0.51970186  1
  O2-  O232  1  0.90412560  0.76102124  0.02138672  1
  O2-  O233  1  0.90624695  0.76046176  0.52254644  1
  O2-  O234  1  0.26314144  0.26486051  0.23276450  1
  O2-  O235  1  0.26377405  0.26518447  0.73122278  1
  O2-  O236  1  0.26194477  0.59659762  0.22796754  1
  O2-  O237  1  0.26166823  0.59766239  0.73589110  1
  O2-  O238  1  0.26471810  0.93328742  0.23229589  1
  O2-  O239  1  0.26076191  0.92732638  0.72817871  1
  O2-  O240  1  0.59866151  0.26290104  0.23341193  1
  O2-  O241  1  0.59687928  0.26321647  0.73302519  1
  O2-  O242  1  0.59446578  0.59266690  0.22495443  1
  O2-  O243  1  0.59118583  0.59188442  0.72908655  1
  O2-  O244  1  0.59239144  0.92480362  0.22644925  1
  O2-  O245  1  0.59695553  0.92625120  0.72908276  1
  O2-  O246  1  0.93132029  0.26138238  0.22805124  1
  O2-  O247  1  0.92984904  0.26227243  0.72704541  1
  O2-  O248  1  0.92577352  0.59438705  0.22811077  1
  O2-  O249  1  0.92682934  0.59425954  0.73067722  1
  O2-  O250  1  0.92872775  0.92763436  0.22812475  1
  O2-  O251  1  0.92821962  0.92624604  0.72690273  1
  O2-  O252  1  0.09588474  0.23927481  0.27404886  1
  O2-  O253  1  0.09550549  0.23821806  0.77070690  1
  O2-  O254  1  0.09811509  0.57067767  0.26704770  1
  O2-  O255  1  0.09460430  0.57011466  0.77342842  1
  O2-  O256  1  0.09500978  0.90614514  0.26971663  1
  O2-  O257  1  0.09568951  0.89826094  0.76980782  1
  O2-  O258  1  0.42828631  0.24002291  0.27262422  1
  O2-  O259  1  0.42727713  0.24245646  0.77276359  1
  O2-  O260  1  0.42951239  0.57115345  0.27027378  1
  O2-  O261  1  0.42430043  0.57643266  0.76943602  1
  O2-  O262  1  0.42842526  0.90588241  0.27185721  1
  O2-  O263  1  0.43022433  0.90259774  0.76743047  1
  O2-  O264  1  0.76462605  0.23959631  0.27087645  1
  O2-  O265  1  0.76397170  0.23807965  0.77052377  1
  O2-  O266  1  0.76211591  0.57042071  0.26576624  1
  O2-  O267  1  0.76534977  0.57146285  0.76622022  1
  O2-  O268  1  0.76010353  0.90817844  0.26263860  1
  O2-  O269  1  0.76062462  0.90171434  0.77401119  1
  O2-  O270  1  0.07088409  0.06985181  0.47891707  1
  O2-  O271  1  0.06974561  0.06828351  0.97836475  1
  O2-  O272  1  0.07281343  0.40448969  0.48049846  1
  O2-  O273  1  0.07159200  0.40385740  0.98479669  1
  O2-  O274  1  0.07139648  0.73660505  0.47905438  1
  O2-  O275  1  0.06522518  0.73365877  0.98040575  1
  O2-  O276  1  0.40363186  0.07341211  0.47956346  1
  O2-  O277  1  0.40723671  0.07785229  0.98259096  1
  O2-  O278  1  0.40569645  0.40746423  0.48100917  1
  O2-  O279  1  0.40371062  0.40605221  0.98197164  1
  O2-  O280  1  0.40343342  0.73962623  0.48005863  1
  O2-  O281  1  0.40217065  0.73981033  0.98316909  1
  O2-  O282  1  0.73881686  0.07287153  0.47840797  1
  O2-  O283  1  0.74202410  0.07076963  0.97649203  1
  O2-  O284  1  0.73821826  0.40805120  0.47832972  1
  O2-  O285  1  0.74119500  0.40384283  0.97969630  1
  O2-  O286  1  0.73854345  0.73914098  0.48754041  1
  O2-  O287  1  0.73456721  0.73509025  0.97916055  1
  O2-  O288  1  0.09643427  0.24049794  0.47655851  1
  O2-  O289  1  0.09528162  0.23798929  0.97866631  1
  O2-  O290  1  0.09570558  0.57288951  0.47869030  1
  O2-  O291  1  0.09714967  0.56755902  0.98116786  1
  O2-  O292  1  0.09559265  0.90392685  0.48148178  1
  O2-  O293  1  0.09457696  0.90082938  0.97877485  1
  O2-  O294  1  0.42872363  0.23978286  0.47739813  1
  O2-  O295  1  0.42610966  0.24296387  0.97676067  1
  O2-  O296  1  0.42842523  0.57065878  0.47918328  1
  O2-  O297  1  0.42516494  0.57728774  0.98220924  1
  O2-  O298  1  0.42614292  0.90448573  0.47862240  1
  O2-  O299  1  0.43117556  0.90335471  0.98159837  1
  O2-  O300  1  0.76334641  0.23940862  0.47849805  1
  O2-  O301  1  0.76441653  0.23842344  0.97910152  1
  O2-  O302  1  0.76242884  0.57118714  0.48422540  1
  O2-  O303  1  0.76554357  0.57129087  0.98372732  1
  O2-  O304  1  0.75972957  0.90733852  0.48765062  1
  O2-  O305  1  0.76025366  0.90204331  0.97527254  1
  O2-  O306  1  0.07151135  0.07003319  0.27081623  1
  O2-  O307  1  0.06860625  0.06845337  0.77160097  1
  O2-  O308  1  0.07418868  0.40560901  0.27205625  1
  O2-  O309  1  0.07126395  0.40217515  0.76396266  1
  O2-  O310  1  0.07018072  0.73531700  0.27148745  1
  O2-  O311  1  0.06624287  0.73431001  0.76996500  1
  O2-  O312  1  0.40455358  0.07279821  0.27108813  1
  O2-  O313  1  0.40622927  0.07770879  0.76600963  1
  O2-  O314  1  0.40358362  0.40429219  0.26678647  1
  O2-  O315  1  0.40652183  0.40847375  0.76921435  1
  O2-  O316  1  0.40199805  0.74023685  0.26782797  1
  O2-  O317  1  0.40408435  0.73868280  0.76902696  1
  O2-  O318  1  0.73829168  0.07325937  0.27171869  1
  O2-  O319  1  0.74218850  0.07048090  0.77260078  1
  O2-  O320  1  0.73765430  0.40717549  0.27133610  1
  O2-  O321  1  0.74143438  0.40429561  0.77041739  1
  O2-  O322  1  0.73891984  0.73945999  0.26143564  1
  O2-  O323  1  0.73475987  0.73457905  0.77200391  1
  O2-  O324  1  0.23524174  0.09580915  0.22968325  1
  O2-  O325  1  0.23588260  0.09595251  0.73086662  1
  O2-  O326  1  0.23788898  0.42819711  0.22778601  1
  O2-  O327  1  0.24103747  0.42592870  0.73606672  1
  O2-  O328  1  0.23392108  0.76353477  0.22610714  1
  O2-  O329  1  0.23901762  0.75933027  0.73026016  1
  O2-  O330  1  0.57294076  0.09141415  0.23195010  1
  O2-  O331  1  0.57686412  0.09056110  0.73162569  1
  O2-  O332  1  0.57298599  0.42693459  0.22789748  1
  O2-  O333  1  0.57474908  0.42593101  0.72863947  1
  O2-  O334  1  0.57089933  0.76066661  0.22982687  1
  O2-  O335  1  0.57273489  0.75885526  0.72611786  1
  O2-  O336  1  0.90480018  0.09416653  0.22948158  1
  O2-  O337  1  0.90762797  0.09799136  0.72867062  1
  O2-  O338  1  0.90320555  0.42898076  0.23176574  1
  O2-  O339  1  0.90640251  0.42813591  0.72980624  1
  O2-  O340  1  0.90679346  0.76110653  0.22620686  1
  O2-  O341  1  0.90388662  0.76080643  0.72919962  1
  O2-  O342  1  0.26128484  0.26401181  0.01805746  1
  O2-  O343  1  0.26503540  0.26561445  0.51860334  1
  O2-  O344  1  0.25978336  0.59573027  0.02110089  1
  O2-  O345  1  0.26439155  0.59815546  0.51448065  1
  O2-  O346  1  0.26287506  0.92987692  0.01890690  1
  O2-  O347  1  0.26183783  0.92921653  0.52115614  1
  O2-  O348  1  0.59743101  0.26248602  0.01602873  1
  O2-  O349  1  0.59819650  0.26336549  0.51847402  1
  O2-  O350  1  0.59241812  0.59266036  0.02120273  1
  O2-  O351  1  0.59361781  0.59144668  0.52531376  1
  O2-  O352  1  0.59640894  0.92731442  0.02012408  1
  O2-  O353  1  0.59290205  0.92307853  0.52513766  1
  O2-  O354  1  0.92963618  0.26341360  0.02445761  1
  O2-  O355  1  0.93054915  0.26059574  0.52115537  1
  O2-  O356  1  0.92862379  0.59313893  0.02021419  1
  O2-  O357  1  0.92526592  0.59513040  0.52087212  1
  O2-  O358  1  0.92776808  0.92581317  0.02361420  1
  O2-  O359  1  0.92878747  0.92750899  0.52098158  1
