# generated using pymatgen
data_Sr7Ca15Pr50Mn72O216
_symmetry_space_group_name_H-M   'P 1'
_cell_length_a   16.55610020
_cell_length_b   16.59828413
_cell_length_c   15.58920222
_cell_angle_alpha   90.00092512
_cell_angle_beta   89.99564782
_cell_angle_gamma   89.99105573
_symmetry_Int_Tables_number   1
_chemical_formula_structural   Sr7Ca15Pr50Mn72O216
_chemical_formula_sum   'Sr7 Ca15 Pr50 Mn72 O216'
_cell_volume   4283.95721577
_cell_formula_units_Z   1
loop_
 _symmetry_equiv_pos_site_id
 _symmetry_equiv_pos_as_xyz
  1  'x, y, z'
loop_
 _atom_type_symbol
 _atom_type_oxidation_number
  Sr2+  2.0
  Ca2+  2.0
  Pr3+  3.0
  Mn3.30+  3.3
  O2-  -2.0
loop_
 _atom_site_type_symbol
 _atom_site_label
 _atom_site_symmetry_multiplicity
 _atom_site_fract_x
 _atom_site_fract_y
 _atom_site_fract_z
 _atom_site_occupancy
  Sr2+  Sr0  1  0.50086059  0.17821397  0.12434537  1
  Sr2+  Sr1  1  0.16991221  0.84283394  0.62486755  1
  Sr2+  Sr2  1  0.49671848  0.82135729  0.87539241  1
  Sr2+  Sr3  1  0.83241894  0.82377619  0.37532100  1
  Sr2+  Sr4  1  0.16670175  0.48891400  0.87534598  1
  Sr2+  Sr5  1  0.66582675  0.67750592  0.62481314  1
  Sr2+  Sr6  1  0.17069873  0.18122648  0.12350366  1
  Ca2+  Ca7  1  1.00409973  0.31989392  0.87826779  1
  Ca2+  Ca8  1  0.49791786  0.81755633  0.37632419  1
  Ca2+  Ca9  1  0.32980841  0.34539311  0.11986152  1
  Ca2+  Ca10  1  0.50544908  0.18025869  0.62585712  1
  Ca2+  Ca11  1  0.83986508  0.18592503  0.12246490  1
  Ca2+  Ca12  1  0.33633061  0.31972304  0.87795856  1
  Ca2+  Ca13  1  0.17134862  0.84942306  0.12494521  1
  Ca2+  Ca14  1  0.83615282  0.84753526  0.62443833  1
  Ca2+  Ca15  1  0.33601829  0.65472797  0.87207206  1
  Ca2+  Ca16  1  0.33090038  0.68204576  0.62824513  1
  Ca2+  Ca17  1  -0.00244976  0.34587634  0.12201424  1
  Ca2+  Ca18  1  0.67025045  0.31471065  0.87569445  1
  Ca2+  Ca19  1  0.83102467  0.15490935  0.87646803  1
  Ca2+  Ca20  1  0.82776986  0.48261673  0.37389825  1
  Ca2+  Ca21  1  0.66968792  0.31993843  0.37349123  1
  Pr3+  Pr22  1  0.66620654  0.65317149  0.87356569  1
  Pr3+  Pr23  1  0.83522584  0.84731579  0.12591378  1
  Pr3+  Pr24  1  1.00396796  0.65329229  0.87492830  1
  Pr3+  Pr25  1  0.66475265  0.34240804  0.12379693  1
  Pr3+  Pr26  1  0.82928826  0.15674347  0.37332849  1
  Pr3+  Pr27  1  0.66270120  0.67687804  0.12518417  1
  Pr3+  Pr28  1  0.50245347  0.84222065  0.62447927  1
  Pr3+  Pr29  1  0.33168877  0.01067440  0.62609560  1
  Pr3+  Pr30  1  0.16368970  0.15415019  0.37341333  1
  Pr3+  Pr31  1  0.82882418  0.82106411  0.87476529  1
  Pr3+  Pr32  1  0.66947068  0.98619494  0.37377356  1
  Pr3+  Pr33  1  0.83448375  0.51291095  0.62375705  1
  Pr3+  Pr34  1  0.16156818  0.81976567  0.37446844  1
  Pr3+  Pr35  1  -0.00378391  0.34704207  0.62763418  1
  Pr3+  Pr36  1  1.00071376  0.32238159  0.37337161  1
  Pr3+  Pr37  1  0.16568448  0.82086558  0.87541355  1
  Pr3+  Pr38  1  0.66494813  0.01606308  0.12549553  1
  Pr3+  Pr39  1  -0.00513463  0.68308670  0.62642251  1
  Pr3+  Pr40  1  0.33693508  0.98483005  0.37369394  1
  Pr3+  Pr41  1  0.16619701  0.15949069  0.87671058  1
  Pr3+  Pr42  1  0.16968207  0.51513106  0.62725421  1
  Pr3+  Pr43  1  0.33283364  0.34434407  0.62814980  1
  Pr3+  Pr44  1  -0.00355166  0.01106111  0.62534467  1
  Pr3+  Pr45  1  0.82913038  0.48334316  0.87479345  1
  Pr3+  Pr46  1  0.33598572  0.32094808  0.37363113  1
  Pr3+  Pr47  1  0.33667106  0.98862221  0.87648304  1
  Pr3+  Pr48  1  -0.00174625  0.01721805  0.12500563  1
  Pr3+  Pr49  1  0.33632771  0.65520655  0.37747368  1
  Pr3+  Pr50  1  0.49861095  0.48674991  0.37652262  1
  Pr3+  Pr51  1  1.00139869  0.99134827  0.87571723  1
  Pr3+  Pr52  1  0.83762518  0.50972381  0.12582553  1
  Pr3+  Pr53  1  1.00237675  0.98774714  0.37398873  1
  Pr3+  Pr54  1  0.49380015  0.48636979  0.87401986  1
  Pr3+  Pr55  1  0.66186399  0.34384771  0.62595793  1
  Pr3+  Pr56  1  0.33006194  0.01357304  0.12380834  1
  Pr3+  Pr57  1  0.66474978  0.01169157  0.62422155  1
  Pr3+  Pr58  1  0.50310317  0.84580766  0.12597409  1
  Pr3+  Pr59  1  0.83616277  0.17921194  0.62641742  1
  Pr3+  Pr60  1  0.50298491  0.51576615  0.62526968  1
  Pr3+  Pr61  1  0.66955132  0.98921414  0.87589086  1
  Pr3+  Pr62  1  0.50069501  0.15629534  0.37441135  1
  Pr3+  Pr63  1  1.00130153  0.65354126  0.37531230  1
  Pr3+  Pr64  1  0.49919090  0.50816405  0.12478805  1
  Pr3+  Pr65  1  0.49848811  0.15655217  0.87510552  1
  Pr3+  Pr66  1  -0.00078894  0.67898836  0.12335433  1
  Pr3+  Pr67  1  0.16338162  0.48742036  0.37556742  1
  Pr3+  Pr68  1  0.32799132  0.67942097  0.12303257  1
  Pr3+  Pr69  1  0.67065974  0.65238909  0.37584705  1
  Pr3+  Pr70  1  0.16723690  0.50517007  0.12280173  1
  Pr3+  Pr71  1  0.16849008  0.17823080  0.62650963  1
  Mn3.30+  Mn72  1  0.16689097  0.00099367  0.00018116  1
  Mn3.30+  Mn73  1  0.16745625  -0.00060411  0.50078937  1
  Mn3.30+  Mn74  1  0.16630780  0.33396116  -0.00149517  1
  Mn3.30+  Mn75  1  0.16649761  0.33335918  0.50138703  1
  Mn3.30+  Mn76  1  0.16749376  0.66584867  -0.00033770  1
  Mn3.30+  Mn77  1  0.16833581  0.66739014  0.50163326  1
  Mn3.30+  Mn78  1  0.50087841  0.00091453  0.00074834  1
  Mn3.30+  Mn79  1  0.50005166  -0.00071759  0.49917578  1
  Mn3.30+  Mn80  1  0.49939175  0.33265733  -0.00085067  1
  Mn3.30+  Mn81  1  0.50116317  0.33177108  0.49991570  1
  Mn3.30+  Mn82  1  0.49671736  0.66537735  -0.00026899  1
  Mn3.30+  Mn83  1  0.50046386  0.66811101  0.49995374  1
  Mn3.30+  Mn84  1  0.83431749  0.00405177  0.00073163  1
  Mn3.30+  Mn85  1  0.83238154  -0.00057329  0.49978087  1
  Mn3.30+  Mn86  1  0.83419417  0.33063433  -0.00237591  1
  Mn3.30+  Mn87  1  0.83066319  0.33397037  0.49957531  1
  Mn3.30+  Mn88  1  0.83312494  0.66554511  0.00014208  1
  Mn3.30+  Mn89  1  0.83302039  0.66764924  0.49914850  1
  Mn3.30+  Mn90  1  -0.00155259  0.17080544  0.24676176  1
  Mn3.30+  Mn91  1  -0.00126281  0.16820242  0.75338792  1
  Mn3.30+  Mn92  1  -0.00200411  0.49834227  0.25065614  1
  Mn3.30+  Mn93  1  0.00014794  0.49900814  0.75155050  1
  Mn3.30+  Mn94  1  0.00177134  0.83381921  0.24749879  1
  Mn3.30+  Mn95  1  -0.00143897  0.83537636  0.75077785  1
  Mn3.30+  Mn96  1  0.33274034  0.16849835  0.24898460  1
  Mn3.30+  Mn97  1  0.33576875  0.16801773  0.74927876  1
  Mn3.30+  Mn98  1  0.33271819  0.49864059  0.24984047  1
  Mn3.30+  Mn99  1  0.33323182  0.50073667  0.75123615  1
  Mn3.30+  Mn100  1  0.33303479  0.83218222  0.24991136  1
  Mn3.30+  Mn101  1  0.33393454  0.83163219  0.75031835  1
  Mn3.30+  Mn102  1  0.66828026  0.16930399  0.24830709  1
  Mn3.30+  Mn103  1  0.66729625  0.16645545  0.75095531  1
  Mn3.30+  Mn104  1  0.66861482  0.49683102  0.25043867  1
  Mn3.30+  Mn105  1  0.66515287  0.49760227  0.75130180  1
  Mn3.30+  Mn106  1  0.66612784  0.83186943  0.25162167  1
  Mn3.30+  Mn107  1  0.66752284  0.83311295  0.74840920  1
  Mn3.30+  Mn108  1  0.16747392  0.00006011  0.24860458  1
  Mn3.30+  Mn109  1  0.16694826  0.00005303  0.75055824  1
  Mn3.30+  Mn110  1  0.16706180  0.33361720  0.24754310  1
  Mn3.30+  Mn111  1  0.16588061  0.33386035  0.75278622  1
  Mn3.30+  Mn112  1  0.16711537  0.66576608  0.24861586  1
  Mn3.30+  Mn113  1  0.16918845  0.66743317  0.75089854  1
  Mn3.30+  Mn114  1  0.50054586  -0.00056173  0.25114084  1
  Mn3.30+  Mn115  1  0.50042613  0.00037230  0.74896874  1
  Mn3.30+  Mn116  1  0.50035544  0.33295011  0.24906079  1
  Mn3.30+  Mn117  1  0.49994020  0.33158211  0.75174274  1
  Mn3.30+  Mn118  1  0.49907637  0.66584783  0.25060477  1
  Mn3.30+  Mn119  1  0.49789111  0.66752815  0.74972612  1
  Mn3.30+  Mn120  1  0.83361335  0.00277345  0.24854421  1
  Mn3.30+  Mn121  1  0.83309234  0.00063756  0.75063141  1
  Mn3.30+  Mn122  1  0.83291752  0.33378189  0.24903027  1
  Mn3.30+  Mn123  1  0.83182428  0.33073199  0.75331577  1
  Mn3.30+  Mn124  1  0.83318602  0.66569814  0.25084507  1
  Mn3.30+  Mn125  1  0.83326687  0.66733770  0.74963952  1
  Mn3.30+  Mn126  1  -0.00201363  0.17134239  0.00003710  1
  Mn3.30+  Mn127  1  -0.00065832  0.16740773  0.49993082  1
  Mn3.30+  Mn128  1  -0.00010606  0.49657552  -0.00112059  1
  Mn3.30+  Mn129  1  -0.00204145  0.50057240  0.49950849  1
  Mn3.30+  Mn130  1  0.00110802  0.83512439  0.00104913  1
  Mn3.30+  Mn131  1  -0.00124797  0.83406254  0.50058328  1
  Mn3.30+  Mn132  1  0.33329233  0.17055212  0.00015962  1
  Mn3.30+  Mn133  1  0.33544565  0.16635483  0.50122031  1
  Mn3.30+  Mn134  1  0.33291557  0.49843596  -0.00201733  1
  Mn3.30+  Mn135  1  0.33304162  0.50056666  0.50225493  1
  Mn3.30+  Mn136  1  0.33265961  0.83243027  0.00085150  1
  Mn3.30+  Mn137  1  0.33443975  0.83182219  0.49922471  1
  Mn3.30+  Mn138  1  0.66994071  0.16815706  -0.00005513  1
  Mn3.30+  Mn139  1  0.66588579  0.16757237  0.50016212  1
  Mn3.30+  Mn140  1  0.66621971  0.49662280  -0.00118750  1
  Mn3.30+  Mn141  1  0.66789409  0.49759053  0.49883585  1
  Mn3.30+  Mn142  1  0.66628734  0.83259549  -0.00022915  1
  Mn3.30+  Mn143  1  0.66743659  0.83234245  0.50011125  1
  O2-  O144  1  0.02276092  0.16284445  0.12434413  1
  O2-  O145  1  0.02422417  0.16020552  0.62717098  1
  O2-  O146  1  0.02135564  0.49331614  0.12466219  1
  O2-  O147  1  0.02376769  0.49495447  0.62537329  1
  O2-  O148  1  0.02954579  0.82792253  0.12375452  1
  O2-  O149  1  0.02068260  0.83206113  0.62605760  1
  O2-  O150  1  0.35244507  0.16008096  0.12575219  1
  O2-  O151  1  0.36297230  0.15851631  0.62465638  1
  O2-  O152  1  0.35553188  0.49140784  0.12404072  1
  O2-  O153  1  0.35985496  0.49005034  0.62525404  1
  O2-  O154  1  0.35996596  0.82747899  0.12586956  1
  O2-  O155  1  0.35775520  0.82890237  0.62356784  1
  O2-  O156  1  0.69568390  0.16380248  0.12432623  1
  O2-  O157  1  0.69266643  0.16078298  0.62557669  1
  O2-  O158  1  0.69361747  0.49142956  0.12332878  1
  O2-  O159  1  0.69089199  0.49184468  0.62471703  1
  O2-  O160  1  0.69097807  0.82532302  0.12500647  1
  O2-  O161  1  0.69320887  0.83324209  0.62569424  1
  O2-  O162  1  0.14140296  0.33899102  0.12481839  1
  O2-  O163  1  0.14056221  0.32739427  0.62574381  1
  O2-  O164  1  0.14177144  0.65559704  0.12543044  1
  O2-  O165  1  0.13973560  0.66379282  0.62677647  1
  O2-  O166  1  0.14284555  0.99488393  0.12329645  1
  O2-  O167  1  0.14140574  0.99954697  0.62594001  1
  O2-  O168  1  0.47399037  0.33524194  0.12479635  1
  O2-  O169  1  0.47608185  0.32579861  0.62588869  1
  O2-  O170  1  0.47306957  0.65830057  0.12596693  1
  O2-  O171  1  0.47482962  0.66440105  0.62406278  1
  O2-  O172  1  0.47474508  0.99442677  0.12729650  1
  O2-  O173  1  0.47435415  0.99005738  0.62162449  1
  O2-  O174  1  0.80807476  0.33122507  0.12229142  1
  O2-  O175  1  0.80618138  0.32722443  0.62685332  1
  O2-  O176  1  0.80729188  0.65906315  0.12530991  1
  O2-  O177  1  0.81461717  0.65926511  0.62545162  1
  O2-  O178  1  0.80848077  0.99365145  0.12456358  1
  O2-  O179  1  0.81029080  0.99515573  0.62313756  1
  O2-  O180  1  0.30735705  0.17308242  0.37519105  1
  O2-  O181  1  0.31057376  0.17120489  0.87373663  1
  O2-  O182  1  0.30714678  0.50691782  0.37861235  1
  O2-  O183  1  0.31519497  0.51139137  0.87339442  1
  O2-  O184  1  0.30489532  0.83727672  0.37292854  1
  O2-  O185  1  0.30927859  0.84163932  0.87737063  1
  O2-  O186  1  0.64466651  0.17316715  0.37487704  1
  O2-  O187  1  0.64239847  0.16732545  0.87462114  1
  O2-  O188  1  0.64122640  0.50532140  0.37493506  1
  O2-  O189  1  0.63907839  0.50665838  0.87633024  1
  O2-  O190  1  0.64021193  0.83850857  0.37389932  1
  O2-  O191  1  0.64741335  0.84030879  0.87497822  1
  O2-  O192  1  0.97390697  0.17392780  0.37259853  1
  O2-  O193  1  0.97318984  0.17221295  0.87555893  1
  O2-  O194  1  0.97233042  0.50626129  0.37642044  1
  O2-  O195  1  0.97289571  0.50806101  0.87444404  1
  O2-  O196  1  0.98226467  0.83840338  0.37325140  1
  O2-  O197  1  0.97183070  0.84065831  0.87667238  1
  O2-  O198  1  0.19123835  0.00590665  0.37555484  1
  O2-  O199  1  0.19168697  0.00728015  0.87498239  1
  O2-  O200  1  0.19143599  0.33855890  0.37728457  1
  O2-  O201  1  0.19313998  0.33038528  0.87263686  1
  O2-  O202  1  0.19164672  0.67073083  0.37296568  1
  O2-  O203  1  0.19210363  0.67322563  0.87580353  1
  O2-  O204  1  0.52651587  0.00842363  0.37587547  1
  O2-  O205  1  0.52498917  0.00649373  0.87537617  1
  O2-  O206  1  0.52659210  0.33868157  0.37464329  1
  O2-  O207  1  0.52788805  0.33891082  0.87472164  1
  O2-  O208  1  0.52517408  0.66985179  0.37393302  1
  O2-  O209  1  0.52278205  0.66569154  0.87606502  1
  O2-  O210  1  0.85790923  0.00784270  0.37345162  1
  O2-  O211  1  0.85754556  0.00726144  0.87825886  1
  O2-  O212  1  0.85763785  0.33602700  0.37658094  1
  O2-  O213  1  0.86279787  0.33907462  0.87394173  1
  O2-  O214  1  0.85879098  0.67153161  0.37384649  1
  O2-  O215  1  0.85938302  0.67274533  0.87511753  1
  O2-  O216  1  0.24270746  0.09328966  0.01518487  1
  O2-  O217  1  0.23920624  0.09472119  0.52082098  1
  O2-  O218  1  0.23773110  0.42773523  0.01642067  1
  O2-  O219  1  0.23787089  0.42838118  0.52193340  1
  O2-  O220  1  0.23654036  0.76333642  0.02281461  1
  O2-  O221  1  0.23941764  0.76057519  0.51292684  1
  O2-  O222  1  0.57667979  0.09218708  0.01904526  1
  O2-  O223  1  0.57147684  0.09464612  0.52082391  1
  O2-  O224  1  0.57153868  0.42673742  0.02132598  1
  O2-  O225  1  0.57008037  0.42701332  0.52127462  1
  O2-  O226  1  0.56975326  0.75675834  0.02225466  1
  O2-  O227  1  0.57216371  0.76309948  0.51779614  1
  O2-  O228  1  0.90667313  0.09570618  0.02325517  1
  O2-  O229  1  0.90582660  0.09522526  0.51970084  1
  O2-  O230  1  0.89999899  0.43059413  0.01543025  1
  O2-  O231  1  0.90309414  0.42587521  0.52302705  1
  O2-  O232  1  0.90726924  0.76383604  0.02164565  1
  O2-  O233  1  0.90705398  0.76300771  0.52195787  1
  O2-  O234  1  0.26338298  0.26773942  0.23289928  1
  O2-  O235  1  0.26069534  0.25773409  0.72553897  1
  O2-  O236  1  0.26128714  0.59463711  0.23031918  1
  O2-  O237  1  0.26106657  0.59344427  0.72522200  1
  O2-  O238  1  0.26617776  0.92871525  0.23124487  1
  O2-  O239  1  0.26351976  0.92945526  0.73415848  1
  O2-  O240  1  0.59585030  0.26157846  0.23047247  1
  O2-  O241  1  0.59644293  0.25994896  0.73227292  1
  O2-  O242  1  0.59592680  0.59084281  0.22912368  1
  O2-  O243  1  0.59107504  0.59374089  0.73271233  1
  O2-  O244  1  0.59404394  0.92756622  0.22853482  1
  O2-  O245  1  0.59494626  0.92775235  0.72927645  1
  O2-  O246  1  0.93156280  0.26779375  0.23167865  1
  O2-  O247  1  0.92659488  0.26037521  0.72585640  1
  O2-  O248  1  0.92916231  0.59552455  0.22850569  1
  O2-  O249  1  0.92808697  0.59543701  0.73090805  1
  O2-  O250  1  0.92806453  0.93072518  0.22908084  1
  O2-  O251  1  0.92967508  0.93146137  0.73383520  1
  O2-  O252  1  0.09507101  0.24098243  0.27241695  1
  O2-  O253  1  0.09570596  0.23717088  0.76735773  1
  O2-  O254  1  0.09397448  0.57186984  0.27129883  1
  O2-  O255  1  0.09394815  0.57571089  0.76764223  1
  O2-  O256  1  0.09525195  0.90800294  0.27013868  1
  O2-  O257  1  0.09184056  0.90740710  0.77449009  1
  O2-  O258  1  0.42842411  0.24055076  0.27317496  1
  O2-  O259  1  0.42927786  0.23903937  0.77040740  1
  O2-  O260  1  0.42789579  0.57122221  0.27139357  1
  O2-  O261  1  0.43071778  0.56873136  0.76373282  1
  O2-  O262  1  0.42856088  0.90129520  0.27236524  1
  O2-  O263  1  0.42557097  0.90773645  0.76716644  1
  O2-  O264  1  0.76444607  0.23893048  0.26798741  1
  O2-  O265  1  0.76530285  0.23320520  0.76891252  1
  O2-  O266  1  0.76105761  0.56837910  0.27124469  1
  O2-  O267  1  0.76026235  0.57093891  0.77030304  1
  O2-  O268  1  0.75894184  0.90761493  0.26545667  1
  O2-  O269  1  0.76214229  0.90744950  0.77198139  1
  O2-  O270  1  0.07154469  0.07378062  0.47840996  1
  O2-  O271  1  0.07150024  0.07534515  0.98034493  1
  O2-  O272  1  0.06946679  0.40748136  0.47998619  1
  O2-  O273  1  0.06971494  0.40485504  0.97967000  1
  O2-  O274  1  0.07083026  0.73945636  0.48052889  1
  O2-  O275  1  0.07101385  0.74022560  0.97828728  1
  O2-  O276  1  0.40515362  0.07136712  0.47689797  1
  O2-  O277  1  0.40768773  0.07487146  0.98069037  1
  O2-  O278  1  0.40392008  0.40602941  0.47991939  1
  O2-  O279  1  0.40572688  0.40652881  0.97566452  1
  O2-  O280  1  0.40532418  0.73998428  0.47807796  1
  O2-  O281  1  0.39918118  0.73405002  0.98370051  1
  O2-  O282  1  0.73667278  0.07309965  0.47932381  1
  O2-  O283  1  0.73688003  0.06949399  0.98276286  1
  O2-  O284  1  0.73459389  0.40031081  0.48133757  1
  O2-  O285  1  0.73771946  0.40158501  0.97606061  1
  O2-  O286  1  0.73730896  0.73659076  0.47987027  1
  O2-  O287  1  0.73822128  0.73729767  0.97995786  1
  O2-  O288  1  0.09440801  0.23865398  0.48014195  1
  O2-  O289  1  0.09550422  0.23961341  0.97933930  1
  O2-  O290  1  0.09592289  0.57341816  0.48060929  1
  O2-  O291  1  0.08982080  0.57417239  0.98230406  1
  O2-  O292  1  0.09420552  0.90708473  0.47863269  1
  O2-  O293  1  0.09200946  0.90782835  0.97565634  1
  O2-  O294  1  0.42787024  0.24021791  0.47634594  1
  O2-  O295  1  0.43008465  0.23971575  0.97916876  1
  O2-  O296  1  0.42754673  0.57142548  0.48023993  1
  O2-  O297  1  0.43076188  0.56819029  0.98570816  1
  O2-  O298  1  0.42842165  0.90411262  0.47589150  1
  O2-  O299  1  0.42553527  0.90776773  0.98465562  1
  O2-  O300  1  0.76526365  0.23578351  0.48417581  1
  O2-  O301  1  0.76538680  0.23681422  0.97810646  1
  O2-  O302  1  0.76196217  0.56806805  0.47971711  1
  O2-  O303  1  0.75835387  0.56916408  0.97818245  1
  O2-  O304  1  0.75619804  0.90888192  0.47914914  1
  O2-  O305  1  0.76457369  0.90643099  0.98236619  1
  O2-  O306  1  0.07031713  0.07444155  0.26928065  1
  O2-  O307  1  0.07255184  0.07468858  0.77182354  1
  O2-  O308  1  0.07300939  0.40739010  0.27421209  1
  O2-  O309  1  0.06674089  0.40313604  0.76748029  1
  O2-  O310  1  0.07314915  0.73591721  0.26984853  1
  O2-  O311  1  0.07035765  0.74100378  0.77177811  1
  O2-  O312  1  0.40776114  0.07192387  0.27084686  1
  O2-  O313  1  0.40581198  0.07284934  0.77127724  1
  O2-  O314  1  0.40746812  0.40799270  0.27489978  1
  O2-  O315  1  0.40356465  0.40317287  0.77067148  1
  O2-  O316  1  0.39959265  0.73606235  0.26782871  1
  O2-  O317  1  0.40317874  0.73635782  0.76801199  1
  O2-  O318  1  0.73870746  0.07283974  0.27050613  1
  O2-  O319  1  0.73540339  0.06874068  0.76623067  1
  O2-  O320  1  0.73559967  0.40126220  0.26873200  1
  O2-  O321  1  0.73758163  0.40060275  0.77290699  1
  O2-  O322  1  0.73615724  0.73507214  0.26701505  1
  O2-  O323  1  0.73967636  0.73868355  0.77297118  1
  O2-  O324  1  0.23954591  0.09254490  0.23405900  1
  O2-  O325  1  0.24132054  0.09493005  0.72915986  1
  O2-  O326  1  0.23512660  0.43118522  0.23645063  1
  O2-  O327  1  0.23867366  0.42704538  0.72772300  1
  O2-  O328  1  0.23645861  0.76249504  0.22717169  1
  O2-  O329  1  0.23806061  0.76229106  0.73651872  1
  O2-  O330  1  0.57745962  0.09364335  0.23244765  1
  O2-  O331  1  0.57194558  0.09447934  0.72769576  1
  O2-  O332  1  0.57202674  0.42739124  0.22933515  1
  O2-  O333  1  0.56906104  0.42670766  0.72829408  1
  O2-  O334  1  0.57099912  0.75791064  0.22749881  1
  O2-  O335  1  0.57115598  0.76165902  0.73261000  1
  O2-  O336  1  0.90498874  0.09893818  0.22823846  1
  O2-  O337  1  0.90661127  0.09255218  0.72894390  1
  O2-  O338  1  0.90098555  0.42877316  0.23351676  1
  O2-  O339  1  0.90084846  0.42818390  0.72911932  1
  O2-  O340  1  0.90839524  0.76106230  0.22521131  1
  O2-  O341  1  0.90485239  0.76464603  0.73076473  1
  O2-  O342  1  0.26322723  0.26336486  0.01701642  1
  O2-  O343  1  0.26300506  0.25950984  0.52237491  1
  O2-  O344  1  0.25984386  0.59060009  0.02261887  1
  O2-  O345  1  0.26273143  0.59420626  0.52428613  1
  O2-  O346  1  0.26254051  0.92858993  0.01870242  1
  O2-  O347  1  0.26621772  0.92963654  0.51624884  1
  O2-  O348  1  0.59747206  0.26077226  0.01689636  1
  O2-  O349  1  0.59665358  0.25932018  0.52037597  1
  O2-  O350  1  0.59419829  0.59227700  0.02144387  1
  O2-  O351  1  0.59311230  0.59052915  0.51663826  1
  O2-  O352  1  0.59474130  0.92676086  0.02208579  1
  O2-  O353  1  0.59420661  0.92772262  0.52013631  1
  O2-  O354  1  0.93014759  0.26488849  0.02177316  1
  O2-  O355  1  0.92829465  0.26220336  0.52096029  1
  O2-  O356  1  0.92723231  0.59413359  0.02053052  1
  O2-  O357  1  0.92991154  0.59597747  0.52039111  1
  O2-  O358  1  0.92923062  0.92991280  0.02264654  1
  O2-  O359  1  0.93080585  0.93037130  0.51497248  1
