# generated using pymatgen
data_Sr7Ca15Pr50Mn72O216
_symmetry_space_group_name_H-M   'P 1'
_cell_length_a   16.55933465
_cell_length_b   16.60471562
_cell_length_c   15.59323004
_cell_angle_alpha   89.99718214
_cell_angle_beta   90.00379367
_cell_angle_gamma   90.00045358
_symmetry_Int_Tables_number   1
_chemical_formula_structural   Sr7Ca15Pr50Mn72O216
_chemical_formula_sum   'Sr7 Ca15 Pr50 Mn72 O216'
_cell_volume   4287.56196354
_cell_formula_units_Z   1
loop_
 _symmetry_equiv_pos_site_id
 _symmetry_equiv_pos_as_xyz
  1  'x, y, z'
loop_
 _atom_type_symbol
 _atom_type_oxidation_number
  Sr2+  2.0
  Ca2+  2.0
  Pr3+  3.0
  Mn3.30+  3.3
  O2-  -2.0
loop_
 _atom_site_type_symbol
 _atom_site_label
 _atom_site_symmetry_multiplicity
 _atom_site_fract_x
 _atom_site_fract_y
 _atom_site_fract_z
 _atom_site_occupancy
  Sr2+  Sr0  1  0.33347670  0.65730721  0.87453502  1
  Sr2+  Sr1  1  0.66845081  0.00739231  0.12303618  1
  Sr2+  Sr2  1  0.33110008  0.34403046  0.62455413  1
  Sr2+  Sr3  1  0.66780341  0.67520757  0.62316067  1
  Sr2+  Sr4  1  0.33346327  0.65628745  0.37532476  1
  Sr2+  Sr5  1  -0.00518218  0.67799337  0.12426007  1
  Sr2+  Sr6  1  0.16539214  0.83912379  0.62531955  1
  Ca2+  Ca7  1  0.83949565  0.51463091  0.12738392  1
  Ca2+  Ca8  1  0.83001997  0.48634315  0.37482568  1
  Ca2+  Ca9  1  0.83556246  0.51749001  0.62297523  1
  Ca2+  Ca10  1  -0.00790280  0.35107584  0.12625773  1
  Ca2+  Ca11  1  0.99914172  0.32166917  0.37383393  1
  Ca2+  Ca12  1  1.00187557  0.32218677  0.87594294  1
  Ca2+  Ca13  1  1.00160745  0.98261673  0.87462289  1
  Ca2+  Ca14  1  0.83762048  0.84741620  0.12098222  1
  Ca2+  Ca15  1  0.67363538  0.98090587  0.87644149  1
  Ca2+  Ca16  1  0.67540331  0.64823338  0.37660535  1
  Ca2+  Ca17  1  -0.00554612  0.68114542  0.62571378  1
  Ca2+  Ca18  1  0.66384093  0.34994917  0.62444599  1
  Ca2+  Ca19  1  0.49724084  0.15324531  0.37406633  1
  Ca2+  Ca20  1  0.83228395  0.81879985  0.87684519  1
  Ca2+  Ca21  1  0.32841518  0.34884735  0.12561088  1
  Pr3+  Pr22  1  0.33248389  0.67680306  0.62404928  1
  Pr3+  Pr23  1  0.83376665  0.18167562  0.62516442  1
  Pr3+  Pr24  1  0.83201341  0.15727979  0.37470071  1
  Pr3+  Pr25  1  -0.00398864  0.01317958  0.62718869  1
  Pr3+  Pr26  1  0.33484697  0.98635051  0.87481146  1
  Pr3+  Pr27  1  0.67008311  0.32168429  0.37564434  1
  Pr3+  Pr28  1  0.82876063  0.81794949  0.37303594  1
  Pr3+  Pr29  1  0.16613033  0.84451199  0.12403823  1
  Pr3+  Pr30  1  0.33500544  0.32291126  0.87568840  1
  Pr3+  Pr31  1  0.16605834  0.51116076  0.12578200  1
  Pr3+  Pr32  1  0.67098682  0.32141730  0.87481615  1
  Pr3+  Pr33  1  0.83282659  0.48971392  0.87562573  1
  Pr3+  Pr34  1  0.50005705  0.81988063  0.37398598  1
  Pr3+  Pr35  1  0.50360235  0.84465370  0.12488864  1
  Pr3+  Pr36  1  0.49834927  0.49055922  0.87417862  1
  Pr3+  Pr37  1  0.50080010  0.82011856  0.87651616  1
  Pr3+  Pr38  1  0.66785275  0.34707191  0.12569912  1
  Pr3+  Pr39  1  0.16170981  0.81945236  0.87392533  1
  Pr3+  Pr40  1  0.16116026  0.48553880  0.87558143  1
  Pr3+  Pr41  1  1.00114624  0.65555626  0.87387210  1
  Pr3+  Pr42  1  1.00267017  0.65236928  0.37547282  1
  Pr3+  Pr43  1  0.83196405  0.15301530  0.87572261  1
  Pr3+  Pr44  1  0.50336108  0.17999644  0.12588559  1
  Pr3+  Pr45  1  0.50130138  0.51207566  0.12642385  1
  Pr3+  Pr46  1  0.32937600  0.01128429  0.62596861  1
  Pr3+  Pr47  1  0.50433263  0.51201912  0.62375162  1
  Pr3+  Pr48  1  0.50473670  0.18280323  0.62449405  1
  Pr3+  Pr49  1  0.16347044  0.15590638  0.37593338  1
  Pr3+  Pr50  1  0.83712416  0.84341316  0.62729702  1
  Pr3+  Pr51  1  0.50031001  0.48987199  0.37575605  1
  Pr3+  Pr52  1  0.16148218  0.48382255  0.37456832  1
  Pr3+  Pr53  1  -0.00517191  0.34810641  0.62458811  1
  Pr3+  Pr54  1  0.50490598  0.84279440  0.62555935  1
  Pr3+  Pr55  1  0.16270275  0.81945429  0.37526833  1
  Pr3+  Pr56  1  0.33778793  0.31974404  0.37430621  1
  Pr3+  Pr57  1  0.83778923  0.18116305  0.12489593  1
  Pr3+  Pr58  1  0.15968879  0.15319385  0.87388464  1
  Pr3+  Pr59  1  0.32956945  0.01281099  0.12389238  1
  Pr3+  Pr60  1  0.16829552  0.18295747  0.12459788  1
  Pr3+  Pr61  1  0.16890083  0.51108673  0.62403487  1
  Pr3+  Pr62  1  0.33683669  0.98894473  0.37519252  1
  Pr3+  Pr63  1  -0.00646410  0.01067269  0.12241086  1
  Pr3+  Pr64  1  1.00174357  0.98682813  0.37492362  1
  Pr3+  Pr65  1  0.16860469  0.17997493  0.62539190  1
  Pr3+  Pr66  1  0.66415710  0.00984031  0.62698990  1
  Pr3+  Pr67  1  0.67310851  0.65578766  0.87348207  1
  Pr3+  Pr68  1  0.49885958  0.15317561  0.87580048  1
  Pr3+  Pr69  1  0.32979297  0.67844613  0.12584413  1
  Pr3+  Pr70  1  0.67004237  0.67836664  0.12696723  1
  Pr3+  Pr71  1  0.66782039  0.98928189  0.37392943  1
  Mn3.30+  Mn72  1  0.16262977  0.00015531  -0.00119850  1
  Mn3.30+  Mn73  1  0.16625311  -0.00113931  0.50115199  1
  Mn3.30+  Mn74  1  0.16377665  0.33402225  0.00220132  1
  Mn3.30+  Mn75  1  0.16437318  0.33272242  0.49847584  1
  Mn3.30+  Mn76  1  0.16521490  0.66558651  0.00028512  1
  Mn3.30+  Mn77  1  0.16490718  0.66529120  0.50107745  1
  Mn3.30+  Mn78  1  0.50214511  -0.00027801  -0.00104190  1
  Mn3.30+  Mn79  1  0.49956575  0.00098655  0.50047027  1
  Mn3.30+  Mn80  1  0.49949086  0.33451471  0.00166688  1
  Mn3.30+  Mn81  1  0.50215771  0.33362558  0.50001422  1
  Mn3.30+  Mn82  1  0.50141498  0.66584693  0.00162952  1
  Mn3.30+  Mn83  1  0.50338499  0.66593465  0.49726559  1
  Mn3.30+  Mn84  1  0.83340196  -0.00207600  -0.00310686  1
  Mn3.30+  Mn85  1  0.83245813  0.00037792  0.50029063  1
  Mn3.30+  Mn86  1  0.83738255  0.33493374  -0.00041240  1
  Mn3.30+  Mn87  1  0.83255186  0.33728066  0.50106721  1
  Mn3.30+  Mn88  1  0.83516120  0.66725884  0.00072195  1
  Mn3.30+  Mn89  1  0.83431449  0.66449116  0.49983095  1
  Mn3.30+  Mn90  1  0.00040044  0.16921978  0.24950050  1
  Mn3.30+  Mn91  1  -0.00160995  0.16811936  0.75162062  1
  Mn3.30+  Mn92  1  -0.00427976  0.49773134  0.25159386  1
  Mn3.30+  Mn93  1  -0.00206794  0.50079390  0.74769253  1
  Mn3.30+  Mn94  1  -0.00347325  0.83268354  0.24856571  1
  Mn3.30+  Mn95  1  -0.00152441  0.83354758  0.75066695  1
  Mn3.30+  Mn96  1  0.33404505  0.16812850  0.24876652  1
  Mn3.30+  Mn97  1  0.33256804  0.16720624  0.75128978  1
  Mn3.30+  Mn98  1  0.33261446  0.49893782  0.25064462  1
  Mn3.30+  Mn99  1  0.33282232  0.49981237  0.75019029  1
  Mn3.30+  Mn100  1  0.33364764  0.83378918  0.25007340  1
  Mn3.30+  Mn101  1  0.33391086  0.83210937  0.74998630  1
  Mn3.30+  Mn102  1  0.66590739  0.16644805  0.24980135  1
  Mn3.30+  Mn103  1  0.66701424  0.16575578  0.75114887  1
  Mn3.30+  Mn104  1  0.67114360  0.50088924  0.25015549  1
  Mn3.30+  Mn105  1  0.66882269  0.49968155  0.74794943  1
  Mn3.30+  Mn106  1  0.66874781  0.83230544  0.24906409  1
  Mn3.30+  Mn107  1  0.67024773  0.83266223  0.75125015  1
  Mn3.30+  Mn108  1  0.16537702  0.00090548  0.24950159  1
  Mn3.30+  Mn109  1  0.16399852  -0.00178761  0.75009015  1
  Mn3.30+  Mn110  1  0.16348000  0.33351469  0.24868707  1
  Mn3.30+  Mn111  1  0.16456397  0.33324975  0.75069030  1
  Mn3.30+  Mn112  1  0.16496579  0.66552204  0.24997408  1
  Mn3.30+  Mn113  1  0.16524359  0.66527961  0.74828403  1
  Mn3.30+  Mn114  1  0.50029480  0.00153022  0.24918204  1
  Mn3.30+  Mn115  1  0.50155090  -0.00073827  0.75233743  1
  Mn3.30+  Mn116  1  0.49944232  0.33331934  0.24911863  1
  Mn3.30+  Mn117  1  0.50236745  0.33432382  0.74977552  1
  Mn3.30+  Mn118  1  0.50278563  0.66560385  0.25160861  1
  Mn3.30+  Mn119  1  0.50191509  0.66644327  0.74986953  1
  Mn3.30+  Mn120  1  0.83329310  0.00016151  0.24852183  1
  Mn3.30+  Mn121  1  0.83240166  -0.00141979  0.75347786  1
  Mn3.30+  Mn122  1  0.83605994  0.33624524  0.25154749  1
  Mn3.30+  Mn123  1  0.83308856  0.33589178  0.74908786  1
  Mn3.30+  Mn124  1  0.83400075  0.66435379  0.25088037  1
  Mn3.30+  Mn125  1  0.83555195  0.66720129  0.74802182  1
  Mn3.30+  Mn126  1  -0.00005831  0.16856634  -0.00090742  1
  Mn3.30+  Mn127  1  -0.00089485  0.16884770  0.49996160  1
  Mn3.30+  Mn128  1  -0.00233312  0.49835514  0.00094760  1
  Mn3.30+  Mn129  1  -0.00391834  0.50005165  0.49968448  1
  Mn3.30+  Mn130  1  -0.00354223  0.83324971  -0.00166923  1
  Mn3.30+  Mn131  1  -0.00170288  0.83231450  0.50137725  1
  Mn3.30+  Mn132  1  0.33197068  0.16870977  0.00025693  1
  Mn3.30+  Mn133  1  0.33479708  0.16685512  0.49995107  1
  Mn3.30+  Mn134  1  0.33259039  0.49965038  0.00051352  1
  Mn3.30+  Mn135  1  0.33324093  0.49898417  0.49888583  1
  Mn3.30+  Mn136  1  0.33334734  0.83326922  -0.00012976  1
  Mn3.30+  Mn137  1  0.33411843  0.83263969  0.49978241  1
  Mn3.30+  Mn138  1  0.66791191  0.16485799  0.00043912  1
  Mn3.30+  Mn139  1  0.66516118  0.16765979  0.49976207  1
  Mn3.30+  Mn140  1  0.66912093  0.50079672  0.00200210  1
  Mn3.30+  Mn141  1  0.67069470  0.50003899  0.50004621  1
  Mn3.30+  Mn142  1  0.67082524  0.83317070  0.00046343  1
  Mn3.30+  Mn143  1  0.66814649  0.83127476  0.49930269  1
  O2-  O144  1  0.02530354  0.15583538  0.12274641  1
  O2-  O145  1  0.02391892  0.16134132  0.62445074  1
  O2-  O146  1  0.02282263  0.49398445  0.12630026  1
  O2-  O147  1  0.02688854  0.49244451  0.62383022  1
  O2-  O148  1  0.02280722  0.83561181  0.12450239  1
  O2-  O149  1  0.01627558  0.82983000  0.62467637  1
  O2-  O150  1  0.35960953  0.15883769  0.12374846  1
  O2-  O151  1  0.35963495  0.15989734  0.62746065  1
  O2-  O152  1  0.35669266  0.49353102  0.12589698  1
  O2-  O153  1  0.35800506  0.49810203  0.62451392  1
  O2-  O154  1  0.35787826  0.82960414  0.12497473  1
  O2-  O155  1  0.36025882  0.82799268  0.62496393  1
  O2-  O156  1  0.69305779  0.16440566  0.12356473  1
  O2-  O157  1  0.69138785  0.15635066  0.62673850  1
  O2-  O158  1  0.69650830  0.49439896  0.12602616  1
  O2-  O159  1  0.69276175  0.49379887  0.62451955  1
  O2-  O160  1  0.69501938  0.82723321  0.12592190  1
  O2-  O161  1  0.69202672  0.83436793  0.62471266  1
  O2-  O162  1  0.13515652  0.32924216  0.12543255  1
  O2-  O163  1  0.14056987  0.32848926  0.62254667  1
  O2-  O164  1  0.14542763  0.66211553  0.12615805  1
  O2-  O165  1  0.13835654  0.65927803  0.62439916  1
  O2-  O166  1  0.13857129  0.99402499  0.12275381  1
  O2-  O167  1  0.14004338  0.99681488  0.62474049  1
  O2-  O168  1  0.47077574  0.32726713  0.12437421  1
  O2-  O169  1  0.47965171  0.32984199  0.62409094  1
  O2-  O170  1  0.47390777  0.66112725  0.12624929  1
  O2-  O171  1  0.47756035  0.66253800  0.62239346  1
  O2-  O172  1  0.47291895  0.99273029  0.12172272  1
  O2-  O173  1  0.47373016  0.99091933  0.62573317  1
  O2-  O174  1  0.80948171  0.32648656  0.12481258  1
  O2-  O175  1  0.80441185  0.32614222  0.62562893  1
  O2-  O176  1  0.81202740  0.65721337  0.12721728  1
  O2-  O177  1  0.81540800  0.66453236  0.62358301  1
  O2-  O178  1  0.81815533  0.99539944  0.12315452  1
  O2-  O179  1  0.80804916  0.99310703  0.62657088  1
  O2-  O180  1  0.30767522  0.17020076  0.37256454  1
  O2-  O181  1  0.30529133  0.17405947  0.87653301  1
  O2-  O182  1  0.30719493  0.50055215  0.37446786  1
  O2-  O183  1  0.30734588  0.50154990  0.87530634  1
  O2-  O184  1  0.30740516  0.84047390  0.37385387  1
  O2-  O185  1  0.30724381  0.83753369  0.87575441  1
  O2-  O186  1  0.63928445  0.17333671  0.37529990  1
  O2-  O187  1  0.64161713  0.17556225  0.87591601  1
  O2-  O188  1  0.64348497  0.50259412  0.37343593  1
  O2-  O189  1  0.64259635  0.50670407  0.87632962  1
  O2-  O190  1  0.64291801  0.84163748  0.37360697  1
  O2-  O191  1  0.64375912  0.83322990  0.87625506  1
  O2-  O192  1  0.97589002  0.17353740  0.37706007  1
  O2-  O193  1  0.97514840  0.17941365  0.87585179  1
  O2-  O194  1  0.97184331  0.50676772  0.37716093  1
  O2-  O195  1  0.97624548  0.50716824  0.87242414  1
  O2-  O196  1  0.97433596  0.83902819  0.37496896  1
  O2-  O197  1  0.97530178  0.83605239  0.87437871  1
  O2-  O198  1  0.19248759  0.00690334  0.37655758  1
  O2-  O199  1  0.19171645  0.00528546  0.87552613  1
  O2-  O200  1  0.19227857  0.33447113  0.37402999  1
  O2-  O201  1  0.19112361  0.33754691  0.87809122  1
  O2-  O202  1  0.18347790  0.67093570  0.37436291  1
  O2-  O203  1  0.18350401  0.66995344  0.87441005  1
  O2-  O204  1  0.52369597  0.00720353  0.37699908  1
  O2-  O205  1  0.52926847  0.00617966  0.87663568  1
  O2-  O206  1  0.52666781  0.34145419  0.37487120  1
  O2-  O207  1  0.52718474  0.34114508  0.87700626  1
  O2-  O208  1  0.53109642  0.67164703  0.37311554  1
  O2-  O209  1  0.52755315  0.67007666  0.87807520  1
  O2-  O210  1  0.85813352  0.00857390  0.37576543  1
  O2-  O211  1  0.86248782  0.00838015  0.87351666  1
  O2-  O212  1  0.85836997  0.33861478  0.37587467  1
  O2-  O213  1  0.86046643  0.34192465  0.87423029  1
  O2-  O214  1  0.86048860  0.67385407  0.37520742  1
  O2-  O215  1  0.85643695  0.67049131  0.87334990  1
  O2-  O216  1  0.23592092  0.09407711  0.02093542  1
  O2-  O217  1  0.23795724  0.09302604  0.52207825  1
  O2-  O218  1  0.23326366  0.42841155  0.01897323  1
  O2-  O219  1  0.23365739  0.42697106  0.51544160  1
  O2-  O220  1  0.24023184  0.76089037  0.02025601  1
  O2-  O221  1  0.24326046  0.75641891  0.51707679  1
  O2-  O222  1  0.56649912  0.09601491  0.01858165  1
  O2-  O223  1  0.57071583  0.09274190  0.52436253  1
  O2-  O224  1  0.57208860  0.42762763  0.02257782  1
  O2-  O225  1  0.57209562  0.42872973  0.51715663  1
  O2-  O226  1  0.57402643  0.75917138  0.02257879  1
  O2-  O227  1  0.57148061  0.76399573  0.51665192  1
  O2-  O228  1  0.90449885  0.09770228  0.01815942  1
  O2-  O229  1  0.90417284  0.09528338  0.52141372  1
  O2-  O230  1  0.90108069  0.43253037  0.01856815  1
  O2-  O231  1  0.90382363  0.42988135  0.52647997  1
  O2-  O232  1  0.90220707  0.76436516  0.01762980  1
  O2-  O233  1  0.90147585  0.76496320  0.51466223  1
  O2-  O234  1  0.26320383  0.26254455  0.22751351  1
  O2-  O235  1  0.25862011  0.25887325  0.73223990  1
  O2-  O236  1  0.26058931  0.59226094  0.22884980  1
  O2-  O237  1  0.25924350  0.59182229  0.72643402  1
  O2-  O238  1  0.25869942  0.92942343  0.22824359  1
  O2-  O239  1  0.26433820  0.92771208  0.73363796  1
  O2-  O240  1  0.59511940  0.26149149  0.22749237  1
  O2-  O241  1  0.59724476  0.26042274  0.73007877  1
  O2-  O242  1  0.59529975  0.59189567  0.22606702  1
  O2-  O243  1  0.59354804  0.59094601  0.73194592  1
  O2-  O244  1  0.59079870  0.92464600  0.23215670  1
  O2-  O245  1  0.59561080  0.92546601  0.73029781  1
  O2-  O246  1  0.92844718  0.26188323  0.22889084  1
  O2-  O247  1  0.92585185  0.26191985  0.72682185  1
  O2-  O248  1  0.92983380  0.59660723  0.23680769  1
  O2-  O249  1  0.93251478  0.59899091  0.73256466  1
  O2-  O250  1  0.93168495  0.93156854  0.23592163  1
  O2-  O251  1  0.92699158  0.92855576  0.72842537  1
  O2-  O252  1  0.09877463  0.23501454  0.26666683  1
  O2-  O253  1  0.09665654  0.23709774  0.76622162  1
  O2-  O254  1  0.09239229  0.56867101  0.26970287  1
  O2-  O255  1  0.09460451  0.56995091  0.76956385  1
  O2-  O256  1  0.09479671  0.90472458  0.27044020  1
  O2-  O257  1  0.09419592  0.90489209  0.77053245  1
  O2-  O258  1  0.42873054  0.23695645  0.27266417  1
  O2-  O259  1  0.42916511  0.24005391  0.77131807  1
  O2-  O260  1  0.43237009  0.57128951  0.26742370  1
  O2-  O261  1  0.42907734  0.57184368  0.76662496  1
  O2-  O262  1  0.42686285  0.90706978  0.27075235  1
  O2-  O263  1  0.43011526  0.90681521  0.77387672  1
  O2-  O264  1  0.76267403  0.24054751  0.27055044  1
  O2-  O265  1  0.76170750  0.23703844  0.77179445  1
  O2-  O266  1  0.76338089  0.57054448  0.27240643  1
  O2-  O267  1  0.76137020  0.57365324  0.76998687  1
  O2-  O268  1  0.75858131  0.90818203  0.27176684  1
  O2-  O269  1  0.76473330  0.90248541  0.77121954  1
  O2-  O270  1  0.07274952  0.07160443  0.47988927  1
  O2-  O271  1  0.06936979  0.07044898  0.97527405  1
  O2-  O272  1  0.06796051  0.40344149  0.47783584  1
  O2-  O273  1  0.07035801  0.40489610  0.97701425  1
  O2-  O274  1  0.07239693  0.74151183  0.47959876  1
  O2-  O275  1  0.07101779  0.74165637  0.97970393  1
  O2-  O276  1  0.40300132  0.07012499  0.48309841  1
  O2-  O277  1  0.40392142  0.07244838  0.97766509  1
  O2-  O278  1  0.40734939  0.40584616  0.47750581  1
  O2-  O279  1  0.40649599  0.40718957  0.97765706  1
  O2-  O280  1  0.41115017  0.74094998  0.48025049  1
  O2-  O281  1  0.41094352  0.74067899  0.98341095  1
  O2-  O282  1  0.73703456  0.07315841  0.47977742  1
  O2-  O283  1  0.74209963  0.06958362  0.97591633  1
  O2-  O284  1  0.73784296  0.40448287  0.47856368  1
  O2-  O285  1  0.73847437  0.40467012  0.97973273  1
  O2-  O286  1  0.74097668  0.73707790  0.47688413  1
  O2-  O287  1  0.73693717  0.73473914  0.98441072  1
  O2-  O288  1  0.09655349  0.23723663  0.48302885  1
  O2-  O289  1  0.09931275  0.23476355  0.98324742  1
  O2-  O290  1  0.09378527  0.56840075  0.47875634  1
  O2-  O291  1  0.09248747  0.56965596  0.98206664  1
  O2-  O292  1  0.09343544  0.90678383  0.47692043  1
  O2-  O293  1  0.09668022  0.90253745  0.98097659  1
  O2-  O294  1  0.43064842  0.23845060  0.47876605  1
  O2-  O295  1  0.42906830  0.24053939  0.97687930  1
  O2-  O296  1  0.43065895  0.57203327  0.48174564  1
  O2-  O297  1  0.43212358  0.57092052  0.98416958  1
  O2-  O298  1  0.42930254  0.90657281  0.47770967  1
  O2-  O299  1  0.42642535  0.90720426  0.97716527  1
  O2-  O300  1  0.76210637  0.23928896  0.47894853  1
  O2-  O301  1  0.76503423  0.24116525  0.97902176  1
  O2-  O302  1  0.76540563  0.57029302  0.48069726  1
  O2-  O303  1  0.76102426  0.57455521  0.97764185  1
  O2-  O304  1  0.76058443  0.90663077  0.47820122  1
  O2-  O305  1  0.76336742  0.90362455  0.97906161  1
  O2-  O306  1  0.07211764  0.07222299  0.27192528  1
  O2-  O307  1  0.06816812  0.07225941  0.77086676  1
  O2-  O308  1  0.06942304  0.40455604  0.27484593  1
  O2-  O309  1  0.06915881  0.40373715  0.77014676  1
  O2-  O310  1  0.07107008  0.74174180  0.26990328  1
  O2-  O311  1  0.07354681  0.74112063  0.76925180  1
  O2-  O312  1  0.40157616  0.07061884  0.26613884  1
  O2-  O313  1  0.40421112  0.07259411  0.77316205  1
  O2-  O314  1  0.40640946  0.40644966  0.27200596  1
  O2-  O315  1  0.40673176  0.40757262  0.77265529  1
  O2-  O316  1  0.41090908  0.74086023  0.26783538  1
  O2-  O317  1  0.41035942  0.74205760  0.76791284  1
  O2-  O318  1  0.73957437  0.07540139  0.27221613  1
  O2-  O319  1  0.73591744  0.06922680  0.77235446  1
  O2-  O320  1  0.73617915  0.40195323  0.26763092  1
  O2-  O321  1  0.73961744  0.40711264  0.77445824  1
  O2-  O322  1  0.73783299  0.73467860  0.27139103  1
  O2-  O323  1  0.74014444  0.73834065  0.76767139  1
  O2-  O324  1  0.23797497  0.09584705  0.22779058  1
  O2-  O325  1  0.23712944  0.09252659  0.73007304  1
  O2-  O326  1  0.23253291  0.42707510  0.23178574  1
  O2-  O327  1  0.23428375  0.42806911  0.73385767  1
  O2-  O328  1  0.24015925  0.76166378  0.23013973  1
  O2-  O329  1  0.24234326  0.75462996  0.73155317  1
  O2-  O330  1  0.56957182  0.09447610  0.23010704  1
  O2-  O331  1  0.56942022  0.09511389  0.72966239  1
  O2-  O332  1  0.57359758  0.42756859  0.22798717  1
  O2-  O333  1  0.57278777  0.42924616  0.73224564  1
  O2-  O334  1  0.57393686  0.76053756  0.22718859  1
  O2-  O335  1  0.57293177  0.76301390  0.73414211  1
  O2-  O336  1  0.90625078  0.09725950  0.23144695  1
  O2-  O337  1  0.90198337  0.09594507  0.72938777  1
  O2-  O338  1  0.90229487  0.43006762  0.22946672  1
  O2-  O339  1  0.90420886  0.43300305  0.72621385  1
  O2-  O340  1  0.89971489  0.76699922  0.23269439  1
  O2-  O341  1  0.90510715  0.76208084  0.73247221  1
  O2-  O342  1  0.26138037  0.26450449  0.02378583  1
  O2-  O343  1  0.26019478  0.25719920  0.51671594  1
  O2-  O344  1  0.26143463  0.59232054  0.02220336  1
  O2-  O345  1  0.25943112  0.59180046  0.52186049  1
  O2-  O346  1  0.25901590  0.92867606  0.02017309  1
  O2-  O347  1  0.26244690  0.92984643  0.51805450  1
  O2-  O348  1  0.59279725  0.26332210  0.02181219  1
  O2-  O349  1  0.59691453  0.26183310  0.52267179  1
  O2-  O350  1  0.59559698  0.59379793  0.02450286  1
  O2-  O351  1  0.59353983  0.58951026  0.51769711  1
  O2-  O352  1  0.59120402  0.92134676  0.01885933  1
  O2-  O353  1  0.59321246  0.92896288  0.51936190  1
  O2-  O354  1  0.92914584  0.26294639  0.02412311  1
  O2-  O355  1  0.92394530  0.26290680  0.52256219  1
  O2-  O356  1  0.92816232  0.59580062  0.01108343  1
  O2-  O357  1  0.93361064  0.60014348  0.51831995  1
  O2-  O358  1  0.93060563  0.93026069  0.01511369  1
  O2-  O359  1  0.92840812  0.92966270  0.51908364  1
