# generated using pymatgen
data_Sr7Ca15Pr50Mn72O216
_symmetry_space_group_name_H-M   'P 1'
_cell_length_a   16.55876604
_cell_length_b   16.60610716
_cell_length_c   15.59270679
_cell_angle_alpha   89.99592354
_cell_angle_beta   89.99543309
_cell_angle_gamma   89.99256217
_symmetry_Int_Tables_number   1
_chemical_formula_structural   Sr7Ca15Pr50Mn72O216
_chemical_formula_sum   'Sr7 Ca15 Pr50 Mn72 O216'
_cell_volume   4287.63011146
_cell_formula_units_Z   1
loop_
 _symmetry_equiv_pos_site_id
 _symmetry_equiv_pos_as_xyz
  1  'x, y, z'
loop_
 _atom_type_symbol
 _atom_type_oxidation_number
  Sr2+  2.0
  Ca2+  2.0
  Pr3+  3.0
  Mn3.30+  3.3
  O2-  -2.0
loop_
 _atom_site_type_symbol
 _atom_site_label
 _atom_site_symmetry_multiplicity
 _atom_site_fract_x
 _atom_site_fract_y
 _atom_site_fract_z
 _atom_site_occupancy
  Sr2+  Sr0  1  0.49971775  0.49034271  0.37291831  1
  Sr2+  Sr1  1  0.33496067  0.98982146  0.87263872  1
  Sr2+  Sr2  1  0.66826960  0.32636542  0.37396456  1
  Sr2+  Sr3  1  0.16403279  0.82154749  0.37541210  1
  Sr2+  Sr4  1  0.33027445  0.34388649  0.62507448  1
  Sr2+  Sr5  1  0.66590551  0.67604312  0.12558220  1
  Sr2+  Sr6  1  0.49833041  0.84263637  0.62417493  1
  Ca2+  Ca7  1  0.83546274  0.84548189  0.12198619  1
  Ca2+  Ca8  1  0.33810759  0.65119008  0.87248286  1
  Ca2+  Ca9  1  0.16727045  0.48764906  0.87384136  1
  Ca2+  Ca10  1  0.83601243  0.18260138  0.12583743  1
  Ca2+  Ca11  1  -0.00037024  0.68179791  0.62659482  1
  Ca2+  Ca12  1  0.49462573  0.48914427  0.87702382  1
  Ca2+  Ca13  1  0.83228354  0.81938845  0.87552800  1
  Ca2+  Ca14  1  0.16565401  0.48778518  0.37632765  1
  Ca2+  Ca15  1  0.67053886  0.98482473  0.37536020  1
  Ca2+  Ca16  1  -0.00311064  0.01379169  0.62550919  1
  Ca2+  Ca17  1  0.82787958  0.48575331  0.37461634  1
  Ca2+  Ca18  1  0.50528796  0.51615685  0.12433831  1
  Ca2+  Ca19  1  0.32971368  0.68007532  0.62620096  1
  Ca2+  Ca20  1  0.33019154  0.01218990  0.62657059  1
  Ca2+  Ca21  1  1.00490479  0.98358136  0.87370979  1
  Pr3+  Pr22  1  0.99984740  0.32315878  0.37430054  1
  Pr3+  Pr23  1  0.16924883  0.18035522  0.12483050  1
  Pr3+  Pr24  1  0.83639012  0.17822376  0.62461101  1
  Pr3+  Pr25  1  0.83204922  0.15220900  0.87727490  1
  Pr3+  Pr26  1  0.49808318  0.51131305  0.62466400  1
  Pr3+  Pr27  1  0.33060350  0.01109364  0.12444505  1
  Pr3+  Pr28  1  0.33387154  0.65475059  0.37827446  1
  Pr3+  Pr29  1  0.50037213  0.15728202  0.37517588  1
  Pr3+  Pr30  1  0.83079199  0.82178034  0.37499056  1
  Pr3+  Pr31  1  0.83858395  0.51548720  0.62396449  1
  Pr3+  Pr32  1  0.17407408  0.51509979  0.62609791  1
  Pr3+  Pr33  1  0.66323195  0.34798447  0.12523449  1
  Pr3+  Pr34  1  0.16175312  0.15060332  0.87431946  1
  Pr3+  Pr35  1  1.00409201  0.32100297  0.87517088  1
  Pr3+  Pr36  1  0.67030647  0.98367191  0.87444953  1
  Pr3+  Pr37  1  0.83506816  0.51363948  0.12646619  1
  Pr3+  Pr38  1  -0.00157564  0.34596559  0.62496722  1
  Pr3+  Pr39  1  -0.00675722  0.01328417  0.12426049  1
  Pr3+  Pr40  1  1.00383531  0.65371806  0.87268496  1
  Pr3+  Pr41  1  0.33409920  0.67700182  0.12446652  1
  Pr3+  Pr42  1  0.66339087  0.68034786  0.62493498  1
  Pr3+  Pr43  1  0.83887357  0.84774308  0.62750394  1
  Pr3+  Pr44  1  0.66763247  0.32061317  0.87563082  1
  Pr3+  Pr45  1  0.82964563  0.48877044  0.87501134  1
  Pr3+  Pr46  1  0.67122697  0.65165002  0.37561558  1
  Pr3+  Pr47  1  0.33711661  0.32332556  0.37616742  1
  Pr3+  Pr48  1  0.49670044  0.15307296  0.87457224  1
  Pr3+  Pr49  1  0.82497543  0.15181730  0.37310635  1
  Pr3+  Pr50  1  -0.00604184  0.68232888  0.12359646  1
  Pr3+  Pr51  1  0.66875089  0.00971732  0.12639992  1
  Pr3+  Pr52  1  -0.00363797  0.34760165  0.12411572  1
  Pr3+  Pr53  1  1.00667682  0.65226906  0.37668833  1
  Pr3+  Pr54  1  1.00297491  0.98558166  0.37700525  1
  Pr3+  Pr55  1  0.33461181  0.32405181  0.87381725  1
  Pr3+  Pr56  1  0.16951927  0.17820788  0.62533826  1
  Pr3+  Pr57  1  0.66745053  0.65558146  0.87411122  1
  Pr3+  Pr58  1  0.66323816  0.01072518  0.62394312  1
  Pr3+  Pr59  1  0.16804078  0.84502228  0.12548778  1
  Pr3+  Pr60  1  0.49890829  0.17608979  0.62684204  1
  Pr3+  Pr61  1  0.50263110  0.17836743  0.12300328  1
  Pr3+  Pr62  1  0.16350504  0.15548835  0.37595461  1
  Pr3+  Pr63  1  0.49344440  0.81886972  0.87356604  1
  Pr3+  Pr64  1  0.50566180  0.84361079  0.12496286  1
  Pr3+  Pr65  1  0.33164403  0.35000746  0.12493987  1
  Pr3+  Pr66  1  0.50006044  0.82086281  0.37644824  1
  Pr3+  Pr67  1  0.17067850  0.84598054  0.62437592  1
  Pr3+  Pr68  1  0.33559317  0.98642411  0.37738630  1
  Pr3+  Pr69  1  0.16639282  0.82142060  0.87425343  1
  Pr3+  Pr70  1  0.16859964  0.51347324  0.12424854  1
  Pr3+  Pr71  1  0.66212881  0.34451179  0.62435287  1
  Mn3.30+  Mn72  1  0.16408115  -0.00130173  -0.00075856  1
  Mn3.30+  Mn73  1  0.16583624  0.00002877  0.50240803  1
  Mn3.30+  Mn74  1  0.16680786  0.33517743  -0.00021262  1
  Mn3.30+  Mn75  1  0.16621318  0.33556840  0.49836654  1
  Mn3.30+  Mn76  1  0.16784166  0.66573645  -0.00240989  1
  Mn3.30+  Mn77  1  0.16592427  0.66653760  0.50189615  1
  Mn3.30+  Mn78  1  0.50046691  -0.00149428  0.00023563  1
  Mn3.30+  Mn79  1  0.50073030  0.00005869  0.49956717  1
  Mn3.30+  Mn80  1  0.49973574  0.33653891  -0.00035857  1
  Mn3.30+  Mn81  1  0.49933234  0.33345961  0.50004804  1
  Mn3.30+  Mn82  1  0.49943970  0.66470663  -0.00120256  1
  Mn3.30+  Mn83  1  0.49930612  0.66576767  0.50124147  1
  Mn3.30+  Mn84  1  0.83539215  -0.00307180  -0.00198838  1
  Mn3.30+  Mn85  1  0.83356867  -0.00017124  0.50082475  1
  Mn3.30+  Mn86  1  0.83321480  0.33307818  0.00012426  1
  Mn3.30+  Mn87  1  0.83255405  0.33460390  0.49991723  1
  Mn3.30+  Mn88  1  0.83307639  0.66894082  -0.00130967  1
  Mn3.30+  Mn89  1  0.83701936  0.66702577  0.50078818  1
  Mn3.30+  Mn90  1  -0.00349226  0.16724451  0.24976676  1
  Mn3.30+  Mn91  1  -0.00008561  0.16366257  0.74994662  1
  Mn3.30+  Mn92  1  0.00001045  0.50063001  0.25251047  1
  Mn3.30+  Mn93  1  0.00278950  0.50128679  0.74928265  1
  Mn3.30+  Mn94  1  -0.00163646  0.83364770  0.24924266  1
  Mn3.30+  Mn95  1  0.00019456  0.83386386  0.75057925  1
  Mn3.30+  Mn96  1  0.33334845  0.16672003  0.24991840  1
  Mn3.30+  Mn97  1  0.33170780  0.16579775  0.75025210  1
  Mn3.30+  Mn98  1  0.33369931  0.50168175  0.24974543  1
  Mn3.30+  Mn99  1  0.33351594  0.50203407  0.75228541  1
  Mn3.30+  Mn100  1  0.33428589  0.83222823  0.25114447  1
  Mn3.30+  Mn101  1  0.33213094  0.83286656  0.74848420  1
  Mn3.30+  Mn102  1  0.66810120  0.16644773  0.24842211  1
  Mn3.30+  Mn103  1  0.66747601  0.16507361  0.75109362  1
  Mn3.30+  Mn104  1  0.66711573  0.50002555  0.25000230  1
  Mn3.30+  Mn105  1  0.66484752  0.50009760  0.75037929  1
  Mn3.30+  Mn106  1  0.66904590  0.83340327  0.24947681  1
  Mn3.30+  Mn107  1  0.66707276  0.83261579  0.75045118  1
  Mn3.30+  Mn108  1  0.16483735  -0.00010069  0.25033525  1
  Mn3.30+  Mn109  1  0.16449816  -0.00106891  0.74878791  1
  Mn3.30+  Mn110  1  0.16617650  0.33566275  0.25074747  1
  Mn3.30+  Mn111  1  0.16674190  0.33497439  0.75067169  1
  Mn3.30+  Mn112  1  0.16540038  0.66593517  0.24992291  1
  Mn3.30+  Mn113  1  0.16907396  0.66604465  0.75142240  1
  Mn3.30+  Mn114  1  0.50207590  -0.00001290  0.25190820  1
  Mn3.30+  Mn115  1  0.49861688  -0.00151010  0.74780725  1
  Mn3.30+  Mn116  1  0.49981992  0.33449024  0.24929739  1
  Mn3.30+  Mn117  1  0.49901050  0.33551701  0.75090246  1
  Mn3.30+  Mn118  1  0.50126162  0.66536811  0.25059073  1
  Mn3.30+  Mn119  1  0.49657604  0.66553733  0.74909005  1
  Mn3.30+  Mn120  1  0.83254278  -0.00110128  0.24868481  1
  Mn3.30+  Mn121  1  0.83716966  -0.00157388  0.75243384  1
  Mn3.30+  Mn122  1  0.83251800  0.33393277  0.24883319  1
  Mn3.30+  Mn123  1  0.83331251  0.33326071  0.75049855  1
  Mn3.30+  Mn124  1  0.83487058  0.66746377  0.25066169  1
  Mn3.30+  Mn125  1  0.83526682  0.66867282  0.75001319  1
  Mn3.30+  Mn126  1  -0.00179059  0.16555658  0.00072819  1
  Mn3.30+  Mn127  1  -0.00173779  0.16618888  0.49952763  1
  Mn3.30+  Mn128  1  0.00138134  0.50088768  -0.00183726  1
  Mn3.30+  Mn129  1  0.00121726  0.50128275  0.50021177  1
  Mn3.30+  Mn130  1  -0.00198945  0.83441763  -0.00322046  1
  Mn3.30+  Mn131  1  0.00058798  0.83261561  0.50311298  1
  Mn3.30+  Mn132  1  0.33317107  0.16709197  -0.00030257  1
  Mn3.30+  Mn133  1  0.33209889  0.16556969  0.50019866  1
  Mn3.30+  Mn134  1  0.33538162  0.50262539  -0.00102474  1
  Mn3.30+  Mn135  1  0.33194745  0.50056306  0.49990447  1
  Mn3.30+  Mn136  1  0.33398055  0.83208596  -0.00058647  1
  Mn3.30+  Mn137  1  0.33249038  0.83260492  0.50183686  1
  Mn3.30+  Mn138  1  0.66851871  0.16520899  0.00134729  1
  Mn3.30+  Mn139  1  0.66699252  0.16577778  0.49885836  1
  Mn3.30+  Mn140  1  0.66270749  0.50131575  -0.00159859  1
  Mn3.30+  Mn141  1  0.66928150  0.49902768  0.50071332  1
  Mn3.30+  Mn142  1  0.66904853  0.83160367  -0.00004609  1
  Mn3.30+  Mn143  1  0.66757399  0.83427836  0.49996862  1
  O2-  O144  1  0.02629274  0.16119058  0.12643707  1
  O2-  O145  1  0.02508633  0.16147812  0.62600055  1
  O2-  O146  1  0.02435115  0.49622952  0.12288547  1
  O2-  O147  1  0.02944952  0.49238495  0.62507502  1
  O2-  O148  1  0.02452043  0.82899237  0.12165682  1
  O2-  O149  1  0.02655335  0.82518307  0.62665615  1
  O2-  O150  1  0.35755904  0.16008097  0.12488245  1
  O2-  O151  1  0.35390754  0.16062212  0.62446579  1
  O2-  O152  1  0.36176026  0.49760220  0.12438756  1
  O2-  O153  1  0.35487273  0.49597639  0.62650514  1
  O2-  O154  1  0.36109445  0.82628595  0.12670588  1
  O2-  O155  1  0.35036175  0.82448682  0.62425674  1
  O2-  O156  1  0.69427573  0.15829689  0.12278206  1
  O2-  O157  1  0.69262812  0.15929721  0.62586227  1
  O2-  O158  1  0.69119507  0.49716591  0.12264954  1
  O2-  O159  1  0.69400951  0.49430018  0.62664867  1
  O2-  O160  1  0.69199541  0.83189842  0.12367923  1
  O2-  O161  1  0.69328851  0.82956678  0.62542279  1
  O2-  O162  1  0.14085637  0.32894403  0.12501254  1
  O2-  O163  1  0.14205026  0.32702832  0.62301276  1
  O2-  O164  1  0.13792322  0.66023359  0.12242845  1
  O2-  O165  1  0.14032401  0.65978596  0.62796208  1
  O2-  O166  1  0.13951484  0.99542869  0.12429402  1
  O2-  O167  1  0.13769354  0.99622806  0.62524202  1
  O2-  O168  1  0.47361666  0.32407565  0.12393128  1
  O2-  O169  1  0.47975616  0.32583468  0.62642989  1
  O2-  O170  1  0.47818144  0.66419860  0.12539226  1
  O2-  O171  1  0.47337676  0.65899216  0.62524069  1
  O2-  O172  1  0.47432427  0.99273692  0.12734180  1
  O2-  O173  1  0.47492520  1.00235671  0.62365809  1
  O2-  O174  1  0.80894987  0.32914799  0.12236768  1
  O2-  O175  1  0.80713358  0.32585152  0.62867656  1
  O2-  O176  1  0.81581953  0.65953263  0.12378527  1
  O2-  O177  1  0.80778517  0.66221958  0.62559601  1
  O2-  O178  1  0.81056919  0.98920650  0.12303853  1
  O2-  O179  1  0.80671890  0.99617442  0.62839321  1
  O2-  O180  1  0.30818576  0.17297410  0.37376607  1
  O2-  O181  1  0.30770850  0.17305351  0.87698646  1
  O2-  O182  1  0.30680045  0.50685535  0.37377404  1
  O2-  O183  1  0.30759286  0.50553421  0.87640214  1
  O2-  O184  1  0.31279820  0.83876215  0.37620368  1
  O2-  O185  1  0.31025297  0.83855069  0.87385575  1
  O2-  O186  1  0.64420114  0.17171057  0.37366442  1
  O2-  O187  1  0.64080237  0.17045459  0.87738546  1
  O2-  O188  1  0.65025452  0.50333598  0.37720987  1
  O2-  O189  1  0.63843931  0.50653222  0.87336415  1
  O2-  O190  1  0.64470163  0.83858063  0.37631587  1
  O2-  O191  1  0.63899229  0.83692101  0.87448073  1
  O2-  O192  1  0.96966183  0.17458697  0.37253809  1
  O2-  O193  1  0.97457437  0.17553213  0.87485368  1
  O2-  O194  1  0.97059418  0.50577735  0.37846659  1
  O2-  O195  1  0.97347347  0.50463812  0.87380649  1
  O2-  O196  1  0.97544236  0.83814186  0.37760298  1
  O2-  O197  1  0.97426770  0.83960114  0.87389553  1
  O2-  O198  1  0.19052209  0.00644774  0.37584497  1
  O2-  O199  1  0.18597165  0.00252538  0.87544473  1
  O2-  O200  1  0.19226051  0.33956016  0.37354852  1
  O2-  O201  1  0.18976561  0.33893707  0.87827732  1
  O2-  O202  1  0.18947406  0.66956580  0.37360141  1
  O2-  O203  1  0.19598030  0.67526261  0.87617926  1
  O2-  O204  1  0.52924963  0.00879157  0.37443106  1
  O2-  O205  1  0.52508366  0.00458534  0.87382123  1
  O2-  O206  1  0.51742380  0.33096824  0.37377473  1
  O2-  O207  1  0.52553116  0.34195294  0.87544940  1
  O2-  O208  1  0.52608076  0.67164696  0.37647363  1
  O2-  O209  1  0.52447169  0.67303637  0.87317465  1
  O2-  O210  1  0.85956238  0.00530561  0.37364184  1
  O2-  O211  1  0.86421511  0.00854233  0.87496228  1
  O2-  O212  1  0.85635817  0.34006706  0.37342282  1
  O2-  O213  1  0.85899266  0.34017202  0.87450867  1
  O2-  O214  1  0.86312569  0.67564282  0.37707598  1
  O2-  O215  1  0.85879520  0.66994960  0.87318528  1
  O2-  O216  1  0.23656993  0.09314924  0.02016746  1
  O2-  O217  1  0.23572050  0.09549428  0.51746341  1
  O2-  O218  1  0.24098384  0.42886616  0.02283783  1
  O2-  O219  1  0.23523316  0.43027358  0.51719744  1
  O2-  O220  1  0.23826386  0.76085272  0.02300000  1
  O2-  O221  1  0.23567727  0.75873224  0.51851106  1
  O2-  O222  1  0.57390234  0.09323289  0.02067697  1
  O2-  O223  1  0.57141810  0.09576261  0.52125354  1
  O2-  O224  1  0.57093385  0.42727545  0.02458635  1
  O2-  O225  1  0.57375735  0.42487164  0.52200966  1
  O2-  O226  1  0.56895065  0.76303495  0.01544472  1
  O2-  O227  1  0.57596296  0.75736106  0.51825683  1
  O2-  O228  1  0.90277742  0.09740139  0.02254418  1
  O2-  O229  1  0.90185458  0.09583183  0.51767846  1
  O2-  O230  1  0.90485396  0.43054701  0.01949946  1
  O2-  O231  1  0.90887818  0.42842797  0.52473484  1
  O2-  O232  1  0.90638577  0.76256677  0.01960054  1
  O2-  O233  1  0.90305403  0.76482266  0.52051296  1
  O2-  O234  1  0.25991748  0.26219662  0.22882331  1
  O2-  O235  1  0.25657080  0.25952339  0.73399425  1
  O2-  O236  1  0.25926324  0.59472951  0.22673508  1
  O2-  O237  1  0.26341605  0.59650000  0.72847439  1
  O2-  O238  1  0.26300403  0.92595735  0.22965609  1
  O2-  O239  1  0.25903399  0.92808551  0.72631327  1
  O2-  O240  1  0.59291912  0.25878105  0.22476011  1
  O2-  O241  1  0.59429100  0.26016694  0.73321460  1
  O2-  O242  1  0.59385020  0.59334747  0.23791069  1
  O2-  O243  1  0.59484655  0.59342042  0.72660937  1
  O2-  O244  1  0.59391252  0.92769745  0.22822665  1
  O2-  O245  1  0.59797016  0.92943295  0.73273431  1
  O2-  O246  1  0.92963907  0.26414433  0.22956405  1
  O2-  O247  1  0.92911179  0.25985519  0.72916983  1
  O2-  O248  1  0.93072618  0.59617797  0.23047837  1
  O2-  O249  1  0.93060093  0.59475171  0.72890923  1
  O2-  O250  1  0.92958415  0.93187909  0.23385050  1
  O2-  O251  1  0.92976542  0.92901782  0.72495553  1
  O2-  O252  1  0.09323186  0.23884665  0.27086126  1
  O2-  O253  1  0.09300542  0.23755151  0.77049063  1
  O2-  O254  1  0.09577430  0.56955356  0.27126112  1
  O2-  O255  1  0.09865304  0.57221689  0.77385988  1
  O2-  O256  1  0.09113261  0.90627282  0.26696225  1
  O2-  O257  1  0.09688313  0.90236064  0.76800595  1
  O2-  O258  1  0.42741722  0.23767271  0.26849891  1
  O2-  O259  1  0.42827226  0.24176741  0.77190220  1
  O2-  O260  1  0.42186010  0.57787176  0.27010623  1
  O2-  O261  1  0.43159359  0.56783547  0.76887667  1
  O2-  O262  1  0.43112551  0.90729872  0.27261877  1
  O2-  O263  1  0.42883929  0.90450859  0.76642790  1
  O2-  O264  1  0.76424694  0.23790663  0.26570189  1
  O2-  O265  1  0.76078192  0.23786142  0.77274395  1
  O2-  O266  1  0.76567351  0.57353845  0.26985136  1
  O2-  O267  1  0.76034456  0.57178423  0.77015768  1
  O2-  O268  1  0.76264204  0.90533099  0.26968151  1
  O2-  O269  1  0.76552727  0.90533106  0.77309907  1
  O2-  O270  1  0.07205348  0.07539985  0.47651427  1
  O2-  O271  1  0.06797882  0.07180863  0.97947159  1
  O2-  O272  1  0.06903492  0.40374347  0.48030249  1
  O2-  O273  1  0.06838619  0.40393120  0.98299330  1
  O2-  O274  1  0.06937426  0.73646998  0.48335346  1
  O2-  O275  1  0.07085383  0.73910794  0.97804140  1
  O2-  O276  1  0.40825293  0.07394566  0.47547437  1
  O2-  O277  1  0.40882964  0.07517175  0.98366158  1
  O2-  O278  1  0.40247339  0.40684504  0.48202714  1
  O2-  O279  1  0.40164262  0.40398762  0.98160993  1
  O2-  O280  1  0.40957969  0.74045610  0.47798112  1
  O2-  O281  1  0.40422981  0.73575826  0.97979662  1
  O2-  O282  1  0.73653446  0.06961001  0.47929018  1
  O2-  O283  1  0.74067495  0.06859395  0.97801073  1
  O2-  O284  1  0.74078203  0.40426395  0.48792697  1
  O2-  O285  1  0.73530353  0.40763233  0.97856422  1
  O2-  O286  1  0.74084181  0.73742732  0.48007255  1
  O2-  O287  1  0.73743595  0.73856081  0.97751896  1
  O2-  O288  1  0.09179343  0.24049535  0.47769375  1
  O2-  O289  1  0.09519254  0.23626295  0.98117964  1
  O2-  O290  1  0.09637407  0.56997055  0.47853238  1
  O2-  O291  1  0.09593086  0.57049504  0.97566694  1
  O2-  O292  1  0.09266931  0.90745520  0.48260525  1
  O2-  O293  1  0.09603958  0.90207133  0.98219905  1
  O2-  O294  1  0.42591972  0.23848708  0.48169781  1
  O2-  O295  1  0.42966219  0.24115652  0.97758045  1
  O2-  O296  1  0.42589762  0.57348668  0.48183800  1
  O2-  O297  1  0.42854406  0.57149866  0.97958142  1
  O2-  O298  1  0.42941945  0.90945850  0.47717791  1
  O2-  O299  1  0.43106091  0.90280032  0.98417746  1
  O2-  O300  1  0.76257624  0.23420081  0.48398454  1
  O2-  O301  1  0.75888446  0.23926834  0.97709082  1
  O2-  O302  1  0.76605855  0.57283369  0.48098202  1
  O2-  O303  1  0.76073185  0.57239309  0.97855130  1
  O2-  O304  1  0.76591588  0.90440627  0.48371212  1
  O2-  O305  1  0.76212887  0.90511970  0.97418437  1
  O2-  O306  1  0.06863667  0.07493856  0.27254401  1
  O2-  O307  1  0.07023104  0.07195847  0.77349817  1
  O2-  O308  1  0.06893966  0.40459870  0.26800305  1
  O2-  O309  1  0.06953292  0.40283794  0.76741527  1
  O2-  O310  1  0.06881634  0.73495214  0.26452113  1
  O2-  O311  1  0.07358962  0.73937193  0.77400484  1
  O2-  O312  1  0.40623722  0.07070962  0.27113887  1
  O2-  O313  1  0.41068044  0.07696109  0.76857708  1
  O2-  O314  1  0.40116636  0.40308317  0.26601729  1
  O2-  O315  1  0.40479944  0.40653243  0.77071482  1
  O2-  O316  1  0.40633700  0.73952126  0.27215122  1
  O2-  O317  1  0.40507447  0.73818974  0.77147965  1
  O2-  O318  1  0.73737246  0.06835550  0.26962895  1
  O2-  O319  1  0.74032420  0.07055618  0.77325817  1
  O2-  O320  1  0.74000918  0.40539947  0.26027508  1
  O2-  O321  1  0.73653018  0.40612540  0.77247629  1
  O2-  O322  1  0.74117368  0.73786893  0.27416867  1
  O2-  O323  1  0.73670637  0.73792118  0.76724355  1
  O2-  O324  1  0.23862540  0.09459437  0.22949399  1
  O2-  O325  1  0.23319986  0.09369224  0.73353563  1
  O2-  O326  1  0.23999355  0.42917079  0.22614829  1
  O2-  O327  1  0.23747213  0.43090542  0.73489542  1
  O2-  O328  1  0.23859185  0.75719580  0.22633520  1
  O2-  O329  1  0.23434686  0.76361788  0.73275113  1
  O2-  O330  1  0.57070024  0.09456914  0.22727683  1
  O2-  O331  1  0.57372981  0.09368559  0.73010830  1
  O2-  O332  1  0.57132482  0.42487434  0.22707684  1
  O2-  O333  1  0.57353614  0.42599096  0.72533770  1
  O2-  O334  1  0.57124551  0.76315054  0.23546453  1
  O2-  O335  1  0.57263109  0.75669946  0.73094126  1
  O2-  O336  1  0.90202202  0.09615847  0.22709771  1
  O2-  O337  1  0.90264647  0.09700940  0.73152743  1
  O2-  O338  1  0.90642081  0.42763492  0.22717816  1
  O2-  O339  1  0.90471152  0.42845635  0.72871431  1
  O2-  O340  1  0.90393053  0.76431102  0.22879795  1
  O2-  O341  1  0.90701046  0.76314766  0.73102387  1
  O2-  O342  1  0.26154572  0.26135566  0.02217254  1
  O2-  O343  1  0.25574893  0.25937609  0.51536010  1
  O2-  O344  1  0.26141331  0.59284578  0.02494875  1
  O2-  O345  1  0.26231031  0.59627982  0.52090129  1
  O2-  O346  1  0.26045431  0.92539560  0.02415845  1
  O2-  O347  1  0.26048951  0.93078238  0.52073011  1
  O2-  O348  1  0.59387706  0.26180973  0.01960801  1
  O2-  O349  1  0.59358320  0.25642786  0.52252517  1
  O2-  O350  1  0.59434282  0.59532948  0.01460386  1
  O2-  O351  1  0.59506020  0.59230610  0.52069464  1
  O2-  O352  1  0.59744722  0.92754748  0.02010066  1
  O2-  O353  1  0.59532675  0.92959129  0.51839320  1
  O2-  O354  1  0.93189502  0.26202902  0.01790443  1
  O2-  O355  1  0.92708219  0.26207387  0.52058255  1
  O2-  O356  1  0.92979723  0.59436707  0.01716030  1
  O2-  O357  1  0.93181888  0.59688848  0.52492900  1
  O2-  O358  1  0.93018986  0.92949645  0.01942223  1
  O2-  O359  1  0.92972066  0.92965700  0.52203956  1
