# generated using pymatgen
data_Sr7Ca15Pr50Mn72O216
_symmetry_space_group_name_H-M   'P 1'
_cell_length_a   16.55899442
_cell_length_b   16.60526363
_cell_length_c   15.59390797
_cell_angle_alpha   89.99887931
_cell_angle_beta   90.00587481
_cell_angle_gamma   90.01191649
_symmetry_Int_Tables_number   1
_chemical_formula_structural   Sr7Ca15Pr50Mn72O216
_chemical_formula_sum   'Sr7 Ca15 Pr50 Mn72 O216'
_cell_volume   4287.80167818
_cell_formula_units_Z   1
loop_
 _symmetry_equiv_pos_site_id
 _symmetry_equiv_pos_as_xyz
  1  'x, y, z'
loop_
 _atom_type_symbol
 _atom_type_oxidation_number
  Sr2+  2.0
  Ca2+  2.0
  Pr3+  3.0
  Mn3.30+  3.3
  O2-  -2.0
loop_
 _atom_site_type_symbol
 _atom_site_label
 _atom_site_symmetry_multiplicity
 _atom_site_fract_x
 _atom_site_fract_y
 _atom_site_fract_z
 _atom_site_occupancy
  Sr2+  Sr0  1  0.33452927  0.98890034  0.37589101  1
  Sr2+  Sr1  1  0.66500410  0.01256124  0.62732908  1
  Sr2+  Sr2  1  0.83358551  0.82552930  0.87364419  1
  Sr2+  Sr3  1  -0.00284348  0.34523814  0.12450332  1
  Sr2+  Sr4  1  0.32923328  0.67545990  0.12100593  1
  Sr2+  Sr5  1  0.16717707  0.51065605  0.12339467  1
  Sr2+  Sr6  1  0.83380379  0.17634466  0.12419971  1
  Ca2+  Ca7  1  0.50170274  0.17813917  0.62430054  1
  Ca2+  Ca8  1  0.33643891  0.31677366  0.37704460  1
  Ca2+  Ca9  1  0.49421249  0.81765862  0.87344830  1
  Ca2+  Ca10  1  1.00494186  0.98269709  0.87386132  1
  Ca2+  Ca11  1  0.33195662  0.34442577  0.62497361  1
  Ca2+  Ca12  1  1.00639111  0.98677577  0.37571555  1
  Ca2+  Ca13  1  0.83923684  0.51321985  0.12254607  1
  Ca2+  Ca14  1  0.33650930  0.98125499  0.87337087  1
  Ca2+  Ca15  1  0.83045393  0.48699825  0.87692510  1
  Ca2+  Ca16  1  -0.00373407  0.34778667  0.62548038  1
  Ca2+  Ca17  1  0.16961534  0.85052065  0.62861876  1
  Ca2+  Ca18  1  0.66554031  0.01317849  0.12239938  1
  Ca2+  Ca19  1  0.16399703  0.81907681  0.87485239  1
  Ca2+  Ca20  1  0.33284268  0.65527657  0.87593303  1
  Ca2+  Ca21  1  -0.00070279  0.01120387  0.62862087  1
  Pr3+  Pr22  1  0.50412995  0.17677289  0.12552166  1
  Pr3+  Pr23  1  0.32894440  0.01171677  0.62617894  1
  Pr3+  Pr24  1  0.49625816  0.48879784  0.87510099  1
  Pr3+  Pr25  1  0.49581556  0.82326845  0.37655793  1
  Pr3+  Pr26  1  0.66652644  0.34732293  0.12527034  1
  Pr3+  Pr27  1  0.17075858  0.84276367  0.12169548  1
  Pr3+  Pr28  1  1.00049316  0.65540604  0.87410215  1
  Pr3+  Pr29  1  0.83750051  0.85189253  0.62835637  1
  Pr3+  Pr30  1  0.83101485  0.48650373  0.37400311  1
  Pr3+  Pr31  1  0.83304522  0.15527357  0.87661076  1
  Pr3+  Pr32  1  0.32778848  0.68190234  0.62856302  1
  Pr3+  Pr33  1  0.50125384  0.51484740  0.12401246  1
  Pr3+  Pr34  1  0.16865921  0.18032407  0.62541190  1
  Pr3+  Pr35  1  1.00343407  0.65397314  0.37560488  1
  Pr3+  Pr36  1  0.49570204  0.15085272  0.87273544  1
  Pr3+  Pr37  1  1.00384086  0.31986196  0.37515078  1
  Pr3+  Pr38  1  0.83618146  0.84581305  0.12195671  1
  Pr3+  Pr39  1  0.83311197  0.82438820  0.37604201  1
  Pr3+  Pr40  1  0.67110712  0.65364019  0.87469206  1
  Pr3+  Pr41  1  0.50143522  0.84651140  0.62781830  1
  Pr3+  Pr42  1  0.16271856  0.15097688  0.87402145  1
  Pr3+  Pr43  1  0.83393147  0.15326803  0.37337700  1
  Pr3+  Pr44  1  0.16415440  0.82307799  0.37663260  1
  Pr3+  Pr45  1  0.66298696  0.68045027  0.62657676  1
  Pr3+  Pr46  1  0.66915376  0.31794513  0.37508073  1
  Pr3+  Pr47  1  0.50208049  0.84710441  0.12217497  1
  Pr3+  Pr48  1  -0.00142109  0.68290473  0.62578275  1
  Pr3+  Pr49  1  0.50143839  0.51184849  0.62614162  1
  Pr3+  Pr50  1  -0.00161144  0.67581284  0.12325152  1
  Pr3+  Pr51  1  0.83695685  0.51313526  0.62609716  1
  Pr3+  Pr52  1  0.49585757  0.15206679  0.37778832  1
  Pr3+  Pr53  1  0.66287270  0.34300416  0.62454639  1
  Pr3+  Pr54  1  0.16566564  0.49081092  0.87630590  1
  Pr3+  Pr55  1  0.83882713  0.17960165  0.62588006  1
  Pr3+  Pr56  1  0.16967456  0.17827852  0.12476328  1
  Pr3+  Pr57  1  0.66424067  0.67916377  0.12393674  1
  Pr3+  Pr58  1  -0.00161592  0.01172762  0.12252435  1
  Pr3+  Pr59  1  0.66904140  0.65522620  0.37577926  1
  Pr3+  Pr60  1  0.32798125  0.34581675  0.12575749  1
  Pr3+  Pr61  1  0.67074924  0.32173553  0.87463962  1
  Pr3+  Pr62  1  0.16843845  0.50987946  0.62623137  1
  Pr3+  Pr63  1  0.33427401  0.65529997  0.37486744  1
  Pr3+  Pr64  1  0.66988860  0.98746233  0.87505227  1
  Pr3+  Pr65  1  0.16515645  0.48614467  0.37395721  1
  Pr3+  Pr66  1  0.66944525  0.98991577  0.37490651  1
  Pr3+  Pr67  1  1.00192099  0.32303728  0.87449643  1
  Pr3+  Pr68  1  0.33474790  0.32200772  0.87389042  1
  Pr3+  Pr69  1  0.16488499  0.15103043  0.37579448  1
  Pr3+  Pr70  1  0.32965595  0.01067149  0.12343074  1
  Pr3+  Pr71  1  0.49379933  0.48399585  0.37474915  1
  Mn3.30+  Mn72  1  0.16763998  -0.00307036  -0.00466904  1
  Mn3.30+  Mn73  1  0.16373677  -0.00092858  0.50293416  1
  Mn3.30+  Mn74  1  0.16673921  0.33305953  -0.00034541  1
  Mn3.30+  Mn75  1  0.16833889  0.33264195  0.50134130  1
  Mn3.30+  Mn76  1  0.16737576  0.66724875  -0.00307944  1
  Mn3.30+  Mn77  1  0.16662926  0.66780921  0.50233363  1
  Mn3.30+  Mn78  1  0.49866391  -0.00188157  -0.00254829  1
  Mn3.30+  Mn79  1  0.49990779  0.00070707  0.50254211  1
  Mn3.30+  Mn80  1  0.50017463  0.33285375  0.00025554  1
  Mn3.30+  Mn81  1  0.49721809  0.33143390  0.50151390  1
  Mn3.30+  Mn82  1  0.49809665  0.66888709  -0.00226986  1
  Mn3.30+  Mn83  1  0.49867580  0.66647024  0.50103813  1
  Mn3.30+  Mn84  1  0.83405744  -0.00005709  -0.00058954  1
  Mn3.30+  Mn85  1  0.83744971  0.00190339  0.50030287  1
  Mn3.30+  Mn86  1  0.83482479  0.33540924  0.00028938  1
  Mn3.30+  Mn87  1  0.83506395  0.33293503  0.50050028  1
  Mn3.30+  Mn88  1  0.83228032  0.66586237  -0.00095922  1
  Mn3.30+  Mn89  1  0.83358311  0.66881812  0.50082327  1
  Mn3.30+  Mn90  1  0.00025148  0.16543634  0.24994494  1
  Mn3.30+  Mn91  1  0.00128636  0.16512001  0.74949260  1
  Mn3.30+  Mn92  1  -0.00180006  0.50013389  0.24851294  1
  Mn3.30+  Mn93  1  -0.00131941  0.49953059  0.75048307  1
  Mn3.30+  Mn94  1  0.00037762  0.83377156  0.24980216  1
  Mn3.30+  Mn95  1  0.00396203  0.83610472  0.75049602  1
  Mn3.30+  Mn96  1  0.33488618  0.16587603  0.25102603  1
  Mn3.30+  Mn97  1  0.33341320  0.16619320  0.74865940  1
  Mn3.30+  Mn98  1  0.33198009  0.49884464  0.25113446  1
  Mn3.30+  Mn99  1  0.33349059  0.49955114  0.74906379  1
  Mn3.30+  Mn100  1  0.33354364  0.83263003  0.24898260  1
  Mn3.30+  Mn101  1  0.33092749  0.83340352  0.75368391  1
  Mn3.30+  Mn102  1  0.66687216  0.16502843  0.24868243  1
  Mn3.30+  Mn103  1  0.66513152  0.16686653  0.74959616  1
  Mn3.30+  Mn104  1  0.66722413  0.50063741  0.24963250  1
  Mn3.30+  Mn105  1  0.66802645  0.49931983  0.75016963  1
  Mn3.30+  Mn106  1  0.66659258  0.83577647  0.24894049  1
  Mn3.30+  Mn107  1  0.66496254  0.83430848  0.75189197  1
  Mn3.30+  Mn108  1  0.16583425  -0.00178832  0.25040252  1
  Mn3.30+  Mn109  1  0.16576891  -0.00282374  0.75150407  1
  Mn3.30+  Mn110  1  0.16845164  0.33220164  0.25156320  1
  Mn3.30+  Mn111  1  0.16659173  0.33372971  0.74752619  1
  Mn3.30+  Mn112  1  0.16719027  0.66646911  0.24944511  1
  Mn3.30+  Mn113  1  0.16691439  0.66921936  0.75102657  1
  Mn3.30+  Mn114  1  0.50085098  -0.00040557  0.24873516  1
  Mn3.30+  Mn115  1  0.49783532  -0.00113469  0.75133102  1
  Mn3.30+  Mn116  1  0.49817034  0.33241422  0.25019495  1
  Mn3.30+  Mn117  1  0.49921351  0.33133557  0.74850139  1
  Mn3.30+  Mn118  1  0.49952927  0.66797820  0.24925299  1
  Mn3.30+  Mn119  1  0.49714311  0.66728449  0.75215924  1
  Mn3.30+  Mn120  1  0.83560642  -0.00054156  0.24948183  1
  Mn3.30+  Mn121  1  0.83610196  0.00218806  0.75133109  1
  Mn3.30+  Mn122  1  0.83476750  0.33333212  0.24862371  1
  Mn3.30+  Mn123  1  0.83497379  0.33503366  0.74970305  1
  Mn3.30+  Mn124  1  0.83320314  0.66696325  0.25004807  1
  Mn3.30+  Mn125  1  0.83302944  0.66792652  0.75049832  1
  Mn3.30+  Mn126  1  0.00005204  0.16590993  -0.00124455  1
  Mn3.30+  Mn127  1  0.00154383  0.16501972  0.50183542  1
  Mn3.30+  Mn128  1  -0.00367633  0.50035030  -0.00103157  1
  Mn3.30+  Mn129  1  0.00054273  0.49874675  0.50099143  1
  Mn3.30+  Mn130  1  0.00241847  0.83295116  -0.00307007  1
  Mn3.30+  Mn131  1  0.00110993  0.83771909  0.50248300  1
  Mn3.30+  Mn132  1  0.33389101  0.16379509  -0.00259680  1
  Mn3.30+  Mn133  1  0.33398566  0.16798178  0.50270509  1
  Mn3.30+  Mn134  1  0.33263064  0.50111625  -0.00140523  1
  Mn3.30+  Mn135  1  0.33291047  0.49735123  0.50140742  1
  Mn3.30+  Mn136  1  0.33400430  0.83175220  -0.00460500  1
  Mn3.30+  Mn137  1  0.33080713  0.83462018  0.50226261  1
  Mn3.30+  Mn138  1  0.66586434  0.16625250  0.00032653  1
  Mn3.30+  Mn139  1  0.66629629  0.16583818  0.50153930  1
  Mn3.30+  Mn140  1  0.66937775  0.50064495  0.00108809  1
  Mn3.30+  Mn141  1  0.66564858  0.49938770  0.49937921  1
  Mn3.30+  Mn142  1  0.66545339  0.83462354  -0.00143116  1
  Mn3.30+  Mn143  1  0.66628474  0.83524625  0.50108962  1
  O2-  O144  1  0.02583010  0.16002891  0.12319216  1
  O2-  O145  1  0.02518182  0.15545390  0.62588965  1
  O2-  O146  1  0.01783635  0.50491662  0.12547199  1
  O2-  O147  1  0.02445678  0.49404962  0.62462798  1
  O2-  O148  1  0.02592923  0.82558709  0.12226180  1
  O2-  O149  1  0.02827581  0.82798673  0.62609811  1
  O2-  O150  1  0.35981940  0.15817132  0.12087845  1
  O2-  O151  1  0.36023899  0.15762131  0.62689439  1
  O2-  O152  1  0.35702510  0.49377327  0.12507183  1
  O2-  O153  1  0.35839602  0.49227128  0.62446302  1
  O2-  O154  1  0.35759756  0.83081911  0.12142905  1
  O2-  O155  1  0.35831696  0.82868783  0.62692864  1
  O2-  O156  1  0.68382535  0.15999850  0.12480391  1
  O2-  O157  1  0.69346637  0.16952618  0.62495688  1
  O2-  O158  1  0.69527110  0.49597261  0.12719044  1
  O2-  O159  1  0.69250803  0.49303140  0.62359984  1
  O2-  O160  1  0.69225635  0.82599580  0.12401293  1
  O2-  O161  1  0.69120810  0.82773909  0.62544286  1
  O2-  O162  1  0.14873521  0.32620873  0.12477039  1
  O2-  O163  1  0.13756227  0.32972417  0.62466531  1
  O2-  O164  1  0.14327890  0.66779259  0.12274754  1
  O2-  O165  1  0.14099157  0.65671286  0.62499127  1
  O2-  O166  1  0.14278939  0.99329142  0.12343476  1
  O2-  O167  1  0.14037278  0.99521887  0.62752022  1
  O2-  O168  1  0.47189624  0.32596925  0.12604686  1
  O2-  O169  1  0.47448210  0.32592097  0.62565511  1
  O2-  O170  1  0.48000265  0.66320533  0.12405413  1
  O2-  O171  1  0.47323187  0.66030810  0.62601947  1
  O2-  O172  1  0.47302541  0.99564629  0.12046518  1
  O2-  O173  1  0.47317586  0.99225599  0.62824294  1
  O2-  O174  1  0.80924753  0.32970724  0.12637417  1
  O2-  O175  1  0.80708720  0.32754826  0.62417649  1
  O2-  O176  1  0.80794906  0.65947840  0.12757566  1
  O2-  O177  1  0.80704940  0.66093175  0.62529601  1
  O2-  O178  1  0.80856838  0.99340414  0.12435019  1
  O2-  O179  1  0.81474942  1.00072606  0.62587518  1
  O2-  O180  1  0.30889760  0.17160116  0.37934749  1
  O2-  O181  1  0.30628116  0.17586644  0.87315924  1
  O2-  O182  1  0.30926682  0.50808307  0.37821259  1
  O2-  O183  1  0.31182741  0.50216429  0.87211920  1
  O2-  O184  1  0.30947911  0.83371679  0.37786408  1
  O2-  O185  1  0.30427025  0.84081310  0.87345506  1
  O2-  O186  1  0.64127305  0.16905251  0.37495607  1
  O2-  O187  1  0.64015978  0.17429653  0.87532309  1
  O2-  O188  1  0.63823125  0.50641004  0.37480808  1
  O2-  O189  1  0.63987714  0.50393193  0.87455366  1
  O2-  O190  1  0.64116578  0.84118803  0.37492449  1
  O2-  O191  1  0.63926390  0.83946248  0.87613197  1
  O2-  O192  1  0.97793467  0.17376684  0.37728916  1
  O2-  O193  1  0.97761878  0.17579559  0.87343665  1
  O2-  O194  1  0.97488883  0.50540350  0.37623136  1
  O2-  O195  1  0.97149224  0.50642074  0.87296685  1
  O2-  O196  1  0.97558342  0.84058341  0.37718841  1
  O2-  O197  1  0.98066910  0.83604027  0.87421240  1
  O2-  O198  1  0.18679044  0.00274033  0.37538165  1
  O2-  O199  1  0.19694402  0.00825915  0.87404676  1
  O2-  O200  1  0.19381708  0.33716768  0.37710590  1
  O2-  O201  1  0.19017701  0.33876901  0.87342074  1
  O2-  O202  1  0.19036319  0.67457636  0.37946807  1
  O2-  O203  1  0.19054276  0.67085020  0.87191873  1
  O2-  O204  1  0.52470045  0.00241621  0.37659979  1
  O2-  O205  1  0.52665913  0.00576692  0.87443912  1
  O2-  O206  1  0.52628160  0.33854385  0.37387147  1
  O2-  O207  1  0.52654288  0.34019564  0.87459308  1
  O2-  O208  1  0.52487604  0.67393918  0.37559741  1
  O2-  O209  1  0.52684509  0.66882638  0.87444348  1
  O2-  O210  1  0.86283258  0.00307819  0.37490127  1
  O2-  O211  1  0.85969463  0.00627142  0.87525672  1
  O2-  O212  1  0.85897360  0.33878955  0.37554483  1
  O2-  O213  1  0.85788938  0.34141720  0.87346902  1
  O2-  O214  1  0.85952844  0.67666746  0.37656247  1
  O2-  O215  1  0.85655226  0.67208074  0.87135148  1
  O2-  O216  1  0.23781857  0.09396836  0.02077866  1
  O2-  O217  1  0.23706998  0.09370696  0.52108327  1
  O2-  O218  1  0.24252387  0.42359836  0.01526961  1
  O2-  O219  1  0.23530832  0.42995430  0.51875351  1
  O2-  O220  1  0.23776036  0.76236037  0.01539550  1
  O2-  O221  1  0.23727259  0.76202838  0.52409295  1
  O2-  O222  1  0.56645934  0.09567181  0.01466305  1
  O2-  O223  1  0.57078410  0.09705470  0.51858491  1
  O2-  O224  1  0.57401538  0.43011817  0.02315942  1
  O2-  O225  1  0.56867251  0.42655171  0.52052806  1
  O2-  O226  1  0.57310680  0.76100929  0.02086005  1
  O2-  O227  1  0.57051665  0.75932185  0.52129573  1
  O2-  O228  1  0.90832268  0.09189884  0.01788844  1
  O2-  O229  1  0.90256096  0.10012667  0.51541161  1
  O2-  O230  1  0.90192490  0.43135274  0.01781943  1
  O2-  O231  1  0.90181985  0.42996240  0.51781859  1
  O2-  O232  1  0.90526472  0.75846848  0.02152466  1
  O2-  O233  1  0.90551973  0.76586229  0.52257247  1
  O2-  O234  1  0.26330943  0.25673576  0.22854144  1
  O2-  O235  1  0.26278871  0.26118927  0.72719351  1
  O2-  O236  1  0.25972510  0.59509322  0.23900762  1
  O2-  O237  1  0.25851051  0.59341876  0.72840155  1
  O2-  O238  1  0.26076725  0.92609101  0.22823647  1
  O2-  O239  1  0.26287733  0.92919231  0.72944546  1
  O2-  O240  1  0.59361983  0.26315689  0.22984151  1
  O2-  O241  1  0.59604346  0.26345295  0.73230743  1
  O2-  O242  1  0.59462447  0.59494037  0.22984607  1
  O2-  O243  1  0.59601616  0.59280446  0.72874936  1
  O2-  O244  1  0.59711815  0.93051333  0.22735432  1
  O2-  O245  1  0.59202810  0.92594439  0.73220290  1
  O2-  O246  1  0.92858148  0.26150905  0.23790604  1
  O2-  O247  1  0.92973845  0.26355925  0.72886086  1
  O2-  O248  1  0.92906653  0.59907619  0.23622584  1
  O2-  O249  1  0.92913292  0.59446821  0.72672516  1
  O2-  O250  1  0.92765034  0.92485144  0.22501788  1
  O2-  O251  1  0.93074761  0.92739782  0.73027868  1
  O2-  O252  1  0.09709263  0.23782933  0.27052003  1
  O2-  O253  1  0.09552290  0.23737660  0.76866088  1
  O2-  O254  1  0.09227996  0.57384462  0.27284081  1
  O2-  O255  1  0.09347416  0.57234555  0.77089647  1
  O2-  O256  1  0.09676137  0.90323132  0.26704626  1
  O2-  O257  1  0.09908872  0.90320362  0.77303935  1
  O2-  O258  1  0.43163989  0.23660269  0.26897154  1
  O2-  O259  1  0.42704795  0.23973466  0.77375098  1
  O2-  O260  1  0.42747654  0.57040300  0.26951912  1
  O2-  O261  1  0.43078165  0.56975192  0.76679003  1
  O2-  O262  1  0.43169436  0.90286180  0.26509779  1
  O2-  O263  1  0.42931184  0.90053620  0.76929939  1
  O2-  O264  1  0.75886482  0.24017657  0.27192475  1
  O2-  O265  1  0.76386167  0.24109635  0.77167668  1
  O2-  O266  1  0.76050925  0.57672880  0.27725201  1
  O2-  O267  1  0.76051755  0.56976266  0.77016777  1
  O2-  O268  1  0.76286636  0.90615498  0.27165687  1
  O2-  O269  1  0.75898078  0.91021759  0.76586264  1
  O2-  O270  1  0.07259193  0.07272604  0.47720645  1
  O2-  O271  1  0.07395309  0.06819954  0.97818473  1
  O2-  O272  1  0.07467490  0.40511975  0.47675794  1
  O2-  O273  1  0.07194168  0.40944634  0.97816761  1
  O2-  O274  1  0.06941290  0.73989551  0.48072188  1
  O2-  O275  1  0.06995454  0.73643198  0.98052425  1
  O2-  O276  1  0.40829980  0.07250135  0.48284411  1
  O2-  O277  1  0.40244071  0.06809763  0.97518226  1
  O2-  O278  1  0.40519020  0.40449967  0.47680841  1
  O2-  O279  1  0.40763047  0.40404885  0.98004580  1
  O2-  O280  1  0.40400321  0.73785088  0.48213225  1
  O2-  O281  1  0.40326340  0.73824445  0.97536238  1
  O2-  O282  1  0.74224479  0.07312782  0.47662655  1
  O2-  O283  1  0.73960375  0.07538881  0.97767289  1
  O2-  O284  1  0.73659148  0.40572340  0.47790659  1
  O2-  O285  1  0.73525420  0.40393644  0.98266073  1
  O2-  O286  1  0.73877238  0.73981971  0.47977837  1
  O2-  O287  1  0.73649780  0.73578611  0.98365815  1
  O2-  O288  1  0.09722816  0.23695082  0.48005492  1
  O2-  O289  1  0.09578037  0.23817482  0.97989133  1
  O2-  O290  1  0.09548200  0.57252317  0.47938891  1
  O2-  O291  1  0.09002379  0.57441297  0.97653433  1
  O2-  O292  1  0.09494671  0.90545350  0.47997590  1
  O2-  O293  1  0.10014111  0.90270045  0.98143348  1
  O2-  O294  1  0.42981042  0.23909321  0.47959037  1
  O2-  O295  1  0.42696173  0.23590042  0.97817853  1
  O2-  O296  1  0.42906229  0.57109905  0.47983131  1
  O2-  O297  1  0.43050295  0.56997637  0.98367999  1
  O2-  O298  1  0.42877017  0.90216618  0.48542236  1
  O2-  O299  1  0.43230179  0.90049404  0.97943224  1
  O2-  O300  1  0.76318901  0.23918066  0.47770629  1
  O2-  O301  1  0.76003164  0.24270474  0.97803972  1
  O2-  O302  1  0.76082029  0.57342661  0.47855479  1
  O2-  O303  1  0.76010529  0.57218860  0.97614420  1
  O2-  O304  1  0.76407155  0.90858704  0.48092307  1
  O2-  O305  1  0.75834500  0.90773036  0.98096218  1
  O2-  O306  1  0.07300020  0.07022228  0.26844402  1
  O2-  O307  1  0.07344303  0.07023027  0.77490969  1
  O2-  O308  1  0.07250643  0.40712643  0.27175659  1
  O2-  O309  1  0.07232299  0.40928395  0.77273985  1
  O2-  O310  1  0.07076103  0.73949166  0.27127636  1
  O2-  O311  1  0.06877385  0.73556442  0.76619332  1
  O2-  O312  1  0.40738337  0.07357991  0.26763106  1
  O2-  O313  1  0.40252492  0.06913178  0.77305977  1
  O2-  O314  1  0.40473988  0.40245796  0.27173736  1
  O2-  O315  1  0.40881116  0.40501195  0.77129654  1
  O2-  O316  1  0.40691642  0.73996340  0.27265686  1
  O2-  O317  1  0.39813867  0.73602987  0.76895532  1
  O2-  O318  1  0.74331306  0.07235177  0.27285604  1
  O2-  O319  1  0.73868677  0.07653113  0.77365376  1
  O2-  O320  1  0.73686188  0.40561677  0.27256071  1
  O2-  O321  1  0.73623789  0.40378104  0.76713440  1
  O2-  O322  1  0.73848199  0.74018218  0.27125113  1
  O2-  O323  1  0.73388529  0.73836138  0.76674415  1
  O2-  O324  1  0.23857406  0.09265232  0.23007148  1
  O2-  O325  1  0.23660096  0.09526794  0.72830002  1
  O2-  O326  1  0.24002706  0.42566238  0.23328345  1
  O2-  O327  1  0.23760361  0.42834914  0.73193402  1
  O2-  O328  1  0.23716956  0.76322566  0.23476466  1
  O2-  O329  1  0.23696979  0.76194672  0.72587303  1
  O2-  O330  1  0.57034246  0.09439607  0.23360028  1
  O2-  O331  1  0.56647376  0.09681308  0.73308870  1
  O2-  O332  1  0.56928817  0.42727004  0.22786749  1
  O2-  O333  1  0.57232534  0.42743596  0.72799672  1
  O2-  O334  1  0.57323879  0.76357570  0.23016271  1
  O2-  O335  1  0.57025017  0.75835728  0.72858371  1
  O2-  O336  1  0.90799975  0.09100340  0.23097172  1
  O2-  O337  1  0.90378340  0.10025188  0.73492308  1
  O2-  O338  1  0.90157466  0.43353800  0.23459832  1
  O2-  O339  1  0.90413771  0.42838233  0.72786679  1
  O2-  O340  1  0.90373441  0.76133633  0.22927764  1
  O2-  O341  1  0.90740832  0.76284092  0.72662026  1
  O2-  O342  1  0.26385941  0.25809804  0.01941538  1
  O2-  O343  1  0.26022432  0.26141362  0.52665922  1
  O2-  O344  1  0.25706248  0.59170121  0.01065635  1
  O2-  O345  1  0.26303084  0.59431405  0.52155348  1
  O2-  O346  1  0.26262565  0.92687599  0.02073592  1
  O2-  O347  1  0.25993106  0.92821956  0.52116012  1
  O2-  O348  1  0.59355264  0.26278227  0.02197601  1
  O2-  O349  1  0.59614996  0.26417600  0.51539007  1
  O2-  O350  1  0.59655822  0.59411338  0.01982387  1
  O2-  O351  1  0.59437903  0.59414953  0.52144399  1
  O2-  O352  1  0.59500873  0.93039018  0.02228691  1
  O2-  O353  1  0.59178960  0.92730368  0.51930317  1
  O2-  O354  1  0.92680132  0.26342923  0.01112235  1
  O2-  O355  1  0.93239997  0.26209258  0.52187721  1
  O2-  O356  1  0.92759545  0.59776379  0.01622430  1
  O2-  O357  1  0.92729057  0.59733556  0.52032976  1
  O2-  O358  1  0.92847135  0.92412349  0.02085628  1
  O2-  O359  1  0.92904514  0.92975249  0.52577894  1
