# generated using pymatgen
data_Sr7Ca15Pr50Mn72O216
_symmetry_space_group_name_H-M   'P 1'
_cell_length_a   16.55830129
_cell_length_b   16.60643664
_cell_length_c   15.59358002
_cell_angle_alpha   90.00784141
_cell_angle_beta   89.99924872
_cell_angle_gamma   90.00888187
_symmetry_Int_Tables_number   1
_chemical_formula_structural   Sr7Ca15Pr50Mn72O216
_chemical_formula_sum   'Sr7 Ca15 Pr50 Mn72 O216'
_cell_volume   4287.83492275
_cell_formula_units_Z   1
loop_
 _symmetry_equiv_pos_site_id
 _symmetry_equiv_pos_as_xyz
  1  'x, y, z'
loop_
 _atom_type_symbol
 _atom_type_oxidation_number
  Sr2+  2.0
  Ca2+  2.0
  Pr3+  3.0
  Mn3.30+  3.3
  O2-  -2.0
loop_
 _atom_site_type_symbol
 _atom_site_label
 _atom_site_symmetry_multiplicity
 _atom_site_fract_x
 _atom_site_fract_y
 _atom_site_fract_z
 _atom_site_occupancy
  Sr2+  Sr0  1  0.99739233  0.32625659  0.87462210  1
  Sr2+  Sr1  1  -0.00509697  0.00974793  0.62266792  1
  Sr2+  Sr2  1  0.83453954  0.50882298  0.12286616  1
  Sr2+  Sr3  1  0.99884986  0.65664039  0.87377994  1
  Sr2+  Sr4  1  -0.00325380  0.00900569  0.12747835  1
  Sr2+  Sr5  1  0.66814728  0.98890435  0.87385255  1
  Sr2+  Sr6  1  0.33127599  0.01002814  0.62496267  1
  Ca2+  Ca7  1  0.50447701  0.18134460  0.12525949  1
  Ca2+  Ca8  1  0.83114514  0.48544534  0.87145130  1
  Ca2+  Ca9  1  0.83605894  0.18056158  0.62603124  1
  Ca2+  Ca10  1  0.67084026  0.31891451  0.37746554  1
  Ca2+  Ca11  1  0.16872789  0.51289908  0.62810194  1
  Ca2+  Ca12  1  0.50316218  0.84699637  0.12581487  1
  Ca2+  Ca13  1  0.33801036  0.65136378  0.87491699  1
  Ca2+  Ca14  1  0.33182272  0.68151979  0.12345782  1
  Ca2+  Ca15  1  0.50511620  0.18333504  0.62465180  1
  Ca2+  Ca16  1  0.66601173  0.34656209  0.62368151  1
  Ca2+  Ca17  1  0.49525324  0.81815748  0.37478229  1
  Ca2+  Ca18  1  0.83507649  0.51226899  0.62831153  1
  Ca2+  Ca19  1  0.66625996  0.68130426  0.62505907  1
  Ca2+  Ca20  1  0.83412192  0.84538126  0.62616608  1
  Ca2+  Ca21  1  1.00148411  0.98503371  0.37723145  1
  Pr3+  Pr22  1  0.17032426  0.51444584  0.12322928  1
  Pr3+  Pr23  1  0.33789257  0.65484498  0.37481509  1
  Pr3+  Pr24  1  0.16166922  0.15076474  0.37599983  1
  Pr3+  Pr25  1  0.99985790  0.98937700  0.87387640  1
  Pr3+  Pr26  1  1.00258519  0.65471621  0.37613699  1
  Pr3+  Pr27  1  0.66789090  0.65708547  0.37703122  1
  Pr3+  Pr28  1  0.16374037  0.48770514  0.37743980  1
  Pr3+  Pr29  1  -0.00365003  0.67738163  0.12341628  1
  Pr3+  Pr30  1  0.50718185  0.51520776  0.62486698  1
  Pr3+  Pr31  1  0.16295377  0.15625108  0.87440713  1
  Pr3+  Pr32  1  0.83394105  0.82307458  0.37731702  1
  Pr3+  Pr33  1  0.82856517  0.15309006  0.37784374  1
  Pr3+  Pr34  1  0.66437409  0.01394039  0.62476450  1
  Pr3+  Pr35  1  0.67347099  0.65286777  0.87265835  1
  Pr3+  Pr36  1  0.49876224  0.48709378  0.87307225  1
  Pr3+  Pr37  1  0.16960013  0.84478634  0.12397667  1
  Pr3+  Pr38  1  0.82923916  0.48602886  0.37686463  1
  Pr3+  Pr39  1  0.33239716  0.01226403  0.12556985  1
  Pr3+  Pr40  1  0.66081282  0.01471374  0.12507812  1
  Pr3+  Pr41  1  0.66649994  0.98573284  0.37604227  1
  Pr3+  Pr42  1  -0.00424420  0.34610033  0.12434673  1
  Pr3+  Pr43  1  1.00065381  0.32074702  0.37581719  1
  Pr3+  Pr44  1  0.16940479  0.84695335  0.62605451  1
  Pr3+  Pr45  1  0.50346919  0.84453088  0.62321035  1
  Pr3+  Pr46  1  0.67194576  0.32210268  0.87253937  1
  Pr3+  Pr47  1  0.33793830  0.98287269  0.37598709  1
  Pr3+  Pr48  1  0.83540657  0.17803136  0.12471343  1
  Pr3+  Pr49  1  0.50480225  0.51412181  0.12453574  1
  Pr3+  Pr50  1  0.33052159  0.67758070  0.62705962  1
  Pr3+  Pr51  1  0.16780415  0.17647705  0.62510426  1
  Pr3+  Pr52  1  0.66390049  0.34651364  0.12625712  1
  Pr3+  Pr53  1  0.33654166  0.32015503  0.37618253  1
  Pr3+  Pr54  1  0.49804427  0.15508347  0.37626504  1
  Pr3+  Pr55  1  0.49807822  0.81929431  0.87504252  1
  Pr3+  Pr56  1  0.49987576  0.48567248  0.37639525  1
  Pr3+  Pr57  1  0.16356545  0.48864634  0.87249729  1
  Pr3+  Pr58  1  0.49868634  0.15409986  0.87370957  1
  Pr3+  Pr59  1  -0.00314192  0.67875264  0.62678784  1
  Pr3+  Pr60  1  0.82932349  0.15287836  0.87205632  1
  Pr3+  Pr61  1  0.82886784  0.82286039  0.87268372  1
  Pr3+  Pr62  1  0.33327138  0.34536710  0.12521681  1
  Pr3+  Pr63  1  0.66322234  0.68163195  0.12436205  1
  Pr3+  Pr64  1  0.33709616  0.32097151  0.87380943  1
  Pr3+  Pr65  1  0.16711481  0.17946978  0.12511678  1
  Pr3+  Pr66  1  0.16300832  0.82108019  0.37628216  1
  Pr3+  Pr67  1  0.33774850  0.98702315  0.87449179  1
  Pr3+  Pr68  1  0.83531386  0.84514191  0.12541929  1
  Pr3+  Pr69  1  -0.00583442  0.34655408  0.62587899  1
  Pr3+  Pr70  1  0.33071507  0.34622386  0.62471923  1
  Pr3+  Pr71  1  0.16433659  0.81991991  0.87399026  1
  Mn3.30+  Mn72  1  0.16713581  0.00058561  0.00062776  1
  Mn3.30+  Mn73  1  0.16528972  -0.00061850  0.49964845  1
  Mn3.30+  Mn74  1  0.16651337  0.33429242  -0.00040367  1
  Mn3.30+  Mn75  1  0.16575475  0.33341449  0.50132300  1
  Mn3.30+  Mn76  1  0.16961474  0.66679979  -0.00160106  1
  Mn3.30+  Mn77  1  0.16751351  0.66500181  0.50207939  1
  Mn3.30+  Mn78  1  0.50025325  -0.00065345  0.00076253  1
  Mn3.30+  Mn79  1  0.49981286  0.00096021  0.50121536  1
  Mn3.30+  Mn80  1  0.50124076  0.33244951  -0.00012376  1
  Mn3.30+  Mn81  1  0.50363832  0.33250203  0.50129737  1
  Mn3.30+  Mn82  1  0.49838495  0.66804354  0.00033403  1
  Mn3.30+  Mn83  1  0.50227166  0.66787742  0.49985503  1
  Mn3.30+  Mn84  1  0.83172327  -0.00044123  0.00082634  1
  Mn3.30+  Mn85  1  0.83326362  -0.00065240  0.50032561  1
  Mn3.30+  Mn86  1  0.83315984  0.33400055  -0.00196865  1
  Mn3.30+  Mn87  1  0.82994349  0.33327110  0.50290099  1
  Mn3.30+  Mn88  1  0.83269705  0.66474625  -0.00112708  1
  Mn3.30+  Mn89  1  0.83273867  0.66624561  0.50356032  1
  Mn3.30+  Mn90  1  -0.00136114  0.16409442  0.25152909  1
  Mn3.30+  Mn91  1  -0.00275534  0.16709022  0.74871789  1
  Mn3.30+  Mn92  1  -0.00010598  0.50030599  0.25037689  1
  Mn3.30+  Mn93  1  -0.00127010  0.50059719  0.74958665  1
  Mn3.30+  Mn94  1  0.00032549  0.83302833  0.25073177  1
  Mn3.30+  Mn95  1  -0.00202665  0.83362950  0.74927742  1
  Mn3.30+  Mn96  1  0.33410243  0.16621916  0.24973442  1
  Mn3.30+  Mn97  1  0.33487560  0.16676774  0.74748363  1
  Mn3.30+  Mn98  1  0.33451947  0.50130244  0.24952958  1
  Mn3.30+  Mn99  1  0.33354028  0.50070706  0.74960596  1
  Mn3.30+  Mn100  1  0.33636560  0.83136764  0.24743735  1
  Mn3.30+  Mn101  1  0.33379538  0.83135176  0.75171776  1
  Mn3.30+  Mn102  1  0.66468611  0.16792300  0.25175973  1
  Mn3.30+  Mn103  1  0.66661259  0.16856026  0.74532491  1
  Mn3.30+  Mn104  1  0.66690039  0.50077676  0.25140282  1
  Mn3.30+  Mn105  1  0.67008684  0.50022037  0.74626337  1
  Mn3.30+  Mn106  1  0.66357066  0.83349217  0.25197344  1
  Mn3.30+  Mn107  1  0.66723003  0.83303013  0.74728726  1
  Mn3.30+  Mn108  1  0.16541162  -0.00106032  0.25016375  1
  Mn3.30+  Mn109  1  0.16678295  0.00096737  0.75018138  1
  Mn3.30+  Mn110  1  0.16668533  0.33383002  0.25051954  1
  Mn3.30+  Mn111  1  0.16526023  0.33396067  0.74869414  1
  Mn3.30+  Mn112  1  0.16946161  0.66706002  0.24873703  1
  Mn3.30+  Mn113  1  0.16740899  0.66477817  0.75105028  1
  Mn3.30+  Mn114  1  0.49936087  -0.00141007  0.25017638  1
  Mn3.30+  Mn115  1  0.50052053  0.00100894  0.74804903  1
  Mn3.30+  Mn116  1  0.50172878  0.33177357  0.25178201  1
  Mn3.30+  Mn117  1  0.50315457  0.33329439  0.74652835  1
  Mn3.30+  Mn118  1  0.49901374  0.66949202  0.24809510  1
  Mn3.30+  Mn119  1  0.50189986  0.66674539  0.75052356  1
  Mn3.30+  Mn120  1  0.83279519  -0.00044370  0.25276636  1
  Mn3.30+  Mn121  1  0.83234637  -0.00059814  0.74673841  1
  Mn3.30+  Mn122  1  0.83158127  0.33273219  0.25176005  1
  Mn3.30+  Mn123  1  0.83152553  0.33404836  0.74715392  1
  Mn3.30+  Mn124  1  0.83314177  0.66593345  0.25064588  1
  Mn3.30+  Mn125  1  0.83212177  0.66520293  0.74729482  1
  Mn3.30+  Mn126  1  -0.00095453  0.16634391  -0.00029696  1
  Mn3.30+  Mn127  1  -0.00336788  0.16522902  0.50105951  1
  Mn3.30+  Mn128  1  -0.00059327  0.50058544  -0.00320696  1
  Mn3.30+  Mn129  1  -0.00148353  0.50030899  0.50342745  1
  Mn3.30+  Mn130  1  -0.00025325  0.83312442  -0.00096435  1
  Mn3.30+  Mn131  1  -0.00178796  0.83363192  0.50180309  1
  Mn3.30+  Mn132  1  0.33489398  0.16711281  0.00146310  1
  Mn3.30+  Mn133  1  0.33416115  0.16587697  0.50149500  1
  Mn3.30+  Mn134  1  0.33473630  0.50240416  -0.00034438  1
  Mn3.30+  Mn135  1  0.33336443  0.50006498  0.50128840  1
  Mn3.30+  Mn136  1  0.33573118  0.83080270  0.00120134  1
  Mn3.30+  Mn137  1  0.33425575  0.83181827  0.49966003  1
  Mn3.30+  Mn138  1  0.66543320  0.16720362  0.00012314  1
  Mn3.30+  Mn139  1  0.66600480  0.16973926  0.50229146  1
  Mn3.30+  Mn140  1  0.66829381  0.50072647  -0.00093141  1
  Mn3.30+  Mn141  1  0.66889542  0.49999705  0.50232958  1
  Mn3.30+  Mn142  1  0.66459582  0.83433389  0.00044283  1
  Mn3.30+  Mn143  1  0.66648073  0.83214886  0.50023978  1
  O2-  O144  1  0.02375560  0.16408814  0.12748937  1
  O2-  O145  1  0.02458591  0.16488279  0.62403179  1
  O2-  O146  1  0.02492452  0.49574959  0.12411917  1
  O2-  O147  1  0.02686552  0.49479663  0.62449331  1
  O2-  O148  1  0.02417093  0.82656721  0.12405784  1
  O2-  O149  1  0.02565803  0.82845005  0.62518531  1
  O2-  O150  1  0.36132664  0.16139349  0.12699928  1
  O2-  O151  1  0.36035462  0.16558176  0.62429344  1
  O2-  O152  1  0.36185523  0.49134804  0.12357878  1
  O2-  O153  1  0.36192268  0.49511394  0.62352781  1
  O2-  O154  1  0.36184306  0.82626654  0.12358111  1
  O2-  O155  1  0.35855242  0.82577315  0.62596037  1
  O2-  O156  1  0.69133478  0.16236554  0.12740154  1
  O2-  O157  1  0.69521958  0.15939408  0.62334683  1
  O2-  O158  1  0.68427570  0.49559923  0.12715138  1
  O2-  O159  1  0.69396610  0.49056529  0.62330456  1
  O2-  O160  1  0.69176180  0.82932341  0.12813722  1
  O2-  O161  1  0.69132467  0.82751126  0.62268607  1
  O2-  O162  1  0.14100300  0.32880064  0.12683656  1
  O2-  O163  1  0.13969821  0.32325224  0.62471720  1
  O2-  O164  1  0.14023481  0.66191728  0.12249383  1
  O2-  O165  1  0.14248940  0.66013381  0.62521370  1
  O2-  O166  1  0.14612929  0.99322717  0.12515831  1
  O2-  O167  1  0.14668757  0.99620393  0.62448172  1
  O2-  O168  1  0.47625140  0.32773967  0.12730439  1
  O2-  O169  1  0.47388635  0.33026138  0.62494260  1
  O2-  O170  1  0.47277779  0.65795154  0.12447491  1
  O2-  O171  1  0.47452945  0.66280639  0.62666470  1
  O2-  O172  1  0.47493581  0.99139186  0.12755672  1
  O2-  O173  1  0.47927251  0.99117236  0.62427155  1
  O2-  O174  1  0.80806742  0.32650726  0.12597246  1
  O2-  O175  1  0.80617396  0.32397053  0.62359436  1
  O2-  O176  1  0.80803551  0.66426412  0.12427569  1
  O2-  O177  1  0.80614646  0.65620537  0.62395607  1
  O2-  O178  1  0.80641559  0.99399586  0.12931764  1
  O2-  O179  1  0.80783820  0.99023586  0.62168250  1
  O2-  O180  1  0.30671676  0.17302046  0.37396325  1
  O2-  O181  1  0.30828212  0.17319043  0.87495126  1
  O2-  O182  1  0.30780420  0.50592933  0.37674856  1
  O2-  O183  1  0.30887730  0.50407727  0.87651417  1
  O2-  O184  1  0.30717944  0.83400294  0.37383308  1
  O2-  O185  1  0.30777863  0.84072499  0.87722311  1
  O2-  O186  1  0.64074508  0.17256816  0.37709083  1
  O2-  O187  1  0.64200605  0.17326485  0.87161380  1
  O2-  O188  1  0.64163601  0.51000384  0.37560212  1
  O2-  O189  1  0.64146803  0.50458369  0.87263934  1
  O2-  O190  1  0.63658609  0.83658297  0.37447034  1
  O2-  O191  1  0.64316273  0.83355229  0.87371317  1
  O2-  O192  1  0.97254499  0.17549900  0.37576383  1
  O2-  O193  1  0.97413244  0.16847114  0.87348671  1
  O2-  O194  1  0.97505250  0.50553296  0.37807856  1
  O2-  O195  1  0.97492147  0.50127079  0.87281386  1
  O2-  O196  1  0.97936563  0.83049142  0.37686278  1
  O2-  O197  1  0.97458074  0.83887663  0.87441754  1
  O2-  O198  1  0.19320139  0.00218890  0.37398985  1
  O2-  O199  1  0.19365766  0.00752815  0.87685909  1
  O2-  O200  1  0.19212089  0.33989494  0.37518814  1
  O2-  O201  1  0.19328170  0.33855118  0.87315681  1
  O2-  O202  1  0.19335031  0.67272615  0.37656541  1
  O2-  O203  1  0.19605606  0.67257983  0.87584320  1
  O2-  O204  1  0.52361304  0.00861807  0.37559158  1
  O2-  O205  1  0.51906644  0.00633949  0.87258231  1
  O2-  O206  1  0.52751766  0.33800190  0.37619082  1
  O2-  O207  1  0.52637783  0.33849762  0.87126705  1
  O2-  O208  1  0.52361463  0.67250868  0.37302632  1
  O2-  O209  1  0.52889503  0.67138166  0.87485277  1
  O2-  O210  1  0.85821342  0.00563474  0.37584506  1
  O2-  O211  1  0.85445836  0.00411106  0.87346077  1
  O2-  O212  1  0.85807607  0.33845345  0.37725607  1
  O2-  O213  1  0.84888910  0.33832019  0.87321533  1
  O2-  O214  1  0.85937448  0.67443975  0.37788038  1
  O2-  O215  1  0.85004345  0.67730146  0.87393579  1
  O2-  O216  1  0.23932751  0.09514404  0.02247246  1
  O2-  O217  1  0.23648393  0.09732943  0.51504509  1
  O2-  O218  1  0.24194397  0.42788276  0.02131685  1
  O2-  O219  1  0.23692298  0.42757220  0.52220908  1
  O2-  O220  1  0.23876357  0.76289827  0.01985488  1
  O2-  O221  1  0.23785677  0.75999094  0.52263997  1
  O2-  O222  1  0.57036919  0.09696199  0.02053146  1
  O2-  O223  1  0.57219998  0.09842999  0.52130019  1
  O2-  O224  1  0.57106534  0.42869108  0.01845684  1
  O2-  O225  1  0.57055860  0.43322321  0.51712607  1
  O2-  O226  1  0.56912450  0.76291631  0.02167794  1
  O2-  O227  1  0.57218244  0.76127444  0.51938096  1
  O2-  O228  1  0.90251295  0.09421721  0.01680118  1
  O2-  O229  1  0.90019552  0.09961028  0.51808469  1
  O2-  O230  1  0.90911717  0.42087904  0.01874930  1
  O2-  O231  1  0.90185991  0.42879796  0.52218731  1
  O2-  O232  1  0.90462868  0.75944108  0.02007874  1
  O2-  O233  1  0.90509348  0.76006803  0.52422754  1
  O2-  O234  1  0.26074181  0.26174976  0.22847298  1
  O2-  O235  1  0.26251606  0.26107540  0.72902662  1
  O2-  O236  1  0.26260536  0.59715772  0.22770455  1
  O2-  O237  1  0.26348623  0.59262178  0.73049645  1
  O2-  O238  1  0.26578193  0.92554102  0.22948597  1
  O2-  O239  1  0.25905890  0.92358592  0.73425195  1
  O2-  O240  1  0.59548665  0.26182085  0.23000478  1
  O2-  O241  1  0.59741132  0.26543964  0.72837977  1
  O2-  O242  1  0.59291148  0.59732970  0.22992535  1
  O2-  O243  1  0.59990801  0.59565461  0.72749479  1
  O2-  O244  1  0.59694895  0.93166490  0.23287264  1
  O2-  O245  1  0.59474103  0.92592022  0.72752736  1
  O2-  O246  1  0.92784060  0.26128782  0.23046581  1
  O2-  O247  1  0.92687802  0.26161327  0.72968087  1
  O2-  O248  1  0.93232542  0.59587503  0.23443701  1
  O2-  O249  1  0.92863284  0.59446342  0.72857481  1
  O2-  O250  1  0.92335273  0.92157372  0.23448930  1
  O2-  O251  1  0.92671754  0.92843718  0.73603824  1
  O2-  O252  1  0.09336788  0.23748730  0.27090894  1
  O2-  O253  1  0.09675329  0.23749216  0.76734547  1
  O2-  O254  1  0.09809953  0.57178795  0.27001743  1
  O2-  O255  1  0.09678029  0.57255113  0.76908493  1
  O2-  O256  1  0.09692430  0.90320552  0.26810515  1
  O2-  O257  1  0.09386460  0.90792721  0.77154610  1
  O2-  O258  1  0.42769219  0.24064848  0.27394295  1
  O2-  O259  1  0.42757608  0.24039640  0.77196050  1
  O2-  O260  1  0.42862659  0.57069170  0.27172131  1
  O2-  O261  1  0.43354926  0.57196118  0.76813157  1
  O2-  O262  1  0.42768754  0.90406187  0.27440644  1
  O2-  O263  1  0.42664904  0.90357169  0.76994102  1
  O2-  O264  1  0.76228902  0.23661654  0.26921765  1
  O2-  O265  1  0.75986883  0.23965659  0.77145468  1
  O2-  O266  1  0.76157526  0.57495461  0.27345747  1
  O2-  O267  1  0.76275681  0.57110538  0.77265975  1
  O2-  O268  1  0.75903719  0.90461977  0.27385307  1
  O2-  O269  1  0.76146283  0.90323324  0.76596140  1
  O2-  O270  1  0.07022472  0.07270644  0.47647424  1
  O2-  O271  1  0.07236726  0.07506930  0.97806402  1
  O2-  O272  1  0.06965302  0.40565645  0.47930453  1
  O2-  O273  1  0.07726152  0.40869605  0.98209979  1
  O2-  O274  1  0.07363701  0.73767205  0.48189629  1
  O2-  O275  1  0.07648395  0.74164427  0.98084625  1
  O2-  O276  1  0.40406965  0.07312483  0.47694191  1
  O2-  O277  1  0.40420685  0.07134312  0.98118871  1
  O2-  O278  1  0.40582737  0.40486682  0.47919574  1
  O2-  O279  1  0.40633191  0.40452330  0.97881763  1
  O2-  O280  1  0.40260114  0.73683592  0.48293183  1
  O2-  O281  1  0.40617875  0.73734659  0.97376082  1
  O2-  O282  1  0.73554607  0.07165369  0.47906186  1
  O2-  O283  1  0.73884789  0.07414556  0.98454134  1
  O2-  O284  1  0.73799048  0.40661699  0.47487882  1
  O2-  O285  1  0.73623136  0.40358921  0.98540437  1
  O2-  O286  1  0.74049654  0.74134585  0.47632743  1
  O2-  O287  1  0.73634865  0.73778617  0.98346587  1
  O2-  O288  1  0.09442350  0.23820353  0.47837239  1
  O2-  O289  1  0.09683733  0.23777875  0.98445275  1
  O2-  O290  1  0.09527467  0.57368868  0.47745943  1
  O2-  O291  1  0.10013332  0.57165091  0.98148835  1
  O2-  O292  1  0.09472874  0.90312421  0.48284109  1
  O2-  O293  1  0.09495029  0.90738211  0.97797582  1
  O2-  O294  1  0.42608945  0.23960221  0.47759776  1
  O2-  O295  1  0.42837077  0.23995206  0.97773814  1
  O2-  O296  1  0.43090096  0.57279502  0.47947065  1
  O2-  O297  1  0.43156437  0.56977785  0.97968385  1
  O2-  O298  1  0.42726014  0.90275209  0.47885502  1
  O2-  O299  1  0.42687774  0.90524878  0.97756366  1
  O2-  O300  1  0.76064390  0.23892723  0.47818240  1
  O2-  O301  1  0.76131501  0.23825165  0.97999741  1
  O2-  O302  1  0.76131035  0.57355005  0.47604701  1
  O2-  O303  1  0.76121543  0.57144790  0.97668016  1
  O2-  O304  1  0.75674291  0.90598444  0.47475421  1
  O2-  O305  1  0.76289651  0.90238194  0.98460805  1
  O2-  O306  1  0.06950693  0.07310115  0.27489700  1
  O2-  O307  1  0.07257890  0.07482300  0.77199496  1
  O2-  O308  1  0.07297444  0.40629994  0.27113876  1
  O2-  O309  1  0.07399705  0.40783047  0.76725297  1
  O2-  O310  1  0.07410579  0.73697024  0.26938805  1
  O2-  O311  1  0.07576616  0.74255036  0.76694156  1
  O2-  O312  1  0.40397200  0.06958778  0.27127677  1
  O2-  O313  1  0.40475629  0.07440027  0.77151568  1
  O2-  O314  1  0.40654174  0.40404862  0.27199939  1
  O2-  O315  1  0.40520827  0.40585918  0.76958795  1
  O2-  O316  1  0.40397364  0.73710926  0.26985053  1
  O2-  O317  1  0.40422013  0.73763014  0.77279547  1
  O2-  O318  1  0.73475812  0.07251961  0.27209198  1
  O2-  O319  1  0.73944613  0.07286374  0.76506776  1
  O2-  O320  1  0.73901432  0.40445486  0.27122638  1
  O2-  O321  1  0.73719667  0.40571428  0.76809380  1
  O2-  O322  1  0.73752384  0.74050050  0.27108740  1
  O2-  O323  1  0.73792446  0.73933432  0.76792152  1
  O2-  O324  1  0.23722397  0.09408322  0.22954393  1
  O2-  O325  1  0.23765087  0.09765028  0.73328690  1
  O2-  O326  1  0.24111717  0.43000447  0.22951160  1
  O2-  O327  1  0.23835927  0.42585875  0.72757715  1
  O2-  O328  1  0.23733819  0.76331027  0.22991471  1
  O2-  O329  1  0.23921195  0.75979549  0.72898243  1
  O2-  O330  1  0.56979116  0.09647143  0.22973198  1
  O2-  O331  1  0.57277139  0.09842268  0.72765447  1
  O2-  O332  1  0.57001098  0.42795111  0.23158910  1
  O2-  O333  1  0.57043541  0.43179134  0.73090944  1
  O2-  O334  1  0.57173100  0.76129551  0.22505492  1
  O2-  O335  1  0.56894226  0.76336572  0.73184094  1
  O2-  O336  1  0.90115871  0.09732543  0.23313225  1
  O2-  O337  1  0.90198076  0.09651373  0.73266387  1
  O2-  O338  1  0.90790279  0.42445111  0.23362405  1
  O2-  O339  1  0.90526310  0.42555336  0.72622942  1
  O2-  O340  1  0.90542943  0.75878581  0.23003272  1
  O2-  O341  1  0.90390118  0.75911772  0.72796988  1
  O2-  O342  1  0.26245439  0.26162992  0.02140444  1
  O2-  O343  1  0.26247983  0.26082312  0.52000681  1
  O2-  O344  1  0.26273242  0.59418379  0.02461882  1
  O2-  O345  1  0.26370098  0.59596618  0.51932803  1
  O2-  O346  1  0.26376112  0.92650773  0.02129943  1
  O2-  O347  1  0.26026877  0.92306360  0.51624492  1
  O2-  O348  1  0.59700983  0.26395104  0.01785256  1
  O2-  O349  1  0.59576498  0.26358732  0.52294305  1
  O2-  O350  1  0.59502049  0.59685066  0.01945708  1
  O2-  O351  1  0.59828062  0.59576807  0.52168088  1
  O2-  O352  1  0.59464535  0.92950459  0.01969692  1
  O2-  O353  1  0.59606721  0.92826757  0.51909114  1
  O2-  O354  1  0.92601598  0.25822989  0.02211569  1
  O2-  O355  1  0.92980352  0.26515526  0.51714113  1
  O2-  O356  1  0.92909917  0.59556048  0.01799345  1
  O2-  O357  1  0.93131858  0.59712300  0.51822294  1
  O2-  O358  1  0.92474771  0.92567879  0.01732014  1
  O2-  O359  1  0.92465863  0.92426420  0.51253275  1
