# generated using pymatgen
data_Sr7Ca15Pr50Mn72O216
_symmetry_space_group_name_H-M   'P 1'
_cell_length_a   16.55883097
_cell_length_b   16.60613666
_cell_length_c   15.59305795
_cell_angle_alpha   89.99564270
_cell_angle_beta   90.00382294
_cell_angle_gamma   90.00091384
_symmetry_Int_Tables_number   1
_chemical_formula_structural   Sr7Ca15Pr50Mn72O216
_chemical_formula_sum   'Sr7 Ca15 Pr50 Mn72 O216'
_cell_volume   4287.75113982
_cell_formula_units_Z   1
loop_
 _symmetry_equiv_pos_site_id
 _symmetry_equiv_pos_as_xyz
  1  'x, y, z'
loop_
 _atom_type_symbol
 _atom_type_oxidation_number
  Sr2+  2.0
  Ca2+  2.0
  Pr3+  3.0
  Mn3.30+  3.3
  O2-  -2.0
loop_
 _atom_site_type_symbol
 _atom_site_label
 _atom_site_symmetry_multiplicity
 _atom_site_fract_x
 _atom_site_fract_y
 _atom_site_fract_z
 _atom_site_occupancy
  Sr2+  Sr0  1  1.00261561  0.99263513  0.37526665  1
  Sr2+  Sr1  1  0.67203420  0.32187715  0.87642088  1
  Sr2+  Sr2  1  -0.00188851  0.67731431  0.62378064  1
  Sr2+  Sr3  1  0.33427837  0.32111135  0.37429498  1
  Sr2+  Sr4  1  0.16476573  0.15789092  0.37500110  1
  Sr2+  Sr5  1  0.99820518  0.32359190  0.87631940  1
  Sr2+  Sr6  1  0.66385202  0.01325119  0.62671289  1
  Ca2+  Ca7  1  1.00110026  0.65365500  0.37387552  1
  Ca2+  Ca8  1  0.67136521  0.65110168  0.37074456  1
  Ca2+  Ca9  1  1.00428358  0.31850713  0.37372854  1
  Ca2+  Ca10  1  1.00030285  0.98658260  0.87449029  1
  Ca2+  Ca11  1  0.16660184  0.84804944  0.62355109  1
  Ca2+  Ca12  1  0.83554019  0.84798584  0.12483723  1
  Ca2+  Ca13  1  0.66947343  0.31809825  0.37318010  1
  Ca2+  Ca14  1  0.50636798  0.18135937  0.62464837  1
  Ca2+  Ca15  1  0.83287866  0.51279177  0.12536306  1
  Ca2+  Ca16  1  0.67197731  0.98699279  0.87496891  1
  Ca2+  Ca17  1  0.33008000  0.01497732  0.12465201  1
  Ca2+  Ca18  1  0.66278721  0.35034580  0.12605743  1
  Ca2+  Ca19  1  0.50828766  0.51645585  0.12696138  1
  Ca2+  Ca20  1  0.82776784  0.14956567  0.87522504  1
  Ca2+  Ca21  1  0.66568283  0.67901478  0.12741339  1
  Pr3+  Pr22  1  0.16958097  0.84874365  0.12592243  1
  Pr3+  Pr23  1  0.16135680  0.82163469  0.87457409  1
  Pr3+  Pr24  1  0.32600177  0.68261406  0.62354439  1
  Pr3+  Pr25  1  0.99982085  0.65404344  0.87577545  1
  Pr3+  Pr26  1  0.83140165  0.81843429  0.37276240  1
  Pr3+  Pr27  1  0.33727075  0.65437718  0.87629146  1
  Pr3+  Pr28  1  -0.00469166  0.01260750  0.12413793  1
  Pr3+  Pr29  1  0.83006527  0.48596476  0.37318216  1
  Pr3+  Pr30  1  0.33671141  0.98619473  0.87656337  1
  Pr3+  Pr31  1  0.49711997  0.15717436  0.37556130  1
  Pr3+  Pr32  1  0.83667835  0.84693505  0.62541127  1
  Pr3+  Pr33  1  0.16792066  0.51164372  0.12571028  1
  Pr3+  Pr34  1  0.66965272  0.65437438  0.87735981  1
  Pr3+  Pr35  1  0.83520030  0.17970483  0.12357951  1
  Pr3+  Pr36  1  0.50309096  0.51100594  0.62310079  1
  Pr3+  Pr37  1  0.33307440  0.34416486  0.62305350  1
  Pr3+  Pr38  1  0.49996331  0.48539307  0.37197301  1
  Pr3+  Pr39  1  0.83616005  0.51175081  0.62539105  1
  Pr3+  Pr40  1  0.33428967  0.99222691  0.37351854  1
  Pr3+  Pr41  1  0.16818462  0.51128637  0.62444427  1
  Pr3+  Pr42  1  0.33802543  0.32004461  0.87612615  1
  Pr3+  Pr43  1  0.66757922  0.01165524  0.12255662  1
  Pr3+  Pr44  1  0.66433827  0.34269695  0.62356849  1
  Pr3+  Pr45  1  0.16042791  0.48532476  0.37415426  1
  Pr3+  Pr46  1  -0.00208787  0.01089265  0.62596950  1
  Pr3+  Pr47  1  0.82925958  0.48733577  0.87699655  1
  Pr3+  Pr48  1  0.83083221  0.82365698  0.87711648  1
  Pr3+  Pr49  1  -0.00759701  0.68133421  0.12703341  1
  Pr3+  Pr50  1  0.50319521  0.84594076  0.12503440  1
  Pr3+  Pr51  1  0.33245568  0.34545323  0.12714865  1
  Pr3+  Pr52  1  0.50425549  0.18062624  0.12418326  1
  Pr3+  Pr53  1  0.33577736  0.65407909  0.37412416  1
  Pr3+  Pr54  1  0.66504002  0.67904283  0.62210756  1
  Pr3+  Pr55  1  0.83223747  0.15547848  0.37429242  1
  Pr3+  Pr56  1  0.15886716  0.82132189  0.37597971  1
  Pr3+  Pr57  1  0.16758097  0.17657078  0.12615952  1
  Pr3+  Pr58  1  0.50073376  0.15410312  0.87418780  1
  Pr3+  Pr59  1  0.67121290  0.98935997  0.37423640  1
  Pr3+  Pr60  1  0.16342869  0.48638363  0.87608967  1
  Pr3+  Pr61  1  0.49910586  0.82184010  0.37449188  1
  Pr3+  Pr62  1  0.50387889  0.84740685  0.62470191  1
  Pr3+  Pr63  1  0.33192404  0.01285988  0.62621217  1
  Pr3+  Pr64  1  0.50007050  0.48670873  0.87785198  1
  Pr3+  Pr65  1  0.83460712  0.17747382  0.62610583  1
  Pr3+  Pr66  1  -0.00406218  0.34438011  0.62299137  1
  Pr3+  Pr67  1  -0.00568848  0.34747103  0.12714254  1
  Pr3+  Pr68  1  0.33221668  0.67829333  0.12684612  1
  Pr3+  Pr69  1  0.50087994  0.82172451  0.87519013  1
  Pr3+  Pr70  1  0.16058748  0.15109750  0.87519605  1
  Pr3+  Pr71  1  0.16695186  0.17797930  0.62384657  1
  Mn3.30+  Mn72  1  0.16602049  -0.00048318  -0.00041086  1
  Mn3.30+  Mn73  1  0.16656562  -0.00055503  0.50088456  1
  Mn3.30+  Mn74  1  0.16615554  0.33200164  0.00058245  1
  Mn3.30+  Mn75  1  0.16430002  0.33280033  0.49906800  1
  Mn3.30+  Mn76  1  0.16572629  0.66707930  0.00121885  1
  Mn3.30+  Mn77  1  0.16421769  0.66745276  0.49953080  1
  Mn3.30+  Mn78  1  0.50117574  0.00035660  0.00006531  1
  Mn3.30+  Mn79  1  0.50181149  0.00187694  0.50006729  1
  Mn3.30+  Mn80  1  0.50382909  0.33465794  0.00150813  1
  Mn3.30+  Mn81  1  0.50129029  0.33192080  0.49854122  1
  Mn3.30+  Mn82  1  0.50280497  0.66615574  0.00297588  1
  Mn3.30+  Mn83  1  0.50083372  0.66636128  0.49781990  1
  Mn3.30+  Mn84  1  0.83305236  -0.00022881  -0.00236721  1
  Mn3.30+  Mn85  1  0.83344630  0.00008060  0.50009724  1
  Mn3.30+  Mn86  1  0.83043875  0.33355996  0.00240297  1
  Mn3.30+  Mn87  1  0.83246361  0.33202815  0.49651323  1
  Mn3.30+  Mn88  1  0.83127327  0.66730938  0.00461216  1
  Mn3.30+  Mn89  1  0.83363732  0.66559948  0.49656582  1
  Mn3.30+  Mn90  1  0.00027308  0.16802258  0.24945831  1
  Mn3.30+  Mn91  1  -0.00223094  0.16564143  0.75382195  1
  Mn3.30+  Mn92  1  -0.00363692  0.50117646  0.25044266  1
  Mn3.30+  Mn93  1  -0.00011146  0.49902940  0.75045083  1
  Mn3.30+  Mn94  1  -0.00219122  0.83391735  0.25027621  1
  Mn3.30+  Mn95  1  0.00030904  0.83365576  0.74934459  1
  Mn3.30+  Mn96  1  0.33432243  0.16580301  0.24900517  1
  Mn3.30+  Mn97  1  0.33443120  0.16643342  0.74956577  1
  Mn3.30+  Mn98  1  0.33584041  0.49963379  0.24911481  1
  Mn3.30+  Mn99  1  0.33419478  0.50004455  0.75040268  1
  Mn3.30+  Mn100  1  0.33253297  0.83518658  0.25027034  1
  Mn3.30+  Mn101  1  0.33195742  0.83399237  0.74972460  1
  Mn3.30+  Mn102  1  0.66680624  0.16937812  0.24875276  1
  Mn3.30+  Mn103  1  0.66740459  0.16606471  0.75148096  1
  Mn3.30+  Mn104  1  0.66729096  0.50033257  0.24879308  1
  Mn3.30+  Mn105  1  0.66719524  0.49953847  0.74941707  1
  Mn3.30+  Mn106  1  0.66818809  0.83094113  0.24813251  1
  Mn3.30+  Mn107  1  0.66720075  0.83471149  0.75090252  1
  Mn3.30+  Mn108  1  0.16703907  0.00128423  0.24961180  1
  Mn3.30+  Mn109  1  0.16546142  -0.00199824  0.75061147  1
  Mn3.30+  Mn110  1  0.16388413  0.33248315  0.25003536  1
  Mn3.30+  Mn111  1  0.16647105  0.33248376  0.75039764  1
  Mn3.30+  Mn112  1  0.16377486  0.66661761  0.25056071  1
  Mn3.30+  Mn113  1  0.16636070  0.66811694  0.74951913  1
  Mn3.30+  Mn114  1  0.50034823  0.00116241  0.24765033  1
  Mn3.30+  Mn115  1  0.50283303  0.00131275  0.75153407  1
  Mn3.30+  Mn116  1  0.50327011  0.33456974  0.24859045  1
  Mn3.30+  Mn117  1  0.50173952  0.33188755  0.75066447  1
  Mn3.30+  Mn118  1  0.50441873  0.66595345  0.25067408  1
  Mn3.30+  Mn119  1  0.49946637  0.66638956  0.74860031  1
  Mn3.30+  Mn120  1  0.83401704  -0.00127051  0.24930259  1
  Mn3.30+  Mn121  1  0.83240885  0.00115848  0.75225197  1
  Mn3.30+  Mn122  1  0.83029467  0.33448960  0.24975515  1
  Mn3.30+  Mn123  1  0.83240699  0.33057210  0.75183438  1
  Mn3.30+  Mn124  1  0.83112882  0.66534815  0.24906991  1
  Mn3.30+  Mn125  1  0.83329089  0.66764719  0.75006792  1
  Mn3.30+  Mn126  1  -0.00247553  0.16607672  -0.00342179  1
  Mn3.30+  Mn127  1  0.00053475  0.16710813  0.50004621  1
  Mn3.30+  Mn128  1  -0.00208537  0.50014041  0.00217356  1
  Mn3.30+  Mn129  1  -0.00165470  0.50058787  0.49776247  1
  Mn3.30+  Mn130  1  -0.00215926  0.83461128  0.00041856  1
  Mn3.30+  Mn131  1  -0.00002298  0.83247086  0.50023679  1
  Mn3.30+  Mn132  1  0.33333459  0.16543144  0.00013926  1
  Mn3.30+  Mn133  1  0.33547258  0.16685412  0.50126065  1
  Mn3.30+  Mn134  1  0.33577536  0.50009792  0.00289306  1
  Mn3.30+  Mn135  1  0.33391395  0.49968562  0.49816787  1
  Mn3.30+  Mn136  1  0.33318825  0.83384687  0.00137943  1
  Mn3.30+  Mn137  1  0.33142532  0.83532231  0.49913758  1
  Mn3.30+  Mn138  1  0.66963594  0.16734146  -0.00144593  1
  Mn3.30+  Mn139  1  0.66522289  0.16751770  0.49958850  1
  Mn3.30+  Mn140  1  0.66689126  0.50059700  0.00547784  1
  Mn3.30+  Mn141  1  0.66770293  0.49917086  0.49677116  1
  Mn3.30+  Mn142  1  0.66822224  0.83317892  0.00269083  1
  Mn3.30+  Mn143  1  0.66727571  0.83235714  0.49773307  1
  O2-  O144  1  0.02288867  0.16073204  0.12117720  1
  O2-  O145  1  0.02248878  0.16084244  0.62853109  1
  O2-  O146  1  0.02492712  0.49601223  0.12542855  1
  O2-  O147  1  0.02376960  0.49318785  0.62419548  1
  O2-  O148  1  0.02537552  0.82775124  0.12493466  1
  O2-  O149  1  0.02424477  0.83083960  0.62580219  1
  O2-  O150  1  0.35916978  0.16027750  0.12318159  1
  O2-  O151  1  0.36318664  0.16087618  0.62783536  1
  O2-  O152  1  0.36331980  0.49437346  0.12492559  1
  O2-  O153  1  0.35867418  0.49418419  0.62284282  1
  O2-  O154  1  0.35926980  0.82500987  0.12645966  1
  O2-  O155  1  0.36046633  0.82872699  0.62387794  1
  O2-  O156  1  0.69203655  0.15787866  0.12351213  1
  O2-  O157  1  0.69044548  0.16859500  0.62644887  1
  O2-  O158  1  0.69326889  0.49222182  0.12717921  1
  O2-  O159  1  0.69213795  0.49249218  0.62083739  1
  O2-  O160  1  0.69311506  0.82640579  0.12587952  1
  O2-  O161  1  0.69142779  0.82618443  0.62293169  1
  O2-  O162  1  0.14036428  0.32744754  0.12446123  1
  O2-  O163  1  0.14156083  0.32978912  0.62521162  1
  O2-  O164  1  0.13828549  0.65966854  0.12529749  1
  O2-  O165  1  0.14724857  0.65720319  0.62403702  1
  O2-  O166  1  0.14034420  0.99670224  0.12283948  1
  O2-  O167  1  0.14309475  0.99547606  0.62827886  1
  O2-  O168  1  0.47488232  0.32719448  0.12433525  1
  O2-  O169  1  0.47696006  0.33011844  0.62672166  1
  O2-  O170  1  0.47470768  0.66311987  0.12777475  1
  O2-  O171  1  0.47119094  0.66005763  0.62264128  1
  O2-  O172  1  0.47215786  0.99384636  0.12380847  1
  O2-  O173  1  0.47554526  0.99285841  0.62768814  1
  O2-  O174  1  0.80380059  0.32497832  0.12623525  1
  O2-  O175  1  0.80796548  0.32690779  0.62256522  1
  O2-  O176  1  0.80578913  0.65681505  0.12569970  1
  O2-  O177  1  0.80833932  0.66123891  0.62256666  1
  O2-  O178  1  0.81124752  0.99618947  0.12402552  1
  O2-  O179  1  0.81331856  0.99562759  0.62553538  1
  O2-  O180  1  0.31606735  0.16369979  0.37457769  1
  O2-  O181  1  0.30546753  0.17292727  0.87438639  1
  O2-  O182  1  0.30657057  0.50591710  0.37435422  1
  O2-  O183  1  0.30757602  0.50615270  0.87807588  1
  O2-  O184  1  0.30448052  0.84204565  0.37333356  1
  O2-  O185  1  0.30633670  0.83735502  0.87695485  1
  O2-  O186  1  0.64129307  0.17049837  0.37231854  1
  O2-  O187  1  0.64222897  0.17085450  0.87632237  1
  O2-  O188  1  0.64128165  0.50855670  0.37412485  1
  O2-  O189  1  0.64288969  0.50704022  0.87765844  1
  O2-  O190  1  0.64187346  0.84222607  0.37289840  1
  O2-  O191  1  0.64370631  0.83792198  0.87776651  1
  O2-  O192  1  0.97700330  0.17244190  0.37500914  1
  O2-  O193  1  0.97094301  0.17163124  0.87520754  1
  O2-  O194  1  0.97407811  0.50933706  0.37365253  1
  O2-  O195  1  0.97523619  0.50479195  0.87771612  1
  O2-  O196  1  0.97563788  0.83959843  0.37423558  1
  O2-  O197  1  0.97516422  0.83806866  0.87616161  1
  O2-  O198  1  0.19013871  0.00072396  0.37454355  1
  O2-  O199  1  0.19328299  0.00296264  0.87485922  1
  O2-  O200  1  0.18492201  0.33786026  0.37452913  1
  O2-  O201  1  0.19374534  0.33851183  0.87576497  1
  O2-  O202  1  0.19220691  0.67294135  0.37508450  1
  O2-  O203  1  0.19345353  0.67342462  0.87629699  1
  O2-  O204  1  0.52716587  0.00828867  0.37198208  1
  O2-  O205  1  0.52857028  0.00519175  0.87584643  1
  O2-  O206  1  0.52668327  0.33673669  0.37109512  1
  O2-  O207  1  0.52159088  0.33983263  0.87689959  1
  O2-  O208  1  0.52861713  0.67505651  0.37475062  1
  O2-  O209  1  0.52492750  0.67241156  0.87485405  1
  O2-  O210  1  0.85183201  0.00613482  0.37471678  1
  O2-  O211  1  0.85926498  0.00268419  0.87509919  1
  O2-  O212  1  0.86244743  0.33791218  0.37358376  1
  O2-  O213  1  0.85086228  0.34282624  0.87800420  1
  O2-  O214  1  0.86035813  0.67182118  0.37341646  1
  O2-  O215  1  0.85646784  0.67401158  0.87807624  1
  O2-  O216  1  0.23485448  0.09526002  0.01675227  1
  O2-  O217  1  0.24372666  0.09299958  0.52391251  1
  O2-  O218  1  0.24218906  0.42834722  0.02264657  1
  O2-  O219  1  0.23787861  0.42627242  0.51985033  1
  O2-  O220  1  0.23714628  0.75931674  0.02323190  1
  O2-  O221  1  0.23584449  0.76186514  0.52049821  1
  O2-  O222  1  0.57209914  0.09506754  0.02069172  1
  O2-  O223  1  0.56919883  0.09885447  0.51713109  1
  O2-  O224  1  0.56873671  0.43383181  0.01902765  1
  O2-  O225  1  0.57252429  0.42766528  0.51892496  1
  O2-  O226  1  0.57010370  0.76401209  0.01762246  1
  O2-  O227  1  0.57056519  0.76070660  0.52109458  1
  O2-  O228  1  0.90499675  0.09313653  0.02162219  1
  O2-  O229  1  0.90700474  0.09419632  0.51882513  1
  O2-  O230  1  0.90463001  0.42817350  0.02295456  1
  O2-  O231  1  0.90334264  0.42624796  0.52113777  1
  O2-  O232  1  0.90232452  0.76192474  0.02306579  1
  O2-  O233  1  0.90119646  0.76415356  0.51595743  1
  O2-  O234  1  0.26114500  0.25732520  0.22751258  1
  O2-  O235  1  0.26226081  0.26129899  0.72750260  1
  O2-  O236  1  0.26296579  0.59307744  0.22895954  1
  O2-  O237  1  0.26324274  0.59482628  0.73093998  1
  O2-  O238  1  0.26313350  0.92891799  0.22643223  1
  O2-  O239  1  0.26519526  0.92916235  0.73274616  1
  O2-  O240  1  0.59597629  0.26174876  0.22511135  1
  O2-  O241  1  0.59601628  0.26223058  0.73155700  1
  O2-  O242  1  0.59792339  0.59634243  0.22897520  1
  O2-  O243  1  0.59474359  0.59431254  0.72756547  1
  O2-  O244  1  0.59417141  0.92877360  0.22769434  1
  O2-  O245  1  0.59142559  0.92319838  0.73172491  1
  O2-  O246  1  0.92506583  0.26097465  0.22736933  1
  O2-  O247  1  0.92718968  0.26017061  0.72724594  1
  O2-  O248  1  0.92791565  0.59590947  0.22933094  1
  O2-  O249  1  0.92487176  0.59174630  0.73489568  1
  O2-  O250  1  0.92898538  0.92727445  0.22937027  1
  O2-  O251  1  0.92789277  0.92642181  0.72985288  1
  O2-  O252  1  0.09196364  0.23951534  0.26294365  1
  O2-  O253  1  0.09604070  0.23502706  0.76709513  1
  O2-  O254  1  0.09754820  0.57011280  0.26804567  1
  O2-  O255  1  0.09542224  0.57268134  0.77127149  1
  O2-  O256  1  0.09887441  0.90285024  0.26405270  1
  O2-  O257  1  0.09436200  0.90379557  0.77024469  1
  O2-  O258  1  0.43108623  0.23771283  0.26386657  1
  O2-  O259  1  0.42544088  0.23936381  0.77426218  1
  O2-  O260  1  0.42972304  0.57648962  0.27437617  1
  O2-  O261  1  0.42909222  0.57157649  0.77139120  1
  O2-  O262  1  0.42925288  0.90722778  0.27243711  1
  O2-  O263  1  0.42786117  0.90536493  0.77226391  1
  O2-  O264  1  0.76348986  0.23693172  0.26991547  1
  O2-  O265  1  0.76568643  0.23416416  0.76716429  1
  O2-  O266  1  0.76264658  0.56976251  0.27146993  1
  O2-  O267  1  0.75998418  0.57270602  0.76957607  1
  O2-  O268  1  0.75901238  0.90567963  0.27014406  1
  O2-  O269  1  0.76434142  0.90457311  0.76776784  1
  O2-  O270  1  0.07397215  0.07333394  0.48972808  1
  O2-  O271  1  0.07064429  0.06894529  0.97702172  1
  O2-  O272  1  0.06791663  0.40682153  0.47860381  1
  O2-  O273  1  0.07685938  0.40813857  0.98364425  1
  O2-  O274  1  0.07019130  0.73762644  0.47638529  1
  O2-  O275  1  0.06833711  0.74019915  0.97946022  1
  O2-  O276  1  0.40635689  0.07075676  0.48106209  1
  O2-  O277  1  0.40636126  0.07424146  0.97568107  1
  O2-  O278  1  0.40886913  0.40748081  0.48159598  1
  O2-  O279  1  0.40455780  0.40532442  0.97953315  1
  O2-  O280  1  0.40259142  0.74127417  0.47756689  1
  O2-  O281  1  0.40590544  0.73872608  0.98060846  1
  O2-  O282  1  0.73790459  0.07519163  0.47974371  1
  O2-  O283  1  0.73652842  0.06743466  0.98175891  1
  O2-  O284  1  0.73818663  0.40291346  0.47601338  1
  O2-  O285  1  0.74016242  0.41014608  0.98294093  1
  O2-  O286  1  0.73767346  0.73501691  0.47724060  1
  O2-  O287  1  0.73882150  0.73994885  0.97808816  1
  O2-  O288  1  0.09267174  0.23938355  0.48855169  1
  O2-  O289  1  0.09561082  0.23418778  0.98188268  1
  O2-  O290  1  0.09819856  0.56954696  0.48223568  1
  O2-  O291  1  0.09570655  0.57337293  0.97904152  1
  O2-  O292  1  0.09563391  0.90252339  0.48435600  1
  O2-  O293  1  0.09916749  0.90260069  0.98384902  1
  O2-  O294  1  0.42905718  0.23834906  0.48283687  1
  O2-  O295  1  0.42885559  0.23938902  0.97990961  1
  O2-  O296  1  0.42973029  0.57372829  0.47598272  1
  O2-  O297  1  0.42754880  0.57360719  0.97794448  1
  O2-  O298  1  0.42852651  0.90759223  0.47816755  1
  O2-  O299  1  0.43021248  0.90605936  0.97734724  1
  O2-  O300  1  0.76254611  0.23673460  0.47961955  1
  O2-  O301  1  0.76563939  0.23247674  0.98245873  1
  O2-  O302  1  0.76321718  0.56881971  0.48133023  1
  O2-  O303  1  0.76062482  0.57378132  0.97782697  1
  O2-  O304  1  0.76115623  0.90457885  0.47937071  1
  O2-  O305  1  0.76203101  0.90542820  0.98229076  1
  O2-  O306  1  0.07382386  0.07280284  0.26107438  1
  O2-  O307  1  0.07042037  0.07134626  0.77229722  1
  O2-  O308  1  0.06700452  0.40734236  0.26928728  1
  O2-  O309  1  0.07594574  0.40805977  0.76855361  1
  O2-  O310  1  0.06761515  0.73882593  0.27051620  1
  O2-  O311  1  0.07115533  0.73952810  0.77409128  1
  O2-  O312  1  0.40879450  0.07343923  0.27008054  1
  O2-  O313  1  0.40457929  0.07106779  0.77367414  1
  O2-  O314  1  0.40710258  0.40720303  0.26849636  1
  O2-  O315  1  0.40533398  0.40577097  0.76998016  1
  O2-  O316  1  0.40451140  0.74066597  0.27205963  1
  O2-  O317  1  0.40323711  0.73918355  0.77013704  1
  O2-  O318  1  0.73855634  0.07333774  0.26778025  1
  O2-  O319  1  0.73679580  0.07062386  0.77039842  1
  O2-  O320  1  0.73752215  0.40465081  0.27562491  1
  O2-  O321  1  0.74179581  0.40780182  0.76481324  1
  O2-  O322  1  0.73908495  0.73721289  0.27395838  1
  O2-  O323  1  0.73709691  0.73894485  0.76949574  1
  O2-  O324  1  0.24082949  0.09240806  0.22888957  1
  O2-  O325  1  0.23968153  0.09530011  0.72965064  1
  O2-  O326  1  0.23724135  0.42570226  0.22869293  1
  O2-  O327  1  0.24083552  0.42841203  0.72979806  1
  O2-  O328  1  0.23698180  0.75970021  0.22927622  1
  O2-  O329  1  0.23706801  0.76312264  0.72783801  1
  O2-  O330  1  0.57313788  0.09477075  0.22717315  1
  O2-  O331  1  0.56783162  0.09946033  0.73328378  1
  O2-  O332  1  0.57005592  0.43299685  0.23123323  1
  O2-  O333  1  0.57285725  0.42947760  0.73021668  1
  O2-  O334  1  0.56943941  0.76450819  0.23154604  1
  O2-  O335  1  0.57051066  0.75969303  0.72891251  1
  O2-  O336  1  0.90688996  0.09548505  0.23090726  1
  O2-  O337  1  0.90575032  0.09246283  0.72804738  1
  O2-  O338  1  0.90110719  0.42887131  0.22720120  1
  O2-  O339  1  0.90652806  0.42440984  0.72978811  1
  O2-  O340  1  0.90065066  0.76186773  0.22807020  1
  O2-  O341  1  0.90319915  0.76356947  0.73358090  1
  O2-  O342  1  0.26232650  0.26106913  0.02177099  1
  O2-  O343  1  0.26129229  0.25769149  0.52304041  1
  O2-  O344  1  0.26316538  0.59300615  0.02301340  1
  O2-  O345  1  0.26269034  0.59510442  0.51844753  1
  O2-  O346  1  0.26296830  0.92930559  0.02211292  1
  O2-  O347  1  0.26405666  0.92961260  0.51960174  1
  O2-  O348  1  0.59503187  0.26196605  0.02287498  1
  O2-  O349  1  0.59620960  0.26208753  0.51746996  1
  O2-  O350  1  0.59861481  0.59890265  0.02011390  1
  O2-  O351  1  0.59378637  0.59179001  0.52341690  1
  O2-  O352  1  0.59447814  0.92543686  0.02439010  1
  O2-  O353  1  0.59143221  0.92720867  0.51635184  1
  O2-  O354  1  0.92634373  0.26242850  0.02389129  1
  O2-  O355  1  0.92537250  0.25882114  0.52194768  1
  O2-  O356  1  0.92873917  0.59859763  0.01749754  1
  O2-  O357  1  0.92444591  0.59034276  0.51994446  1
  O2-  O358  1  0.92944379  0.92772696  0.01862196  1
  O2-  O359  1  0.92807913  0.92564189  0.52174064  1
