# generated using pymatgen
data_Sr7Ca15Pr50Mn72O216
_symmetry_space_group_name_H-M   'P 1'
_cell_length_a   16.56051560
_cell_length_b   16.60914380
_cell_length_c   15.59405917
_cell_angle_alpha   90.00232149
_cell_angle_beta   90.01026027
_cell_angle_gamma   90.00340434
_symmetry_Int_Tables_number   1
_chemical_formula_structural   Sr7Ca15Pr50Mn72O216
_chemical_formula_sum   'Sr7 Ca15 Pr50 Mn72 O216'
_cell_volume   4289.23922389
_cell_formula_units_Z   1
loop_
 _symmetry_equiv_pos_site_id
 _symmetry_equiv_pos_as_xyz
  1  'x, y, z'
loop_
 _atom_type_symbol
 _atom_type_oxidation_number
  Sr2+  2.0
  Ca2+  2.0
  Pr3+  3.0
  Mn3.30+  3.3
  O2-  -2.0
loop_
 _atom_site_type_symbol
 _atom_site_label
 _atom_site_symmetry_multiplicity
 _atom_site_fract_x
 _atom_site_fract_y
 _atom_site_fract_z
 _atom_site_occupancy
  Sr2+  Sr0  1  0.33639762  0.32344050  0.37826509  1
  Sr2+  Sr1  1  -0.00253525  0.01064029  0.12416364  1
  Sr2+  Sr2  1  -0.00143134  0.34138079  0.12438581  1
  Sr2+  Sr3  1  0.66595017  0.67372387  0.62459184  1
  Sr2+  Sr4  1  0.32983161  0.67439579  0.62575400  1
  Sr2+  Sr5  1  0.99999256  0.32334319  0.87689152  1
  Sr2+  Sr6  1  0.83174789  0.82430716  0.37463456  1
  Ca2+  Ca7  1  0.83700997  0.51495668  0.62299917  1
  Ca2+  Ca8  1  0.50276693  0.85041207  0.12349503  1
  Ca2+  Ca9  1  0.16608337  0.82152576  0.87438870  1
  Ca2+  Ca10  1  0.49481019  0.14856948  0.87398921  1
  Ca2+  Ca11  1  0.33006700  0.01385335  0.62804464  1
  Ca2+  Ca12  1  0.82676299  0.48153082  0.37670072  1
  Ca2+  Ca13  1  0.83320675  0.15419772  0.87456736  1
  Ca2+  Ca14  1  0.83063074  0.15512062  0.37554363  1
  Ca2+  Ca15  1  0.50550280  0.51065585  0.12702292  1
  Ca2+  Ca16  1  0.67238813  0.31700415  0.37475394  1
  Ca2+  Ca17  1  0.66252651  0.34847975  0.12772690  1
  Ca2+  Ca18  1  0.33783182  0.98575818  0.87273778  1
  Ca2+  Ca19  1  0.16976086  0.51344618  0.62515941  1
  Ca2+  Ca20  1  0.32839162  0.34999921  0.62407295  1
  Ca2+  Ca21  1  0.83717569  0.18032483  0.62565135  1
  Pr3+  Pr22  1  0.33391102  0.68014153  0.12480475  1
  Pr3+  Pr23  1  0.16762862  0.17986933  0.12338380  1
  Pr3+  Pr24  1  0.16425529  0.48662447  0.37715467  1
  Pr3+  Pr25  1  0.49892020  0.48556601  0.37613162  1
  Pr3+  Pr26  1  0.16455175  0.15584349  0.87433790  1
  Pr3+  Pr27  1  0.50030577  0.84522517  0.62586528  1
  Pr3+  Pr28  1  0.50046412  0.51161582  0.62361744  1
  Pr3+  Pr29  1  0.49897340  0.15699332  0.37602680  1
  Pr3+  Pr30  1  0.16333542  0.48794539  0.87229167  1
  Pr3+  Pr31  1  0.65998990  0.67945561  0.12575281  1
  Pr3+  Pr32  1  1.00373877  0.98846580  0.87580506  1
  Pr3+  Pr33  1  0.67050793  0.98847105  0.37534599  1
  Pr3+  Pr34  1  0.66291340  0.01300151  0.12526484  1
  Pr3+  Pr35  1  0.33638188  0.98935426  0.37680265  1
  Pr3+  Pr36  1  0.49774598  0.82071948  0.37301286  1
  Pr3+  Pr37  1  0.49812934  0.48807247  0.87407129  1
  Pr3+  Pr38  1  0.16488808  0.15612184  0.37531097  1
  Pr3+  Pr39  1  0.33307281  0.34618168  0.12588239  1
  Pr3+  Pr40  1  0.16735651  0.51047802  0.12433736  1
  Pr3+  Pr41  1  0.83611568  0.84753951  0.12545741  1
  Pr3+  Pr42  1  -0.00573462  0.34897867  0.62549625  1
  Pr3+  Pr43  1  0.33616965  0.65309916  0.37634309  1
  Pr3+  Pr44  1  1.00337049  0.65441938  0.87540176  1
  Pr3+  Pr45  1  0.66532958  0.01226572  0.62487221  1
  Pr3+  Pr46  1  1.00034312  0.99036608  0.37428505  1
  Pr3+  Pr47  1  0.99949421  0.65251212  0.37468491  1
  Pr3+  Pr48  1  0.17173401  0.18134101  0.62600285  1
  Pr3+  Pr49  1  0.49539007  0.82181215  0.87670046  1
  Pr3+  Pr50  1  0.83034340  0.82021703  0.87541729  1
  Pr3+  Pr51  1  0.83510626  0.50774504  0.12605247  1
  Pr3+  Pr52  1  0.16836551  0.84892977  0.12313930  1
  Pr3+  Pr53  1  0.83065393  0.48493915  0.87286357  1
  Pr3+  Pr54  1  0.99960262  0.32006066  0.37381562  1
  Pr3+  Pr55  1  0.33381375  0.65486245  0.87362230  1
  Pr3+  Pr56  1  0.33251392  0.01392621  0.12263927  1
  Pr3+  Pr57  1  -0.00468836  0.67857499  0.12502598  1
  Pr3+  Pr58  1  0.66841014  0.34443827  0.62346000  1
  Pr3+  Pr59  1  0.50096660  0.17876549  0.62639676  1
  Pr3+  Pr60  1  0.83542052  0.17943283  0.12529936  1
  Pr3+  Pr61  1  0.66759284  0.98831418  0.87465163  1
  Pr3+  Pr62  1  0.67121790  0.31652249  0.87509879  1
  Pr3+  Pr63  1  0.67299024  0.65059048  0.37625105  1
  Pr3+  Pr64  1  0.17424906  0.84747683  0.62631053  1
  Pr3+  Pr65  1  -0.00197288  0.67797207  0.62500684  1
  Pr3+  Pr66  1  0.66882474  0.65144792  0.87394291  1
  Pr3+  Pr67  1  0.83522349  0.84430326  0.62414006  1
  Pr3+  Pr68  1  0.50711521  0.18236249  0.12381107  1
  Pr3+  Pr69  1  -0.00358268  0.01546626  0.62611146  1
  Pr3+  Pr70  1  0.16194632  0.82076429  0.37452313  1
  Pr3+  Pr71  1  0.33947701  0.31931575  0.87205718  1
  Mn3.30+  Mn72  1  0.16943688  0.00081119  -0.00262149  1
  Mn3.30+  Mn73  1  0.16794603  0.00120145  0.50158285  1
  Mn3.30+  Mn74  1  0.16856333  0.33391998  -0.00062922  1
  Mn3.30+  Mn75  1  0.16666787  0.33417300  0.50133727  1
  Mn3.30+  Mn76  1  0.16672480  0.66887124  0.00056154  1
  Mn3.30+  Mn77  1  0.16640795  0.66513534  0.49966733  1
  Mn3.30+  Mn78  1  0.49822229  0.00078403  -0.00130468  1
  Mn3.30+  Mn79  1  0.49899840  0.00075151  0.50196257  1
  Mn3.30+  Mn80  1  0.50302099  0.33346136  -0.00101429  1
  Mn3.30+  Mn81  1  0.50073726  0.33268223  0.50183880  1
  Mn3.30+  Mn82  1  0.49992120  0.66578153  0.00131134  1
  Mn3.30+  Mn83  1  0.50136925  0.66700262  0.50014729  1
  Mn3.30+  Mn84  1  0.83295513  0.00158074  -0.00183139  1
  Mn3.30+  Mn85  1  0.83311746  0.00306180  0.50111879  1
  Mn3.30+  Mn86  1  0.83083499  0.33101839  0.00040866  1
  Mn3.30+  Mn87  1  0.83224895  0.33229694  0.49930430  1
  Mn3.30+  Mn88  1  0.83118427  0.66437550  0.00057620  1
  Mn3.30+  Mn89  1  0.83359536  0.66538526  0.49972890  1
  Mn3.30+  Mn90  1  -0.00267556  0.16638744  0.25002938  1
  Mn3.30+  Mn91  1  -0.00102633  0.16846275  0.75106443  1
  Mn3.30+  Mn92  1  -0.00325892  0.49785755  0.25151488  1
  Mn3.30+  Mn93  1  -0.00018413  0.50041720  0.74782885  1
  Mn3.30+  Mn94  1  -0.00144791  0.83382668  0.25030301  1
  Mn3.30+  Mn95  1  0.00281650  0.83401634  0.75048677  1
  Mn3.30+  Mn96  1  0.33574784  0.16825319  0.25005214  1
  Mn3.30+  Mn97  1  0.33482696  0.16542042  0.74959898  1
  Mn3.30+  Mn98  1  0.33634684  0.49985122  0.24873670  1
  Mn3.30+  Mn99  1  0.33044408  0.49914669  0.74914247  1
  Mn3.30+  Mn100  1  0.33378550  0.83450048  0.24854908  1
  Mn3.30+  Mn101  1  0.33198937  0.83462918  0.75147062  1
  Mn3.30+  Mn102  1  0.66860601  0.16962021  0.25136800  1
  Mn3.30+  Mn103  1  0.66785957  0.16542379  0.75032382  1
  Mn3.30+  Mn104  1  0.66736521  0.49618283  0.25101487  1
  Mn3.30+  Mn105  1  0.66725599  0.49810393  0.74750202  1
  Mn3.30+  Mn106  1  0.66489208  0.83316043  0.24899420  1
  Mn3.30+  Mn107  1  0.66570481  0.83247558  0.74952289  1
  Mn3.30+  Mn108  1  0.16765384  0.00195202  0.24863067  1
  Mn3.30+  Mn109  1  0.16955105  -0.00004732  0.75200635  1
  Mn3.30+  Mn110  1  0.16728424  0.33352339  0.25044553  1
  Mn3.30+  Mn111  1  0.16749737  0.33477588  0.74838114  1
  Mn3.30+  Mn112  1  0.16642565  0.66632568  0.24898216  1
  Mn3.30+  Mn113  1  0.16651017  0.66775270  0.75036591  1
  Mn3.30+  Mn114  1  0.50017880  0.00079643  0.24971818  1
  Mn3.30+  Mn115  1  0.49667083  0.00098588  0.74964353  1
  Mn3.30+  Mn116  1  0.50375211  0.33449133  0.25082511  1
  Mn3.30+  Mn117  1  0.50009686  0.33183968  0.74834531  1
  Mn3.30+  Mn118  1  0.50130276  0.66558872  0.24915308  1
  Mn3.30+  Mn119  1  0.49946941  0.66698958  0.74933900  1
  Mn3.30+  Mn120  1  0.83213633  0.00183287  0.25067523  1
  Mn3.30+  Mn121  1  0.83380317  0.00236640  0.75064279  1
  Mn3.30+  Mn122  1  0.82969443  0.33253014  0.25112960  1
  Mn3.30+  Mn123  1  0.83348235  0.33035822  0.74923692  1
  Mn3.30+  Mn124  1  0.83076354  0.66418782  0.25059389  1
  Mn3.30+  Mn125  1  0.83402790  0.66534653  0.74857749  1
  Mn3.30+  Mn126  1  -0.00165371  0.16670495  -0.00146426  1
  Mn3.30+  Mn127  1  -0.00215431  0.16767920  0.50048174  1
  Mn3.30+  Mn128  1  -0.00054462  0.49875918  0.00079028  1
  Mn3.30+  Mn129  1  -0.00308214  0.49958151  0.49940271  1
  Mn3.30+  Mn130  1  0.00059445  0.83369331  -0.00124754  1
  Mn3.30+  Mn131  1  0.00141630  0.83421644  0.50065058  1
  Mn3.30+  Mn132  1  0.33694858  0.16638847  -0.00230080  1
  Mn3.30+  Mn133  1  0.33347357  0.16739912  0.50201044  1
  Mn3.30+  Mn134  1  0.33551610  0.50024604  0.00102757  1
  Mn3.30+  Mn135  1  0.33134514  0.49908686  0.50108626  1
  Mn3.30+  Mn136  1  0.33336736  0.83515234  -0.00062604  1
  Mn3.30+  Mn137  1  0.33266319  0.83392043  0.50059485  1
  Mn3.30+  Mn138  1  0.66638943  0.16664291  -0.00264130  1
  Mn3.30+  Mn139  1  0.67021549  0.16816943  0.50152911  1
  Mn3.30+  Mn140  1  0.66520553  0.49725007  0.00164241  1
  Mn3.30+  Mn141  1  0.66973994  0.49710627  0.50024579  1
  Mn3.30+  Mn142  1  0.66429623  0.83327161  0.00039953  1
  Mn3.30+  Mn143  1  0.66683794  0.83221798  0.50077124  1
  O2-  O144  1  0.02322026  0.16476580  0.12450017  1
  O2-  O145  1  0.02730160  0.16240030  0.62542110  1
  O2-  O146  1  0.02294313  0.49895786  0.12621146  1
  O2-  O147  1  0.02717514  0.49725739  0.62307594  1
  O2-  O148  1  0.02318762  0.82839920  0.12473576  1
  O2-  O149  1  0.02915718  0.82828977  0.62606204  1
  O2-  O150  1  0.36219376  0.16163782  0.12234464  1
  O2-  O151  1  0.35778192  0.15668753  0.62633779  1
  O2-  O152  1  0.36269280  0.49470938  0.12504237  1
  O2-  O153  1  0.35599909  0.49739807  0.62657006  1
  O2-  O154  1  0.36139864  0.82785075  0.12567028  1
  O2-  O155  1  0.35678758  0.82717869  0.62556906  1
  O2-  O156  1  0.69119015  0.15913221  0.12311483  1
  O2-  O157  1  0.69540592  0.15949121  0.62588985  1
  O2-  O158  1  0.69213152  0.49378289  0.12602808  1
  O2-  O159  1  0.69512680  0.49283829  0.62413231  1
  O2-  O160  1  0.69221585  0.82859622  0.12311512  1
  O2-  O161  1  0.69097865  0.83163353  0.62616441  1
  O2-  O162  1  0.14965298  0.32948425  0.12443448  1
  O2-  O163  1  0.13840903  0.32707964  0.62328015  1
  O2-  O164  1  0.13969736  0.65933706  0.12605299  1
  O2-  O165  1  0.14232864  0.66100108  0.62426073  1
  O2-  O166  1  0.14701768  0.99748489  0.12355164  1
  O2-  O167  1  0.14040965  0.99464013  0.62829894  1
  O2-  O168  1  0.47577417  0.32678632  0.12217820  1
  O2-  O169  1  0.47181160  0.32661916  0.62632920  1
  O2-  O170  1  0.47670502  0.65469705  0.12520457  1
  O2-  O171  1  0.47991183  0.66140651  0.62481066  1
  O2-  O172  1  0.47579128  0.99684752  0.12401296  1
  O2-  O173  1  0.47131562  0.99276491  0.62476037  1
  O2-  O174  1  0.80430600  0.32647352  0.12508659  1
  O2-  O175  1  0.81077763  0.32277483  0.62446195  1
  O2-  O176  1  0.80427920  0.65564193  0.12465471  1
  O2-  O177  1  0.81591017  0.66300264  0.62529454  1
  O2-  O178  1  0.80780364  0.99497358  0.12226419  1
  O2-  O179  1  0.80988438  0.99123737  0.62639531  1
  O2-  O180  1  0.30962912  0.16813329  0.37675407  1
  O2-  O181  1  0.30783636  0.17517985  0.87373646  1
  O2-  O182  1  0.30919741  0.50450118  0.37322081  1
  O2-  O183  1  0.30796125  0.50417954  0.87556853  1
  O2-  O184  1  0.30529228  0.84144171  0.37285013  1
  O2-  O185  1  0.30735011  0.84015844  0.87645456  1
  O2-  O186  1  0.64156312  0.17092110  0.37753899  1
  O2-  O187  1  0.63642432  0.16992179  0.87374676  1
  O2-  O188  1  0.64161165  0.50460071  0.37554354  1
  O2-  O189  1  0.64277104  0.50290923  0.87411132  1
  O2-  O190  1  0.64200674  0.83909476  0.37469022  1
  O2-  O191  1  0.64059389  0.83802897  0.87617933  1
  O2-  O192  1  0.97437982  0.17028686  0.37574210  1
  O2-  O193  1  0.97635363  0.16757436  0.87415944  1
  O2-  O194  1  0.96945942  0.50533075  0.37468877  1
  O2-  O195  1  0.97516933  0.50635446  0.87565830  1
  O2-  O196  1  0.98256415  0.84102174  0.37578299  1
  O2-  O197  1  0.97437808  0.83778295  0.87407932  1
  O2-  O198  1  0.19269146  0.00724143  0.37337892  1
  O2-  O199  1  0.19662098  0.00986225  0.87471211  1
  O2-  O200  1  0.18665915  0.33728464  0.37671207  1
  O2-  O201  1  0.19497486  0.33948163  0.87528392  1
  O2-  O202  1  0.19199265  0.67302264  0.37116539  1
  O2-  O203  1  0.19026872  0.67480156  0.87863906  1
  O2-  O204  1  0.52596063  0.00703784  0.37699646  1
  O2-  O205  1  0.52464537  0.00300769  0.87406615  1
  O2-  O206  1  0.52793236  0.33762196  0.37912498  1
  O2-  O207  1  0.52729369  0.34217191  0.87288716  1
  O2-  O208  1  0.52700075  0.67338583  0.37378699  1
  O2-  O209  1  0.52445815  0.67270215  0.87601582  1
  O2-  O210  1  0.85631187  0.00731133  0.37843595  1
  O2-  O211  1  0.85845595  0.00550665  0.87342553  1
  O2-  O212  1  0.85795137  0.34031344  0.37647004  1
  O2-  O213  1  0.85088617  0.33977754  0.87354068  1
  O2-  O214  1  0.85677947  0.67213618  0.37427824  1
  O2-  O215  1  0.85866320  0.67134733  0.87564444  1
  O2-  O216  1  0.24007251  0.09714727  0.02090053  1
  O2-  O217  1  0.23508921  0.09629232  0.51775812  1
  O2-  O218  1  0.24289031  0.42865935  0.02244544  1
  O2-  O219  1  0.23376537  0.42961380  0.51816965  1
  O2-  O220  1  0.23916550  0.76103775  0.02511048  1
  O2-  O221  1  0.23621158  0.76622472  0.51467225  1
  O2-  O222  1  0.57213211  0.09463245  0.02064467  1
  O2-  O223  1  0.57265418  0.09408302  0.52282232  1
  O2-  O224  1  0.56830448  0.43254737  0.01804612  1
  O2-  O225  1  0.57280877  0.42622985  0.52399763  1
  O2-  O226  1  0.56951293  0.76175650  0.02260443  1
  O2-  O227  1  0.56910036  0.76313792  0.51683469  1
  O2-  O228  1  0.90224284  0.09282073  0.01755779  1
  O2-  O229  1  0.90611019  0.09539939  0.52502699  1
  O2-  O230  1  0.90063412  0.42697054  0.01577274  1
  O2-  O231  1  0.90362845  0.42853694  0.52432636  1
  O2-  O232  1  0.90044130  0.75786833  0.02140161  1
  O2-  O233  1  0.90959448  0.76216664  0.52193663  1
  O2-  O234  1  0.26317212  0.25797490  0.22837226  1
  O2-  O235  1  0.26532251  0.26306853  0.72816707  1
  O2-  O236  1  0.26256815  0.59386197  0.22759932  1
  O2-  O237  1  0.25876423  0.59510018  0.73902328  1
  O2-  O238  1  0.26299289  0.92872207  0.22780061  1
  O2-  O239  1  0.26207669  0.92833158  0.72671311  1
  O2-  O240  1  0.59718760  0.26182144  0.22813991  1
  O2-  O241  1  0.59723609  0.25941727  0.72716602  1
  O2-  O242  1  0.60001893  0.59495685  0.23380330  1
  O2-  O243  1  0.59221880  0.58912762  0.73419017  1
  O2-  O244  1  0.59287864  0.93042847  0.23190967  1
  O2-  O245  1  0.59236572  0.92843249  0.72949153  1
  O2-  O246  1  0.92462154  0.26028353  0.23337181  1
  O2-  O247  1  0.93077888  0.26181744  0.73000109  1
  O2-  O248  1  0.92737532  0.59392206  0.22908740  1
  O2-  O249  1  0.93122495  0.59647174  0.73295436  1
  O2-  O250  1  0.92389591  0.92522988  0.23432862  1
  O2-  O251  1  0.93081336  0.92739540  0.73022603  1
  O2-  O252  1  0.09202349  0.23849882  0.26860616  1
  O2-  O253  1  0.09871146  0.23760205  0.76726769  1
  O2-  O254  1  0.09305879  0.57142972  0.27139363  1
  O2-  O255  1  0.09305459  0.57536771  0.77324616  1
  O2-  O256  1  0.09736763  0.90911367  0.26782786  1
  O2-  O257  1  0.09646299  0.90575426  0.77445395  1
  O2-  O258  1  0.43344167  0.23763547  0.26675395  1
  O2-  O259  1  0.43073781  0.23590579  0.77138026  1
  O2-  O260  1  0.42734353  0.57369950  0.27492956  1
  O2-  O261  1  0.42531200  0.57312512  0.76974147  1
  O2-  O262  1  0.42541554  0.90722164  0.27311838  1
  O2-  O263  1  0.42977570  0.90320654  0.76879982  1
  O2-  O264  1  0.76465195  0.23393093  0.26983203  1
  O2-  O265  1  0.75926084  0.23534403  0.77345249  1
  O2-  O266  1  0.76272380  0.56711064  0.27245619  1
  O2-  O267  1  0.75886149  0.57152001  0.77118655  1
  O2-  O268  1  0.75747689  0.90796697  0.26591355  1
  O2-  O269  1  0.76094443  0.90461236  0.77098718  1
  O2-  O270  1  0.07007328  0.07233435  0.48012652  1
  O2-  O271  1  0.07588131  0.07350828  0.97750172  1
  O2-  O272  1  0.06751866  0.40576307  0.47835361  1
  O2-  O273  1  0.08035570  0.41062450  0.98143193  1
  O2-  O274  1  0.07306654  0.73711561  0.47854901  1
  O2-  O275  1  0.06970300  0.73772394  0.98413144  1
  O2-  O276  1  0.40803080  0.07328405  0.47832537  1
  O2-  O277  1  0.40216292  0.06853166  0.97970133  1
  O2-  O278  1  0.40990943  0.41080803  0.48379070  1
  O2-  O279  1  0.40748973  0.40241242  0.97807874  1
  O2-  O280  1  0.40479570  0.74221407  0.47510646  1
  O2-  O281  1  0.40208096  0.73946532  0.98035969  1
  O2-  O282  1  0.73540767  0.07026850  0.48318698  1
  O2-  O283  1  0.73499029  0.06928026  0.98058612  1
  O2-  O284  1  0.73504790  0.39851761  0.48207787  1
  O2-  O285  1  0.73686505  0.40477456  0.97916670  1
  O2-  O286  1  0.73941870  0.73702667  0.48254769  1
  O2-  O287  1  0.73784403  0.73592637  0.97945397  1
  O2-  O288  1  0.09452697  0.23797173  0.47913993  1
  O2-  O289  1  0.09893730  0.23908552  0.98399381  1
  O2-  O290  1  0.09048412  0.57172139  0.47429957  1
  O2-  O291  1  0.09613349  0.57518795  0.97962332  1
  O2-  O292  1  0.09718094  0.90704256  0.48072824  1
  O2-  O293  1  0.09889222  0.90798693  0.97835749  1
  O2-  O294  1  0.43213479  0.23694827  0.48395968  1
  O2-  O295  1  0.43159939  0.23617827  0.97672198  1
  O2-  O296  1  0.42772577  0.57487315  0.47981957  1
  O2-  O297  1  0.42561132  0.57405334  0.97508682  1
  O2-  O298  1  0.42752924  0.90496973  0.47750136  1
  O2-  O299  1  0.42828655  0.90521735  0.98116653  1
  O2-  O300  1  0.76446822  0.23658892  0.47951695  1
  O2-  O301  1  0.76074134  0.23488644  0.97641273  1
  O2-  O302  1  0.76052279  0.56903071  0.47851800  1
  O2-  O303  1  0.76185587  0.56961579  0.97782020  1
  O2-  O304  1  0.75833066  0.90854698  0.48380100  1
  O2-  O305  1  0.76079059  0.90508310  0.97851885  1
  O2-  O306  1  0.07379349  0.07477419  0.27265219  1
  O2-  O307  1  0.07194303  0.07167170  0.77060766  1
  O2-  O308  1  0.07140941  0.40904788  0.27230642  1
  O2-  O309  1  0.07203402  0.40901621  0.76855258  1
  O2-  O310  1  0.07068086  0.73924076  0.26941279  1
  O2-  O311  1  0.06984396  0.73759371  0.76875673  1
  O2-  O312  1  0.40586338  0.07262451  0.27002047  1
  O2-  O313  1  0.40376056  0.07010768  0.77101960  1
  O2-  O314  1  0.40845691  0.40669374  0.26866422  1
  O2-  O315  1  0.40609610  0.40804520  0.77105091  1
  O2-  O316  1  0.40247242  0.73918045  0.27052243  1
  O2-  O317  1  0.40417542  0.74180655  0.77386469  1
  O2-  O318  1  0.73512390  0.07100434  0.26731712  1
  O2-  O319  1  0.73435190  0.06928242  0.76840654  1
  O2-  O320  1  0.73485926  0.40103197  0.27074052  1
  O2-  O321  1  0.73611238  0.40279675  0.76787725  1
  O2-  O322  1  0.73468544  0.73372941  0.26494845  1
  O2-  O323  1  0.74125958  0.73924797  0.77268030  1
  O2-  O324  1  0.23964647  0.09507179  0.22843018  1
  O2-  O325  1  0.23602896  0.09795569  0.73195781  1
  O2-  O326  1  0.24151843  0.42945263  0.22983988  1
  O2-  O327  1  0.23569778  0.43057680  0.73040017  1
  O2-  O328  1  0.23852671  0.76345300  0.22707197  1
  O2-  O329  1  0.23615645  0.76323947  0.73370185  1
  O2-  O330  1  0.57300981  0.09723136  0.23069182  1
  O2-  O331  1  0.57225931  0.09209169  0.72607649  1
  O2-  O332  1  0.56932902  0.43207577  0.23257281  1
  O2-  O333  1  0.57200478  0.42685531  0.72637690  1
  O2-  O334  1  0.56881879  0.76326598  0.22736990  1
  O2-  O335  1  0.56992280  0.76306987  0.73336391  1
  O2-  O336  1  0.90447901  0.09461393  0.23150205  1
  O2-  O337  1  0.90724592  0.09483825  0.72716301  1
  O2-  O338  1  0.90214538  0.42647980  0.23092300  1
  O2-  O339  1  0.90476034  0.43101147  0.72909673  1
  O2-  O340  1  0.90269611  0.75649167  0.22584858  1
  O2-  O341  1  0.90749992  0.76368728  0.73031092  1
  O2-  O342  1  0.26562243  0.26179174  0.01916984  1
  O2-  O343  1  0.26078796  0.26129103  0.52392689  1
  O2-  O344  1  0.25985913  0.59614209  0.02176947  1
  O2-  O345  1  0.25879947  0.59475235  0.51177575  1
  O2-  O346  1  0.26205555  0.92707314  0.02394311  1
  O2-  O347  1  0.26424193  0.93037317  0.52106206  1
  O2-  O348  1  0.59785358  0.26469227  0.02032200  1
  O2-  O349  1  0.59510058  0.25788513  0.52561497  1
  O2-  O350  1  0.59930772  0.59529997  0.01539222  1
  O2-  O351  1  0.59338372  0.58872369  0.51612330  1
  O2-  O352  1  0.59394240  0.93095030  0.01800925  1
  O2-  O353  1  0.59145157  0.92807515  0.52120408  1
  O2-  O354  1  0.92154693  0.25831159  0.01951554  1
  O2-  O355  1  0.93221122  0.26560503  0.51608926  1
  O2-  O356  1  0.92579215  0.59479659  0.02063085  1
  O2-  O357  1  0.93129802  0.59705010  0.51731639  1
  O2-  O358  1  0.92453379  0.92434692  0.01583613  1
  O2-  O359  1  0.92827698  0.92960051  0.52031718  1
