# generated using pymatgen
data_Sr7Ca15Pr50Mn72O216
_symmetry_space_group_name_H-M   'P 1'
_cell_length_a   16.55800673
_cell_length_b   16.60541135
_cell_length_c   15.59396256
_cell_angle_alpha   89.99874460
_cell_angle_beta   89.99796765
_cell_angle_gamma   89.99814817
_symmetry_Int_Tables_number   1
_chemical_formula_structural   Sr7Ca15Pr50Mn72O216
_chemical_formula_sum   'Sr7 Ca15 Pr50 Mn72 O216'
_cell_volume   4287.59918648
_cell_formula_units_Z   1
loop_
 _symmetry_equiv_pos_site_id
 _symmetry_equiv_pos_as_xyz
  1  'x, y, z'
loop_
 _atom_type_symbol
 _atom_type_oxidation_number
  Sr2+  2.0
  Ca2+  2.0
  Pr3+  3.0
  Mn3.30+  3.3
  O2-  -2.0
loop_
 _atom_site_type_symbol
 _atom_site_label
 _atom_site_symmetry_multiplicity
 _atom_site_fract_x
 _atom_site_fract_y
 _atom_site_fract_z
 _atom_site_occupancy
  Sr2+  Sr0  1  0.50025883  0.48899761  0.37444823  1
  Sr2+  Sr1  1  0.83851844  0.84396332  0.12540901  1
  Sr2+  Sr2  1  0.33342828  0.32283673  0.87553556  1
  Sr2+  Sr3  1  0.66563251  0.34443133  0.12397212  1
  Sr2+  Sr4  1  1.00104761  0.32399978  0.37220418  1
  Sr2+  Sr5  1  0.16735791  0.15777287  0.87678288  1
  Sr2+  Sr6  1  -0.00389120  0.67591501  0.12487797  1
  Ca2+  Ca7  1  0.50513513  0.18236247  0.62448767  1
  Ca2+  Ca8  1  0.16141478  0.81589286  0.37438195  1
  Ca2+  Ca9  1  0.49584567  0.48150323  0.87617361  1
  Ca2+  Ca10  1  -0.00090720  0.01630699  0.62430555  1
  Ca2+  Ca11  1  0.16639201  0.18078718  0.12534890  1
  Ca2+  Ca12  1  0.49749651  0.81756116  0.37542426  1
  Ca2+  Ca13  1  0.83782061  0.51374152  0.12541028  1
  Ca2+  Ca14  1  0.49678785  0.81985786  0.87466860  1
  Ca2+  Ca15  1  -0.00064286  0.01249652  0.12524450  1
  Ca2+  Ca16  1  0.67032114  0.31934889  0.37261409  1
  Ca2+  Ca17  1  -0.00681247  0.34961240  0.12555506  1
  Ca2+  Ca18  1  0.66732507  0.31997159  0.87735751  1
  Ca2+  Ca19  1  0.49953787  0.15656504  0.37325572  1
  Ca2+  Ca20  1  1.00127617  0.65371138  0.37073951  1
  Ca2+  Ca21  1  1.00200134  0.65293551  0.87962048  1
  Pr3+  Pr22  1  0.33888499  0.65147000  0.87494024  1
  Pr3+  Pr23  1  1.00490580  0.98733914  0.37458679  1
  Pr3+  Pr24  1  -0.00363559  0.34591215  0.62478708  1
  Pr3+  Pr25  1  0.66606427  0.65468578  0.87559606  1
  Pr3+  Pr26  1  0.83135443  0.15628380  0.37401898  1
  Pr3+  Pr27  1  0.33811584  0.98590389  0.37440896  1
  Pr3+  Pr28  1  0.50308064  0.51052570  0.12353008  1
  Pr3+  Pr29  1  0.66889554  0.98792500  0.37443836  1
  Pr3+  Pr30  1  0.83366397  0.82078490  0.87658667  1
  Pr3+  Pr31  1  0.83823018  0.85043983  0.62433056  1
  Pr3+  Pr32  1  0.16145051  0.48868867  0.37361097  1
  Pr3+  Pr33  1  0.66794665  0.65467576  0.37458416  1
  Pr3+  Pr34  1  0.83089049  0.15559535  0.87649575  1
  Pr3+  Pr35  1  0.66823365  0.67428328  0.12490224  1
  Pr3+  Pr36  1  0.17065574  0.84858475  0.62277374  1
  Pr3+  Pr37  1  0.16805193  0.17807292  0.62493328  1
  Pr3+  Pr38  1  0.33419029  0.34338708  0.62596729  1
  Pr3+  Pr39  1  0.33109063  0.34391028  0.12374848  1
  Pr3+  Pr40  1  1.00449483  0.31890600  0.87790933  1
  Pr3+  Pr41  1  0.16486870  0.51204277  0.12576967  1
  Pr3+  Pr42  1  0.50209933  0.51100511  0.62637813  1
  Pr3+  Pr43  1  0.83011742  0.48742051  0.87821723  1
  Pr3+  Pr44  1  0.32818157  0.67843081  0.12601163  1
  Pr3+  Pr45  1  0.49620585  0.15756036  0.87625283  1
  Pr3+  Pr46  1  0.33390078  0.01457456  0.62407278  1
  Pr3+  Pr47  1  0.66409062  0.67912883  0.62494350  1
  Pr3+  Pr48  1  0.33550878  0.65343212  0.37516299  1
  Pr3+  Pr49  1  0.82840537  0.48744410  0.37147368  1
  Pr3+  Pr50  1  0.16876426  0.51196228  0.62448607  1
  Pr3+  Pr51  1  0.66205694  0.34415771  0.62543631  1
  Pr3+  Pr52  1  0.33626002  0.98840171  0.87567309  1
  Pr3+  Pr53  1  0.83815007  0.18076854  0.12552826  1
  Pr3+  Pr54  1  0.83451128  0.51211438  0.62539186  1
  Pr3+  Pr55  1  0.32878981  0.01533531  0.12558434  1
  Pr3+  Pr56  1  0.33782090  0.31954066  0.37365116  1
  Pr3+  Pr57  1  0.50480195  0.84316634  0.12635240  1
  Pr3+  Pr58  1  0.66609043  0.01229122  0.12585010  1
  Pr3+  Pr59  1  0.16282378  0.81960959  0.87499636  1
  Pr3+  Pr60  1  0.16319254  0.15568220  0.37327408  1
  Pr3+  Pr61  1  0.16776145  0.84463145  0.12687446  1
  Pr3+  Pr62  1  0.83556421  0.18074707  0.62456151  1
  Pr3+  Pr63  1  0.66171637  0.01715288  0.62456892  1
  Pr3+  Pr64  1  1.00516284  0.99080377  0.87501296  1
  Pr3+  Pr65  1  0.50367127  0.18058229  0.12608350  1
  Pr3+  Pr66  1  0.83300049  0.81961258  0.37365496  1
  Pr3+  Pr67  1  0.32890744  0.67965049  0.62395264  1
  Pr3+  Pr68  1  0.16174239  0.48710245  0.87675058  1
  Pr3+  Pr69  1  0.66975161  0.98780177  0.87570428  1
  Pr3+  Pr70  1  -0.00329083  0.67979752  0.62502841  1
  Pr3+  Pr71  1  0.50279520  0.84606113  0.62370652  1
  Mn3.30+  Mn72  1  0.16597147  0.00160188  0.00200242  1
  Mn3.30+  Mn73  1  0.16767274  -0.00019043  0.49907071  1
  Mn3.30+  Mn74  1  0.16361323  0.33186429  0.00350206  1
  Mn3.30+  Mn75  1  0.16653093  0.33334401  0.49925503  1
  Mn3.30+  Mn76  1  0.16515365  0.66689337  -0.00038790  1
  Mn3.30+  Mn77  1  0.16325550  0.66785472  0.49838985  1
  Mn3.30+  Mn78  1  0.50020369  -0.00195431  0.00094539  1
  Mn3.30+  Mn79  1  0.50060596  0.00185862  0.49767680  1
  Mn3.30+  Mn80  1  0.50060245  0.33385850  -0.00103672  1
  Mn3.30+  Mn81  1  0.50145778  0.33092651  0.49721661  1
  Mn3.30+  Mn82  1  0.49891748  0.66621750  -0.00119234  1
  Mn3.30+  Mn83  1  0.49886936  0.66652517  0.49996621  1
  Mn3.30+  Mn84  1  0.83690762  -0.00001102  0.00149489  1
  Mn3.30+  Mn85  1  0.83527756  0.00160585  0.50008834  1
  Mn3.30+  Mn86  1  0.83356338  0.33475816  0.00136776  1
  Mn3.30+  Mn87  1  0.83087347  0.33389789  0.49816181  1
  Mn3.30+  Mn88  1  0.83554936  0.66583770  -0.00154598  1
  Mn3.30+  Mn89  1  0.83447399  0.66668746  0.49967524  1
  Mn3.30+  Mn90  1  0.00140722  0.16751039  0.24771873  1
  Mn3.30+  Mn91  1  0.00007266  0.16633289  0.74932661  1
  Mn3.30+  Mn92  1  -0.00286346  0.50039913  0.24982083  1
  Mn3.30+  Mn93  1  -0.00108027  0.50137118  0.75113982  1
  Mn3.30+  Mn94  1  0.00179467  0.83298759  0.25068276  1
  Mn3.30+  Mn95  1  0.00110998  0.83505546  0.74884279  1
  Mn3.30+  Mn96  1  0.33261492  0.16677512  0.24994091  1
  Mn3.30+  Mn97  1  0.33569054  0.16683243  0.74916473  1
  Mn3.30+  Mn98  1  0.33312211  0.49881987  0.24976225  1
  Mn3.30+  Mn99  1  0.33442183  0.49846948  0.75097928  1
  Mn3.30+  Mn100  1  0.33399872  0.83307579  0.25240611  1
  Mn3.30+  Mn101  1  0.33439091  0.83371493  0.75021868  1
  Mn3.30+  Mn102  1  0.66608794  0.16781334  0.25121964  1
  Mn3.30+  Mn103  1  0.66510360  0.16832855  0.75126987  1
  Mn3.30+  Mn104  1  0.66739559  0.49809785  0.24788680  1
  Mn3.30+  Mn105  1  0.66489114  0.49812703  0.75357519  1
  Mn3.30+  Mn106  1  0.66703736  0.83245603  0.25030946  1
  Mn3.30+  Mn107  1  0.66635233  0.83395287  0.75120563  1
  Mn3.30+  Mn108  1  0.16640754  -0.00004808  0.24937946  1
  Mn3.30+  Mn109  1  0.16733218  0.00123174  0.74927071  1
  Mn3.30+  Mn110  1  0.16456855  0.33278421  0.24730427  1
  Mn3.30+  Mn111  1  0.16576116  0.33276070  0.75051475  1
  Mn3.30+  Mn112  1  0.16379064  0.66824773  0.25125145  1
  Mn3.30+  Mn113  1  0.16480826  0.66673125  0.75097722  1
  Mn3.30+  Mn114  1  0.49977773  -0.00050173  0.25114421  1
  Mn3.30+  Mn115  1  0.50101775  0.00011119  0.75029520  1
  Mn3.30+  Mn116  1  0.50237780  0.33268886  0.25235439  1
  Mn3.30+  Mn117  1  0.50046592  0.33213420  0.75122984  1
  Mn3.30+  Mn118  1  0.49864077  0.66621660  0.25016009  1
  Mn3.30+  Mn119  1  0.49908407  0.66677749  0.75086721  1
  Mn3.30+  Mn120  1  0.83708268  -0.00005630  0.24937607  1
  Mn3.30+  Mn121  1  0.83530046  0.00171382  0.74912526  1
  Mn3.30+  Mn122  1  0.83328906  0.33452485  0.24847992  1
  Mn3.30+  Mn123  1  0.83090541  0.33379159  0.75249598  1
  Mn3.30+  Mn124  1  0.83595969  0.66586196  0.24992777  1
  Mn3.30+  Mn125  1  0.83392249  0.66699268  0.75140963  1
  Mn3.30+  Mn126  1  0.00163832  0.16647285  0.00400697  1
  Mn3.30+  Mn127  1  -0.00022936  0.16732812  0.49897254  1
  Mn3.30+  Mn128  1  -0.00329865  0.50030871  0.00084382  1
  Mn3.30+  Mn129  1  -0.00093516  0.50135937  0.49867862  1
  Mn3.30+  Mn130  1  0.00017482  0.83391568  0.00078403  1
  Mn3.30+  Mn131  1  0.00280960  0.83389866  0.49940232  1
  Mn3.30+  Mn132  1  0.33154318  0.16712413  0.00073360  1
  Mn3.30+  Mn133  1  0.33702202  0.16676237  0.49983794  1
  Mn3.30+  Mn134  1  0.33398467  0.49872837  -0.00029831  1
  Mn3.30+  Mn135  1  0.33335073  0.49861246  0.49973126  1
  Mn3.30+  Mn136  1  0.33505663  0.83341741  0.00005816  1
  Mn3.30+  Mn137  1  0.33341108  0.83344415  0.49696518  1
  Mn3.30+  Mn138  1  0.66683854  0.16790316  0.00011493  1
  Mn3.30+  Mn139  1  0.66390385  0.16818161  0.49732492  1
  Mn3.30+  Mn140  1  0.66584780  0.49806343  -0.00139539  1
  Mn3.30+  Mn141  1  0.66621644  0.49801257  0.49907163  1
  Mn3.30+  Mn142  1  0.66663195  0.83251658  -0.00008183  1
  Mn3.30+  Mn143  1  0.66678738  0.83400964  0.49910344  1
  O2-  O144  1  0.02541183  0.15521771  0.12590205  1
  O2-  O145  1  0.02311879  0.16378985  0.62213568  1
  O2-  O146  1  0.02153493  0.49550189  0.12458285  1
  O2-  O147  1  0.02427669  0.49345774  0.62562508  1
  O2-  O148  1  0.02491420  0.82835081  0.12759148  1
  O2-  O149  1  0.02851162  0.82439160  0.62410019  1
  O2-  O150  1  0.35939407  0.16396451  0.12650593  1
  O2-  O151  1  0.36312989  0.16222996  0.62324464  1
  O2-  O152  1  0.35819300  0.49524469  0.12484644  1
  O2-  O153  1  0.35705530  0.49446595  0.62506065  1
  O2-  O154  1  0.36059977  0.82691276  0.12794253  1
  O2-  O155  1  0.35868274  0.82837085  0.62479856  1
  O2-  O156  1  0.69219942  0.16012462  0.12558467  1
  O2-  O157  1  0.69215551  0.16392902  0.62518708  1
  O2-  O158  1  0.69281707  0.50269499  0.12235314  1
  O2-  O159  1  0.69161884  0.49260462  0.62690730  1
  O2-  O160  1  0.68769771  0.82539424  0.12477985  1
  O2-  O161  1  0.69321147  0.82860374  0.62506102  1
  O2-  O162  1  0.13763321  0.32900805  0.12564888  1
  O2-  O163  1  0.14112535  0.32815693  0.62484921  1
  O2-  O164  1  0.14706505  0.66310460  0.12545463  1
  O2-  O165  1  0.14024751  0.66048301  0.62484594  1
  O2-  O166  1  0.14103754  0.98917903  0.12619279  1
  O2-  O167  1  0.14174586  0.99490507  0.62244936  1
  O2-  O168  1  0.47587778  0.32887514  0.12648405  1
  O2-  O169  1  0.47744352  0.32709185  0.62312627  1
  O2-  O170  1  0.47232152  0.65942825  0.12294849  1
  O2-  O171  1  0.47360765  0.65993518  0.62538128  1
  O2-  O172  1  0.47357751  0.98951157  0.12536583  1
  O2-  O173  1  0.47653769  0.99077720  0.62244247  1
  O2-  O174  1  0.81266484  0.32706956  0.12414250  1
  O2-  O175  1  0.80706199  0.33092539  0.62546552  1
  O2-  O176  1  0.81187264  0.66286135  0.12306303  1
  O2-  O177  1  0.80819442  0.66200577  0.62643778  1
  O2-  O178  1  0.80963198  0.99970555  0.12613564  1
  O2-  O179  1  0.80594339  0.99722469  0.62459250  1
  O2-  O180  1  0.30689083  0.17129203  0.37475007  1
  O2-  O181  1  0.31752221  0.16317090  0.87506217  1
  O2-  O182  1  0.30689200  0.50314986  0.37502852  1
  O2-  O183  1  0.30641554  0.50348834  0.87506152  1
  O2-  O184  1  0.30388917  0.83924261  0.37431465  1
  O2-  O185  1  0.30701208  0.83970035  0.87265583  1
  O2-  O186  1  0.64139763  0.17239127  0.37393750  1
  O2-  O187  1  0.64115364  0.17022049  0.87578866  1
  O2-  O188  1  0.64827217  0.50912846  0.37503469  1
  O2-  O189  1  0.63566375  0.50911932  0.87432240  1
  O2-  O190  1  0.64059805  0.83880420  0.37548601  1
  O2-  O191  1  0.63952506  0.84026774  0.87514047  1
  O2-  O192  1  0.97649358  0.16893770  0.37567292  1
  O2-  O193  1  0.97545085  0.17064150  0.87626021  1
  O2-  O194  1  0.97418261  0.50687886  0.37613639  1
  O2-  O195  1  0.97515168  0.50563613  0.87442601  1
  O2-  O196  1  0.97492225  0.84248270  0.37685567  1
  O2-  O197  1  0.97624442  0.84561510  0.87174503  1
  O2-  O198  1  0.19475389  0.00952240  0.37471971  1
  O2-  O199  1  0.19181522  0.00172147  0.87606971  1
  O2-  O200  1  0.19217146  0.33968846  0.37373771  1
  O2-  O201  1  0.18280536  0.33935719  0.87646801  1
  O2-  O202  1  0.19208992  0.66848230  0.37547388  1
  O2-  O203  1  0.19432120  0.67060743  0.87468399  1
  O2-  O204  1  0.52595058  0.01161585  0.37506540  1
  O2-  O205  1  0.52621282  0.00989358  0.87752050  1
  O2-  O206  1  0.52796396  0.33761006  0.37449170  1
  O2-  O207  1  0.52389520  0.33592326  0.87528047  1
  O2-  O208  1  0.52383192  0.67168146  0.37740177  1
  O2-  O209  1  0.52323276  0.67753279  0.87428712  1
  O2-  O210  1  0.85981938  0.00731825  0.37517072  1
  O2-  O211  1  0.86016154  0.00701681  0.87443995  1
  O2-  O212  1  0.85322948  0.33805231  0.37400518  1
  O2-  O213  1  0.86107604  0.33769690  0.87707013  1
  O2-  O214  1  0.85793954  0.67106117  0.37806693  1
  O2-  O215  1  0.85965132  0.67284146  0.87237576  1
  O2-  O216  1  0.23883840  0.09289038  0.02459365  1
  O2-  O217  1  0.24035352  0.09524852  0.52192366  1
  O2-  O218  1  0.23598449  0.42677400  0.02158902  1
  O2-  O219  1  0.23902048  0.42643343  0.52107909  1
  O2-  O220  1  0.23982164  0.76263117  0.02015119  1
  O2-  O221  1  0.23661635  0.75934991  0.52191127  1
  O2-  O222  1  0.57160979  0.09141107  0.02325466  1
  O2-  O223  1  0.57209372  0.09499350  0.52359072  1
  O2-  O224  1  0.57028741  0.42914654  0.01834013  1
  O2-  O225  1  0.57183863  0.42665827  0.52301781  1
  O2-  O226  1  0.57179143  0.75718870  0.02203283  1
  O2-  O227  1  0.57258659  0.75914152  0.52314426  1
  O2-  O228  1  0.90272760  0.09882458  0.01672566  1
  O2-  O229  1  0.90250268  0.09647412  0.51842202  1
  O2-  O230  1  0.90097348  0.43114210  0.01788232  1
  O2-  O231  1  0.90395261  0.42904060  0.51985680  1
  O2-  O232  1  0.90700356  0.76519707  0.01068873  1
  O2-  O233  1  0.90480291  0.76427428  0.52132693  1
  O2-  O234  1  0.26370415  0.26275521  0.23225042  1
  O2-  O235  1  0.26026610  0.25741780  0.72764328  1
  O2-  O236  1  0.25808470  0.59359543  0.23124206  1
  O2-  O237  1  0.26099357  0.59420029  0.72909434  1
  O2-  O238  1  0.26392168  0.92848108  0.22894824  1
  O2-  O239  1  0.26393875  0.92812778  0.72826212  1
  O2-  O240  1  0.59185281  0.25706222  0.22894231  1
  O2-  O241  1  0.59586409  0.26175798  0.73176594  1
  O2-  O242  1  0.59360534  0.59315553  0.22951929  1
  O2-  O243  1  0.59576798  0.59401549  0.72780056  1
  O2-  O244  1  0.59627534  0.92667914  0.22979002  1
  O2-  O245  1  0.59623676  0.92963285  0.72945308  1
  O2-  O246  1  0.92864896  0.26105095  0.22761376  1
  O2-  O247  1  0.92651938  0.26233630  0.73013899  1
  O2-  O248  1  0.92486355  0.59294915  0.23435199  1
  O2-  O249  1  0.92729152  0.59254359  0.72715663  1
  O2-  O250  1  0.93403013  0.93248961  0.23445152  1
  O2-  O251  1  0.93148786  0.93016442  0.72513161  1
  O2-  O252  1  0.09693942  0.23704537  0.26818416  1
  O2-  O253  1  0.09116787  0.24088582  0.76622608  1
  O2-  O254  1  0.09421514  0.57188896  0.26678482  1
  O2-  O255  1  0.09606782  0.56904142  0.76795856  1
  O2-  O256  1  0.09857618  0.90375338  0.27332098  1
  O2-  O257  1  0.09715444  0.90374609  0.76865076  1
  O2-  O258  1  0.42844114  0.23728322  0.27079549  1
  O2-  O259  1  0.42998921  0.23709649  0.76732746  1
  O2-  O260  1  0.42401894  0.57470069  0.26831023  1
  O2-  O261  1  0.42916900  0.57075265  0.77188686  1
  O2-  O262  1  0.43015688  0.90329585  0.27441358  1
  O2-  O263  1  0.42997303  0.90335922  0.77090554  1
  O2-  O264  1  0.76321408  0.23808090  0.26694786  1
  O2-  O265  1  0.76186201  0.23700580  0.76919012  1
  O2-  O266  1  0.75858154  0.57547047  0.27002493  1
  O2-  O267  1  0.75833117  0.56994826  0.77141872  1
  O2-  O268  1  0.76241147  0.90823612  0.27285574  1
  O2-  O269  1  0.76382939  0.90695959  0.77096243  1
  O2-  O270  1  0.07601480  0.07175568  0.47855688  1
  O2-  O271  1  0.07079295  0.07052331  0.98159015  1
  O2-  O272  1  0.07221306  0.40946459  0.48259883  1
  O2-  O273  1  0.06977996  0.40801065  0.98027252  1
  O2-  O274  1  0.06737853  0.73428344  0.47997720  1
  O2-  O275  1  0.07419193  0.74043885  0.97584655  1
  O2-  O276  1  0.40203277  0.06847347  0.48164666  1
  O2-  O277  1  0.40662951  0.06892868  0.98381779  1
  O2-  O278  1  0.40471778  0.40021399  0.48365255  1
  O2-  O279  1  0.40503374  0.40502021  0.98606742  1
  O2-  O280  1  0.40104375  0.73835337  0.48176513  1
  O2-  O281  1  0.40237956  0.73573935  0.98217983  1
  O2-  O282  1  0.73549358  0.07413667  0.47892317  1
  O2-  O283  1  0.73961297  0.07181759  0.97955952  1
  O2-  O284  1  0.73686830  0.40450219  0.47894893  1
  O2-  O285  1  0.73746576  0.40691612  0.97425034  1
  O2-  O286  1  0.73815597  0.73886313  0.47961308  1
  O2-  O287  1  0.73940056  0.73908648  0.97801138  1
  O2-  O288  1  0.09822854  0.23813035  0.48313596  1
  O2-  O289  1  0.09079886  0.24033115  0.98163517  1
  O2-  O290  1  0.09597577  0.57054280  0.48254587  1
  O2-  O291  1  0.09496543  0.56999849  0.98327755  1
  O2-  O292  1  0.09915380  0.90218042  0.47810021  1
  O2-  O293  1  0.09679685  0.90435736  0.98003933  1
  O2-  O294  1  0.42879756  0.23798396  0.47409358  1
  O2-  O295  1  0.42901838  0.23740989  0.98571467  1
  O2-  O296  1  0.42358821  0.57350964  0.48268691  1
  O2-  O297  1  0.42962265  0.57184897  0.97642419  1
  O2-  O298  1  0.43191490  0.90478717  0.47701521  1
  O2-  O299  1  0.43010229  0.90330701  0.97770997  1
  O2-  O300  1  0.76165097  0.23679932  0.48221021  1
  O2-  O301  1  0.76398248  0.23931060  0.98202556  1
  O2-  O302  1  0.76109758  0.57127837  0.48273297  1
  O2-  O303  1  0.75579417  0.57434883  0.97489789  1
  O2-  O304  1  0.76442523  0.90708140  0.47907863  1
  O2-  O305  1  0.76228394  0.90842250  0.97769696  1
  O2-  O306  1  0.07331332  0.07211518  0.27285409  1
  O2-  O307  1  0.07236157  0.07219216  0.76541580  1
  O2-  O308  1  0.07531294  0.41132088  0.26878500  1
  O2-  O309  1  0.06802370  0.40686490  0.76962820  1
  O2-  O310  1  0.07263675  0.73879999  0.27302706  1
  O2-  O311  1  0.06983068  0.73751707  0.77248371  1
  O2-  O312  1  0.40131295  0.06980168  0.26582662  1
  O2-  O313  1  0.40666038  0.06883197  0.76866393  1
  O2-  O314  1  0.40403543  0.40167302  0.26671549  1
  O2-  O315  1  0.40647746  0.40357002  0.76317905  1
  O2-  O316  1  0.40246851  0.73784315  0.27015733  1
  O2-  O317  1  0.39994127  0.73690971  0.76647520  1
  O2-  O318  1  0.73869088  0.07278953  0.27135345  1
  O2-  O319  1  0.73625960  0.07342212  0.77070039  1
  O2-  O320  1  0.73816705  0.40651556  0.27123304  1
  O2-  O321  1  0.73707565  0.40480321  0.77470819  1
  O2-  O322  1  0.73930724  0.73863041  0.27094283  1
  O2-  O323  1  0.73718409  0.73980926  0.77157847  1
  O2-  O324  1  0.23682131  0.09564735  0.22719463  1
  O2-  O325  1  0.24308083  0.09281809  0.72585655  1
  O2-  O326  1  0.23867548  0.42667204  0.22720316  1
  O2-  O327  1  0.23794488  0.42643835  0.73003568  1
  O2-  O328  1  0.24024888  0.76033992  0.22930436  1
  O2-  O329  1  0.23730754  0.76257890  0.72832201  1
  O2-  O330  1  0.57340676  0.09081207  0.22611584  1
  O2-  O331  1  0.57190784  0.09610622  0.72859223  1
  O2-  O332  1  0.57132342  0.42929106  0.22921519  1
  O2-  O333  1  0.57209383  0.42633524  0.72761579  1
  O2-  O334  1  0.57200314  0.75668696  0.22939711  1
  O2-  O335  1  0.57200416  0.75991167  0.72633913  1
  O2-  O336  1  0.90367438  0.09816890  0.23396594  1
  O2-  O337  1  0.90276332  0.09738131  0.73144751  1
  O2-  O338  1  0.90186530  0.43026369  0.23326352  1
  O2-  O339  1  0.90420745  0.42904288  0.73037106  1
  O2-  O340  1  0.90499800  0.76325832  0.23944260  1
  O2-  O341  1  0.90639897  0.76613960  0.72837997  1
  O2-  O342  1  0.25799693  0.26133623  0.02011379  1
  O2-  O343  1  0.26417946  0.25947657  0.52061402  1
  O2-  O344  1  0.26173026  0.59348746  0.01943421  1
  O2-  O345  1  0.25766055  0.59467397  0.52028229  1
  O2-  O346  1  0.26288225  0.92800459  0.02075239  1
  O2-  O347  1  0.26427181  0.92925280  0.52079277  1
  O2-  O348  1  0.59031687  0.25731813  0.01850983  1
  O2-  O349  1  0.59587141  0.26167924  0.52031661  1
  O2-  O350  1  0.59349702  0.59521811  0.02052217  1
  O2-  O351  1  0.59520634  0.59223831  0.52168797  1
  O2-  O352  1  0.59551926  0.92778549  0.02184831  1
  O2-  O353  1  0.59665956  0.92961791  0.51977229  1
  O2-  O354  1  0.93031983  0.26209611  0.02107505  1
  O2-  O355  1  0.92388542  0.26295276  0.52188248  1
  O2-  O356  1  0.92577048  0.59274644  0.01387697  1
  O2-  O357  1  0.92708619  0.59325795  0.52467460  1
  O2-  O358  1  0.93226372  0.93361726  0.01688059  1
  O2-  O359  1  0.93310131  0.92903295  0.52247156  1
