# generated using pymatgen
data_Sr7Ca15Pr50Mn72O216
_symmetry_space_group_name_H-M   'P 1'
_cell_length_a   16.55448502
_cell_length_b   16.59852985
_cell_length_c   15.58869812
_cell_angle_alpha   90.00185249
_cell_angle_beta   90.00181939
_cell_angle_gamma   89.99142841
_symmetry_Int_Tables_number   1
_chemical_formula_structural   Sr7Ca15Pr50Mn72O216
_chemical_formula_sum   'Sr7 Ca15 Pr50 Mn72 O216'
_cell_volume   4283.46418907
_cell_formula_units_Z   1
loop_
 _symmetry_equiv_pos_site_id
 _symmetry_equiv_pos_as_xyz
  1  'x, y, z'
loop_
 _atom_type_symbol
 _atom_type_oxidation_number
  Sr2+  2.0
  Ca2+  2.0
  Pr3+  3.0
  Mn3.30+  3.3
  O2-  -2.0
loop_
 _atom_site_type_symbol
 _atom_site_label
 _atom_site_symmetry_multiplicity
 _atom_site_fract_x
 _atom_site_fract_y
 _atom_site_fract_z
 _atom_site_occupancy
  Sr2+  Sr0  1  -0.00094595  0.34231546  0.12672143  1
  Sr2+  Sr1  1  0.66933184  0.65386978  0.87398663  1
  Sr2+  Sr2  1  0.83316901  0.17759385  0.62476138  1
  Sr2+  Sr3  1  0.66626224  0.01042061  0.12544640  1
  Sr2+  Sr4  1  1.00287571  0.65358596  0.87705499  1
  Sr2+  Sr5  1  0.16647015  0.15626580  0.37474976  1
  Sr2+  Sr6  1  0.50010713  0.49267213  0.87502067  1
  Ca2+  Ca7  1  0.66729952  0.31854349  0.37800237  1
  Ca2+  Ca8  1  0.66210299  0.34857347  0.62236575  1
  Ca2+  Ca9  1  0.16439286  0.48906099  0.87542577  1
  Ca2+  Ca10  1  -0.00512973  0.01426354  0.12601105  1
  Ca2+  Ca11  1  0.33726325  0.65010055  0.87442744  1
  Ca2+  Ca12  1  0.32874885  0.01490095  0.12718484  1
  Ca2+  Ca13  1  0.33018840  0.67886790  0.62518261  1
  Ca2+  Ca14  1  0.33785810  0.64944495  0.37512653  1
  Ca2+  Ca15  1  0.16455328  0.48619645  0.37515252  1
  Ca2+  Ca16  1  0.83354422  0.51269129  0.62526860  1
  Ca2+  Ca17  1  0.33507094  0.98661100  0.37277823  1
  Ca2+  Ca18  1  0.83875258  0.84846534  0.12409564  1
  Ca2+  Ca19  1  -0.00296773  0.68128822  0.12396562  1
  Ca2+  Ca20  1  0.50785994  0.18626196  0.62366807  1
  Ca2+  Ca21  1  0.49798157  0.48455947  0.37613499  1
  Pr3+  Pr22  1  0.16723265  0.51184721  0.12644470  1
  Pr3+  Pr23  1  0.66773280  0.32492624  0.87266467  1
  Pr3+  Pr24  1  0.82914934  0.48465587  0.37751829  1
  Pr3+  Pr25  1  0.50170007  0.17799178  0.12589849  1
  Pr3+  Pr26  1  0.82918976  0.49017398  0.87288260  1
  Pr3+  Pr27  1  0.33048054  0.67796067  0.12503701  1
  Pr3+  Pr28  1  0.16737913  0.84798844  0.12449870  1
  Pr3+  Pr29  1  -0.00589841  0.34961522  0.62307994  1
  Pr3+  Pr30  1  0.66858900  0.65318185  0.37530239  1
  Pr3+  Pr31  1  0.49722706  0.15590768  0.87289683  1
  Pr3+  Pr32  1  1.00285078  0.98673488  0.87675520  1
  Pr3+  Pr33  1  0.33664020  0.98671137  0.87663030  1
  Pr3+  Pr34  1  0.33710429  0.32432071  0.87388579  1
  Pr3+  Pr35  1  0.82982431  0.15536483  0.87543759  1
  Pr3+  Pr36  1  0.50258657  0.84734353  0.12504991  1
  Pr3+  Pr37  1  0.50082262  0.84242833  0.62506632  1
  Pr3+  Pr38  1  0.49467776  0.15222965  0.37698707  1
  Pr3+  Pr39  1  0.50110638  0.51240735  0.62346633  1
  Pr3+  Pr40  1  0.83065920  0.81754916  0.87755315  1
  Pr3+  Pr41  1  0.66861839  0.98881412  0.37372259  1
  Pr3+  Pr42  1  0.49671621  0.81666600  0.87683656  1
  Pr3+  Pr43  1  0.66087338  0.01604403  0.62419907  1
  Pr3+  Pr44  1  0.66422875  0.34434182  0.12773154  1
  Pr3+  Pr45  1  0.16766920  0.82314978  0.37371566  1
  Pr3+  Pr46  1  0.83595857  0.17936550  0.12572207  1
  Pr3+  Pr47  1  0.83577726  0.84381946  0.62588792  1
  Pr3+  Pr48  1  -0.00251248  0.01271441  0.62522528  1
  Pr3+  Pr49  1  0.50128720  0.51176840  0.12668899  1
  Pr3+  Pr50  1  1.00357396  0.32008235  0.37507753  1
  Pr3+  Pr51  1  0.33311622  0.34666026  0.62323295  1
  Pr3+  Pr52  1  0.16877141  0.18073809  0.62347512  1
  Pr3+  Pr53  1  0.66539915  0.67578276  0.62539134  1
  Pr3+  Pr54  1  0.83063293  0.15587669  0.37500212  1
  Pr3+  Pr55  1  0.83117664  0.82099579  0.37240542  1
  Pr3+  Pr56  1  0.66465039  0.67901359  0.12426550  1
  Pr3+  Pr57  1  0.33201274  0.01238971  0.62360191  1
  Pr3+  Pr58  1  1.00138290  0.32621149  0.87481497  1
  Pr3+  Pr59  1  -0.00058189  0.67691357  0.62553339  1
  Pr3+  Pr60  1  0.66983328  0.98718133  0.87644463  1
  Pr3+  Pr61  1  0.17128795  0.84251848  0.62564836  1
  Pr3+  Pr62  1  0.16489629  0.15577358  0.87448638  1
  Pr3+  Pr63  1  0.33491639  0.32228942  0.37599485  1
  Pr3+  Pr64  1  0.16370474  0.81713818  0.87643465  1
  Pr3+  Pr65  1  0.32898880  0.34601493  0.12640700  1
  Pr3+  Pr66  1  0.17281179  0.51576054  0.62356575  1
  Pr3+  Pr67  1  0.16830215  0.17888271  0.12589184  1
  Pr3+  Pr68  1  1.00469916  0.98926603  0.37323192  1
  Pr3+  Pr69  1  0.84044570  0.51321640  0.12579721  1
  Pr3+  Pr70  1  1.00633247  0.65248547  0.37345837  1
  Pr3+  Pr71  1  0.49400152  0.82039344  0.37339902  1
  Mn3.30+  Mn72  1  0.16677621  0.00098615  0.00196385  1
  Mn3.30+  Mn73  1  0.16869583  -0.00035713  0.49866978  1
  Mn3.30+  Mn74  1  0.16662570  0.33567996  -0.00114863  1
  Mn3.30+  Mn75  1  0.16587713  0.33522688  0.49994849  1
  Mn3.30+  Mn76  1  0.16542781  0.66465015  0.00107959  1
  Mn3.30+  Mn77  1  0.17140259  0.66593699  0.49662747  1
  Mn3.30+  Mn78  1  0.49935887  0.00066638  0.00118728  1
  Mn3.30+  Mn79  1  0.49810039  -0.00054012  0.49985035  1
  Mn3.30+  Mn80  1  0.49931038  0.33449367  0.00034620  1
  Mn3.30+  Mn81  1  0.50256109  0.33405236  0.49855461  1
  Mn3.30+  Mn82  1  0.49779215  0.66476271  -0.00046475  1
  Mn3.30+  Mn83  1  0.49659621  0.66522631  0.49899474  1
  Mn3.30+  Mn84  1  0.83552705  -0.00076723  0.00209256  1
  Mn3.30+  Mn85  1  0.83335456  -0.00004745  0.49982808  1
  Mn3.30+  Mn86  1  0.83379433  0.33458788  0.00001094  1
  Mn3.30+  Mn87  1  0.82929764  0.33376495  0.50235856  1
  Mn3.30+  Mn88  1  0.83488798  0.66677791  0.00208131  1
  Mn3.30+  Mn89  1  0.83468407  0.66535531  0.49929365  1
  Mn3.30+  Mn90  1  0.00016275  0.16551684  0.24946621  1
  Mn3.30+  Mn91  1  -0.00099150  0.16834093  0.75023023  1
  Mn3.30+  Mn92  1  0.00104472  0.50017243  0.25092873  1
  Mn3.30+  Mn93  1  0.00083346  0.50136539  0.74936164  1
  Mn3.30+  Mn94  1  -0.00128687  0.83338422  0.24785898  1
  Mn3.30+  Mn95  1  0.00142070  0.83162377  0.75087191  1
  Mn3.30+  Mn96  1  0.33329157  0.16408320  0.25138309  1
  Mn3.30+  Mn97  1  0.33539136  0.16757988  0.74684514  1
  Mn3.30+  Mn98  1  0.33368783  0.50059758  0.25352150  1
  Mn3.30+  Mn99  1  0.33275823  0.50219247  0.75062260  1
  Mn3.30+  Mn100  1  0.33263500  0.83432819  0.24905381  1
  Mn3.30+  Mn101  1  0.33370813  0.82974659  0.75122152  1
  Mn3.30+  Mn102  1  0.66545833  0.16685955  0.25143117  1
  Mn3.30+  Mn103  1  0.66482245  0.16999566  0.74775234  1
  Mn3.30+  Mn104  1  0.66643013  0.49831473  0.25277958  1
  Mn3.30+  Mn105  1  0.66709373  0.49901149  0.74684553  1
  Mn3.30+  Mn106  1  0.66695360  0.83342108  0.24871312  1
  Mn3.30+  Mn107  1  0.66681603  0.83257673  0.74999576  1
  Mn3.30+  Mn108  1  0.16757347  0.00088713  0.24870153  1
  Mn3.30+  Mn109  1  0.16775462  -0.00052974  0.75009053  1
  Mn3.30+  Mn110  1  0.16597449  0.33455465  0.25123249  1
  Mn3.30+  Mn111  1  0.16666711  0.33643361  0.74944145  1
  Mn3.30+  Mn112  1  0.16739380  0.66629830  0.25068984  1
  Mn3.30+  Mn113  1  0.16956996  0.66432516  0.75253058  1
  Mn3.30+  Mn114  1  0.49739626  -0.00013794  0.24894081  1
  Mn3.30+  Mn115  1  0.50002026  0.00026507  0.74984657  1
  Mn3.30+  Mn116  1  0.50005861  0.33361792  0.25303327  1
  Mn3.30+  Mn117  1  0.50155375  0.33497586  0.74798205  1
  Mn3.30+  Mn118  1  0.49805475  0.66481546  0.25180750  1
  Mn3.30+  Mn119  1  0.49647804  0.66482729  0.74948971  1
  Mn3.30+  Mn120  1  0.83564636  -0.00078115  0.24817263  1
  Mn3.30+  Mn121  1  0.83290321  -0.00004284  0.75039456  1
  Mn3.30+  Mn122  1  0.83157735  0.33326448  0.25292163  1
  Mn3.30+  Mn123  1  0.83202621  0.33483411  0.74564706  1
  Mn3.30+  Mn124  1  0.83578683  0.66753883  0.24951141  1
  Mn3.30+  Mn125  1  0.83423655  0.66440398  0.74901030  1
  Mn3.30+  Mn126  1  -0.00042257  0.16681310  -0.00038747  1
  Mn3.30+  Mn127  1  -0.00042808  0.16691138  0.50107776  1
  Mn3.30+  Mn128  1  0.00139334  0.50081319  0.00028426  1
  Mn3.30+  Mn129  1  0.00012483  0.50112011  0.49947396  1
  Mn3.30+  Mn130  1  -0.00104043  0.83249130  0.00278798  1
  Mn3.30+  Mn131  1  0.00118409  0.83276066  0.49932418  1
  Mn3.30+  Mn132  1  0.33312199  0.16635951  0.00012206  1
  Mn3.30+  Mn133  1  0.33564202  0.16587367  0.50103448  1
  Mn3.30+  Mn134  1  0.33191469  0.50092692  -0.00112567  1
  Mn3.30+  Mn135  1  0.33445832  0.50201136  0.49681937  1
  Mn3.30+  Mn136  1  0.33239040  0.83296595  0.00109340  1
  Mn3.30+  Mn137  1  0.33388712  0.83111118  0.49874930  1
  Mn3.30+  Mn138  1  0.66591460  0.16718758  0.00026595  1
  Mn3.30+  Mn139  1  0.66435765  0.16999331  0.50014465  1
  Mn3.30+  Mn140  1  0.66781553  0.49966112  0.00104818  1
  Mn3.30+  Mn141  1  0.66569436  0.49753878  0.49925672  1
  Mn3.30+  Mn142  1  0.66804460  0.83280831  0.00177419  1
  Mn3.30+  Mn143  1  0.66589310  0.83304490  0.49918104  1
  O2-  O144  1  0.02370469  0.16174369  0.12180812  1
  O2-  O145  1  0.02447862  0.16106452  0.62694315  1
  O2-  O146  1  0.02306109  0.49498814  0.12847625  1
  O2-  O147  1  0.02781118  0.49806152  0.62439686  1
  O2-  O148  1  0.02494357  0.82534701  0.12612232  1
  O2-  O149  1  0.02673083  0.82625158  0.62471311  1
  O2-  O150  1  0.35801075  0.16173959  0.12693950  1
  O2-  O151  1  0.36363414  0.16021277  0.62434006  1
  O2-  O152  1  0.35736572  0.49389549  0.12799856  1
  O2-  O153  1  0.35734564  0.49352153  0.62210813  1
  O2-  O154  1  0.36000884  0.82434591  0.12436440  1
  O2-  O155  1  0.35779767  0.82406034  0.62556491  1
  O2-  O156  1  0.69100792  0.16649240  0.12625701  1
  O2-  O157  1  0.68621150  0.15964400  0.62437577  1
  O2-  O158  1  0.69488525  0.49220305  0.12976942  1
  O2-  O159  1  0.69150946  0.49600767  0.62141469  1
  O2-  O160  1  0.69311327  0.82701325  0.12661957  1
  O2-  O161  1  0.69089741  0.82694346  0.62374755  1
  O2-  O162  1  0.14953487  0.32831095  0.12605595  1
  O2-  O163  1  0.14022962  0.32947774  0.62533099  1
  O2-  O164  1  0.13910632  0.65906967  0.12712307  1
  O2-  O165  1  0.14314695  0.66403325  0.62273876  1
  O2-  O166  1  0.13714390  0.99680768  0.12298557  1
  O2-  O167  1  0.14121424  0.99150760  0.62596494  1
  O2-  O168  1  0.47338034  0.32662886  0.12754779  1
  O2-  O169  1  0.47596054  0.33064686  0.62338480  1
  O2-  O170  1  0.47499067  0.66063657  0.12687421  1
  O2-  O171  1  0.47218224  0.66243710  0.62206324  1
  O2-  O172  1  0.47189300  0.99605086  0.12498792  1
  O2-  O173  1  0.47524797  0.98969918  0.62680936  1
  O2-  O174  1  0.80855897  0.32814880  0.12822620  1
  O2-  O175  1  0.80381436  0.32865746  0.62352252  1
  O2-  O176  1  0.80764312  0.65847525  0.12742239  1
  O2-  O177  1  0.81058611  0.66333449  0.62146608  1
  O2-  O178  1  0.81355940  0.99560393  0.12486597  1
  O2-  O179  1  0.80614041  0.99166717  0.62527336  1
  O2-  O180  1  0.31513171  0.17419284  0.37700433  1
  O2-  O181  1  0.30901242  0.17432384  0.87147154  1
  O2-  O182  1  0.30582192  0.50460525  0.37539700  1
  O2-  O183  1  0.30724118  0.50392224  0.87462408  1
  O2-  O184  1  0.31028000  0.84406078  0.37288851  1
  O2-  O185  1  0.30633146  0.84227206  0.87777621  1
  O2-  O186  1  0.63931472  0.16925320  0.37571229  1
  O2-  O187  1  0.64089863  0.17424987  0.87324635  1
  O2-  O188  1  0.63910383  0.50875485  0.37485867  1
  O2-  O189  1  0.65061625  0.49783558  0.87393514  1
  O2-  O190  1  0.64055816  0.83874801  0.37466895  1
  O2-  O191  1  0.64246602  0.83846401  0.87490776  1
  O2-  O192  1  0.97621812  0.16985257  0.37684387  1
  O2-  O193  1  0.97467827  0.17493300  0.87392187  1
  O2-  O194  1  0.97331129  0.50621965  0.37472952  1
  O2-  O195  1  0.97400751  0.49798482  0.87185641  1
  O2-  O196  1  0.97470829  0.84106523  0.37370620  1
  O2-  O197  1  0.97534245  0.83860730  0.87646023  1
  O2-  O198  1  0.19259811  -0.00049435  0.37549389  1
  O2-  O199  1  0.19376249  0.00674420  0.87501152  1
  O2-  O200  1  0.18960844  0.33799317  0.37661344  1
  O2-  O201  1  0.19307196  0.34023254  0.87151244  1
  O2-  O202  1  0.19670177  0.67726261  0.37336572  1
  O2-  O203  1  0.19506541  0.67237991  0.87752918  1
  O2-  O204  1  0.52460038  0.00247079  0.37417165  1
  O2-  O205  1  0.52533069  0.00641554  0.87363149  1
  O2-  O206  1  0.52574249  0.33909590  0.37484032  1
  O2-  O207  1  0.52307974  0.33552817  0.87370447  1
  O2-  O208  1  0.52672725  0.67464717  0.37461952  1
  O2-  O209  1  0.52033561  0.66895087  0.87654401  1
  O2-  O210  1  0.85979274  0.00567044  0.37417828  1
  O2-  O211  1  0.85825445  0.00622378  0.87612293  1
  O2-  O212  1  0.85967445  0.33695025  0.37741160  1
  O2-  O213  1  0.85715050  0.34163887  0.87110368  1
  O2-  O214  1  0.86077802  0.67329284  0.37455174  1
  O2-  O215  1  0.85246531  0.66906981  0.87642806  1
  O2-  O216  1  0.23583464  0.09721362  0.01746265  1
  O2-  O217  1  0.23978740  0.09243129  0.52498835  1
  O2-  O218  1  0.24003400  0.42771386  0.02195532  1
  O2-  O219  1  0.23978607  0.42730466  0.52021663  1
  O2-  O220  1  0.23752432  0.76139383  0.02300494  1
  O2-  O221  1  0.23671582  0.76425301  0.51653020  1
  O2-  O222  1  0.56944679  0.09724159  0.01649540  1
  O2-  O223  1  0.56963214  0.09662770  0.51929749  1
  O2-  O224  1  0.57367964  0.42541606  0.02406485  1
  O2-  O225  1  0.56975969  0.42954821  0.51921613  1
  O2-  O226  1  0.57099109  0.75951327  0.02053053  1
  O2-  O227  1  0.57082978  0.75932292  0.52080936  1
  O2-  O228  1  0.90253576  0.09637832  0.01670506  1
  O2-  O229  1  0.90740531  0.09077349  0.51882906  1
  O2-  O230  1  0.90379721  0.43013500  0.01630546  1
  O2-  O231  1  0.90006252  0.42920822  0.52101798  1
  O2-  O232  1  0.90107658  0.76374423  0.01851564  1
  O2-  O233  1  0.90670464  0.76237874  0.51995403  1
  O2-  O234  1  0.26179193  0.25879293  0.23254611  1
  O2-  O235  1  0.26045763  0.26140818  0.72635465  1
  O2-  O236  1  0.26150269  0.59379858  0.22769175  1
  O2-  O237  1  0.26240562  0.59523194  0.72577643  1
  O2-  O238  1  0.25839292  0.92833774  0.22406491  1
  O2-  O239  1  0.26399015  0.92655568  0.72942372  1
  O2-  O240  1  0.59152781  0.25989307  0.22862732  1
  O2-  O241  1  0.59744124  0.26569671  0.73056463  1
  O2-  O242  1  0.59632419  0.59440550  0.22895831  1
  O2-  O243  1  0.59307566  0.59208333  0.72654868  1
  O2-  O244  1  0.59060836  0.92667791  0.23122609  1
  O2-  O245  1  0.59543101  0.92811816  0.72987584  1
  O2-  O246  1  0.92369524  0.25813037  0.23477636  1
  O2-  O247  1  0.92894209  0.26492983  0.73118983  1
  O2-  O248  1  0.93102914  0.59792495  0.23001461  1
  O2-  O249  1  0.93060090  0.59421743  0.72960218  1
  O2-  O250  1  0.93175639  0.93089442  0.23190053  1
  O2-  O251  1  0.92856185  0.92574420  0.72935840  1
  O2-  O252  1  0.09074721  0.24113359  0.26631988  1
  O2-  O253  1  0.09632047  0.24105095  0.77024817  1
  O2-  O254  1  0.09786762  0.57241973  0.27448089  1
  O2-  O255  1  0.10078928  0.56932001  0.76664190  1
  O2-  O256  1  0.09564106  0.90537061  0.26925299  1
  O2-  O257  1  0.09489695  0.90574484  0.77255013  1
  O2-  O258  1  0.42877301  0.23858698  0.27086123  1
  O2-  O259  1  0.42813222  0.24164560  0.76973560  1
  O2-  O260  1  0.43149899  0.56750363  0.26943599  1
  O2-  O261  1  0.42681033  0.57104583  0.76451680  1
  O2-  O262  1  0.42992384  0.90288387  0.26591583  1
  O2-  O263  1  0.42774223  0.90235471  0.77175204  1
  O2-  O264  1  0.76123031  0.23819446  0.26978380  1
  O2-  O265  1  0.76032254  0.24067774  0.77322150  1
  O2-  O266  1  0.76318658  0.57174251  0.27238599  1
  O2-  O267  1  0.76214633  0.57125074  0.76285423  1
  O2-  O268  1  0.76077621  0.90848733  0.27259721  1
  O2-  O269  1  0.76259977  0.90628931  0.77213575  1
  O2-  O270  1  0.07279842  0.06887411  0.48497592  1
  O2-  O271  1  0.07418045  0.07403336  0.97438138  1
  O2-  O272  1  0.06698299  0.40576043  0.48224544  1
  O2-  O273  1  0.07258028  0.40556310  0.98074051  1
  O2-  O274  1  0.07283319  0.73889600  0.47807312  1
  O2-  O275  1  0.07607493  0.74077921  0.98209256  1
  O2-  O276  1  0.40403564  0.06710665  0.47901796  1
  O2-  O277  1  0.40512566  0.07426469  0.97690011  1
  O2-  O278  1  0.40324366  0.40372976  0.48152767  1
  O2-  O279  1  0.40217424  0.40355626  0.98456455  1
  O2-  O280  1  0.40451105  0.73787134  0.47400763  1
  O2-  O281  1  0.40264917  0.73913773  0.97944498  1
  O2-  O282  1  0.73644000  0.07303101  0.48000635  1
  O2-  O283  1  0.73935332  0.07416930  0.97779603  1
  O2-  O284  1  0.73670041  0.40517159  0.47434369  1
  O2-  O285  1  0.73884960  0.40424485  0.98229895  1
  O2-  O286  1  0.73917945  0.73963323  0.47853670  1
  O2-  O287  1  0.73958529  0.73887699  0.98358392  1
  O2-  O288  1  0.09228622  0.24078605  0.48435440  1
  O2-  O289  1  0.09503313  0.24084041  0.97860840  1
  O2-  O290  1  0.10051744  0.57358448  0.47726795  1
  O2-  O291  1  0.09835003  0.56795650  0.98225756  1
  O2-  O292  1  0.09497924  0.90486001  0.47932422  1
  O2-  O293  1  0.09729609  0.90635732  0.97900539  1
  O2-  O294  1  0.42951737  0.24148791  0.47967106  1
  O2-  O295  1  0.42787992  0.23896801  0.98001756  1
  O2-  O296  1  0.43203271  0.56820735  0.47827089  1
  O2-  O297  1  0.42476228  0.57118650  0.98726812  1
  O2-  O298  1  0.42973997  0.89968333  0.48496044  1
  O2-  O299  1  0.42818479  0.90457744  0.97902634  1
  O2-  O300  1  0.76067532  0.23781793  0.47760846  1
  O2-  O301  1  0.76019642  0.24049479  0.97961731  1
  O2-  O302  1  0.75895335  0.57310406  0.47773056  1
  O2-  O303  1  0.76506106  0.56940724  0.98648793  1
  O2-  O304  1  0.76222763  0.90640828  0.47823047  1
  O2-  O305  1  0.76197569  0.90785638  0.97793819  1
  O2-  O306  1  0.07171142  0.07113678  0.26846777  1
  O2-  O307  1  0.07285802  0.07343015  0.77081810  1
  O2-  O308  1  0.07099234  0.40726954  0.27169863  1
  O2-  O309  1  0.06926769  0.40441825  0.76612049  1
  O2-  O310  1  0.07356446  0.74102831  0.27310020  1
  O2-  O311  1  0.07587711  0.73856999  0.76830260  1
  O2-  O312  1  0.40458451  0.07116148  0.27355518  1
  O2-  O313  1  0.40463194  0.07030520  0.77118910  1
  O2-  O314  1  0.40302708  0.40268172  0.26923723  1
  O2-  O315  1  0.40234539  0.40442139  0.76466551  1
  O2-  O316  1  0.40463983  0.73556950  0.27092467  1
  O2-  O317  1  0.40421156  0.73972425  0.77501540  1
  O2-  O318  1  0.74070947  0.07358747  0.27234151  1
  O2-  O319  1  0.73652265  0.07353614  0.77030180  1
  O2-  O320  1  0.73589346  0.40333261  0.27518174  1
  O2-  O321  1  0.74038516  0.40667873  0.76985804  1
  O2-  O322  1  0.73893828  0.73691028  0.27172148  1
  O2-  O323  1  0.74171951  0.74179663  0.76538463  1
  O2-  O324  1  0.23704579  0.09444708  0.22827549  1
  O2-  O325  1  0.23909784  0.09439251  0.72750086  1
  O2-  O326  1  0.24060925  0.42721503  0.23091115  1
  O2-  O327  1  0.23984234  0.42758886  0.72589154  1
  O2-  O328  1  0.23759391  0.76185662  0.22671056  1
  O2-  O329  1  0.23683772  0.76303953  0.73392596  1
  O2-  O330  1  0.56779247  0.09525600  0.23349697  1
  O2-  O331  1  0.57036984  0.09801221  0.72948422  1
  O2-  O332  1  0.57167797  0.42567651  0.22685255  1
  O2-  O333  1  0.57197216  0.42812595  0.72873059  1
  O2-  O334  1  0.57105033  0.75957520  0.22866820  1
  O2-  O335  1  0.57096871  0.75881221  0.73047480  1
  O2-  O336  1  0.90389448  0.09577071  0.23150197  1
  O2-  O337  1  0.90661531  0.09067462  0.73290738  1
  O2-  O338  1  0.90076735  0.42981887  0.23650679  1
  O2-  O339  1  0.90418165  0.42872595  0.72497590  1
  O2-  O340  1  0.90148132  0.76649449  0.23187540  1
  O2-  O341  1  0.90681672  0.76007256  0.73025199  1
  O2-  O342  1  0.26180137  0.26073679  0.01813930  1
  O2-  O343  1  0.26085158  0.25992635  0.52150810  1
  O2-  O344  1  0.25904781  0.59314269  0.02519303  1
  O2-  O345  1  0.26432056  0.59599941  0.52222660  1
  O2-  O346  1  0.26211941  0.93001781  0.02311973  1
  O2-  O347  1  0.26107482  0.92538350  0.52387641  1
  O2-  O348  1  0.59380407  0.26170473  0.02046008  1
  O2-  O349  1  0.59629886  0.26414043  0.51952844  1
  O2-  O350  1  0.59458827  0.59045074  0.02348085  1
  O2-  O351  1  0.59467239  0.59537156  0.52092965  1
  O2-  O352  1  0.59239398  0.92554538  0.01754540  1
  O2-  O353  1  0.59494973  0.92876569  0.51986542  1
  O2-  O354  1  0.92328708  0.26029844  0.01668632  1
  O2-  O355  1  0.92702783  0.26454683  0.51752912  1
  O2-  O356  1  0.92888209  0.59545607  0.02269095  1
  O2-  O357  1  0.93302108  0.59693206  0.51661642  1
  O2-  O358  1  0.93230144  0.93168375  0.01722883  1
  O2-  O359  1  0.92918909  0.92554315  0.52242972  1
