# generated using pymatgen
data_Sr7Ca15Pr50Mn72O216
_symmetry_space_group_name_H-M   'P 1'
_cell_length_a   16.55568018
_cell_length_b   16.59898461
_cell_length_c   15.58694990
_cell_angle_alpha   89.99412452
_cell_angle_beta   90.00466695
_cell_angle_gamma   89.99338702
_symmetry_Int_Tables_number   1
_chemical_formula_structural   Sr7Ca15Pr50Mn72O216
_chemical_formula_sum   'Sr7 Ca15 Pr50 Mn72 O216'
_cell_volume   4283.41036743
_cell_formula_units_Z   1
loop_
 _symmetry_equiv_pos_site_id
 _symmetry_equiv_pos_as_xyz
  1  'x, y, z'
loop_
 _atom_type_symbol
 _atom_type_oxidation_number
  Sr2+  2.0
  Ca2+  2.0
  Pr3+  3.0
  Mn3.30+  3.3
  O2-  -2.0
loop_
 _atom_site_type_symbol
 _atom_site_label
 _atom_site_symmetry_multiplicity
 _atom_site_fract_x
 _atom_site_fract_y
 _atom_site_fract_z
 _atom_site_occupancy
  Sr2+  Sr0  1  0.66616216  0.67442578  0.62452808  1
  Sr2+  Sr1  1  0.66864325  0.99053506  0.37555253  1
  Sr2+  Sr2  1  0.83159259  0.50984144  0.62540319  1
  Sr2+  Sr3  1  0.99901317  0.65872645  0.87686072  1
  Sr2+  Sr4  1  0.33092097  0.34344489  0.12513819  1
  Sr2+  Sr5  1  0.16733459  0.84301462  0.12395130  1
  Sr2+  Sr6  1  0.33416151  0.98951506  0.37297700  1
  Ca2+  Ca7  1  -0.00025466  0.01495200  0.12489545  1
  Ca2+  Ca8  1  0.33631963  0.98549286  0.87681257  1
  Ca2+  Ca9  1  0.17067073  0.18125658  0.62392219  1
  Ca2+  Ca10  1  0.33187122  0.68018839  0.62475535  1
  Ca2+  Ca11  1  0.83517504  0.84316658  0.62670385  1
  Ca2+  Ca12  1  0.66032359  0.35146065  0.62440387  1
  Ca2+  Ca13  1  0.83126595  0.81566097  0.87449791  1
  Ca2+  Ca14  1  1.00286568  0.31769358  0.37645050  1
  Ca2+  Ca15  1  0.83886793  0.51841693  0.12456503  1
  Ca2+  Ca16  1  -0.00349470  0.68011756  0.12383946  1
  Ca2+  Ca17  1  0.32946361  0.01214582  0.12237996  1
  Ca2+  Ca18  1  0.50553805  0.51542498  0.62449997  1
  Ca2+  Ca19  1  0.49307920  0.14874181  0.87481547  1
  Ca2+  Ca20  1  0.50096122  0.51407470  0.12583625  1
  Ca2+  Ca21  1  0.16426177  0.81988349  0.37353066  1
  Pr3+  Pr22  1  0.49779805  0.48934439  0.87547388  1
  Pr3+  Pr23  1  0.33563800  0.31987582  0.37413577  1
  Pr3+  Pr24  1  0.16496724  0.15414654  0.87413616  1
  Pr3+  Pr25  1  -0.00714642  0.68198920  0.62615221  1
  Pr3+  Pr26  1  0.33053131  0.67768694  0.12474208  1
  Pr3+  Pr27  1  0.66791947  0.32022920  0.87244644  1
  Pr3+  Pr28  1  0.67089516  0.65398615  0.87421872  1
  Pr3+  Pr29  1  0.17033377  0.51613333  0.62452531  1
  Pr3+  Pr30  1  0.49775368  0.82010132  0.87461198  1
  Pr3+  Pr31  1  0.66919210  0.65443840  0.37606464  1
  Pr3+  Pr32  1  0.16903229  0.17447947  0.12513136  1
  Pr3+  Pr33  1  0.50039590  0.17603402  0.12463264  1
  Pr3+  Pr34  1  0.83318461  0.15301615  0.37610659  1
  Pr3+  Pr35  1  1.00797084  0.98494611  0.37246618  1
  Pr3+  Pr36  1  0.66905059  0.32011465  0.37784115  1
  Pr3+  Pr37  1  0.49631357  0.15241938  0.37509080  1
  Pr3+  Pr38  1  0.83123684  0.82148232  0.37567488  1
  Pr3+  Pr39  1  0.33502858  0.65592456  0.87513858  1
  Pr3+  Pr40  1  0.82936769  0.49010124  0.87426075  1
  Pr3+  Pr41  1  0.33229040  0.65920042  0.37468076  1
  Pr3+  Pr42  1  0.66474138  0.01206596  0.12525204  1
  Pr3+  Pr43  1  0.49771630  0.82253083  0.37510351  1
  Pr3+  Pr44  1  0.67049719  0.98385377  0.87484075  1
  Pr3+  Pr45  1  0.83056152  0.15346828  0.87403256  1
  Pr3+  Pr46  1  1.00364381  0.98596435  0.87762044  1
  Pr3+  Pr47  1  0.66500586  0.67917876  0.12582462  1
  Pr3+  Pr48  1  0.32909157  0.01429100  0.62664131  1
  Pr3+  Pr49  1  0.83643745  0.17694909  0.12517218  1
  Pr3+  Pr50  1  0.84159130  0.84676132  0.12304688  1
  Pr3+  Pr51  1  -0.00163781  0.34614917  0.62384951  1
  Pr3+  Pr52  1  0.16339597  0.48902708  0.87575052  1
  Pr3+  Pr53  1  0.33820825  0.31891496  0.87623334  1
  Pr3+  Pr54  1  0.50562207  0.18047499  0.62550356  1
  Pr3+  Pr55  1  0.82997650  0.48747145  0.37530412  1
  Pr3+  Pr56  1  0.66644529  0.00678009  0.62477785  1
  Pr3+  Pr57  1  0.16595123  0.82066113  0.87562125  1
  Pr3+  Pr58  1  -0.00167187  0.01143838  0.62572093  1
  Pr3+  Pr59  1  0.66193758  0.34778097  0.12580408  1
  Pr3+  Pr60  1  1.00022579  0.32424672  0.87328643  1
  Pr3+  Pr61  1  0.16790493  0.51256226  0.12534541  1
  Pr3+  Pr62  1  0.83342455  0.17877098  0.62499081  1
  Pr3+  Pr63  1  0.16421470  0.15398052  0.37537862  1
  Pr3+  Pr64  1  0.49698917  0.48939087  0.37497706  1
  Pr3+  Pr65  1  0.16132291  0.48422431  0.37437227  1
  Pr3+  Pr66  1  -0.00553435  0.34663896  0.12597504  1
  Pr3+  Pr67  1  0.50108330  0.84746470  0.12456612  1
  Pr3+  Pr68  1  0.50207123  0.84329548  0.62536451  1
  Pr3+  Pr69  1  0.33060323  0.34690903  0.62499944  1
  Pr3+  Pr70  1  0.17024203  0.84296197  0.62539783  1
  Pr3+  Pr71  1  1.00419099  0.65537491  0.37388328  1
  Mn3.30+  Mn72  1  0.16944495  -0.00070385  0.00040064  1
  Mn3.30+  Mn73  1  0.16723991  -0.00125133  0.50001750  1
  Mn3.30+  Mn74  1  0.16619093  0.33258681  0.00005976  1
  Mn3.30+  Mn75  1  0.16571430  0.33210278  0.50076035  1
  Mn3.30+  Mn76  1  0.16442094  0.66689624  0.00099565  1
  Mn3.30+  Mn77  1  0.16684405  0.66834212  0.50010602  1
  Mn3.30+  Mn78  1  0.49801880  0.00074952  -0.00146977  1
  Mn3.30+  Mn79  1  0.49851287  -0.00103907  0.50047122  1
  Mn3.30+  Mn80  1  0.50019147  0.33331095  0.00106655  1
  Mn3.30+  Mn81  1  0.50042484  0.33513367  0.50078217  1
  Mn3.30+  Mn82  1  0.50090168  0.66588272  0.00162928  1
  Mn3.30+  Mn83  1  0.49882970  0.66626184  0.50127279  1
  Mn3.30+  Mn84  1  0.83564116  -0.00102977  -0.00066461  1
  Mn3.30+  Mn85  1  0.83547554  -0.00229434  0.50094356  1
  Mn3.30+  Mn86  1  0.83123934  0.33443548  0.00077394  1
  Mn3.30+  Mn87  1  0.83365554  0.33375964  0.50041580  1
  Mn3.30+  Mn88  1  0.83420438  0.66616939  0.00074295  1
  Mn3.30+  Mn89  1  0.83409104  0.66739835  0.50164382  1
  Mn3.30+  Mn90  1  0.00036709  0.16663616  0.25028024  1
  Mn3.30+  Mn91  1  0.00119747  0.16700349  0.74847534  1
  Mn3.30+  Mn92  1  -0.00269265  0.49987507  0.24948197  1
  Mn3.30+  Mn93  1  -0.00068426  0.50146944  0.74994884  1
  Mn3.30+  Mn94  1  0.00193527  0.83329337  0.24744164  1
  Mn3.30+  Mn95  1  -0.00129531  0.83376010  0.75219431  1
  Mn3.30+  Mn96  1  0.33264058  0.16497379  0.24832765  1
  Mn3.30+  Mn97  1  0.33438047  0.16588068  0.75084363  1
  Mn3.30+  Mn98  1  0.33248636  0.50046876  0.24959732  1
  Mn3.30+  Mn99  1  0.33488421  0.50188222  0.74770736  1
  Mn3.30+  Mn100  1  0.33095302  0.83510181  0.24973899  1
  Mn3.30+  Mn101  1  0.33435563  0.83316620  0.74978256  1
  Mn3.30+  Mn102  1  0.66811205  0.16641739  0.25017958  1
  Mn3.30+  Mn103  1  0.66403220  0.16585583  0.75088486  1
  Mn3.30+  Mn104  1  0.66710714  0.50044550  0.24817060  1
  Mn3.30+  Mn105  1  0.66276148  0.49943793  0.74838079  1
  Mn3.30+  Mn106  1  0.66854992  0.83428279  0.25028836  1
  Mn3.30+  Mn107  1  0.66935733  0.83121047  0.74885226  1
  Mn3.30+  Mn108  1  0.16819636  -0.00250522  0.24733621  1
  Mn3.30+  Mn109  1  0.16836030  0.00078031  0.75094964  1
  Mn3.30+  Mn110  1  0.16384279  0.33170888  0.24996060  1
  Mn3.30+  Mn111  1  0.16801905  0.33326706  0.74949899  1
  Mn3.30+  Mn112  1  0.16486714  0.66824479  0.24912978  1
  Mn3.30+  Mn113  1  0.16648053  0.66694015  0.74936504  1
  Mn3.30+  Mn114  1  0.49830525  -0.00032058  0.24887821  1
  Mn3.30+  Mn115  1  0.49834570  -0.00012404  0.75172144  1
  Mn3.30+  Mn116  1  0.49990134  0.33481645  0.24849484  1
  Mn3.30+  Mn117  1  0.50051979  0.33381655  0.74982576  1
  Mn3.30+  Mn118  1  0.49983931  0.66654928  0.24935138  1
  Mn3.30+  Mn119  1  0.49967175  0.66549116  0.74802959  1
  Mn3.30+  Mn120  1  0.83687394  -0.00015514  0.24951029  1
  Mn3.30+  Mn121  1  0.83415759  -0.00395150  0.75095054  1
  Mn3.30+  Mn122  1  0.83364468  0.33417745  0.25106470  1
  Mn3.30+  Mn123  1  0.83089428  0.33398025  0.74719713  1
  Mn3.30+  Mn124  1  0.83578723  0.66641582  0.24910938  1
  Mn3.30+  Mn125  1  0.83280264  0.66703264  0.74943029  1
  Mn3.30+  Mn126  1  0.00002134  0.16671400  -0.00102897  1
  Mn3.30+  Mn127  1  0.00171050  0.16678058  0.50205682  1
  Mn3.30+  Mn128  1  -0.00274663  0.50189401  0.00109898  1
  Mn3.30+  Mn129  1  -0.00071086  0.49958296  0.49963019  1
  Mn3.30+  Mn130  1  0.00009155  0.83300993  0.00069227  1
  Mn3.30+  Mn131  1  0.00077492  0.83397147  0.50002899  1
  Mn3.30+  Mn132  1  0.33448870  0.16342635  -0.00177460  1
  Mn3.30+  Mn133  1  0.33272092  0.16681462  0.50194497  1
  Mn3.30+  Mn134  1  0.33330211  0.49944434  0.00174316  1
  Mn3.30+  Mn135  1  0.33390372  0.50264179  0.50108934  1
  Mn3.30+  Mn136  1  0.33340676  0.83531520  0.00039940  1
  Mn3.30+  Mn137  1  0.33212816  0.83294676  0.49914948  1
  Mn3.30+  Mn138  1  0.66485210  0.16603137  -0.00235363  1
  Mn3.30+  Mn139  1  0.66721432  0.16636579  0.50167666  1
  Mn3.30+  Mn140  1  0.66622122  0.50020251  0.00370976  1
  Mn3.30+  Mn141  1  0.66390614  0.49956640  0.50074710  1
  Mn3.30+  Mn142  1  0.66948295  0.83251695  0.00024423  1
  Mn3.30+  Mn143  1  0.66806662  0.83305559  0.50111878  1
  O2-  O144  1  0.02372973  0.16353987  0.12131702  1
  O2-  O145  1  0.02927520  0.15922941  0.62659091  1
  O2-  O146  1  0.02529406  0.49128586  0.12632387  1
  O2-  O147  1  0.02612163  0.49416350  0.62507204  1
  O2-  O148  1  0.01820458  0.82400357  0.12412886  1
  O2-  O149  1  0.02572275  0.83098854  0.62648911  1
  O2-  O150  1  0.35711488  0.15916019  0.12095595  1
  O2-  O151  1  0.36117273  0.16294759  0.62758919  1
  O2-  O152  1  0.35747801  0.49935837  0.12627891  1
  O2-  O153  1  0.36322530  0.49190301  0.62399411  1
  O2-  O154  1  0.35882547  0.82432936  0.12425578  1
  O2-  O155  1  0.35786680  0.82643325  0.62595154  1
  O2-  O156  1  0.69221362  0.16067324  0.12250453  1
  O2-  O157  1  0.69004091  0.15607389  0.62717723  1
  O2-  O158  1  0.69673722  0.49412126  0.12654224  1
  O2-  O159  1  0.68280560  0.49552703  0.62217747  1
  O2-  O160  1  0.69526443  0.82912517  0.12509548  1
  O2-  O161  1  0.69210276  0.83440146  0.62534114  1
  O2-  O162  1  0.13879589  0.32503603  0.12312247  1
  O2-  O163  1  0.14296188  0.32858050  0.62474914  1
  O2-  O164  1  0.14006102  0.65992478  0.12495140  1
  O2-  O165  1  0.13876775  0.66396331  0.62536262  1
  O2-  O166  1  0.14088500  1.00226403  0.12327432  1
  O2-  O167  1  0.14113602  0.99010766  0.62614877  1
  O2-  O168  1  0.47940090  0.32258379  0.12422885  1
  O2-  O169  1  0.47241741  0.32550748  0.62481202  1
  O2-  O170  1  0.47448648  0.66030965  0.12544288  1
  O2-  O171  1  0.47320354  0.66084696  0.62430947  1
  O2-  O172  1  0.47432115  0.99643470  0.12182424  1
  O2-  O173  1  0.47408747  0.99261449  0.62568660  1
  O2-  O174  1  0.80577641  0.32278134  0.12652807  1
  O2-  O175  1  0.80418135  0.32638471  0.62564880  1
  O2-  O176  1  0.80815438  0.66302641  0.12622098  1
  O2-  O177  1  0.81591214  0.66459121  0.62373845  1
  O2-  O178  1  0.80872270  0.99663394  0.12294714  1
  O2-  O179  1  0.81086215  0.99181071  0.62859937  1
  O2-  O180  1  0.30964466  0.17185877  0.37674913  1
  O2-  O181  1  0.30766335  0.17337754  0.87382662  1
  O2-  O182  1  0.30496563  0.50815830  0.37543542  1
  O2-  O183  1  0.30729563  0.50697452  0.87464958  1
  O2-  O184  1  0.30773868  0.83310989  0.37427953  1
  O2-  O185  1  0.31103799  0.83763397  0.87451774  1
  O2-  O186  1  0.64125744  0.17151552  0.37683937  1
  O2-  O187  1  0.63682562  0.17245402  0.87368649  1
  O2-  O188  1  0.64170350  0.50409185  0.37317113  1
  O2-  O189  1  0.64174904  0.50479226  0.87861042  1
  O2-  O190  1  0.64305084  0.83530658  0.37442993  1
  O2-  O191  1  0.64153921  0.83573982  0.87595477  1
  O2-  O192  1  0.97584002  0.17149190  0.37865434  1
  O2-  O193  1  0.97329973  0.17449696  0.87294738  1
  O2-  O194  1  0.97377467  0.50845112  0.37295639  1
  O2-  O195  1  0.97472626  0.49912008  0.87587933  1
  O2-  O196  1  0.97504830  0.83836335  0.37320156  1
  O2-  O197  1  0.97403119  0.83982786  0.87651668  1
  O2-  O198  1  0.18563699  0.00774300  0.37532992  1
  O2-  O199  1  0.19481067  0.00692672  0.87351092  1
  O2-  O200  1  0.19136452  0.33613057  0.37688923  1
  O2-  O201  1  0.19268808  0.34065827  0.87520898  1
  O2-  O202  1  0.18777949  0.67130907  0.37487634  1
  O2-  O203  1  0.19042021  0.66819394  0.87444235  1
  O2-  O204  1  0.51878510  0.00368067  0.37639562  1
  O2-  O205  1  0.52688974  0.00321509  0.87579902  1
  O2-  O206  1  0.52557884  0.34002386  0.37397812  1
  O2-  O207  1  0.52568018  0.34290053  0.87738160  1
  O2-  O208  1  0.52521449  0.67457070  0.37302084  1
  O2-  O209  1  0.52616492  0.67175930  0.87764018  1
  O2-  O210  1  0.86265982  0.00554443  0.37422343  1
  O2-  O211  1  0.86003892  0.00862686  0.87468647  1
  O2-  O212  1  0.86069110  0.33987387  0.37435127  1
  O2-  O213  1  0.85537137  0.33958555  0.87335713  1
  O2-  O214  1  0.85970722  0.67294561  0.37508052  1
  O2-  O215  1  0.84931506  0.66560408  0.87557249  1
  O2-  O216  1  0.23659802  0.09590891  0.01673672  1
  O2-  O217  1  0.23730026  0.09412093  0.52266495  1
  O2-  O218  1  0.23383835  0.42788654  0.01803054  1
  O2-  O219  1  0.23914793  0.43011222  0.52023984  1
  O2-  O220  1  0.24361922  0.75722746  0.01501941  1
  O2-  O221  1  0.23823402  0.76106224  0.51942290  1
  O2-  O222  1  0.57296817  0.09330220  0.02246602  1
  O2-  O223  1  0.57185472  0.09241337  0.52001795  1
  O2-  O224  1  0.57256826  0.43084519  0.02458868  1
  O2-  O225  1  0.56616178  0.43001507  0.51696955  1
  O2-  O226  1  0.57190094  0.76051914  0.02271929  1
  O2-  O227  1  0.56952131  0.76107172  0.51757247  1
  O2-  O228  1  0.90340777  0.09797079  0.01608498  1
  O2-  O229  1  0.90676645  0.09442316  0.52340413  1
  O2-  O230  1  0.90365326  0.42990118  0.02154655  1
  O2-  O231  1  0.90632931  0.42539020  0.51922604  1
  O2-  O232  1  0.90279015  0.76020271  0.01587116  1
  O2-  O233  1  0.90577137  0.76560973  0.52017060  1
  O2-  O234  1  0.25898366  0.25676059  0.23216233  1
  O2-  O235  1  0.26561264  0.26346788  0.73303108  1
  O2-  O236  1  0.25891994  0.59412910  0.22953870  1
  O2-  O237  1  0.26362172  0.59504819  0.72666743  1
  O2-  O238  1  0.26392793  0.92977218  0.22775660  1
  O2-  O239  1  0.26105238  0.92630175  0.72804152  1
  O2-  O240  1  0.59578430  0.26061746  0.23126346  1
  O2-  O241  1  0.59566023  0.26447116  0.72732168  1
  O2-  O242  1  0.59592846  0.59564633  0.23192473  1
  O2-  O243  1  0.59165820  0.59433702  0.73641614  1
  O2-  O244  1  0.59409216  0.92676033  0.22708018  1
  O2-  O245  1  0.59699190  0.92649388  0.73188508  1
  O2-  O246  1  0.92569778  0.26083870  0.22869427  1
  O2-  O247  1  0.92763902  0.25961921  0.72706347  1
  O2-  O248  1  0.93128624  0.59858046  0.23037369  1
  O2-  O249  1  0.92907335  0.59390686  0.73253627  1
  O2-  O250  1  0.93229148  0.93034266  0.22764906  1
  O2-  O251  1  0.93266136  0.93080886  0.73375357  1
  O2-  O252  1  0.09462963  0.23647357  0.26883057  1
  O2-  O253  1  0.09239283  0.24107174  0.77250376  1
  O2-  O254  1  0.09447899  0.56952459  0.27056089  1
  O2-  O255  1  0.09689719  0.56979702  0.76626788  1
  O2-  O256  1  0.09616443  0.90465057  0.27090839  1
  O2-  O257  1  0.09602204  0.90689975  0.77312363  1
  O2-  O258  1  0.42834022  0.24080917  0.27016022  1
  O2-  O259  1  0.43148912  0.23740883  0.77249857  1
  O2-  O260  1  0.42626629  0.57655609  0.27320131  1
  O2-  O261  1  0.42598780  0.57364644  0.77476384  1
  O2-  O262  1  0.43042870  0.90243659  0.26522664  1
  O2-  O263  1  0.43070778  0.90293611  0.76793764  1
  O2-  O264  1  0.76219694  0.23942913  0.27350608  1
  O2-  O265  1  0.75946175  0.23635977  0.77100830  1
  O2-  O266  1  0.76230388  0.57444473  0.27297279  1
  O2-  O267  1  0.75622679  0.57144425  0.76887631  1
  O2-  O268  1  0.76773741  0.90562876  0.26654414  1
  O2-  O269  1  0.76249109  0.90476500  0.77548708  1
  O2-  O270  1  0.07063234  0.07102979  0.48075704  1
  O2-  O271  1  0.07375470  0.07528878  0.97605948  1
  O2-  O272  1  0.07121537  0.40404837  0.47913112  1
  O2-  O273  1  0.06986655  0.40463035  0.98028662  1
  O2-  O274  1  0.06761725  0.73789297  0.48379887  1
  O2-  O275  1  0.07821487  0.74329270  0.97994758  1
  O2-  O276  1  0.40676973  0.07484669  0.48480829  1
  O2-  O277  1  0.40481087  0.06989209  0.97604505  1
  O2-  O278  1  0.40292099  0.40600116  0.47684918  1
  O2-  O279  1  0.40550142  0.40735142  0.97832303  1
  O2-  O280  1  0.40602627  0.74051786  0.47776647  1
  O2-  O281  1  0.40711322  0.73913847  0.97989048  1
  O2-  O282  1  0.74508538  0.07373782  0.48418473  1
  O2-  O283  1  0.73672722  0.07199733  0.97786148  1
  O2-  O284  1  0.73810967  0.40758966  0.47780344  1
  O2-  O285  1  0.73558023  0.40412574  0.97952791  1
  O2-  O286  1  0.74115278  0.73970248  0.47739355  1
  O2-  O287  1  0.73637322  0.73502019  0.98426463  1
  O2-  O288  1  0.09466564  0.23623863  0.48179679  1
  O2-  O289  1  0.09272108  0.24064253  0.97575572  1
  O2-  O290  1  0.09655654  0.57120017  0.48040869  1
  O2-  O291  1  0.09564998  0.56834676  0.98347628  1
  O2-  O292  1  0.09696475  0.90298319  0.47870946  1
  O2-  O293  1  0.09713768  0.90868418  0.97662762  1
  O2-  O294  1  0.43053317  0.24037847  0.47859455  1
  O2-  O295  1  0.42736566  0.23606844  0.97853844  1
  O2-  O296  1  0.42510284  0.57504554  0.47403642  1
  O2-  O297  1  0.42723036  0.57566109  0.97846386  1
  O2-  O298  1  0.42909975  0.90277265  0.48365352  1
  O2-  O299  1  0.43270544  0.90242335  0.98243534  1
  O2-  O300  1  0.76340325  0.23954955  0.47873646  1
  O2-  O301  1  0.75908601  0.23674217  0.97722385  1
  O2-  O302  1  0.75866370  0.57344994  0.47798646  1
  O2-  O303  1  0.76011721  0.57080592  0.98070504  1
  O2-  O304  1  0.76453414  0.90659898  0.48160809  1
  O2-  O305  1  0.76490117  0.90422886  0.97811251  1
  O2-  O306  1  0.07379943  0.07319156  0.26910423  1
  O2-  O307  1  0.07151018  0.07236969  0.77287083  1
  O2-  O308  1  0.06669056  0.40298392  0.27148839  1
  O2-  O309  1  0.07314642  0.40683424  0.76981318  1
  O2-  O310  1  0.07142469  0.73914611  0.26921111  1
  O2-  O311  1  0.07335133  0.74365367  0.76833899  1
  O2-  O312  1  0.41003091  0.07784729  0.26780574  1
  O2-  O313  1  0.40010549  0.06902354  0.76891369  1
  O2-  O314  1  0.40478235  0.40825628  0.27362471  1
  O2-  O315  1  0.40378547  0.40459774  0.77195056  1
  O2-  O316  1  0.40638617  0.74022047  0.26995664  1
  O2-  O317  1  0.40740583  0.73894485  0.77235234  1
  O2-  O318  1  0.74385279  0.07438253  0.26706983  1
  O2-  O319  1  0.73913212  0.06994491  0.77091116  1
  O2-  O320  1  0.73749421  0.40351891  0.27254434  1
  O2-  O321  1  0.73703134  0.40787863  0.77079120  1
  O2-  O322  1  0.73918684  0.73835745  0.27028587  1
  O2-  O323  1  0.73734835  0.73869984  0.76969392  1
  O2-  O324  1  0.23737153  0.09403030  0.23252434  1
  O2-  O325  1  0.23609399  0.09685225  0.72664493  1
  O2-  O326  1  0.23238605  0.42745480  0.23391351  1
  O2-  O327  1  0.24046453  0.43045984  0.72789830  1
  O2-  O328  1  0.24372095  0.75699053  0.22999764  1
  O2-  O329  1  0.23866954  0.76223613  0.73451544  1
  O2-  O330  1  0.57394986  0.09344848  0.23023084  1
  O2-  O331  1  0.57194732  0.09228116  0.72784681  1
  O2-  O332  1  0.56983646  0.42803769  0.22724352  1
  O2-  O333  1  0.56713030  0.43071723  0.73258317  1
  O2-  O334  1  0.57172877  0.75996136  0.22744802  1
  O2-  O335  1  0.56966921  0.76187020  0.73272881  1
  O2-  O336  1  0.90575669  0.09661876  0.23164722  1
  O2-  O337  1  0.90515840  0.09502559  0.72884797  1
  O2-  O338  1  0.90087949  0.43038144  0.22717286  1
  O2-  O339  1  0.90970041  0.42474566  0.73151678  1
  O2-  O340  1  0.90230215  0.76451206  0.23369500  1
  O2-  O341  1  0.90712616  0.76260509  0.73065218  1
  O2-  O342  1  0.25738871  0.25819076  0.01665524  1
  O2-  O343  1  0.26432760  0.26296425  0.51869611  1
  O2-  O344  1  0.25971662  0.59344684  0.02026993  1
  O2-  O345  1  0.26288869  0.59553666  0.52325479  1
  O2-  O346  1  0.26493703  0.92909901  0.01771925  1
  O2-  O347  1  0.26200858  0.92643987  0.52362030  1
  O2-  O348  1  0.59658909  0.26078656  0.02062924  1
  O2-  O349  1  0.59547797  0.26350884  0.52132849  1
  O2-  O350  1  0.59674976  0.59555156  0.02102255  1
  O2-  O351  1  0.59189822  0.59429146  0.51143652  1
  O2-  O352  1  0.59695060  0.92818434  0.01993974  1
  O2-  O353  1  0.59244584  0.92618019  0.52159927  1
  O2-  O354  1  0.92657056  0.26244518  0.01879466  1
  O2-  O355  1  0.92804264  0.25784215  0.52495680  1
  O2-  O356  1  0.92831106  0.59554607  0.02166517  1
  O2-  O357  1  0.93106791  0.59760251  0.51584470  1
  O2-  O358  1  0.93209917  0.93079488  0.02196158  1
  O2-  O359  1  0.93382664  0.93096486  0.51649616  1
