# generated using pymatgen
data_Sr7Ca15Pr50Mn72O216
_symmetry_space_group_name_H-M   'P 1'
_cell_length_a   16.55529748
_cell_length_b   16.59602068
_cell_length_c   15.58865785
_cell_angle_alpha   89.99846654
_cell_angle_beta   89.99962028
_cell_angle_gamma   90.00142864
_symmetry_Int_Tables_number   1
_chemical_formula_structural   Sr7Ca15Pr50Mn72O216
_chemical_formula_sum   'Sr7 Ca15 Pr50 Mn72 O216'
_cell_volume   4283.01584450
_cell_formula_units_Z   1
loop_
 _symmetry_equiv_pos_site_id
 _symmetry_equiv_pos_as_xyz
  1  'x, y, z'
loop_
 _atom_type_symbol
 _atom_type_oxidation_number
  Sr2+  2.0
  Ca2+  2.0
  Pr3+  3.0
  Mn3.30+  3.3
  O2-  -2.0
loop_
 _atom_site_type_symbol
 _atom_site_label
 _atom_site_symmetry_multiplicity
 _atom_site_fract_x
 _atom_site_fract_y
 _atom_site_fract_z
 _atom_site_occupancy
  Sr2+  Sr0  1  0.83290019  0.49315256  0.37231719  1
  Sr2+  Sr1  1  -0.00159805  0.67443322  0.12791888  1
  Sr2+  Sr2  1  -0.00010803  0.34366350  0.62626423  1
  Sr2+  Sr3  1  0.33283697  0.32762246  0.37459990  1
  Sr2+  Sr4  1  1.00208421  0.65456852  0.37562503  1
  Sr2+  Sr5  1  0.66977303  0.65669272  0.37760821  1
  Sr2+  Sr6  1  0.49638035  0.82183415  0.37681460  1
  Ca2+  Ca7  1  0.83653198  0.18080722  0.12313652  1
  Ca2+  Ca8  1  0.16281973  0.48956299  0.37560788  1
  Ca2+  Ca9  1  0.82932754  0.48505352  0.87604530  1
  Ca2+  Ca10  1  0.33771375  0.98642293  0.87513940  1
  Ca2+  Ca11  1  0.33678646  0.65341941  0.37506596  1
  Ca2+  Ca12  1  0.49608446  0.14945921  0.87519823  1
  Ca2+  Ca13  1  0.33628449  0.98481584  0.37498650  1
  Ca2+  Ca14  1  0.83853754  0.51559769  0.12608818  1
  Ca2+  Ca15  1  0.34113298  0.31480178  0.87502837  1
  Ca2+  Ca16  1  0.65898767  0.68391253  0.62289643  1
  Ca2+  Ca17  1  0.33797803  0.65360949  0.87510173  1
  Ca2+  Ca18  1  0.50253398  0.84691234  0.62401330  1
  Ca2+  Ca19  1  0.66341628  0.34913850  0.62545957  1
  Ca2+  Ca20  1  0.16617311  0.81765810  0.37599184  1
  Ca2+  Ca21  1  0.66673687  0.98531656  0.87458335  1
  Pr3+  Pr22  1  1.00362818  0.32805148  0.37675138  1
  Pr3+  Pr23  1  0.49498282  0.48647689  0.87508136  1
  Pr3+  Pr24  1  1.00041007  0.65320132  0.87500275  1
  Pr3+  Pr25  1  0.50584239  0.51400295  0.62446997  1
  Pr3+  Pr26  1  -0.00525079  0.34830688  0.12384660  1
  Pr3+  Pr27  1  0.16947079  0.51160466  0.62258609  1
  Pr3+  Pr28  1  0.65869588  0.00970988  0.62676571  1
  Pr3+  Pr29  1  0.16699167  0.82066237  0.87370121  1
  Pr3+  Pr30  1  0.83323553  0.50975816  0.62536151  1
  Pr3+  Pr31  1  0.17081213  0.17982576  0.62624674  1
  Pr3+  Pr32  1  0.50530180  0.18258185  0.62664603  1
  Pr3+  Pr33  1  0.33535266  0.01019561  0.62459577  1
  Pr3+  Pr34  1  0.16823497  0.51458306  0.12700777  1
  Pr3+  Pr35  1  0.49859226  0.49229235  0.37483938  1
  Pr3+  Pr36  1  0.82786472  0.15134045  0.87561992  1
  Pr3+  Pr37  1  0.66790336  0.34785248  0.12375662  1
  Pr3+  Pr38  1  1.00003788  0.32187261  0.87309304  1
  Pr3+  Pr39  1  0.33204194  0.68009748  0.62446796  1
  Pr3+  Pr40  1  0.49611580  0.82046562  0.87370233  1
  Pr3+  Pr41  1  0.66800200  0.98713332  0.37478619  1
  Pr3+  Pr42  1  -0.00342201  0.01243194  0.62457987  1
  Pr3+  Pr43  1  0.83800654  0.84305696  0.12691341  1
  Pr3+  Pr44  1  0.83147047  0.84347432  0.62276769  1
  Pr3+  Pr45  1  0.67075541  0.65300343  0.87292296  1
  Pr3+  Pr46  1  0.82897645  0.81787764  0.37555204  1
  Pr3+  Pr47  1  0.33088349  0.34574222  0.62668088  1
  Pr3+  Pr48  1  0.16690913  0.48897696  0.87529177  1
  Pr3+  Pr49  1  0.82835838  0.82178833  0.87477525  1
  Pr3+  Pr50  1  0.50069513  0.51306146  0.12517273  1
  Pr3+  Pr51  1  0.50150073  0.84528307  0.12633452  1
  Pr3+  Pr52  1  0.67027382  0.32650110  0.37643879  1
  Pr3+  Pr53  1  0.16981338  0.17997316  0.12362942  1
  Pr3+  Pr54  1  0.32949243  0.34724253  0.12301387  1
  Pr3+  Pr55  1  1.00325262  0.98658055  0.87436998  1
  Pr3+  Pr56  1  0.66892328  0.32069146  0.87381967  1
  Pr3+  Pr57  1  0.66718258  0.67642542  0.12766152  1
  Pr3+  Pr58  1  0.83252901  0.18141432  0.62644010  1
  Pr3+  Pr59  1  0.16820283  0.84362853  0.12790924  1
  Pr3+  Pr60  1  0.16479439  0.15680392  0.37559330  1
  Pr3+  Pr61  1  0.33128622  0.01159208  0.12536011  1
  Pr3+  Pr62  1  -0.00469495  0.01373726  0.12490407  1
  Pr3+  Pr63  1  0.50218651  0.18017197  0.12337525  1
  Pr3+  Pr64  1  0.66439269  0.01303676  0.12388324  1
  Pr3+  Pr65  1  -0.00105205  0.67583516  0.62306265  1
  Pr3+  Pr66  1  1.00556388  0.98499807  0.37530184  1
  Pr3+  Pr67  1  0.17031298  0.84498386  0.62211812  1
  Pr3+  Pr68  1  0.49395071  0.15430986  0.37425164  1
  Pr3+  Pr69  1  0.32880774  0.67986978  0.12554139  1
  Pr3+  Pr70  1  0.83152997  0.15937488  0.37456828  1
  Pr3+  Pr71  1  0.16740225  0.15310337  0.87415349  1
  Mn3.30+  Mn72  1  0.16777881  -0.00110932  -0.00051904  1
  Mn3.30+  Mn73  1  0.16892503  -0.00066768  0.49839928  1
  Mn3.30+  Mn74  1  0.16793474  0.33331284  -0.00304484  1
  Mn3.30+  Mn75  1  0.16813681  0.33481757  0.50047060  1
  Mn3.30+  Mn76  1  0.16736155  0.66685939  -0.00143650  1
  Mn3.30+  Mn77  1  0.16857406  0.66610837  0.49695542  1
  Mn3.30+  Mn78  1  0.49972395  0.00044628  -0.00194989  1
  Mn3.30+  Mn79  1  0.49742546  -0.00090415  0.49939053  1
  Mn3.30+  Mn80  1  0.49925160  0.33224250  -0.00113877  1
  Mn3.30+  Mn81  1  0.50119188  0.33481295  0.50006246  1
  Mn3.30+  Mn82  1  0.49958276  0.66694094  -0.00038017  1
  Mn3.30+  Mn83  1  0.49946873  0.66830162  0.49919108  1
  Mn3.30+  Mn84  1  0.83128966  -0.00017021  -0.00011667  1
  Mn3.30+  Mn85  1  0.83228598  0.00144746  0.49965219  1
  Mn3.30+  Mn86  1  0.83300762  0.33372718  -0.00049475  1
  Mn3.30+  Mn87  1  0.83287753  0.33548949  0.50152159  1
  Mn3.30+  Mn88  1  0.83400290  0.66437237  -0.00113289  1
  Mn3.30+  Mn89  1  0.83019164  0.66497302  0.50252071  1
  Mn3.30+  Mn90  1  -0.00108186  0.16811490  0.24934382  1
  Mn3.30+  Mn91  1  -0.00089860  0.16649222  0.75037989  1
  Mn3.30+  Mn92  1  -0.00013291  0.50037932  0.25091932  1
  Mn3.30+  Mn93  1  -0.00140887  0.49934907  0.75103684  1
  Mn3.30+  Mn94  1  0.00271672  0.83146703  0.25204450  1
  Mn3.30+  Mn95  1  -0.00090557  0.83262863  0.74837635  1
  Mn3.30+  Mn96  1  0.33277385  0.16720500  0.25087180  1
  Mn3.30+  Mn97  1  0.33785791  0.16514190  0.75227815  1
  Mn3.30+  Mn98  1  0.33191766  0.50141065  0.25241718  1
  Mn3.30+  Mn99  1  0.33528523  0.50020772  0.75095806  1
  Mn3.30+  Mn100  1  0.33285436  0.83307386  0.25374310  1
  Mn3.30+  Mn101  1  0.33564444  0.83358822  0.74959522  1
  Mn3.30+  Mn102  1  0.66723669  0.16858865  0.24825039  1
  Mn3.30+  Mn103  1  0.66374369  0.16599172  0.75259789  1
  Mn3.30+  Mn104  1  0.66874883  0.50133268  0.24828408  1
  Mn3.30+  Mn105  1  0.66685421  0.50018736  0.75029724  1
  Mn3.30+  Mn106  1  0.66709892  0.83283310  0.25022149  1
  Mn3.30+  Mn107  1  0.66301870  0.83388733  0.74990039  1
  Mn3.30+  Mn108  1  0.16762775  -0.00091014  0.25200820  1
  Mn3.30+  Mn109  1  0.16901971  -0.00078524  0.74973113  1
  Mn3.30+  Mn110  1  0.16587643  0.33468749  0.24954457  1
  Mn3.30+  Mn111  1  0.17040295  0.33351284  0.75296782  1
  Mn3.30+  Mn112  1  0.16747084  0.66682542  0.25378480  1
  Mn3.30+  Mn113  1  0.16864897  0.66615116  0.75084686  1
  Mn3.30+  Mn114  1  0.49801138  -0.00009960  0.24994117  1
  Mn3.30+  Mn115  1  0.49908651  -0.00026465  0.75343294  1
  Mn3.30+  Mn116  1  0.50025159  0.33455761  0.24883748  1
  Mn3.30+  Mn117  1  0.50043937  0.33276475  0.75156469  1
  Mn3.30+  Mn118  1  0.49763279  0.66739179  0.25183436  1
  Mn3.30+  Mn119  1  0.50064451  0.66806701  0.74920576  1
  Mn3.30+  Mn120  1  0.83420864  0.00222686  0.25057897  1
  Mn3.30+  Mn121  1  0.82964596  -0.00095482  0.74962850  1
  Mn3.30+  Mn122  1  0.83430661  0.33435197  0.24848335  1
  Mn3.30+  Mn123  1  0.83135222  0.33476367  0.75018259  1
  Mn3.30+  Mn124  1  0.83400493  0.66464947  0.25069782  1
  Mn3.30+  Mn125  1  0.83049998  0.66555248  0.74808571  1
  Mn3.30+  Mn126  1  -0.00112432  0.16681214  -0.00103737  1
  Mn3.30+  Mn127  1  -0.00085659  0.16802717  0.50070035  1
  Mn3.30+  Mn128  1  -0.00327889  0.50008243  -0.00184799  1
  Mn3.30+  Mn129  1  0.00105471  0.49948336  0.50065133  1
  Mn3.30+  Mn130  1  -0.00016145  0.83213727  -0.00010636  1
  Mn3.30+  Mn131  1  0.00184711  0.83190709  0.49976546  1
  Mn3.30+  Mn132  1  0.33602507  0.16545289  -0.00209701  1
  Mn3.30+  Mn133  1  0.33445646  0.16662891  0.49944883  1
  Mn3.30+  Mn134  1  0.33319117  0.50055266  -0.00195038  1
  Mn3.30+  Mn135  1  0.33424220  0.50121145  0.49852943  1
  Mn3.30+  Mn136  1  0.33369528  0.83365975  -0.00144874  1
  Mn3.30+  Mn137  1  0.33465873  0.83284645  0.49821310  1
  Mn3.30+  Mn138  1  0.66626451  0.16576765  -0.00090369  1
  Mn3.30+  Mn139  1  0.66483673  0.16863483  0.49984502  1
  Mn3.30+  Mn140  1  0.66874429  0.50072209  -0.00017218  1
  Mn3.30+  Mn141  1  0.66725229  0.50075391  0.50106198  1
  Mn3.30+  Mn142  1  0.66621031  0.83357978  0.00005354  1
  Mn3.30+  Mn143  1  0.66345462  0.83281595  0.50053319  1
  O2-  O144  1  0.02611967  0.16165351  0.12219978  1
  O2-  O145  1  0.02544091  0.16059519  0.62612750  1
  O2-  O146  1  0.02459926  0.49685895  0.12127493  1
  O2-  O147  1  0.02474046  0.50287776  0.62803573  1
  O2-  O148  1  0.02365834  0.83233540  0.12674484  1
  O2-  O149  1  0.02601541  0.82788759  0.62552677  1
  O2-  O150  1  0.35765340  0.15994333  0.12450396  1
  O2-  O151  1  0.36079294  0.15922900  0.62730219  1
  O2-  O152  1  0.35610719  0.49495718  0.12291245  1
  O2-  O153  1  0.36052032  0.49317262  0.62718139  1
  O2-  O154  1  0.35770129  0.82662545  0.12413591  1
  O2-  O155  1  0.36082230  0.82710674  0.62556283  1
  O2-  O156  1  0.69530792  0.15920601  0.12400607  1
  O2-  O157  1  0.68989013  0.15620848  0.62774304  1
  O2-  O158  1  0.69511061  0.49643207  0.12195495  1
  O2-  O159  1  0.68928932  0.49135443  0.62814690  1
  O2-  O160  1  0.69262992  0.82751227  0.12402740  1
  O2-  O161  1  0.68721822  0.83613548  0.62441185  1
  O2-  O162  1  0.14043035  0.32747003  0.12037613  1
  O2-  O163  1  0.15054507  0.32823294  0.62796062  1
  O2-  O164  1  0.14865630  0.66386241  0.12470390  1
  O2-  O165  1  0.14328756  0.66105831  0.62709003  1
  O2-  O166  1  0.13914950  0.99375734  0.12516914  1
  O2-  O167  1  0.13999032  0.99423592  0.62322163  1
  O2-  O168  1  0.47324190  0.32909889  0.12257791  1
  O2-  O169  1  0.47421675  0.33000033  0.62762531  1
  O2-  O170  1  0.47283218  0.66254030  0.12568980  1
  O2-  O171  1  0.47440971  0.66021953  0.62535665  1
  O2-  O172  1  0.47545463  0.99570782  0.12482989  1
  O2-  O173  1  0.47901274  0.99590255  0.62702246  1
  O2-  O174  1  0.81021707  0.32260133  0.12274648  1
  O2-  O175  1  0.80542627  0.32787318  0.62786743  1
  O2-  O176  1  0.81219048  0.66380626  0.12174859  1
  O2-  O177  1  0.80329424  0.65870223  0.62735376  1
  O2-  O178  1  0.80827906  0.99036835  0.12678803  1
  O2-  O179  1  0.80377944  0.99333268  0.62515965  1
  O2-  O180  1  0.30826858  0.17399380  0.37253145  1
  O2-  O181  1  0.30900881  0.17218012  0.87539905  1
  O2-  O182  1  0.30735416  0.50645679  0.37520875  1
  O2-  O183  1  0.31017886  0.51046838  0.87428833  1
  O2-  O184  1  0.30661580  0.84307124  0.37589694  1
  O2-  O185  1  0.30875255  0.84353197  0.87433469  1
  O2-  O186  1  0.63809584  0.17745415  0.37236346  1
  O2-  O187  1  0.63722133  0.17536655  0.87541222  1
  O2-  O188  1  0.64345474  0.49734200  0.37329770  1
  O2-  O189  1  0.63873663  0.50605245  0.87559462  1
  O2-  O190  1  0.64779182  0.83820032  0.37524383  1
  O2-  O191  1  0.64175868  0.83688263  0.87733793  1
  O2-  O192  1  0.97590216  0.17537266  0.37635712  1
  O2-  O193  1  0.97348330  0.17029640  0.87499144  1
  O2-  O194  1  0.98338041  0.49259685  0.37750046  1
  O2-  O195  1  0.97218310  0.50480683  0.87388842  1
  O2-  O196  1  0.97321588  0.83876460  0.37691139  1
  O2-  O197  1  0.97292055  0.83947086  0.87130374  1
  O2-  O198  1  0.19428862  0.01164169  0.37630874  1
  O2-  O199  1  0.19409507  0.00485798  0.87518365  1
  O2-  O200  1  0.18260627  0.33874564  0.37622216  1
  O2-  O201  1  0.19845072  0.34114789  0.87542507  1
  O2-  O202  1  0.19546027  0.67412932  0.37618432  1
  O2-  O203  1  0.19516203  0.67250827  0.87276218  1
  O2-  O204  1  0.52441758  0.00719052  0.37212155  1
  O2-  O205  1  0.52620542  0.00465894  0.87776438  1
  O2-  O206  1  0.52591810  0.34011145  0.37215532  1
  O2-  O207  1  0.52606971  0.34045162  0.87665366  1
  O2-  O208  1  0.52037121  0.66285352  0.37489387  1
  O2-  O209  1  0.52687597  0.67216604  0.87372508  1
  O2-  O210  1  0.86140295  0.01072216  0.37452357  1
  O2-  O211  1  0.85996581  0.00311309  0.87317383  1
  O2-  O212  1  0.85785572  0.33370644  0.37415648  1
  O2-  O213  1  0.85644000  0.33875772  0.87549872  1
  O2-  O214  1  0.85005783  0.67106033  0.37916278  1
  O2-  O215  1  0.85730300  0.67673007  0.87191401  1
  O2-  O216  1  0.23786544  0.09498956  0.02037915  1
  O2-  O217  1  0.23818984  0.09443094  0.52268906  1
  O2-  O218  1  0.23582248  0.42848828  0.02072667  1
  O2-  O219  1  0.24332513  0.42597486  0.52201122  1
  O2-  O220  1  0.23798137  0.76353382  0.01853581  1
  O2-  O221  1  0.24037936  0.76011493  0.52323745  1
  O2-  O222  1  0.57279289  0.09371328  0.02370762  1
  O2-  O223  1  0.57013549  0.09644064  0.51795057  1
  O2-  O224  1  0.57230497  0.42955200  0.02074450  1
  O2-  O225  1  0.57173516  0.42992608  0.51732295  1
  O2-  O226  1  0.57096882  0.76002058  0.02152281  1
  O2-  O227  1  0.56935135  0.76214997  0.52028212  1
  O2-  O228  1  0.90145527  0.09370120  0.02029647  1
  O2-  O229  1  0.90350427  0.09366467  0.52331726  1
  O2-  O230  1  0.90510806  0.42832943  0.02244945  1
  O2-  O231  1  0.90445367  0.42625496  0.52127976  1
  O2-  O232  1  0.90317139  0.76439063  0.01552082  1
  O2-  O233  1  0.90558083  0.75822882  0.52218140  1
  O2-  O234  1  0.25950055  0.26025265  0.22607237  1
  O2-  O235  1  0.26466014  0.25762538  0.73033241  1
  O2-  O236  1  0.26151380  0.59382477  0.22797079  1
  O2-  O237  1  0.26080341  0.59172257  0.72658312  1
  O2-  O238  1  0.26032998  0.92619393  0.22695582  1
  O2-  O239  1  0.26129517  0.92512849  0.72476209  1
  O2-  O240  1  0.59552630  0.26063660  0.22435686  1
  O2-  O241  1  0.59642726  0.26470791  0.72797020  1
  O2-  O242  1  0.59032376  0.59171050  0.22646986  1
  O2-  O243  1  0.59754676  0.59825561  0.72889463  1
  O2-  O244  1  0.59581849  0.92772141  0.22985481  1
  O2-  O245  1  0.59457214  0.93115160  0.73540891  1
  O2-  O246  1  0.93066413  0.26317604  0.23160887  1
  O2-  O247  1  0.92362630  0.25839142  0.73373503  1
  O2-  O248  1  0.92619607  0.59058750  0.23710100  1
  O2-  O249  1  0.92675878  0.59579616  0.72959680  1
  O2-  O250  1  0.93052491  0.92872134  0.23189642  1
  O2-  O251  1  0.92686595  0.92728162  0.72671800  1
  O2-  O252  1  0.09477957  0.23772163  0.26837940  1
  O2-  O253  1  0.09756715  0.24126085  0.77243002  1
  O2-  O254  1  0.09970395  0.57021628  0.26658792  1
  O2-  O255  1  0.09421473  0.57360189  0.77301051  1
  O2-  O256  1  0.09584194  0.90530289  0.27455162  1
  O2-  O257  1  0.09565768  0.90669508  0.77059836  1
  O2-  O258  1  0.43004592  0.23711693  0.26505813  1
  O2-  O259  1  0.43395074  0.23417622  0.76923231  1
  O2-  O260  1  0.42788998  0.57080856  0.26601334  1
  O2-  O261  1  0.43152994  0.56998626  0.76740699  1
  O2-  O262  1  0.42615588  0.90388745  0.26334299  1
  O2-  O263  1  0.42923579  0.90484132  0.77006426  1
  O2-  O264  1  0.76015469  0.24090569  0.27170041  1
  O2-  O265  1  0.76015217  0.23620940  0.77160280  1
  O2-  O266  1  0.75627520  0.57467969  0.26195894  1
  O2-  O267  1  0.76227347  0.56982632  0.77372309  1
  O2-  O268  1  0.76342516  0.90805032  0.27190028  1
  O2-  O269  1  0.76267329  0.90362635  0.76748201  1
  O2-  O270  1  0.07184010  0.07289183  0.47965096  1
  O2-  O271  1  0.07149352  0.07185651  0.97860038  1
  O2-  O272  1  0.07416430  0.40546950  0.48776792  1
  O2-  O273  1  0.07062947  0.40590663  0.97656593  1
  O2-  O274  1  0.07458776  0.73841299  0.48666653  1
  O2-  O275  1  0.07344128  0.74030470  0.97512549  1
  O2-  O276  1  0.40342562  0.07166971  0.47855686  1
  O2-  O277  1  0.40180712  0.06688860  0.98248537  1
  O2-  O278  1  0.40913458  0.40867182  0.48173470  1
  O2-  O279  1  0.40250444  0.40395886  0.97885183  1
  O2-  O280  1  0.40017624  0.73500062  0.48174258  1
  O2-  O281  1  0.40310167  0.73885277  0.97764914  1
  O2-  O282  1  0.73663794  0.07578049  0.47622928  1
  O2-  O283  1  0.73554612  0.07012730  0.97663640  1
  O2-  O284  1  0.73798436  0.40413810  0.48378367  1
  O2-  O285  1  0.73508059  0.40316212  0.98143483  1
  O2-  O286  1  0.74162335  0.74524325  0.48732792  1
  O2-  O287  1  0.73861689  0.73706447  0.98004084  1
  O2-  O288  1  0.09509785  0.24017450  0.48269857  1
  O2-  O289  1  0.09731777  0.23967736  0.97503924  1
  O2-  O290  1  0.09962811  0.57134248  0.48376114  1
  O2-  O291  1  0.09423351  0.57210180  0.97809754  1
  O2-  O292  1  0.09712794  0.90662982  0.47768558  1
  O2-  O293  1  0.09422701  0.90500678  0.97729806  1
  O2-  O294  1  0.43242496  0.23757231  0.48401103  1
  O2-  O295  1  0.43111205  0.23255530  0.98151547  1
  O2-  O296  1  0.42925788  0.57039493  0.48342729  1
  O2-  O297  1  0.43209839  0.57114861  0.98280461  1
  O2-  O298  1  0.42526836  0.90756707  0.48446606  1
  O2-  O299  1  0.43070709  0.90251266  0.98384262  1
  O2-  O300  1  0.76061283  0.23900473  0.48097678  1
  O2-  O301  1  0.75992894  0.23802937  0.97631635  1
  O2-  O302  1  0.76035226  0.56945490  0.48719008  1
  O2-  O303  1  0.76081972  0.57267593  0.97428007  1
  O2-  O304  1  0.76242492  0.90852324  0.47853142  1
  O2-  O305  1  0.76332424  0.90416849  0.98211605  1
  O2-  O306  1  0.07040984  0.07293932  0.27057498  1
  O2-  O307  1  0.07233017  0.07209474  0.77036273  1
  O2-  O308  1  0.06902400  0.40294406  0.26158603  1
  O2-  O309  1  0.07517729  0.40808756  0.77393942  1
  O2-  O310  1  0.07629631  0.74110205  0.26910251  1
  O2-  O311  1  0.07198134  0.73898820  0.77042658  1
  O2-  O312  1  0.40287579  0.07246466  0.27022585  1
  O2-  O313  1  0.40250652  0.06696761  0.77016147  1
  O2-  O314  1  0.40751590  0.41047472  0.26575826  1
  O2-  O315  1  0.40385940  0.40223162  0.77290021  1
  O2-  O316  1  0.40091116  0.73629697  0.26791030  1
  O2-  O317  1  0.40343378  0.73698448  0.77278878  1
  O2-  O318  1  0.73689741  0.07457284  0.27255215  1
  O2-  O319  1  0.73643414  0.07039888  0.77401997  1
  O2-  O320  1  0.73741955  0.40214020  0.26406190  1
  O2-  O321  1  0.73674532  0.40490011  0.77130544  1
  O2-  O322  1  0.74186260  0.74217966  0.26477535  1
  O2-  O323  1  0.73767054  0.74038378  0.76922115  1
  O2-  O324  1  0.23738039  0.09520844  0.22779618  1
  O2-  O325  1  0.23835584  0.09388832  0.72919682  1
  O2-  O326  1  0.23990862  0.42647038  0.22766258  1
  O2-  O327  1  0.24013487  0.42891032  0.73025614  1
  O2-  O328  1  0.24043576  0.76118087  0.22862074  1
  O2-  O329  1  0.23903251  0.76219706  0.72905907  1
  O2-  O330  1  0.57319759  0.09569666  0.22858022  1
  O2-  O331  1  0.57031787  0.09471861  0.72975550  1
  O2-  O332  1  0.57459554  0.42754642  0.22580398  1
  O2-  O333  1  0.56842680  0.43155130  0.73488967  1
  O2-  O334  1  0.57291235  0.75791299  0.22789173  1
  O2-  O335  1  0.56685611  0.76539402  0.73157772  1
  O2-  O336  1  0.90476171  0.09705537  0.22715542  1
  O2-  O337  1  0.90107097  0.09106689  0.72804780  1
  O2-  O338  1  0.90441273  0.42569038  0.22555263  1
  O2-  O339  1  0.90442477  0.42719567  0.73158008  1
  O2-  O340  1  0.90571145  0.76317574  0.23599717  1
  O2-  O341  1  0.90355896  0.75947582  0.72535444  1
  O2-  O342  1  0.26226752  0.25918338  0.02117415  1
  O2-  O343  1  0.26159365  0.25875660  0.52161412  1
  O2-  O344  1  0.26021423  0.59282620  0.02030719  1
  O2-  O345  1  0.26178007  0.59274775  0.52464268  1
  O2-  O346  1  0.26017106  0.92577971  0.02422642  1
  O2-  O347  1  0.26091137  0.92623443  0.52439274  1
  O2-  O348  1  0.59643095  0.26123141  0.02289136  1
  O2-  O349  1  0.59624206  0.26364265  0.52240021  1
  O2-  O350  1  0.59719214  0.59476445  0.02143316  1
  O2-  O351  1  0.59347460  0.59427439  0.52167975  1
  O2-  O352  1  0.59275751  0.92727236  0.02381302  1
  O2-  O353  1  0.59583746  0.93157926  0.51392165  1
  O2-  O354  1  0.93122721  0.26308211  0.01509029  1
  O2-  O355  1  0.92350836  0.25857720  0.51986683  1
  O2-  O356  1  0.92868696  0.59663410  0.01236855  1
  O2-  O357  1  0.92570304  0.59205452  0.52187245  1
  O2-  O358  1  0.92918678  0.92856429  0.01945814  1
  O2-  O359  1  0.92846115  0.92705643  0.52095737  1
