# generated using pymatgen
data_Sr7Ca15Pr50Mn72O216
_symmetry_space_group_name_H-M   'P 1'
_cell_length_a   16.55588597
_cell_length_b   16.60143813
_cell_length_c   15.59062902
_cell_angle_alpha   90.00589093
_cell_angle_beta   89.99846831
_cell_angle_gamma   90.00107119
_symmetry_Int_Tables_number   1
_chemical_formula_structural   Sr7Ca15Pr50Mn72O216
_chemical_formula_sum   'Sr7 Ca15 Pr50 Mn72 O216'
_cell_volume   4285.10800876
_cell_formula_units_Z   1
loop_
 _symmetry_equiv_pos_site_id
 _symmetry_equiv_pos_as_xyz
  1  'x, y, z'
loop_
 _atom_type_symbol
 _atom_type_oxidation_number
  Sr2+  2.0
  Ca2+  2.0
  Pr3+  3.0
  Mn3.30+  3.3
  O2-  -2.0
loop_
 _atom_site_type_symbol
 _atom_site_label
 _atom_site_symmetry_multiplicity
 _atom_site_fract_x
 _atom_site_fract_y
 _atom_site_fract_z
 _atom_site_occupancy
  Sr2+  Sr0  1  1.00223562  0.31921415  0.87532283  1
  Sr2+  Sr1  1  0.16576157  0.49057104  0.37796268  1
  Sr2+  Sr2  1  0.83448185  0.49071312  0.87474457  1
  Sr2+  Sr3  1  0.50096554  0.17674340  0.12384433  1
  Sr2+  Sr4  1  0.83353639  0.15816319  0.87634441  1
  Sr2+  Sr5  1  0.33221457  0.99300462  0.87642737  1
  Sr2+  Sr6  1  0.82733997  0.15540259  0.37394020  1
  Ca2+  Ca7  1  0.16233529  0.15273131  0.87621194  1
  Ca2+  Ca8  1  1.00273212  0.65211735  0.87393106  1
  Ca2+  Ca9  1  0.49461592  0.48454619  0.87309851  1
  Ca2+  Ca10  1  0.50482291  0.84763073  0.62333328  1
  Ca2+  Ca11  1  0.50359056  0.18090753  0.62583226  1
  Ca2+  Ca12  1  0.67307054  0.98319190  0.37193826  1
  Ca2+  Ca13  1  -0.00443294  0.01540605  0.12516765  1
  Ca2+  Ca14  1  0.17037415  0.51451547  0.62603714  1
  Ca2+  Ca15  1  0.33120300  0.34653778  0.12553043  1
  Ca2+  Ca16  1  0.83823282  0.85226665  0.12754565  1
  Ca2+  Ca17  1  0.82834535  0.82031482  0.37272489  1
  Ca2+  Ca18  1  0.50051319  0.82082962  0.37504221  1
  Ca2+  Ca19  1  0.50412963  0.51614436  0.62619956  1
  Ca2+  Ca20  1  0.66890833  0.31827870  0.37441637  1
  Ca2+  Ca21  1  0.66560970  0.01603214  0.12809858  1
  Pr3+  Pr22  1  0.99859860  0.98652466  0.37266197  1
  Pr3+  Pr23  1  0.16211749  0.81968993  0.87561479  1
  Pr3+  Pr24  1  1.00355803  0.99292363  0.87820209  1
  Pr3+  Pr25  1  -0.00104896  0.67688641  0.62648337  1
  Pr3+  Pr26  1  0.83548836  0.17935474  0.62509921  1
  Pr3+  Pr27  1  0.16134222  0.48690916  0.87238523  1
  Pr3+  Pr28  1  0.83434189  0.84576875  0.62212176  1
  Pr3+  Pr29  1  0.17074955  0.84505827  0.62436035  1
  Pr3+  Pr30  1  0.50214260  0.15507266  0.37548172  1
  Pr3+  Pr31  1  0.49728752  0.15312566  0.87427471  1
  Pr3+  Pr32  1  -0.00306899  0.34432636  0.12346505  1
  Pr3+  Pr33  1  -0.00274682  0.34627765  0.62665440  1
  Pr3+  Pr34  1  0.66032216  0.68263701  0.62557993  1
  Pr3+  Pr35  1  0.83566886  0.51030406  0.12319289  1
  Pr3+  Pr36  1  0.33344476  0.67868074  0.62455409  1
  Pr3+  Pr37  1  0.49646283  0.48674907  0.37694852  1
  Pr3+  Pr38  1  0.16810650  0.84726397  0.12594807  1
  Pr3+  Pr39  1  0.33747149  0.65116209  0.87521600  1
  Pr3+  Pr40  1  1.00024316  0.65419543  0.37551267  1
  Pr3+  Pr41  1  0.83155052  0.82224547  0.87634662  1
  Pr3+  Pr42  1  0.49666371  0.82426476  0.87485608  1
  Pr3+  Pr43  1  0.66161191  0.34681174  0.62460815  1
  Pr3+  Pr44  1  0.16429243  0.81930043  0.37474838  1
  Pr3+  Pr45  1  0.50542229  0.84926614  0.12662696  1
  Pr3+  Pr46  1  0.83386483  0.17667742  0.12488499  1
  Pr3+  Pr47  1  0.33234718  0.34841399  0.62503248  1
  Pr3+  Pr48  1  0.50112047  0.51052163  0.12405577  1
  Pr3+  Pr49  1  -0.00334247  0.01200004  0.62387876  1
  Pr3+  Pr50  1  0.33741699  0.65345323  0.37473777  1
  Pr3+  Pr51  1  0.16366973  0.15454843  0.37558432  1
  Pr3+  Pr52  1  0.66949943  0.32057074  0.87485346  1
  Pr3+  Pr53  1  0.33563544  0.01194804  0.62532323  1
  Pr3+  Pr54  1  0.33258862  0.01365340  0.12522146  1
  Pr3+  Pr55  1  0.83385467  0.51239976  0.62731376  1
  Pr3+  Pr56  1  0.66139236  0.01419593  0.62275012  1
  Pr3+  Pr57  1  -0.00659803  0.67993216  0.12304829  1
  Pr3+  Pr58  1  0.66823142  0.65289062  0.87487056  1
  Pr3+  Pr59  1  1.00294052  0.32047969  0.37511554  1
  Pr3+  Pr60  1  0.82720695  0.48556157  0.37572483  1
  Pr3+  Pr61  1  0.66366081  0.34192852  0.12578638  1
  Pr3+  Pr62  1  0.33572780  0.32164359  0.37475045  1
  Pr3+  Pr63  1  0.32950434  0.67935211  0.12486008  1
  Pr3+  Pr64  1  0.34005588  0.98552901  0.37374680  1
  Pr3+  Pr65  1  0.66832027  0.65752321  0.37537003  1
  Pr3+  Pr66  1  0.66638207  0.67961648  0.12447618  1
  Pr3+  Pr67  1  0.16931040  0.50976640  0.12405783  1
  Pr3+  Pr68  1  0.17027705  0.17827168  0.62690239  1
  Pr3+  Pr69  1  0.67121067  0.99109138  0.87809364  1
  Pr3+  Pr70  1  0.17185457  0.18085871  0.12401768  1
  Pr3+  Pr71  1  0.33574432  0.32108312  0.87526560  1
  Mn3.30+  Mn72  1  0.16543234  0.00090004  0.00179208  1
  Mn3.30+  Mn73  1  0.16813467  -0.00075312  0.49894439  1
  Mn3.30+  Mn74  1  0.16789116  0.33201275  -0.00068444  1
  Mn3.30+  Mn75  1  0.16708300  0.33521912  0.50156983  1
  Mn3.30+  Mn76  1  0.16407611  0.66616762  -0.00050175  1
  Mn3.30+  Mn77  1  0.16706839  0.66559140  0.50099398  1
  Mn3.30+  Mn78  1  0.50268657  0.00114450  0.00153819  1
  Mn3.30+  Mn79  1  0.50316959  -0.00159529  0.49774630  1
  Mn3.30+  Mn80  1  0.49870718  0.33401272  0.00018180  1
  Mn3.30+  Mn81  1  0.50149335  0.33274616  0.50064574  1
  Mn3.30+  Mn82  1  0.49977060  0.66640407  -0.00015632  1
  Mn3.30+  Mn83  1  0.50083581  0.66875041  0.50014414  1
  Mn3.30+  Mn84  1  0.83486827  0.00011909  0.00336740  1
  Mn3.30+  Mn85  1  0.82913204  -0.00096190  0.49665986  1
  Mn3.30+  Mn86  1  0.83245739  0.33312771  -0.00201349  1
  Mn3.30+  Mn87  1  0.83063502  0.33277013  0.50025379  1
  Mn3.30+  Mn88  1  0.83345039  0.66784639  -0.00128313  1
  Mn3.30+  Mn89  1  0.83176376  0.66771042  0.50036565  1
  Mn3.30+  Mn90  1  -0.00077437  0.16517725  0.24940866  1
  Mn3.30+  Mn91  1  0.00231321  0.16564935  0.75109178  1
  Mn3.30+  Mn92  1  -0.00034429  0.49955264  0.25089402  1
  Mn3.30+  Mn93  1  0.00182006  0.50041829  0.74929606  1
  Mn3.30+  Mn94  1  -0.00398630  0.83432860  0.24935908  1
  Mn3.30+  Mn95  1  -0.00036509  0.83290619  0.75043418  1
  Mn3.30+  Mn96  1  0.33390895  0.16778077  0.25028854  1
  Mn3.30+  Mn97  1  0.33450917  0.16704265  0.74988700  1
  Mn3.30+  Mn98  1  0.33343761  0.49810891  0.24982223  1
  Mn3.30+  Mn99  1  0.33453177  0.50040465  0.74844608  1
  Mn3.30+  Mn100  1  0.33576252  0.83317447  0.25047085  1
  Mn3.30+  Mn101  1  0.33503721  0.83433319  0.75000679  1
  Mn3.30+  Mn102  1  0.66642034  0.16511589  0.25081082  1
  Mn3.30+  Mn103  1  0.66566560  0.16664507  0.74884526  1
  Mn3.30+  Mn104  1  0.66607569  0.49915732  0.25023209  1
  Mn3.30+  Mn105  1  0.66256490  0.50027113  0.75136775  1
  Mn3.30+  Mn106  1  0.67038042  0.83577101  0.24907289  1
  Mn3.30+  Mn107  1  0.66471361  0.83561287  0.75058099  1
  Mn3.30+  Mn108  1  0.16571043  -0.00006045  0.25001768  1
  Mn3.30+  Mn109  1  0.16733166  0.00004352  0.75045316  1
  Mn3.30+  Mn110  1  0.16760258  0.33425046  0.25063674  1
  Mn3.30+  Mn111  1  0.16702773  0.33274271  0.74926063  1
  Mn3.30+  Mn112  1  0.16434234  0.66550472  0.24969036  1
  Mn3.30+  Mn113  1  0.16706111  0.66621585  0.74984233  1
  Mn3.30+  Mn114  1  0.50586105  0.00010901  0.25214692  1
  Mn3.30+  Mn115  1  0.50046627  -0.00029577  0.74869146  1
  Mn3.30+  Mn116  1  0.50028464  0.33235026  0.24963158  1
  Mn3.30+  Mn117  1  0.49983709  0.33484557  0.74908662  1
  Mn3.30+  Mn118  1  0.50080497  0.66820835  0.24937194  1
  Mn3.30+  Mn119  1  0.49965598  0.66629627  0.75041222  1
  Mn3.30+  Mn120  1  0.83137225  -0.00079637  0.24871206  1
  Mn3.30+  Mn121  1  0.83303922  0.00024309  0.75027701  1
  Mn3.30+  Mn122  1  0.83116424  0.33229765  0.25056759  1
  Mn3.30+  Mn123  1  0.83187010  0.33364480  0.75141327  1
  Mn3.30+  Mn124  1  0.83287959  0.66878969  0.24969954  1
  Mn3.30+  Mn125  1  0.83265037  0.66700491  0.75137025  1
  Mn3.30+  Mn126  1  0.00214468  0.16501897  0.00131321  1
  Mn3.30+  Mn127  1  -0.00095570  0.16583873  0.49893238  1
  Mn3.30+  Mn128  1  0.00128728  0.50006472  -0.00223612  1
  Mn3.30+  Mn129  1  0.00000190  0.49987465  0.50178040  1
  Mn3.30+  Mn130  1  -0.00235071  0.83434666  0.00123943  1
  Mn3.30+  Mn131  1  -0.00134368  0.83291213  0.49845861  1
  Mn3.30+  Mn132  1  0.33277214  0.16822987  -0.00047215  1
  Mn3.30+  Mn133  1  0.33587332  0.16661557  0.50100691  1
  Mn3.30+  Mn134  1  0.33395171  0.49782530  -0.00077155  1
  Mn3.30+  Mn135  1  0.33421969  0.50056142  0.50240167  1
  Mn3.30+  Mn136  1  0.33317664  0.83480304  -0.00031055  1
  Mn3.30+  Mn137  1  0.33806835  0.83323283  0.49995674  1
  Mn3.30+  Mn138  1  0.66614083  0.16538725  0.00093282  1
  Mn3.30+  Mn139  1  0.66572334  0.16684436  0.49922461  1
  Mn3.30+  Mn140  1  0.66488575  0.49906310  -0.00175437  1
  Mn3.30+  Mn141  1  0.66373913  0.50038380  0.50032490  1
  Mn3.30+  Mn142  1  0.66893569  0.83602189  0.00348888  1
  Mn3.30+  Mn143  1  0.66561313  0.83496511  0.49641331  1
  O2-  O144  1  0.02681219  0.16405434  0.12776245  1
  O2-  O145  1  0.02555145  0.15983829  0.62282988  1
  O2-  O146  1  0.02405050  0.49428707  0.12353845  1
  O2-  O147  1  0.02702521  0.49478123  0.62451207  1
  O2-  O148  1  0.02691702  0.82428894  0.12665286  1
  O2-  O149  1  0.02668043  0.82636680  0.62574015  1
  O2-  O150  1  0.35161054  0.16017322  0.12709889  1
  O2-  O151  1  0.36092101  0.16044025  0.62320801  1
  O2-  O152  1  0.35735932  0.49404342  0.12475167  1
  O2-  O153  1  0.36304120  0.49664216  0.62530372  1
  O2-  O154  1  0.35842063  0.82829685  0.12495498  1
  O2-  O155  1  0.36142811  0.82666804  0.62270182  1
  O2-  O156  1  0.68852433  0.16437629  0.12553315  1
  O2-  O157  1  0.69132807  0.16123041  0.62412529  1
  O2-  O158  1  0.69181975  0.49240335  0.12475462  1
  O2-  O159  1  0.69062634  0.49604070  0.62378114  1
  O2-  O160  1  0.69786017  0.82408363  0.12489864  1
  O2-  O161  1  0.69128656  0.82987022  0.62480596  1
  O2-  O162  1  0.14114740  0.32928609  0.12610827  1
  O2-  O163  1  0.14048328  0.32405901  0.62529308  1
  O2-  O164  1  0.13874982  0.65891494  0.12517415  1
  O2-  O165  1  0.14355770  0.66544114  0.62438760  1
  O2-  O166  1  0.13918524  0.99360471  0.12864296  1
  O2-  O167  1  0.14160702  0.99263638  0.62197481  1
  O2-  O168  1  0.47327826  0.33216862  0.12444227  1
  O2-  O169  1  0.47453375  0.32361995  0.62478255  1
  O2-  O170  1  0.47325287  0.65978939  0.12352651  1
  O2-  O171  1  0.47643326  0.65992112  0.62575205  1
  O2-  O172  1  0.47619343  0.99609624  0.12762810  1
  O2-  O173  1  0.47765293  0.99059217  0.62074534  1
  O2-  O174  1  0.81002641  0.33171360  0.12367385  1
  O2-  O175  1  0.80849131  0.33076282  0.62559791  1
  O2-  O176  1  0.80963177  0.65652970  0.12460937  1
  O2-  O177  1  0.80546940  0.66197977  0.62695823  1
  O2-  O178  1  0.80631983  0.99536945  0.12614627  1
  O2-  O179  1  0.80656355  0.99277683  0.62155975  1
  O2-  O180  1  0.30715579  0.17214369  0.37537497  1
  O2-  O181  1  0.30604434  0.17261477  0.87475318  1
  O2-  O182  1  0.31503208  0.50466680  0.37639217  1
  O2-  O183  1  0.30539145  0.50348863  0.87339189  1
  O2-  O184  1  0.30793193  0.83707146  0.37466850  1
  O2-  O185  1  0.30762956  0.83662355  0.87765063  1
  O2-  O186  1  0.64450313  0.17610822  0.37608584  1
  O2-  O187  1  0.64244500  0.17006507  0.87387188  1
  O2-  O188  1  0.63993674  0.51009950  0.37580850  1
  O2-  O189  1  0.63590616  0.50612606  0.87574349  1
  O2-  O190  1  0.64125299  0.83592047  0.37251083  1
  O2-  O191  1  0.64046325  0.84295487  0.87750038  1
  O2-  O192  1  0.97858550  0.17333755  0.37514712  1
  O2-  O193  1  0.98373574  0.16021762  0.87415943  1
  O2-  O194  1  0.97198877  0.50485554  0.37785481  1
  O2-  O195  1  0.98416724  0.50658010  0.87360135  1
  O2-  O196  1  0.97129907  0.83863420  0.37240882  1
  O2-  O197  1  0.97434994  0.84511265  0.87428218  1
  O2-  O198  1  0.19505236  0.00531973  0.37547922  1
  O2-  O199  1  0.18247910  0.00487472  0.87490715  1
  O2-  O200  1  0.19094176  0.33503558  0.37688716  1
  O2-  O201  1  0.19226958  0.34096379  0.87214004  1
  O2-  O202  1  0.19162034  0.67128841  0.37566211  1
  O2-  O203  1  0.19306735  0.67194137  0.87458756  1
  O2-  O204  1  0.53016853  0.00863181  0.37530362  1
  O2-  O205  1  0.52587022  0.00390411  0.87629202  1
  O2-  O206  1  0.52695449  0.34089507  0.37704305  1
  O2-  O207  1  0.52571282  0.34135282  0.87371210  1
  O2-  O208  1  0.52461955  0.67386512  0.37360240  1
  O2-  O209  1  0.52534008  0.67728650  0.87658205  1
  O2-  O210  1  0.85748172  0.00396606  0.37413601  1
  O2-  O211  1  0.85888112  0.00110043  0.87722740  1
  O2-  O212  1  0.85856937  0.33846565  0.37651436  1
  O2-  O213  1  0.85111015  0.33381448  0.87427823  1
  O2-  O214  1  0.85686322  0.67274931  0.37452556  1
  O2-  O215  1  0.85982890  0.67446756  0.87414792  1
  O2-  O216  1  0.23922649  0.09258259  0.02178406  1
  O2-  O217  1  0.23995595  0.09356149  0.52068798  1
  O2-  O218  1  0.23719118  0.42902385  0.01732731  1
  O2-  O219  1  0.23808521  0.42694084  0.52465282  1
  O2-  O220  1  0.23462204  0.75899828  0.02212804  1
  O2-  O221  1  0.24021525  0.76214212  0.51940982  1
  O2-  O222  1  0.57338325  0.09447260  0.01370307  1
  O2-  O223  1  0.56932547  0.09749978  0.52116770  1
  O2-  O224  1  0.57236899  0.42620961  0.02350803  1
  O2-  O225  1  0.56896355  0.43088461  0.52234812  1
  O2-  O226  1  0.57420878  0.76319828  0.02230473  1
  O2-  O227  1  0.57138917  0.76241939  0.52168934  1
  O2-  O228  1  0.90517853  0.09246487  0.02265479  1
  O2-  O229  1  0.90469991  0.09158690  0.52189245  1
  O2-  O230  1  0.90890695  0.42625143  0.01980844  1
  O2-  O231  1  0.90368908  0.42865485  0.52161427  1
  O2-  O232  1  0.90338390  0.76479172  0.02170980  1
  O2-  O233  1  0.90668535  0.75738057  0.52378656  1
  O2-  O234  1  0.26158830  0.26236940  0.23020905  1
  O2-  O235  1  0.26268845  0.26259685  0.72719497  1
  O2-  O236  1  0.26110286  0.59298161  0.22893700  1
  O2-  O237  1  0.26597851  0.59601598  0.73123671  1
  O2-  O238  1  0.26263157  0.92831581  0.23034254  1
  O2-  O239  1  0.26030453  0.92637713  0.72658177  1
  O2-  O240  1  0.59409197  0.26277471  0.23275727  1
  O2-  O241  1  0.59502896  0.26399039  0.73289783  1
  O2-  O242  1  0.59463370  0.59439868  0.22780125  1
  O2-  O243  1  0.59586061  0.59811302  0.73259027  1
  O2-  O244  1  0.59894681  0.92690625  0.22514116  1
  O2-  O245  1  0.59749922  0.93102182  0.73264934  1
  O2-  O246  1  0.92732505  0.26166175  0.22935744  1
  O2-  O247  1  0.92897220  0.25626367  0.72848496  1
  O2-  O248  1  0.92665254  0.59545034  0.23084371  1
  O2-  O249  1  0.92679173  0.59217442  0.72749830  1
  O2-  O250  1  0.93286461  0.93163775  0.23034521  1
  O2-  O251  1  0.92722542  0.92608595  0.72615547  1
  O2-  O252  1  0.09686031  0.23940943  0.27014010  1
  O2-  O253  1  0.09965758  0.23293129  0.76608584  1
  O2-  O254  1  0.09089127  0.57338806  0.26941986  1
  O2-  O255  1  0.09678249  0.57270860  0.76583593  1
  O2-  O256  1  0.09664982  0.90430724  0.27257037  1
  O2-  O257  1  0.09482050  0.90338127  0.76866476  1
  O2-  O258  1  0.42773289  0.24109427  0.27513807  1
  O2-  O259  1  0.42780206  0.24128602  0.77331740  1
  O2-  O260  1  0.42896539  0.57223784  0.26937529  1
  O2-  O261  1  0.42704357  0.57147669  0.77478628  1
  O2-  O262  1  0.43323590  0.90618277  0.27104943  1
  O2-  O263  1  0.42877351  0.90473955  0.76808179  1
  O2-  O264  1  0.76008125  0.23847872  0.26152998  1
  O2-  O265  1  0.75704672  0.23875469  0.76504011  1
  O2-  O266  1  0.76166878  0.57172737  0.27001079  1
  O2-  O267  1  0.75708503  0.57398671  0.76916343  1
  O2-  O268  1  0.76559985  0.90211806  0.27082292  1
  O2-  O269  1  0.76215132  0.90518304  0.77026872  1
  O2-  O270  1  0.07079849  0.07241377  0.47817152  1
  O2-  O271  1  0.07191057  0.06971674  0.98635646  1
  O2-  O272  1  0.06737741  0.40219767  0.48348256  1
  O2-  O273  1  0.07509734  0.40568945  0.98275819  1
  O2-  O274  1  0.07140574  0.74074374  0.47822864  1
  O2-  O275  1  0.06713772  0.73827811  0.97765848  1
  O2-  O276  1  0.40724609  0.06943017  0.47793431  1
  O2-  O277  1  0.40719311  0.07665399  0.98407542  1
  O2-  O278  1  0.40480474  0.40440420  0.48097713  1
  O2-  O279  1  0.40447294  0.40550120  0.97850812  1
  O2-  O280  1  0.40295657  0.73605630  0.48080842  1
  O2-  O281  1  0.40536970  0.73778579  0.98052528  1
  O2-  O282  1  0.73289930  0.06729212  0.48214049  1
  O2-  O283  1  0.74051632  0.07208095  0.98388582  1
  O2-  O284  1  0.73512829  0.40659856  0.47873833  1
  O2-  O285  1  0.73531516  0.40631707  0.98187464  1
  O2-  O286  1  0.73450405  0.73825367  0.48332789  1
  O2-  O287  1  0.73746170  0.74006640  0.97730108  1
  O2-  O288  1  0.09584767  0.23875935  0.48077833  1
  O2-  O289  1  0.10091222  0.23616194  0.98420231  1
  O2-  O290  1  0.08793143  0.57620788  0.48178124  1
  O2-  O291  1  0.09771591  0.57026252  0.98236433  1
  O2-  O292  1  0.09569501  0.90524396  0.47791899  1
  O2-  O293  1  0.09545091  0.90274540  0.98163397  1
  O2-  O294  1  0.42702173  0.24090870  0.47576663  1
  O2-  O295  1  0.42786802  0.24140136  0.97473028  1
  O2-  O296  1  0.42952001  0.57519858  0.47820984  1
  O2-  O297  1  0.42685860  0.56952524  0.97795496  1
  O2-  O298  1  0.42950937  0.90509565  0.47348368  1
  O2-  O299  1  0.43379061  0.90630921  0.98521698  1
  O2-  O300  1  0.76106183  0.23821725  0.48803649  1
  O2-  O301  1  0.75609513  0.24011542  0.98485214  1
  O2-  O302  1  0.76142332  0.57214838  0.48003236  1
  O2-  O303  1  0.75635812  0.57468020  0.98148707  1
  O2-  O304  1  0.76466474  0.90008320  0.48017833  1
  O2-  O305  1  0.76225352  0.90710497  0.97747394  1
  O2-  O306  1  0.07406225  0.07230985  0.27480584  1
  O2-  O307  1  0.07000196  0.06744220  0.76174677  1
  O2-  O308  1  0.06892504  0.40215908  0.26736434  1
  O2-  O309  1  0.07409519  0.40467393  0.76644294  1
  O2-  O310  1  0.06918590  0.73947689  0.27200925  1
  O2-  O311  1  0.06999255  0.73899884  0.77211106  1
  O2-  O312  1  0.40537943  0.07245851  0.27104358  1
  O2-  O313  1  0.40858631  0.07313093  0.76744212  1
  O2-  O314  1  0.40730466  0.40594632  0.27239495  1
  O2-  O315  1  0.40147638  0.40322265  0.76726115  1
  O2-  O316  1  0.40319851  0.73625794  0.26626756  1
  O2-  O317  1  0.40461468  0.73772016  0.77122945  1
  O2-  O318  1  0.73581393  0.06894357  0.26689393  1
  O2-  O319  1  0.73660026  0.06963643  0.76581214  1
  O2-  O320  1  0.73734684  0.40516995  0.27242921  1
  O2-  O321  1  0.73189523  0.40725053  0.76628654  1
  O2-  O322  1  0.73639740  0.73562027  0.26776780  1
  O2-  O323  1  0.73603751  0.74172271  0.77201505  1
  O2-  O324  1  0.23732606  0.09363058  0.23084397  1
  O2-  O325  1  0.24160532  0.09182438  0.72675023  1
  O2-  O326  1  0.23731906  0.42675496  0.23083255  1
  O2-  O327  1  0.23939144  0.43017152  0.72625941  1
  O2-  O328  1  0.23597167  0.75964552  0.22948582  1
  O2-  O329  1  0.23930599  0.76182594  0.72985598  1
  O2-  O330  1  0.57099473  0.09682882  0.23581845  1
  O2-  O331  1  0.57129871  0.09660737  0.72904231  1
  O2-  O332  1  0.57040731  0.42806064  0.22953436  1
  O2-  O333  1  0.56955670  0.42877772  0.72488388  1
  O2-  O334  1  0.57492619  0.76082661  0.22569788  1
  O2-  O335  1  0.57147944  0.76493065  0.73017626  1
  O2-  O336  1  0.90352059  0.09338227  0.22918376  1
  O2-  O337  1  0.90585969  0.09113531  0.72635130  1
  O2-  O338  1  0.90446284  0.42889191  0.23072969  1
  O2-  O339  1  0.90805694  0.42725446  0.72826172  1
  O2-  O340  1  0.90437213  0.76043432  0.22508122  1
  O2-  O341  1  0.90530410  0.76191545  0.72826238  1
  O2-  O342  1  0.26362555  0.26358261  0.02183206  1
  O2-  O343  1  0.26110141  0.26182165  0.52141588  1
  O2-  O344  1  0.26302695  0.59299471  0.02024350  1
  O2-  O345  1  0.26359811  0.59499066  0.51908598  1
  O2-  O346  1  0.25807928  0.92842766  0.02400575  1
  O2-  O347  1  0.26545995  0.92617853  0.52045028  1
  O2-  O348  1  0.59454240  0.26388914  0.01507802  1
  O2-  O349  1  0.59440325  0.26219620  0.52018394  1
  O2-  O350  1  0.59372263  0.59436060  0.02200400  1
  O2-  O351  1  0.59695171  0.59855965  0.51787472  1
  O2-  O352  1  0.59883899  0.92881003  0.02477012  1
  O2-  O353  1  0.59750115  0.92891356  0.51804280  1
  O2-  O354  1  0.92716152  0.25685879  0.02053149  1
  O2-  O355  1  0.92873489  0.25989401  0.52175318  1
  O2-  O356  1  0.92645498  0.59238224  0.01970087  1
  O2-  O357  1  0.92625901  0.59308585  0.52265827  1
  O2-  O358  1  0.93118792  0.93055904  0.02147845  1
  O2-  O359  1  0.92904398  0.92650672  0.51951851  1
