# generated using pymatgen
data_Sr7Ca15Pr50Mn72O216
_symmetry_space_group_name_H-M   'P 1'
_cell_length_a   16.56126347
_cell_length_b   16.60213379
_cell_length_c   15.59441719
_cell_angle_alpha   89.99888179
_cell_angle_beta   90.00684416
_cell_angle_gamma   90.01872491
_symmetry_Int_Tables_number   1
_chemical_formula_structural   Sr7Ca15Pr50Mn72O216
_chemical_formula_sum   'Sr7 Ca15 Pr50 Mn72 O216'
_cell_volume   4287.72079924
_cell_formula_units_Z   1
loop_
 _symmetry_equiv_pos_site_id
 _symmetry_equiv_pos_as_xyz
  1  'x, y, z'
loop_
 _atom_type_symbol
 _atom_type_oxidation_number
  Sr2+  2.0
  Ca2+  2.0
  Pr3+  3.0
  Mn3.30+  3.3
  O2-  -2.0
loop_
 _atom_site_type_symbol
 _atom_site_label
 _atom_site_symmetry_multiplicity
 _atom_site_fract_x
 _atom_site_fract_y
 _atom_site_fract_z
 _atom_site_occupancy
  Sr2+  Sr0  1  0.83162770  0.48919143  0.87714830  1
  Sr2+  Sr1  1  0.33185728  0.34595510  0.62598438  1
  Sr2+  Sr2  1  0.83392457  0.82664386  0.87566232  1
  Sr2+  Sr3  1  0.16717172  0.50441281  0.12377979  1
  Sr2+  Sr4  1  0.50118168  0.17863013  0.12363525  1
  Sr2+  Sr5  1  0.67207852  0.32299622  0.87747323  1
  Sr2+  Sr6  1  0.66765423  0.34050311  0.12428325  1
  Ca2+  Ca7  1  0.99959021  0.98785192  0.87550780  1
  Ca2+  Ca8  1  -0.00084470  0.34743099  0.62635034  1
  Ca2+  Ca9  1  0.33006268  0.34595713  0.12388240  1
  Ca2+  Ca10  1  0.83704463  0.50757497  0.12003318  1
  Ca2+  Ca11  1  0.16953833  0.50985031  0.62636584  1
  Ca2+  Ca12  1  -0.00441497  0.34965822  0.12398461  1
  Ca2+  Ca13  1  0.49987659  0.15838190  0.87826967  1
  Ca2+  Ca14  1  0.33377236  0.98805223  0.37315187  1
  Ca2+  Ca15  1  0.17208575  0.18575961  0.12494152  1
  Ca2+  Ca16  1  0.16461078  0.15380011  0.37372251  1
  Ca2+  Ca17  1  0.16140547  0.48261040  0.87415639  1
  Ca2+  Ca18  1  0.83728533  0.18517113  0.12175117  1
  Ca2+  Ca19  1  0.49483103  0.48310614  0.37553172  1
  Ca2+  Ca20  1  0.83132061  0.15919170  0.87932009  1
  Ca2+  Ca21  1  0.50296650  0.51229414  0.62460724  1
  Pr3+  Pr22  1  0.50176735  0.18016631  0.62597172  1
  Pr3+  Pr23  1  0.66276010  0.67805266  0.62714101  1
  Pr3+  Pr24  1  0.66838765  0.67172333  0.12263561  1
  Pr3+  Pr25  1  0.16089827  0.15329427  0.87660446  1
  Pr3+  Pr26  1  0.16117909  0.82087272  0.87499635  1
  Pr3+  Pr27  1  0.49474584  0.15387260  0.37212877  1
  Pr3+  Pr28  1  0.16826228  0.84518008  0.12534150  1
  Pr3+  Pr29  1  0.66549973  0.01443320  0.12339201  1
  Pr3+  Pr30  1  0.67165257  0.65335759  0.87514379  1
  Pr3+  Pr31  1  0.66150913  0.34825787  0.62564373  1
  Pr3+  Pr32  1  0.66860988  0.99457872  0.87708509  1
  Pr3+  Pr33  1  0.66618858  0.32168840  0.37230344  1
  Pr3+  Pr34  1  0.33702791  0.98978513  0.87598908  1
  Pr3+  Pr35  1  1.00331886  0.65209917  0.37601425  1
  Pr3+  Pr36  1  0.32932262  0.01436270  0.62385553  1
  Pr3+  Pr37  1  1.00138940  0.32393906  0.87776055  1
  Pr3+  Pr38  1  0.66414875  0.01445134  0.62593185  1
  Pr3+  Pr39  1  0.83248995  0.15642261  0.37120651  1
  Pr3+  Pr40  1  1.00453263  0.99004535  0.37428498  1
  Pr3+  Pr41  1  0.33192276  0.67399880  0.62500399  1
  Pr3+  Pr42  1  1.00760436  0.31774677  0.37357705  1
  Pr3+  Pr43  1  0.83597129  0.50960046  0.62726806  1
  Pr3+  Pr44  1  -0.00339592  0.01730560  0.12256335  1
  Pr3+  Pr45  1  0.50228415  0.84499437  0.12440772  1
  Pr3+  Pr46  1  0.83816699  0.18345817  0.62599536  1
  Pr3+  Pr47  1  1.00375122  0.64952890  0.87412394  1
  Pr3+  Pr48  1  0.16915589  0.18130522  0.62529070  1
  Pr3+  Pr49  1  0.33355228  0.65011274  0.87558381  1
  Pr3+  Pr50  1  0.16492023  0.48558854  0.37563400  1
  Pr3+  Pr51  1  -0.00268750  0.01379107  0.62756549  1
  Pr3+  Pr52  1  0.49690257  0.81955955  0.87556737  1
  Pr3+  Pr53  1  -0.00364072  0.67292663  0.12418984  1
  Pr3+  Pr54  1  0.33822415  0.64863000  0.37481752  1
  Pr3+  Pr55  1  0.16972065  0.84636973  0.62511868  1
  Pr3+  Pr56  1  0.32810765  0.67586219  0.12550245  1
  Pr3+  Pr57  1  0.66754083  0.65223399  0.37510585  1
  Pr3+  Pr58  1  0.33421588  0.32095883  0.87723803  1
  Pr3+  Pr59  1  0.83230061  0.48609677  0.37338744  1
  Pr3+  Pr60  1  0.16617218  0.82085221  0.37529974  1
  Pr3+  Pr61  1  0.49497516  0.82045745  0.37440456  1
  Pr3+  Pr62  1  0.50276131  0.84674730  0.62543218  1
  Pr3+  Pr63  1  0.82995057  0.82029417  0.37405741  1
  Pr3+  Pr64  1  0.83598813  0.84748435  0.62708023  1
  Pr3+  Pr65  1  0.32725322  0.01671375  0.12608087  1
  Pr3+  Pr66  1  0.50103977  0.50403410  0.12563648  1
  Pr3+  Pr67  1  0.33358467  0.32326007  0.37300015  1
  Pr3+  Pr68  1  0.49947576  0.48556887  0.87444510  1
  Pr3+  Pr69  1  0.66861666  0.98808946  0.37246490  1
  Pr3+  Pr70  1  -0.00063139  0.67730880  0.62578989  1
  Pr3+  Pr71  1  0.83770415  0.84647557  0.12311526  1
  Mn3.30+  Mn72  1  0.16420837  0.00149831  0.00069754  1
  Mn3.30+  Mn73  1  0.16748085  0.00198972  0.49765282  1
  Mn3.30+  Mn74  1  0.16684754  0.33310430  0.00181450  1
  Mn3.30+  Mn75  1  0.16680404  0.33353273  0.50225935  1
  Mn3.30+  Mn76  1  0.16575351  0.66311651  0.00001526  1
  Mn3.30+  Mn77  1  0.16787799  0.66429275  0.50090721  1
  Mn3.30+  Mn78  1  0.49939643  0.00238145  0.00027709  1
  Mn3.30+  Mn79  1  0.49760232  0.00032451  0.49862466  1
  Mn3.30+  Mn80  1  0.50024060  0.33090498  -0.00026170  1
  Mn3.30+  Mn81  1  0.49876769  0.33520358  0.50025474  1
  Mn3.30+  Mn82  1  0.49900417  0.66394120  0.00072446  1
  Mn3.30+  Mn83  1  0.49964043  0.66340932  0.50009001  1
  Mn3.30+  Mn84  1  0.83485926  0.00483215  -0.00130340  1
  Mn3.30+  Mn85  1  0.83366017  0.00172044  0.49932365  1
  Mn3.30+  Mn86  1  0.83582873  0.33370036  0.00214781  1
  Mn3.30+  Mn87  1  0.83521425  0.33376340  0.49898490  1
  Mn3.30+  Mn88  1  0.83417121  0.66644508  -0.00124875  1
  Mn3.30+  Mn89  1  0.83279426  0.66587748  0.50081547  1
  Mn3.30+  Mn90  1  0.00322790  0.16954287  0.24541162  1
  Mn3.30+  Mn91  1  -0.00165305  0.16815590  0.75279487  1
  Mn3.30+  Mn92  1  -0.00091586  0.49854697  0.24870071  1
  Mn3.30+  Mn93  1  0.00297257  0.49700346  0.74867194  1
  Mn3.30+  Mn94  1  0.00027892  0.83340784  0.25019589  1
  Mn3.30+  Mn95  1  0.00026381  0.83408645  0.75113633  1
  Mn3.30+  Mn96  1  0.32929258  0.16846713  0.24958442  1
  Mn3.30+  Mn97  1  0.33353940  0.16757613  0.75160779  1
  Mn3.30+  Mn98  1  0.33371365  0.49686950  0.24909068  1
  Mn3.30+  Mn99  1  0.33100127  0.49794143  0.74985931  1
  Mn3.30+  Mn100  1  0.33298896  0.83391703  0.25016534  1
  Mn3.30+  Mn101  1  0.33290838  0.83244999  0.75023855  1
  Mn3.30+  Mn102  1  0.66669930  0.16750982  0.24804545  1
  Mn3.30+  Mn103  1  0.66873524  0.16885788  0.75228035  1
  Mn3.30+  Mn104  1  0.66638827  0.49801713  0.25011196  1
  Mn3.30+  Mn105  1  0.66674922  0.49946467  0.74959864  1
  Mn3.30+  Mn106  1  0.66652702  0.83151559  0.24826294  1
  Mn3.30+  Mn107  1  0.66692080  0.83537777  0.75158964  1
  Mn3.30+  Mn108  1  0.16681821  0.00345445  0.25036383  1
  Mn3.30+  Mn109  1  0.16510314  0.00045147  0.75114665  1
  Mn3.30+  Mn110  1  0.16713899  0.33138629  0.24684965  1
  Mn3.30+  Mn111  1  0.16621937  0.33503680  0.74956668  1
  Mn3.30+  Mn112  1  0.16654948  0.66451501  0.25035404  1
  Mn3.30+  Mn113  1  0.16694470  0.66291911  0.74957646  1
  Mn3.30+  Mn114  1  0.49778558  -0.00016337  0.24927456  1
  Mn3.30+  Mn115  1  0.49946277  0.00276157  0.75100362  1
  Mn3.30+  Mn116  1  0.49877164  0.33313187  0.24831258  1
  Mn3.30+  Mn117  1  0.49987550  0.33295729  0.75100649  1
  Mn3.30+  Mn118  1  0.49956382  0.66320391  0.24901469  1
  Mn3.30+  Mn119  1  0.49933927  0.66427555  0.75063139  1
  Mn3.30+  Mn120  1  0.83506851  0.00248741  0.24811730  1
  Mn3.30+  Mn121  1  0.83337934  0.00388746  0.75265446  1
  Mn3.30+  Mn122  1  0.83715463  0.33369341  0.24761027  1
  Mn3.30+  Mn123  1  0.83455827  0.33363402  0.75070334  1
  Mn3.30+  Mn124  1  0.83350722  0.66464134  0.24991540  1
  Mn3.30+  Mn125  1  0.83341833  0.66733081  0.75042818  1
  Mn3.30+  Mn126  1  -0.00085508  0.16922481  0.00117342  1
  Mn3.30+  Mn127  1  0.00201803  0.16788632  0.50002665  1
  Mn3.30+  Mn128  1  0.00068213  0.49809729  0.00002090  1
  Mn3.30+  Mn129  1  0.00152895  0.49764556  0.50291920  1
  Mn3.30+  Mn130  1  0.00070546  0.83346753  -0.00087648  1
  Mn3.30+  Mn131  1  -0.00020663  0.83401065  0.50006144  1
  Mn3.30+  Mn132  1  0.33154744  0.16871071  0.00163028  1
  Mn3.30+  Mn133  1  0.33123288  0.16706116  0.49689584  1
  Mn3.30+  Mn134  1  0.33072719  0.49662246  -0.00127801  1
  Mn3.30+  Mn135  1  0.33473845  0.49827687  0.50335108  1
  Mn3.30+  Mn136  1  0.33201206  0.83311241  0.00004732  1
  Mn3.30+  Mn137  1  0.33368675  0.83315191  0.49975298  1
  Mn3.30+  Mn138  1  0.66823886  0.16899441  -0.00022365  1
  Mn3.30+  Mn139  1  0.66697860  0.16731590  0.49882844  1
  Mn3.30+  Mn140  1  0.66907815  0.49751424  0.00277935  1
  Mn3.30+  Mn141  1  0.66375360  0.49971728  0.49792740  1
  Mn3.30+  Mn142  1  0.66779425  0.83373887  0.00026783  1
  Mn3.30+  Mn143  1  0.66592227  0.83356410  0.49970100  1
  O2-  O144  1  0.03202628  0.15946754  0.12345358  1
  O2-  O145  1  0.02599795  0.15831521  0.62655041  1
  O2-  O146  1  0.01817307  0.50538401  0.12554899  1
  O2-  O147  1  0.02752586  0.49466309  0.62436623  1
  O2-  O148  1  0.02442065  0.82461363  0.12572586  1
  O2-  O149  1  0.02520082  0.82852033  0.62439952  1
  O2-  O150  1  0.35315801  0.16088359  0.12547488  1
  O2-  O151  1  0.35751602  0.16051512  0.62274782  1
  O2-  O152  1  0.35659107  0.49626094  0.12388941  1
  O2-  O153  1  0.36075080  0.50387335  0.62582545  1
  O2-  O154  1  0.35774375  0.82508876  0.12420462  1
  O2-  O155  1  0.35970713  0.82481409  0.62526902  1
  O2-  O156  1  0.69278955  0.16143837  0.12701089  1
  O2-  O157  1  0.69302575  0.16180406  0.62268046  1
  O2-  O158  1  0.69248226  0.50286355  0.12773404  1
  O2-  O159  1  0.69174139  0.49776736  0.62121167  1
  O2-  O160  1  0.69404477  0.82414386  0.12484196  1
  O2-  O161  1  0.69182285  0.82800780  0.62480672  1
  O2-  O162  1  0.13914686  0.32859037  0.12568930  1
  O2-  O163  1  0.13985793  0.32482414  0.62496033  1
  O2-  O164  1  0.14189374  0.66331172  0.12658438  1
  O2-  O165  1  0.14321237  0.65877820  0.62447132  1
  O2-  O166  1  0.13986763  0.99084529  0.12550111  1
  O2-  O167  1  0.14161221  0.99488761  0.62505966  1
  O2-  O168  1  0.47422335  0.33607963  0.12360341  1
  O2-  O169  1  0.48095088  0.32488905  0.62589676  1
  O2-  O170  1  0.47117828  0.65576938  0.12522719  1
  O2-  O171  1  0.47577539  0.66025378  0.62724226  1
  O2-  O172  1  0.47229810  0.99281072  0.12504201  1
  O2-  O173  1  0.47367758  0.99526043  0.62409764  1
  O2-  O174  1  0.81610679  0.32804057  0.12721894  1
  O2-  O175  1  0.80675860  0.32981431  0.62132021  1
  O2-  O176  1  0.81328121  0.65981723  0.12473026  1
  O2-  O177  1  0.80756854  0.66017610  0.62371212  1
  O2-  O178  1  0.80940151  0.99271761  0.12615332  1
  O2-  O179  1  0.80798473  0.99550041  0.62484802  1
  O2-  O180  1  0.30471544  0.17669412  0.37335705  1
  O2-  O181  1  0.30539315  0.16964966  0.87817783  1
  O2-  O182  1  0.30949133  0.50165830  0.37682769  1
  O2-  O183  1  0.30445342  0.50338200  0.87434356  1
  O2-  O184  1  0.30985054  0.83946058  0.37526342  1
  O2-  O185  1  0.30583855  0.84058578  0.87558001  1
  O2-  O186  1  0.64150541  0.17022120  0.37458891  1
  O2-  O187  1  0.64300104  0.16353226  0.87424979  1
  O2-  O188  1  0.63692270  0.50569630  0.37539004  1
  O2-  O189  1  0.64449256  0.50533476  0.87618118  1
  O2-  O190  1  0.63973815  0.83911237  0.37331086  1
  O2-  O191  1  0.63982416  0.84209403  0.87685233  1
  O2-  O192  1  0.97545672  0.16992128  0.37347446  1
  O2-  O193  1  0.97256546  0.17768001  0.87585897  1
  O2-  O194  1  0.97640681  0.50384354  0.37732207  1
  O2-  O195  1  0.98101103  0.50136781  0.87330186  1
  O2-  O196  1  0.97304724  0.84111170  0.37553608  1
  O2-  O197  1  0.98369959  0.83841001  0.87462789  1
  O2-  O198  1  0.19203071  0.00754675  0.37400730  1
  O2-  O199  1  0.19313858  0.00431035  0.87593155  1
  O2-  O200  1  0.18898023  0.33964960  0.37605226  1
  O2-  O201  1  0.18970939  0.33709703  0.87475546  1
  O2-  O202  1  0.19242591  0.67228633  0.37586450  1
  O2-  O203  1  0.19113587  0.67566977  0.87375570  1
  O2-  O204  1  0.52507190  0.00344305  0.37449486  1
  O2-  O205  1  0.52295090  0.00671167  0.87538489  1
  O2-  O206  1  0.52225489  0.33803614  0.37635050  1
  O2-  O207  1  0.52177678  0.33937409  0.87371159  1
  O2-  O208  1  0.52539928  0.67549363  0.37277999  1
  O2-  O209  1  0.52681878  0.67201552  0.87533519  1
  O2-  O210  1  0.86046589  0.00750136  0.37236860  1
  O2-  O211  1  0.85856064  0.01183305  0.87533150  1
  O2-  O212  1  0.86228835  0.33798155  0.37431615  1
  O2-  O213  1  0.85739116  0.33633064  0.87679776  1
  O2-  O214  1  0.85871126  0.67325976  0.37799964  1
  O2-  O215  1  0.85812500  0.67041141  0.87403306  1
  O2-  O216  1  0.23372763  0.09541562  0.02109906  1
  O2-  O217  1  0.23875895  0.09425022  0.52295795  1
  O2-  O218  1  0.24178334  0.42362172  0.01712039  1
  O2-  O219  1  0.23538227  0.43194279  0.51837675  1
  O2-  O220  1  0.23700857  0.76014615  0.02046842  1
  O2-  O221  1  0.23854306  0.76055454  0.52075960  1
  O2-  O222  1  0.57668772  0.08951500  0.01987560  1
  O2-  O223  1  0.56984519  0.09435306  0.51958879  1
  O2-  O224  1  0.57137295  0.42863268  0.01604822  1
  O2-  O225  1  0.57306142  0.42898270  0.52336893  1
  O2-  O226  1  0.57115736  0.75795369  0.02152834  1
  O2-  O227  1  0.56984749  0.76039822  0.52137807  1
  O2-  O228  1  0.90602918  0.09788991  0.02538127  1
  O2-  O229  1  0.90446168  0.09608932  0.51979824  1
  O2-  O230  1  0.90780865  0.42843284  0.01941424  1
  O2-  O231  1  0.90270249  0.43018221  0.51832679  1
  O2-  O232  1  0.90696828  0.75979618  0.02188032  1
  O2-  O233  1  0.90424750  0.76143020  0.52166563  1
  O2-  O234  1  0.26373604  0.26603337  0.22938873  1
  O2-  O235  1  0.25830610  0.25965044  0.73364074  1
  O2-  O236  1  0.26563254  0.59489284  0.23541126  1
  O2-  O237  1  0.26441118  0.59720518  0.73326714  1
  O2-  O238  1  0.25843077  0.92885708  0.22859048  1
  O2-  O239  1  0.26306746  0.92719471  0.72827590  1
  O2-  O240  1  0.59240758  0.25994727  0.23773216  1
  O2-  O241  1  0.59722413  0.25917284  0.72838274  1
  O2-  O242  1  0.59430582  0.59396477  0.22850875  1
  O2-  O243  1  0.59607566  0.59579477  0.73326119  1
  O2-  O244  1  0.59601062  0.92482330  0.22698841  1
  O2-  O245  1  0.59293708  0.92855269  0.72858708  1
  O2-  O246  1  0.93709856  0.26514889  0.23271227  1
  O2-  O247  1  0.92990153  0.26269351  0.72647280  1
  O2-  O248  1  0.93041976  0.59857288  0.23851096  1
  O2-  O249  1  0.93048224  0.59243748  0.72917718  1
  O2-  O250  1  0.92923704  0.92908203  0.22816340  1
  O2-  O251  1  0.92419096  0.92838092  0.72983359  1
  O2-  O252  1  0.09769424  0.23692750  0.27372597  1
  O2-  O253  1  0.09422679  0.23733410  0.77086374  1
  O2-  O254  1  0.09293511  0.57301955  0.27402465  1
  O2-  O255  1  0.09553168  0.57136324  0.77170409  1
  O2-  O256  1  0.09624780  0.90555493  0.27214165  1
  O2-  O257  1  0.09857196  0.90388546  0.76563276  1
  O2-  O258  1  0.42514383  0.23952241  0.27225902  1
  O2-  O259  1  0.42784889  0.23625250  0.77093508  1
  O2-  O260  1  0.42995221  0.56966256  0.27197892  1
  O2-  O261  1  0.42575865  0.57229502  0.77508683  1
  O2-  O262  1  0.43006562  0.90273654  0.26688745  1
  O2-  O263  1  0.42856744  0.90443112  0.77084695  1
  O2-  O264  1  0.76133120  0.24188376  0.27204877  1
  O2-  O265  1  0.76639819  0.23479084  0.76580084  1
  O2-  O266  1  0.75805586  0.57424757  0.27533136  1
  O2-  O267  1  0.75876264  0.57495873  0.76628378  1
  O2-  O268  1  0.76173330  0.90525650  0.27059812  1
  O2-  O269  1  0.75907569  0.91102902  0.76832645  1
  O2-  O270  1  0.06831501  0.07031848  0.48296449  1
  O2-  O271  1  0.06778747  0.06989794  0.97686944  1
  O2-  O272  1  0.07248436  0.40486447  0.47835291  1
  O2-  O273  1  0.07330209  0.40474982  0.98370708  1
  O2-  O274  1  0.07162744  0.74019981  0.48019146  1
  O2-  O275  1  0.07260345  0.73563928  0.98002087  1
  O2-  O276  1  0.40191299  0.07137557  0.47593821  1
  O2-  O277  1  0.40045639  0.07177532  0.98427680  1
  O2-  O278  1  0.40308654  0.40447985  0.48150088  1
  O2-  O279  1  0.40754101  0.40725706  0.97716474  1
  O2-  O280  1  0.40540749  0.73696707  0.47933104  1
  O2-  O281  1  0.40489883  0.73821833  0.97873966  1
  O2-  O282  1  0.73783376  0.07181994  0.47782237  1
  O2-  O283  1  0.73782058  0.07215848  0.98415297  1
  O2-  O284  1  0.73632575  0.40700569  0.47694365  1
  O2-  O285  1  0.74206825  0.40792698  0.98741299  1
  O2-  O286  1  0.73669039  0.74035619  0.47867482  1
  O2-  O287  1  0.73765022  0.73947183  0.98207428  1
  O2-  O288  1  0.09615635  0.23554761  0.47881133  1
  O2-  O289  1  0.09472185  0.23877989  0.97687025  1
  O2-  O290  1  0.09349597  0.57333576  0.47801653  1
  O2-  O291  1  0.09536032  0.57199092  0.97672816  1
  O2-  O292  1  0.09590362  0.90625951  0.47843778  1
  O2-  O293  1  0.09850050  0.90252933  0.98472511  1
  O2-  O294  1  0.42702147  0.23657185  0.47908905  1
  O2-  O295  1  0.42554065  0.23940264  0.97675090  1
  O2-  O296  1  0.43009168  0.57182476  0.47662130  1
  O2-  O297  1  0.42653526  0.57045543  0.97742181  1
  O2-  O298  1  0.43110134  0.90236795  0.48323862  1
  O2-  O299  1  0.42798912  0.90521463  0.97880816  1
  O2-  O300  1  0.76355733  0.23969387  0.47693016  1
  O2-  O301  1  0.76450766  0.23815418  0.98456480  1
  O2-  O302  1  0.76060868  0.57177851  0.47739620  1
  O2-  O303  1  0.75639735  0.57865822  0.98240396  1
  O2-  O304  1  0.76250334  0.90665259  0.47821667  1
  O2-  O305  1  0.75940857  0.91179576  0.98305256  1
  O2-  O306  1  0.06817825  0.06887787  0.26684457  1
  O2-  O307  1  0.06828963  0.07163019  0.77284844  1
  O2-  O308  1  0.07289273  0.40612720  0.26981006  1
  O2-  O309  1  0.07125352  0.40280268  0.76923088  1
  O2-  O310  1  0.07161301  0.73991258  0.27322085  1
  O2-  O311  1  0.07358902  0.73522709  0.76715601  1
  O2-  O312  1  0.40130244  0.07297664  0.27100305  1
  O2-  O313  1  0.40222552  0.06974327  0.76665798  1
  O2-  O314  1  0.40525126  0.40541064  0.26851266  1
  O2-  O315  1  0.40313154  0.40711521  0.77256414  1
  O2-  O316  1  0.40632447  0.73598819  0.26976214  1
  O2-  O317  1  0.40475018  0.73861970  0.77276133  1
  O2-  O318  1  0.73961291  0.07210571  0.27098835  1
  O2-  O319  1  0.73534526  0.07088735  0.76575091  1
  O2-  O320  1  0.73928821  0.40799945  0.27477381  1
  O2-  O321  1  0.73866585  0.40581917  0.75989017  1
  O2-  O322  1  0.73823672  0.73811123  0.27056507  1
  O2-  O323  1  0.73555911  0.74006330  0.76768036  1
  O2-  O324  1  0.23567531  0.09621799  0.22611185  1
  O2-  O325  1  0.23720869  0.09386990  0.73016673  1
  O2-  O326  1  0.23821390  0.42710332  0.23780524  1
  O2-  O327  1  0.23623667  0.42983235  0.72956840  1
  O2-  O328  1  0.23825473  0.76081640  0.23116985  1
  O2-  O329  1  0.23788860  0.76030636  0.72829343  1
  O2-  O330  1  0.57381796  0.08924501  0.23244547  1
  O2-  O331  1  0.57371886  0.09461906  0.72633028  1
  O2-  O332  1  0.57256106  0.42702829  0.23207063  1
  O2-  O333  1  0.57160576  0.43052908  0.72972763  1
  O2-  O334  1  0.57084132  0.75757919  0.22594507  1
  O2-  O335  1  0.57091983  0.76207857  0.73066131  1
  O2-  O336  1  0.90643654  0.10049510  0.22682052  1
  O2-  O337  1  0.90559448  0.09516715  0.72581177  1
  O2-  O338  1  0.90265621  0.43404714  0.23284278  1
  O2-  O339  1  0.90661925  0.42756090  0.72884180  1
  O2-  O340  1  0.90347340  0.76248873  0.23161579  1
  O2-  O341  1  0.90682373  0.75915131  0.72647506  1
  O2-  O342  1  0.26283702  0.26338020  0.01847324  1
  O2-  O343  1  0.25946278  0.26062756  0.51922070  1
  O2-  O344  1  0.26375197  0.59701339  0.01622706  1
  O2-  O345  1  0.26683009  0.59552373  0.51544535  1
  O2-  O346  1  0.26153052  0.92866311  0.02161021  1
  O2-  O347  1  0.26048031  0.92588413  0.52217180  1
  O2-  O348  1  0.59346414  0.25799726  0.01552752  1
  O2-  O349  1  0.59569241  0.26124331  0.51791833  1
  O2-  O350  1  0.59246728  0.59162902  0.02059001  1
  O2-  O351  1  0.59803903  0.59789898  0.51792339  1
  O2-  O352  1  0.59353659  0.92479299  0.02323211  1
  O2-  O353  1  0.59610457  0.92756124  0.52036668  1
  O2-  O354  1  0.93388919  0.26494707  0.02056216  1
  O2-  O355  1  0.93198698  0.26120629  0.52080379  1
  O2-  O356  1  0.93024371  0.59618041  0.01256609  1
  O2-  O357  1  0.92936898  0.59315450  0.52160846  1
  O2-  O358  1  0.92612308  0.92854768  0.01966287  1
  O2-  O359  1  0.92773300  0.92863466  0.52173469  1
