# generated using pymatgen
data_Sr7Ca15Pr50Mn72O216
_symmetry_space_group_name_H-M   'P 1'
_cell_length_a   16.56002057
_cell_length_b   16.60414474
_cell_length_c   15.59298820
_cell_angle_alpha   90.00072050
_cell_angle_beta   89.99970239
_cell_angle_gamma   90.00062699
_symmetry_Int_Tables_number   1
_chemical_formula_structural   Sr7Ca15Pr50Mn72O216
_chemical_formula_sum   'Sr7 Ca15 Pr50 Mn72 O216'
_cell_volume   4287.52566508
_cell_formula_units_Z   1
loop_
 _symmetry_equiv_pos_site_id
 _symmetry_equiv_pos_as_xyz
  1  'x, y, z'
loop_
 _atom_type_symbol
 _atom_type_oxidation_number
  Sr2+  2.0
  Ca2+  2.0
  Pr3+  3.0
  Mn3.30+  3.3
  O2-  -2.0
loop_
 _atom_site_type_symbol
 _atom_site_label
 _atom_site_symmetry_multiplicity
 _atom_site_fract_x
 _atom_site_fract_y
 _atom_site_fract_z
 _atom_site_occupancy
  Sr2+  Sr0  1  0.83349576  0.15727204  0.37433096  1
  Sr2+  Sr1  1  0.66575424  0.65850691  0.37659522  1
  Sr2+  Sr2  1  0.66417092  0.00849250  0.62354084  1
  Sr2+  Sr3  1  0.49959400  0.82307694  0.37638628  1
  Sr2+  Sr4  1  0.16645118  0.48988357  0.37565334  1
  Sr2+  Sr5  1  0.66700672  0.32252763  0.87297243  1
  Sr2+  Sr6  1  0.83397799  0.84641894  0.62449288  1
  Ca2+  Ca7  1  0.83562250  0.18083492  0.12290265  1
  Ca2+  Ca8  1  0.49617899  0.82134097  0.87411689  1
  Ca2+  Ca9  1  0.50433772  0.84765690  0.12533386  1
  Ca2+  Ca10  1  0.50156833  0.51219782  0.12232098  1
  Ca2+  Ca11  1  -0.00439154  0.01390737  0.62560284  1
  Ca2+  Ca12  1  0.33123500  0.34896488  0.12318289  1
  Ca2+  Ca13  1  0.17197432  0.18299194  0.62459920  1
  Ca2+  Ca14  1  0.82898047  0.15348612  0.87462402  1
  Ca2+  Ca15  1  0.50568940  0.84905698  0.62441721  1
  Ca2+  Ca16  1  0.16584637  0.48337451  0.87425086  1
  Ca2+  Ca17  1  0.66305640  0.34519001  0.62653392  1
  Ca2+  Ca18  1  0.33077587  0.34611963  0.62599034  1
  Ca2+  Ca19  1  0.16959739  0.84884660  0.62561171  1
  Ca2+  Ca20  1  0.49653762  0.48217888  0.87621848  1
  Ca2+  Ca21  1  0.49780233  0.15164828  0.37622322  1
  Pr3+  Pr22  1  0.33683162  0.98772838  0.37549566  1
  Pr3+  Pr23  1  0.50243966  0.18000041  0.12645204  1
  Pr3+  Pr24  1  0.16303867  0.15504974  0.37777987  1
  Pr3+  Pr25  1  0.50110633  0.50906596  0.62833679  1
  Pr3+  Pr26  1  -0.00161395  0.67862907  0.62504975  1
  Pr3+  Pr27  1  0.50724801  0.18061443  0.62389013  1
  Pr3+  Pr28  1  0.83472803  0.51187486  0.12326172  1
  Pr3+  Pr29  1  0.83176981  0.17389266  0.62556997  1
  Pr3+  Pr30  1  0.33348911  0.01060221  0.12601585  1
  Pr3+  Pr31  1  0.33533402  0.67826806  0.12536907  1
  Pr3+  Pr32  1  0.65975331  0.67997937  0.12464201  1
  Pr3+  Pr33  1  0.66787369  0.32116750  0.37658210  1
  Pr3+  Pr34  1  0.83248692  0.50943459  0.62725281  1
  Pr3+  Pr35  1  1.00255171  0.32006215  0.87448323  1
  Pr3+  Pr36  1  0.83451877  0.84607131  0.12521424  1
  Pr3+  Pr37  1  0.16500540  0.82120961  0.87258367  1
  Pr3+  Pr38  1  1.00015476  0.98900802  0.87181180  1
  Pr3+  Pr39  1  1.00166232  0.65499362  0.37648801  1
  Pr3+  Pr40  1  0.00009334  0.34297883  0.62421329  1
  Pr3+  Pr41  1  0.82793706  0.82186167  0.37769440  1
  Pr3+  Pr42  1  0.49694328  0.48999645  0.37419032  1
  Pr3+  Pr43  1  0.33120923  0.01152636  0.62418816  1
  Pr3+  Pr44  1  0.66772469  0.98915820  0.37666579  1
  Pr3+  Pr45  1  0.82707573  0.48827765  0.37573493  1
  Pr3+  Pr46  1  0.66832796  0.99015788  0.87315859  1
  Pr3+  Pr47  1  -0.00268965  0.67862083  0.12481616  1
  Pr3+  Pr48  1  0.66130702  0.68150883  0.62562766  1
  Pr3+  Pr49  1  -0.00296014  0.34523510  0.12575450  1
  Pr3+  Pr50  1  0.82899201  0.48493013  0.87451889  1
  Pr3+  Pr51  1  0.66396059  0.34686808  0.12431170  1
  Pr3+  Pr52  1  0.17291792  0.51020916  0.62670052  1
  Pr3+  Pr53  1  0.49900844  0.15518182  0.87478914  1
  Pr3+  Pr54  1  0.16523528  0.82144632  0.37664440  1
  Pr3+  Pr55  1  0.33783075  0.32125181  0.87361337  1
  Pr3+  Pr56  1  0.82829966  0.82230593  0.87239909  1
  Pr3+  Pr57  1  0.17024110  0.84658994  0.12392019  1
  Pr3+  Pr58  1  1.00176374  0.98839561  0.37779704  1
  Pr3+  Pr59  1  0.17151302  0.51101084  0.12355468  1
  Pr3+  Pr60  1  0.33807322  0.98527903  0.87495458  1
  Pr3+  Pr61  1  -0.00484554  0.01577681  0.12378087  1
  Pr3+  Pr62  1  1.00483856  0.65096505  0.87365346  1
  Pr3+  Pr63  1  0.17228181  0.18257829  0.12480657  1
  Pr3+  Pr64  1  0.33003024  0.68301064  0.62526360  1
  Pr3+  Pr65  1  0.66454255  0.65324210  0.87384374  1
  Pr3+  Pr66  1  0.33914530  0.65024971  0.87519405  1
  Pr3+  Pr67  1  0.33870676  0.65311442  0.37527110  1
  Pr3+  Pr68  1  0.33878970  0.31855752  0.37626457  1
  Pr3+  Pr69  1  0.16460018  0.15536931  0.87246398  1
  Pr3+  Pr70  1  1.00368173  0.32016081  0.37567661  1
  Pr3+  Pr71  1  0.66445585  0.01470847  0.12569061  1
  Mn3.30+  Mn72  1  0.16660282  0.00083813  -0.00156351  1
  Mn3.30+  Mn73  1  0.16582636  0.00081061  0.50442275  1
  Mn3.30+  Mn74  1  0.16870521  0.33452250  -0.00082250  1
  Mn3.30+  Mn75  1  0.17021032  0.33299337  0.50117201  1
  Mn3.30+  Mn76  1  0.16811032  0.66528830  -0.00148338  1
  Mn3.30+  Mn77  1  0.16730697  0.66779087  0.50118185  1
  Mn3.30+  Mn78  1  0.50095255  -0.00150926  0.00075497  1
  Mn3.30+  Mn79  1  0.49891222  0.00045486  0.49975418  1
  Mn3.30+  Mn80  1  0.49860041  0.33491135  0.00131984  1
  Mn3.30+  Mn81  1  0.50030880  0.33256915  0.50060573  1
  Mn3.30+  Mn82  1  0.49978197  0.66668321  -0.00086378  1
  Mn3.30+  Mn83  1  0.49887289  0.66676639  0.50152786  1
  Mn3.30+  Mn84  1  0.83226601  0.00233935  -0.00071796  1
  Mn3.30+  Mn85  1  0.83467850  0.00159832  0.50122546  1
  Mn3.30+  Mn86  1  0.83242575  0.33014091  -0.00061920  1
  Mn3.30+  Mn87  1  0.83141630  0.33221537  0.50237806  1
  Mn3.30+  Mn88  1  0.83221882  0.66676992  -0.00187602  1
  Mn3.30+  Mn89  1  0.83255622  0.66649516  0.50200962  1
  Mn3.30+  Mn90  1  -0.00023743  0.16694282  0.24933648  1
  Mn3.30+  Mn91  1  0.00022303  0.16583189  0.74830724  1
  Mn3.30+  Mn92  1  -0.00000663  0.49973958  0.25072021  1
  Mn3.30+  Mn93  1  0.00259930  0.49781694  0.75013592  1
  Mn3.30+  Mn94  1  -0.00030869  0.83419527  0.25041972  1
  Mn3.30+  Mn95  1  0.00041506  0.83460941  0.74753089  1
  Mn3.30+  Mn96  1  0.33498989  0.16771074  0.25085142  1
  Mn3.30+  Mn97  1  0.33282597  0.16714370  0.74704577  1
  Mn3.30+  Mn98  1  0.33481925  0.49797007  0.24756354  1
  Mn3.30+  Mn99  1  0.33438534  0.49815430  0.75213334  1
  Mn3.30+  Mn100  1  0.33567322  0.83292114  0.24905982  1
  Mn3.30+  Mn101  1  0.33460326  0.83392307  0.74876569  1
  Mn3.30+  Mn102  1  0.66723118  0.16811686  0.25036393  1
  Mn3.30+  Mn103  1  0.66746986  0.16689867  0.75018971  1
  Mn3.30+  Mn104  1  0.66397638  0.50145992  0.24939352  1
  Mn3.30+  Mn105  1  0.66467355  0.49757114  0.75089290  1
  Mn3.30+  Mn106  1  0.66565006  0.83353194  0.24940708  1
  Mn3.30+  Mn107  1  0.66143188  0.83468935  0.75062776  1
  Mn3.30+  Mn108  1  0.16618208  0.00099880  0.24992772  1
  Mn3.30+  Mn109  1  0.16613091  0.00064742  0.74679815  1
  Mn3.30+  Mn110  1  0.16972664  0.33400184  0.25048690  1
  Mn3.30+  Mn111  1  0.16920181  0.33301487  0.74945577  1
  Mn3.30+  Mn112  1  0.16694699  0.66644355  0.24964117  1
  Mn3.30+  Mn113  1  0.16825258  0.66651645  0.75049907  1
  Mn3.30+  Mn114  1  0.50002242  0.00016762  0.25005494  1
  Mn3.30+  Mn115  1  0.49954654  -0.00151743  0.74976694  1
  Mn3.30+  Mn116  1  0.49868567  0.33425671  0.24838123  1
  Mn3.30+  Mn117  1  0.49999333  0.33296621  0.74985985  1
  Mn3.30+  Mn118  1  0.50035334  0.66606948  0.24915246  1
  Mn3.30+  Mn119  1  0.49810788  0.66755376  0.75091921  1
  Mn3.30+  Mn120  1  0.83315570  0.00204200  0.25026827  1
  Mn3.30+  Mn121  1  0.83398083  0.00155669  0.74845385  1
  Mn3.30+  Mn122  1  0.83236965  0.33232281  0.24982609  1
  Mn3.30+  Mn123  1  0.83200748  0.32998903  0.74900330  1
  Mn3.30+  Mn124  1  0.83138107  0.66665137  0.24927974  1
  Mn3.30+  Mn125  1  0.83322480  0.66689396  0.75037789  1
  Mn3.30+  Mn126  1  -0.00225755  0.16723561  -0.00167722  1
  Mn3.30+  Mn127  1  0.00180251  0.16543739  0.50360672  1
  Mn3.30+  Mn128  1  0.00200661  0.49855768  -0.00145315  1
  Mn3.30+  Mn129  1  0.00010017  0.49924526  0.50095075  1
  Mn3.30+  Mn130  1  -0.00033609  0.83349421  -0.00168706  1
  Mn3.30+  Mn131  1  0.00075795  0.83550908  0.50317953  1
  Mn3.30+  Mn132  1  0.33372025  0.16724523  0.00040435  1
  Mn3.30+  Mn133  1  0.33433545  0.16750191  0.50176808  1
  Mn3.30+  Mn134  1  0.33556938  0.49844768  -0.00012318  1
  Mn3.30+  Mn135  1  0.33366908  0.49776718  0.50088399  1
  Mn3.30+  Mn136  1  0.33656456  0.83234341  0.00024747  1
  Mn3.30+  Mn137  1  0.33359481  0.83445659  0.50240287  1
  Mn3.30+  Mn138  1  0.66923410  0.16852432  0.00056293  1
  Mn3.30+  Mn139  1  0.66556894  0.16701313  0.49866254  1
  Mn3.30+  Mn140  1  0.66383500  0.49939124  -0.00132639  1
  Mn3.30+  Mn141  1  0.66459951  0.49937282  0.50151100  1
  Mn3.30+  Mn142  1  0.66261579  0.83369463  -0.00144301  1
  Mn3.30+  Mn143  1  0.66464977  0.83435877  0.50146495  1
  O2-  O144  1  0.02797457  0.16329548  0.12326489  1
  O2-  O145  1  0.02923909  0.16203569  0.62579552  1
  O2-  O146  1  0.02612849  0.49447220  0.12445030  1
  O2-  O147  1  0.02847941  0.49273839  0.62646780  1
  O2-  O148  1  0.02625150  0.82697290  0.12340575  1
  O2-  O149  1  0.02959872  0.82362273  0.62576709  1
  O2-  O150  1  0.35858856  0.15748283  0.12647479  1
  O2-  O151  1  0.36332242  0.15800186  0.62547831  1
  O2-  O152  1  0.35961772  0.49407693  0.12370316  1
  O2-  O153  1  0.35672041  0.49371031  0.62663316  1
  O2-  O154  1  0.36064754  0.82829247  0.12501003  1
  O2-  O155  1  0.36232281  0.83125639  0.62714503  1
  O2-  O156  1  0.69339540  0.16318816  0.12594736  1
  O2-  O157  1  0.68732356  0.16265408  0.62457890  1
  O2-  O158  1  0.69153420  0.49673152  0.12324707  1
  O2-  O159  1  0.68878524  0.49437431  0.62686094  1
  O2-  O160  1  0.69196189  0.82836069  0.12343932  1
  O2-  O161  1  0.68401098  0.83003951  0.62705414  1
  O2-  O162  1  0.14114916  0.32961963  0.12521633  1
  O2-  O163  1  0.14391019  0.33100188  0.62630766  1
  O2-  O164  1  0.14061712  0.66030897  0.12269128  1
  O2-  O165  1  0.14197574  0.65729620  0.62746607  1
  O2-  O166  1  0.13997838  0.99429065  0.12332638  1
  O2-  O167  1  0.13794435  0.99027992  0.62607742  1
  O2-  O168  1  0.47114730  0.32460328  0.12584402  1
  O2-  O169  1  0.47290142  0.32759574  0.62472372  1
  O2-  O170  1  0.47778587  0.65653221  0.12250414  1
  O2-  O171  1  0.47294584  0.65546809  0.62751303  1
  O2-  O172  1  0.47684506  0.99483584  0.12463084  1
  O2-  O173  1  0.47584445  0.99515345  0.62534051  1
  O2-  O174  1  0.80971083  0.32835197  0.12429349  1
  O2-  O175  1  0.80556467  0.32493147  0.62530691  1
  O2-  O176  1  0.80627511  0.66078908  0.12133893  1
  O2-  O177  1  0.80774930  0.65872761  0.62782883  1
  O2-  O178  1  0.80833027  0.99166295  0.12496013  1
  O2-  O179  1  0.81373552  1.00394786  0.62559647  1
  O2-  O180  1  0.30620988  0.17097494  0.37531985  1
  O2-  O181  1  0.30881986  0.17182813  0.87255320  1
  O2-  O182  1  0.31553503  0.50563314  0.37421797  1
  O2-  O183  1  0.30662440  0.50415974  0.87595949  1
  O2-  O184  1  0.30828157  0.83736896  0.37385832  1
  O2-  O185  1  0.30774341  0.83723508  0.87433051  1
  O2-  O186  1  0.63921112  0.17407312  0.37341322  1
  O2-  O187  1  0.64235307  0.16698303  0.87610525  1
  O2-  O188  1  0.64195485  0.50177744  0.37566277  1
  O2-  O189  1  0.64030245  0.50416587  0.87457567  1
  O2-  O190  1  0.65039554  0.83843172  0.37381930  1
  O2-  O191  1  0.63799538  0.84127905  0.87577910  1
  O2-  O192  1  0.98418241  0.17196220  0.37669810  1
  O2-  O193  1  0.97239840  0.17340196  0.87431658  1
  O2-  O194  1  0.97174665  0.50623717  0.37556784  1
  O2-  O195  1  0.97293477  0.50309795  0.87377999  1
  O2-  O196  1  0.97284548  0.83928216  0.37596048  1
  O2-  O197  1  0.97314247  0.83944302  0.87429301  1
  O2-  O198  1  0.19239089  0.00682536  0.37659881  1
  O2-  O199  1  0.19355516  0.00708175  0.87315857  1
  O2-  O200  1  0.19315451  0.33316631  0.37489733  1
  O2-  O201  1  0.19302515  0.33506334  0.87388021  1
  O2-  O202  1  0.19415507  0.67404165  0.37552341  1
  O2-  O203  1  0.19469054  0.67539164  0.87421720  1
  O2-  O204  1  0.52229439  0.00653362  0.37271949  1
  O2-  O205  1  0.52389660  0.00844035  0.87739937  1
  O2-  O206  1  0.52553315  0.34300146  0.37321709  1
  O2-  O207  1  0.51753169  0.33464493  0.87625279  1
  O2-  O208  1  0.51553561  0.66434941  0.37580288  1
  O2-  O209  1  0.52280685  0.67886928  0.87483926  1
  O2-  O210  1  0.85835466  0.00059857  0.37425360  1
  O2-  O211  1  0.85671179  0.00516565  0.87477585  1
  O2-  O212  1  0.85860915  0.34129112  0.37693546  1
  O2-  O213  1  0.85940139  0.33951504  0.87401412  1
  O2-  O214  1  0.85712042  0.67134382  0.37626446  1
  O2-  O215  1  0.85981857  0.67330176  0.87459386  1
  O2-  O216  1  0.23915844  0.09512889  0.01992569  1
  O2-  O217  1  0.23665262  0.09565436  0.52326950  1
  O2-  O218  1  0.23834729  0.42947970  0.01899054  1
  O2-  O219  1  0.23943048  0.42853793  0.51910557  1
  O2-  O220  1  0.23861394  0.76171657  0.02129902  1
  O2-  O221  1  0.23732420  0.76367260  0.52285213  1
  O2-  O222  1  0.57340366  0.09675698  0.02164874  1
  O2-  O223  1  0.56937416  0.09646986  0.51529692  1
  O2-  O224  1  0.57089406  0.42624603  0.02330682  1
  O2-  O225  1  0.56930507  0.42983091  0.51875377  1
  O2-  O226  1  0.57061593  0.76187718  0.02401277  1
  O2-  O227  1  0.57082873  0.75728744  0.52149453  1
  O2-  O228  1  0.90612644  0.09545281  0.02334286  1
  O2-  O229  1  0.90775525  0.09484357  0.51884823  1
  O2-  O230  1  0.90527016  0.42649308  0.01999691  1
  O2-  O231  1  0.90329778  0.42527250  0.52387983  1
  O2-  O232  1  0.90409857  0.76062907  0.02081297  1
  O2-  O233  1  0.91109271  0.75847240  0.51885768  1
  O2-  O234  1  0.26477320  0.26203354  0.22760643  1
  O2-  O235  1  0.26434082  0.26311248  0.72992185  1
  O2-  O236  1  0.26173806  0.59202018  0.22812858  1
  O2-  O237  1  0.26413120  0.59469331  0.72979217  1
  O2-  O238  1  0.25939996  0.92769477  0.22861581  1
  O2-  O239  1  0.26358809  0.93026894  0.73272138  1
  O2-  O240  1  0.59298701  0.26411597  0.22770289  1
  O2-  O241  1  0.59416611  0.26031783  0.72882245  1
  O2-  O242  1  0.59568638  0.59554748  0.23083769  1
  O2-  O243  1  0.59446210  0.59631921  0.73177705  1
  O2-  O244  1  0.59778823  0.92879187  0.23271106  1
  O2-  O245  1  0.59254278  0.92915346  0.73580992  1
  O2-  O246  1  0.93151916  0.26191554  0.23409207  1
  O2-  O247  1  0.92910997  0.26012934  0.72675252  1
  O2-  O248  1  0.92573678  0.59534950  0.22789687  1
  O2-  O249  1  0.93139202  0.59054209  0.72949369  1
  O2-  O250  1  0.92932006  0.92824535  0.22839382  1
  O2-  O251  1  0.93153595  0.92999251  0.73286914  1
  O2-  O252  1  0.09927017  0.23914383  0.26814678  1
  O2-  O253  1  0.09342497  0.24018217  0.77138297  1
  O2-  O254  1  0.08980943  0.57567353  0.26877936  1
  O2-  O255  1  0.09586492  0.56981371  0.77325965  1
  O2-  O256  1  0.09538120  0.90584036  0.27106602  1
  O2-  O257  1  0.09403855  0.90643512  0.77406611  1
  O2-  O258  1  0.42933896  0.23614452  0.27365638  1
  O2-  O259  1  0.42873920  0.23726634  0.76974818  1
  O2-  O260  1  0.42678189  0.57240181  0.26730363  1
  O2-  O261  1  0.43020680  0.56941176  0.77346216  1
  O2-  O262  1  0.42288766  0.90780240  0.26876945  1
  O2-  O263  1  0.42662676  0.90551632  0.77474329  1
  O2-  O264  1  0.75705990  0.24405455  0.27046981  1
  O2-  O265  1  0.76599141  0.23461864  0.76760002  1
  O2-  O266  1  0.76284641  0.56941006  0.26614951  1
  O2-  O267  1  0.76010164  0.57218352  0.77175070  1
  O2-  O268  1  0.76424704  0.90525269  0.26804701  1
  O2-  O269  1  0.75936205  0.90802018  0.77129213  1
  O2-  O270  1  0.07427866  0.07248942  0.47829436  1
  O2-  O271  1  0.06873039  0.07457116  0.97761363  1
  O2-  O272  1  0.06857513  0.40514739  0.48223160  1
  O2-  O273  1  0.07081316  0.40324831  0.98072052  1
  O2-  O274  1  0.07298973  0.74031503  0.47788274  1
  O2-  O275  1  0.07103889  0.73842360  0.97784479  1
  O2-  O276  1  0.40153661  0.07085445  0.48189548  1
  O2-  O277  1  0.40526217  0.07109491  0.98126507  1
  O2-  O278  1  0.40766761  0.40414494  0.47848651  1
  O2-  O279  1  0.40299414  0.40394301  0.97998424  1
  O2-  O280  1  0.40116590  0.73435311  0.48555558  1
  O2-  O281  1  0.40110026  0.73384639  0.98409176  1
  O2-  O282  1  0.73729300  0.07489697  0.47965085  1
  O2-  O283  1  0.73637983  0.06886213  0.98354845  1
  O2-  O284  1  0.73825816  0.40744094  0.47962624  1
  O2-  O285  1  0.74166212  0.40651731  0.98308694  1
  O2-  O286  1  0.74292824  0.74185177  0.48635837  1
  O2-  O287  1  0.73565600  0.74034382  0.97642893  1
  O2-  O288  1  0.09515729  0.24143431  0.48210605  1
  O2-  O289  1  0.09529719  0.23797347  0.97868577  1
  O2-  O290  1  0.09183017  0.57775969  0.48164474  1
  O2-  O291  1  0.09710320  0.57101226  0.97652806  1
  O2-  O292  1  0.09448651  0.90669978  0.47571456  1
  O2-  O293  1  0.09520837  0.90596606  0.97774722  1
  O2-  O294  1  0.43181942  0.23714859  0.47703815  1
  O2-  O295  1  0.42744097  0.23703999  0.98064226  1
  O2-  O296  1  0.42721717  0.56958494  0.48326995  1
  O2-  O297  1  0.42946819  0.57077499  0.97584235  1
  O2-  O298  1  0.42241822  0.90940105  0.48021840  1
  O2-  O299  1  0.42692706  0.90330305  0.97748189  1
  O2-  O300  1  0.75940195  0.24148243  0.48069660  1
  O2-  O301  1  0.76451431  0.23629373  0.98098467  1
  O2-  O302  1  0.76115643  0.56900300  0.48511167  1
  O2-  O303  1  0.76246676  0.57231935  0.97735358  1
  O2-  O304  1  0.76072446  0.90976549  0.48103089  1
  O2-  O305  1  0.76091365  0.90423651  0.97899170  1
  O2-  O306  1  0.07124340  0.07143253  0.26891794  1
  O2-  O307  1  0.07344778  0.07442001  0.77461116  1
  O2-  O308  1  0.07019540  0.40261513  0.26858874  1
  O2-  O309  1  0.07113399  0.40307058  0.76914062  1
  O2-  O310  1  0.07091465  0.74071553  0.27109716  1
  O2-  O311  1  0.07207438  0.73813491  0.77218762  1
  O2-  O312  1  0.40156203  0.07111026  0.26712663  1
  O2-  O313  1  0.40458002  0.07057938  0.77066830  1
  O2-  O314  1  0.40607877  0.40509853  0.27223984  1
  O2-  O315  1  0.40454651  0.40473672  0.76916044  1
  O2-  O316  1  0.40215890  0.73456557  0.26528540  1
  O2-  O317  1  0.39970843  0.73450774  0.76675465  1
  O2-  O318  1  0.73668756  0.06896622  0.26801442  1
  O2-  O319  1  0.73873815  0.07325609  0.76901338  1
  O2-  O320  1  0.73645586  0.40728180  0.26889595  1
  O2-  O321  1  0.74446856  0.40831928  0.76814550  1
  O2-  O322  1  0.74163600  0.74108469  0.26608264  1
  O2-  O323  1  0.73455190  0.74215459  0.77135972  1
  O2-  O324  1  0.23739100  0.09520738  0.22929074  1
  O2-  O325  1  0.23806532  0.09631695  0.72593190  1
  O2-  O326  1  0.23840389  0.42761224  0.22911838  1
  O2-  O327  1  0.23795011  0.42902516  0.73325591  1
  O2-  O328  1  0.23912752  0.76229499  0.22779500  1
  O2-  O329  1  0.23824042  0.76494971  0.72742950  1
  O2-  O330  1  0.57394197  0.09494637  0.22752088  1
  O2-  O331  1  0.56836748  0.09677787  0.73508771  1
  O2-  O332  1  0.57122626  0.43021683  0.22643972  1
  O2-  O333  1  0.57091076  0.42584270  0.73149770  1
  O2-  O334  1  0.57172180  0.76006164  0.22810045  1
  O2-  O335  1  0.56883217  0.75983626  0.72672075  1
  O2-  O336  1  0.90513924  0.09336571  0.22600541  1
  O2-  O337  1  0.90776985  0.09524229  0.73043455  1
  O2-  O338  1  0.90436605  0.42802650  0.22891752  1
  O2-  O339  1  0.90713985  0.42487709  0.72783138  1
  O2-  O340  1  0.90587509  0.76090707  0.22867450  1
  O2-  O341  1  0.90915381  0.75965443  0.73077176  1
  O2-  O342  1  0.26195449  0.26156086  0.02141834  1
  O2-  O343  1  0.26812043  0.26221401  0.51971126  1
  O2-  O344  1  0.26476005  0.59360145  0.02166498  1
  O2-  O345  1  0.26062708  0.59523954  0.52058520  1
  O2-  O346  1  0.26383766  0.92559361  0.02024302  1
  O2-  O347  1  0.25983146  0.93061953  0.51890117  1
  O2-  O348  1  0.59271564  0.26106259  0.02265103  1
  O2-  O349  1  0.59586252  0.26452443  0.52034200  1
  O2-  O350  1  0.59755932  0.59943292  0.01402033  1
  O2-  O351  1  0.59260878  0.59288835  0.52381050  1
  O2-  O352  1  0.59710919  0.93041128  0.02017944  1
  O2-  O353  1  0.59014490  0.92767215  0.51113031  1
  O2-  O354  1  0.93148145  0.26339409  0.01891644  1
  O2-  O355  1  0.92800553  0.25904604  0.52095358  1
  O2-  O356  1  0.93004956  0.59327027  0.01950015  1
  O2-  O357  1  0.92688814  0.59186855  0.52272441  1
  O2-  O358  1  0.92769841  0.92832791  0.01967051  1
  O2-  O359  1  0.93355938  0.92939196  0.51865682  1
