# generated using pymatgen
data_Sr7Ca15Pr50Mn72O216
_symmetry_space_group_name_H-M   'P 1'
_cell_length_a   16.55849000
_cell_length_b   16.60409519
_cell_length_c   15.59495901
_cell_angle_alpha   89.99594462
_cell_angle_beta   90.00046717
_cell_angle_gamma   90.00338824
_symmetry_Int_Tables_number   1
_chemical_formula_structural   Sr7Ca15Pr50Mn72O216
_chemical_formula_sum   'Sr7 Ca15 Pr50 Mn72 O216'
_cell_volume   4287.65842694
_cell_formula_units_Z   1
loop_
 _symmetry_equiv_pos_site_id
 _symmetry_equiv_pos_as_xyz
  1  'x, y, z'
loop_
 _atom_type_symbol
 _atom_type_oxidation_number
  Sr2+  2.0
  Ca2+  2.0
  Pr3+  3.0
  Mn3.30+  3.3
  O2-  -2.0
loop_
 _atom_site_type_symbol
 _atom_site_label
 _atom_site_symmetry_multiplicity
 _atom_site_fract_x
 _atom_site_fract_y
 _atom_site_fract_z
 _atom_site_occupancy
  Sr2+  Sr0  1  -0.00169606  0.67791004  0.62464601  1
  Sr2+  Sr1  1  0.33582487  0.99250556  0.87693630  1
  Sr2+  Sr2  1  0.66326435  0.34034183  0.12472544  1
  Sr2+  Sr3  1  0.33736700  0.00784059  0.12548739  1
  Sr2+  Sr4  1  1.00288219  0.32398401  0.37388594  1
  Sr2+  Sr5  1  1.00127836  0.99103648  0.37235036  1
  Sr2+  Sr6  1  0.33449726  0.99309437  0.37289766  1
  Ca2+  Ca7  1  0.49660617  0.48352647  0.87769734  1
  Ca2+  Ca8  1  0.17026071  0.85137458  0.12688974  1
  Ca2+  Ca9  1  0.16203947  0.48460603  0.37453462  1
  Ca2+  Ca10  1  0.50305964  0.85125013  0.12604318  1
  Ca2+  Ca11  1  0.33578455  0.34228858  0.12561812  1
  Ca2+  Ca12  1  -0.00286566  0.01515078  0.12784960  1
  Ca2+  Ca13  1  0.67119293  0.98469784  0.37343542  1
  Ca2+  Ca14  1  0.83250749  0.82118842  0.37425582  1
  Ca2+  Ca15  1  0.49961258  0.15330460  0.37084253  1
  Ca2+  Ca16  1  0.67039794  0.31610940  0.37249926  1
  Ca2+  Ca17  1  0.49968578  0.15324996  0.87938311  1
  Ca2+  Ca18  1  0.66510812  0.31762452  0.87696170  1
  Ca2+  Ca19  1  0.83487420  0.18012369  0.62351893  1
  Ca2+  Ca20  1  0.66685515  0.98786179  0.87668960  1
  Ca2+  Ca21  1  0.50411924  0.18105757  0.12390481  1
  Pr3+  Pr22  1  -0.00184920  0.68053396  0.12509860  1
  Pr3+  Pr23  1  0.32917281  0.68050613  0.62428927  1
  Pr3+  Pr24  1  0.66696610  0.65421659  0.87616793  1
  Pr3+  Pr25  1  0.83393291  0.51073520  0.12541069  1
  Pr3+  Pr26  1  0.83854091  0.84546462  0.62308136  1
  Pr3+  Pr27  1  0.33146437  0.34526108  0.62486604  1
  Pr3+  Pr28  1  0.16723469  0.82365478  0.87938666  1
  Pr3+  Pr29  1  0.66481871  0.68045407  0.62462173  1
  Pr3+  Pr30  1  0.16928510  0.17919810  0.62347780  1
  Pr3+  Pr31  1  1.00225093  0.31814004  0.87607428  1
  Pr3+  Pr32  1  0.16430277  0.82551808  0.37047026  1
  Pr3+  Pr33  1  0.50257021  0.50840907  0.12428854  1
  Pr3+  Pr34  1  0.82730681  0.48404947  0.87404306  1
  Pr3+  Pr35  1  0.34065727  0.31886041  0.87737406  1
  Pr3+  Pr36  1  -0.00370439  0.34497646  0.12617187  1
  Pr3+  Pr37  1  0.50239807  0.51265023  0.62577140  1
  Pr3+  Pr38  1  1.00186959  0.65569284  0.37510189  1
  Pr3+  Pr39  1  -0.00629016  0.01569623  0.62291532  1
  Pr3+  Pr40  1  0.33508648  0.65343387  0.37351810  1
  Pr3+  Pr41  1  0.83281268  0.17805350  0.12579693  1
  Pr3+  Pr42  1  0.82960765  0.82242514  0.87601031  1
  Pr3+  Pr43  1  0.83617608  0.85000206  0.12665682  1
  Pr3+  Pr44  1  0.66565890  0.01349730  0.62432070  1
  Pr3+  Pr45  1  0.82607237  0.15186966  0.87504504  1
  Pr3+  Pr46  1  0.82840472  0.15336741  0.37485546  1
  Pr3+  Pr47  1  0.49661850  0.82621869  0.87926780  1
  Pr3+  Pr48  1  0.66085192  0.68312431  0.12557146  1
  Pr3+  Pr49  1  0.16230753  0.15332970  0.37360430  1
  Pr3+  Pr50  1  0.17180955  0.17742917  0.12683388  1
  Pr3+  Pr51  1  0.16589157  0.15257632  0.87655382  1
  Pr3+  Pr52  1  0.33257395  0.01388084  0.62430443  1
  Pr3+  Pr53  1  0.50132859  0.17676825  0.62528001  1
  Pr3+  Pr54  1  0.33973448  0.65230761  0.87617748  1
  Pr3+  Pr55  1  -0.00462801  0.34462250  0.62394227  1
  Pr3+  Pr56  1  0.33620430  0.31914050  0.37238173  1
  Pr3+  Pr57  1  1.00252151  0.65544271  0.87475666  1
  Pr3+  Pr58  1  0.16496654  0.48658219  0.87571011  1
  Pr3+  Pr59  1  0.50372618  0.84834389  0.62397751  1
  Pr3+  Pr60  1  0.32965035  0.68246006  0.12552602  1
  Pr3+  Pr61  1  0.67069062  0.65581848  0.37423527  1
  Pr3+  Pr62  1  0.83637052  0.51301713  0.62465854  1
  Pr3+  Pr63  1  0.66442373  0.34344577  0.62499744  1
  Pr3+  Pr64  1  0.65778094  0.01450362  0.12522105  1
  Pr3+  Pr65  1  0.49742660  0.82429922  0.37124342  1
  Pr3+  Pr66  1  0.49956104  0.48503584  0.37390493  1
  Pr3+  Pr67  1  0.16757948  0.84620682  0.62399016  1
  Pr3+  Pr68  1  0.16822719  0.51334430  0.62288434  1
  Pr3+  Pr69  1  0.17143953  0.50871161  0.12807955  1
  Pr3+  Pr70  1  0.82883277  0.48375055  0.37574293  1
  Pr3+  Pr71  1  1.00349292  0.98846406  0.87733164  1
  Mn3.30+  Mn72  1  0.16722852  -0.00006664  0.00370090  1
  Mn3.30+  Mn73  1  0.16518114  0.00006655  0.49914806  1
  Mn3.30+  Mn74  1  0.16957156  0.33232751  0.00104779  1
  Mn3.30+  Mn75  1  0.16598591  0.33441037  0.49880939  1
  Mn3.30+  Mn76  1  0.16765356  0.66740262  0.00130833  1
  Mn3.30+  Mn77  1  0.16648603  0.66761826  0.49825389  1
  Mn3.30+  Mn78  1  0.50065888  0.00241781  0.00006776  1
  Mn3.30+  Mn79  1  0.50234393  0.00177009  0.49646127  1
  Mn3.30+  Mn80  1  0.50139352  0.33155658  -0.00040448  1
  Mn3.30+  Mn81  1  0.50171754  0.33051696  0.49772320  1
  Mn3.30+  Mn82  1  0.49958910  0.66698803  0.00132771  1
  Mn3.30+  Mn83  1  0.50008383  0.66742369  0.49904110  1
  Mn3.30+  Mn84  1  0.83215462  0.00081897  0.00158923  1
  Mn3.30+  Mn85  1  0.83134870  -0.00078846  0.49718341  1
  Mn3.30+  Mn86  1  0.83047549  0.33202587  -0.00040354  1
  Mn3.30+  Mn87  1  0.83097247  0.33027823  0.49964695  1
  Mn3.30+  Mn88  1  0.83197636  0.66670238  0.00103264  1
  Mn3.30+  Mn89  1  0.83417324  0.66779849  0.49852151  1
  Mn3.30+  Mn90  1  -0.00050101  0.16651810  0.24933063  1
  Mn3.30+  Mn91  1  -0.00268344  0.16663774  0.75010970  1
  Mn3.30+  Mn92  1  0.00180807  0.50035065  0.25036673  1
  Mn3.30+  Mn93  1  -0.00126136  0.49967746  0.75110492  1
  Mn3.30+  Mn94  1  -0.00037477  0.83608348  0.24840922  1
  Mn3.30+  Mn95  1  -0.00003517  0.83416081  0.75058511  1
  Mn3.30+  Mn96  1  0.33763947  0.16611619  0.24785657  1
  Mn3.30+  Mn97  1  0.33561656  0.16678194  0.75148321  1
  Mn3.30+  Mn98  1  0.33332542  0.49735184  0.25075533  1
  Mn3.30+  Mn99  1  0.33514614  0.49939481  0.75051200  1
  Mn3.30+  Mn100  1  0.33281917  0.83602328  0.24835625  1
  Mn3.30+  Mn101  1  0.33447773  0.83468153  0.75067328  1
  Mn3.30+  Mn102  1  0.66297767  0.16569333  0.25253430  1
  Mn3.30+  Mn103  1  0.66669221  0.16621614  0.75071862  1
  Mn3.30+  Mn104  1  0.66642812  0.49778259  0.24933128  1
  Mn3.30+  Mn105  1  0.66423126  0.49768654  0.75237281  1
  Mn3.30+  Mn106  1  0.66713976  0.83563270  0.25085295  1
  Mn3.30+  Mn107  1  0.66702887  0.83514313  0.75058733  1
  Mn3.30+  Mn108  1  0.16617082  0.00019081  0.24718698  1
  Mn3.30+  Mn109  1  0.16595297  -0.00016337  0.75023630  1
  Mn3.30+  Mn110  1  0.16870504  0.33366128  0.24946094  1
  Mn3.30+  Mn111  1  0.16701880  0.33286346  0.75105174  1
  Mn3.30+  Mn112  1  0.16642734  0.66703575  0.24948310  1
  Mn3.30+  Mn113  1  0.16794916  0.66794253  0.75102044  1
  Mn3.30+  Mn114  1  0.50160116  0.00243360  0.25121036  1
  Mn3.30+  Mn115  1  0.50138076  0.00181151  0.75202066  1
  Mn3.30+  Mn116  1  0.50167420  0.32937077  0.25025212  1
  Mn3.30+  Mn117  1  0.50139175  0.33227410  0.75220742  1
  Mn3.30+  Mn118  1  0.49976265  0.66747268  0.24893800  1
  Mn3.30+  Mn119  1  0.50013475  0.66671908  0.75066038  1
  Mn3.30+  Mn120  1  0.83126749  -0.00040809  0.25086506  1
  Mn3.30+  Mn121  1  0.83172560  0.00072662  0.75044665  1
  Mn3.30+  Mn122  1  0.83129326  0.33184135  0.25077866  1
  Mn3.30+  Mn123  1  0.83051906  0.33054893  0.75040511  1
  Mn3.30+  Mn124  1  0.83291442  0.66777769  0.24932301  1
  Mn3.30+  Mn125  1  0.83319008  0.66667684  0.75129029  1
  Mn3.30+  Mn126  1  -0.00076934  0.16505695  0.00178620  1
  Mn3.30+  Mn127  1  -0.00237520  0.16810459  0.49923626  1
  Mn3.30+  Mn128  1  -0.00023485  0.49997430  -0.00029750  1
  Mn3.30+  Mn129  1  0.00061547  0.50015464  0.49875132  1
  Mn3.30+  Mn130  1  0.00041341  0.83608084  0.00372551  1
  Mn3.30+  Mn131  1  -0.00080321  0.83406312  0.49694475  1
  Mn3.30+  Mn132  1  0.33782698  0.16640535  0.00313545  1
  Mn3.30+  Mn133  1  0.33530347  0.16666253  0.49734997  1
  Mn3.30+  Mn134  1  0.33536243  0.49782617  0.00148347  1
  Mn3.30+  Mn135  1  0.33252782  0.49908808  0.49744634  1
  Mn3.30+  Mn136  1  0.33314541  0.83556913  0.00302143  1
  Mn3.30+  Mn137  1  0.33407722  0.83499301  0.49793093  1
  Mn3.30+  Mn138  1  0.66339333  0.16640380  -0.00235526  1
  Mn3.30+  Mn139  1  0.66639154  0.16558978  0.49899583  1
  Mn3.30+  Mn140  1  0.66426967  0.49712006  -0.00185966  1
  Mn3.30+  Mn141  1  0.66654519  0.49836280  0.50032722  1
  Mn3.30+  Mn142  1  0.66500364  0.83605482  0.00031901  1
  Mn3.30+  Mn143  1  0.66934257  0.83463938  0.49789638  1
  O2-  O144  1  0.02502622  0.16358632  0.12327771  1
  O2-  O145  1  0.02479284  0.16431201  0.62556767  1
  O2-  O146  1  0.02588050  0.49464476  0.12362757  1
  O2-  O147  1  0.02309018  0.49397980  0.62689765  1
  O2-  O148  1  0.02892808  0.82466072  0.12433048  1
  O2-  O149  1  0.02331223  0.83154210  0.62374244  1
  O2-  O150  1  0.36138984  0.16409798  0.12549048  1
  O2-  O151  1  0.35545760  0.16581375  0.62420403  1
  O2-  O152  1  0.35899482  0.49275506  0.12588555  1
  O2-  O153  1  0.35889108  0.49475756  0.62279278  1
  O2-  O154  1  0.36027711  0.82864169  0.12566538  1
  O2-  O155  1  0.35927822  0.82747665  0.62314401  1
  O2-  O156  1  0.68996640  0.16063429  0.12441756  1
  O2-  O157  1  0.69468023  0.15987742  0.62589744  1
  O2-  O158  1  0.69081063  0.49635884  0.12222866  1
  O2-  O159  1  0.69261800  0.49374876  0.62643620  1
  O2-  O160  1  0.69173348  0.83075629  0.12612901  1
  O2-  O161  1  0.69397497  0.82780251  0.62509504  1
  O2-  O162  1  0.14068711  0.32755585  0.12384207  1
  O2-  O163  1  0.14072095  0.32677853  0.62756936  1
  O2-  O164  1  0.14022966  0.65414831  0.12513466  1
  O2-  O165  1  0.14762399  0.66140406  0.62439611  1
  O2-  O166  1  0.13942716  0.99894058  0.12423174  1
  O2-  O167  1  0.13942610  0.99505961  0.62577354  1
  O2-  O168  1  0.47692118  0.32860609  0.12586657  1
  O2-  O169  1  0.47399000  0.32600956  0.62393125  1
  O2-  O170  1  0.47352546  0.65568199  0.12507613  1
  O2-  O171  1  0.47288243  0.66065152  0.62338096  1
  O2-  O172  1  0.48681742  0.99252909  0.12575999  1
  O2-  O173  1  0.47707545  0.99563283  0.62380412  1
  O2-  O174  1  0.81362859  0.32917926  0.12447361  1
  O2-  O175  1  0.80787812  0.32702692  0.62577542  1
  O2-  O176  1  0.80628654  0.65916419  0.12451997  1
  O2-  O177  1  0.80915835  0.66196652  0.62631046  1
  O2-  O178  1  0.80343947  0.99754058  0.12615751  1
  O2-  O179  1  0.80865600  0.99108273  0.62203717  1
  O2-  O180  1  0.30639922  0.17184216  0.37470566  1
  O2-  O181  1  0.30871067  0.17168138  0.87598594  1
  O2-  O182  1  0.30491577  0.50470456  0.37509322  1
  O2-  O183  1  0.30790650  0.50463365  0.87628537  1
  O2-  O184  1  0.30955316  0.83522547  0.37439811  1
  O2-  O185  1  0.31174587  0.83480916  0.87686790  1
  O2-  O186  1  0.64083492  0.17431979  0.37692583  1
  O2-  O187  1  0.64143207  0.17340928  0.87302344  1
  O2-  O188  1  0.64231848  0.50962157  0.37650508  1
  O2-  O189  1  0.63701681  0.50959043  0.87387247  1
  O2-  O190  1  0.64122902  0.83483153  0.37500522  1
  O2-  O191  1  0.64182522  0.83810222  0.87373698  1
  O2-  O192  1  0.97495756  0.16985931  0.37571555  1
  O2-  O193  1  0.97244098  0.17003325  0.87599230  1
  O2-  O194  1  0.97344790  0.50595151  0.37350739  1
  O2-  O195  1  0.97319765  0.50562478  0.87557689  1
  O2-  O196  1  0.97487139  0.83482901  0.37236543  1
  O2-  O197  1  0.97299123  0.84123374  0.87900669  1
  O2-  O198  1  0.18394541  0.00436258  0.37416513  1
  O2-  O199  1  0.18479468  0.00455555  0.87534350  1
  O2-  O200  1  0.19163064  0.33955886  0.37342593  1
  O2-  O201  1  0.19451728  0.33869595  0.87526427  1
  O2-  O202  1  0.19302154  0.67819020  0.37357782  1
  O2-  O203  1  0.19560015  0.67446837  0.87699594  1
  O2-  O204  1  0.52860581  0.00660862  0.37668021  1
  O2-  O205  1  0.52514121  0.00438803  0.87330581  1
  O2-  O206  1  0.52954672  0.34095961  0.37732516  1
  O2-  O207  1  0.52484783  0.34316845  0.87303162  1
  O2-  O208  1  0.52649315  0.67411228  0.37446097  1
  O2-  O209  1  0.52456541  0.67852659  0.87714280  1
  O2-  O210  1  0.85395798  0.00785759  0.37480805  1
  O2-  O211  1  0.86034565  0.00469716  0.87749088  1
  O2-  O212  1  0.85351638  0.33574097  0.37507082  1
  O2-  O213  1  0.85914389  0.33694409  0.87514354  1
  O2-  O214  1  0.85650627  0.67247936  0.37158755  1
  O2-  O215  1  0.85764018  0.67293268  0.87720254  1
  O2-  O216  1  0.23702544  0.09687492  0.01640734  1
  O2-  O217  1  0.23946647  0.09463409  0.52007458  1
  O2-  O218  1  0.23618225  0.43062898  0.01744507  1
  O2-  O219  1  0.23977182  0.42654455  0.52396006  1
  O2-  O220  1  0.23645638  0.76041636  0.02410041  1
  O2-  O221  1  0.23863484  0.76076601  0.52081186  1
  O2-  O222  1  0.57189830  0.09559987  0.02117800  1
  O2-  O223  1  0.57461131  0.09379471  0.52455559  1
  O2-  O224  1  0.56880741  0.42963567  0.01809755  1
  O2-  O225  1  0.57086949  0.42767303  0.52248863  1
  O2-  O226  1  0.56932081  0.76243941  0.02306692  1
  O2-  O227  1  0.57367940  0.76169222  0.52135177  1
  O2-  O228  1  0.90153681  0.09588194  0.01995307  1
  O2-  O229  1  0.90347543  0.09540026  0.52110989  1
  O2-  O230  1  0.90415847  0.42740502  0.01961328  1
  O2-  O231  1  0.90215281  0.42585274  0.51988156  1
  O2-  O232  1  0.90654052  0.76384885  0.02201802  1
  O2-  O233  1  0.90521729  0.76188125  0.51648478  1
  O2-  O234  1  0.26371568  0.26158046  0.22932705  1
  O2-  O235  1  0.26195049  0.26128622  0.73017115  1
  O2-  O236  1  0.26211913  0.59484165  0.22952251  1
  O2-  O237  1  0.26402636  0.59436388  0.73053695  1
  O2-  O238  1  0.25740604  0.92557002  0.23260122  1
  O2-  O239  1  0.26058308  0.92610121  0.72678729  1
  O2-  O240  1  0.59304518  0.25944710  0.23362776  1
  O2-  O241  1  0.59436861  0.25919817  0.72604687  1
  O2-  O242  1  0.59447888  0.59510942  0.22986283  1
  O2-  O243  1  0.59471584  0.59498192  0.72791682  1
  O2-  O244  1  0.59883153  0.93020451  0.23585697  1
  O2-  O245  1  0.59461812  0.92718914  0.72715589  1
  O2-  O246  1  0.92695826  0.25937269  0.22815328  1
  O2-  O247  1  0.93114247  0.26304899  0.73356211  1
  O2-  O248  1  0.92918029  0.59441052  0.22827420  1
  O2-  O249  1  0.92377391  0.59282053  0.73322385  1
  O2-  O250  1  0.92776245  0.92823262  0.22446211  1
  O2-  O251  1  0.92920057  0.93032943  0.73064469  1
  O2-  O252  1  0.09907653  0.23978614  0.26643397  1
  O2-  O253  1  0.09532309  0.23805298  0.77266945  1
  O2-  O254  1  0.09527139  0.57262735  0.27362232  1
  O2-  O255  1  0.09705395  0.57479631  0.77140307  1
  O2-  O256  1  0.09405827  0.90416488  0.26632488  1
  O2-  O257  1  0.09512777  0.90471016  0.77131494  1
  O2-  O258  1  0.42758500  0.24067664  0.27614629  1
  O2-  O259  1  0.43099593  0.23904905  0.77239106  1
  O2-  O260  1  0.42638732  0.57083020  0.27270703  1
  O2-  O261  1  0.43056630  0.57072132  0.77190071  1
  O2-  O262  1  0.43177576  0.90776608  0.26804228  1
  O2-  O263  1  0.43160252  0.90344197  0.76564905  1
  O2-  O264  1  0.76040522  0.23368768  0.26623295  1
  O2-  O265  1  0.76176500  0.23751287  0.77030865  1
  O2-  O266  1  0.76170875  0.57001509  0.26955188  1
  O2-  O267  1  0.75831850  0.57011823  0.77079557  1
  O2-  O268  1  0.76600911  0.90090932  0.26892872  1
  O2-  O269  1  0.76497279  0.90397284  0.76844985  1
  O2-  O270  1  0.07196062  0.07569969  0.48496215  1
  O2-  O271  1  0.07204034  0.07474426  0.97893572  1
  O2-  O272  1  0.07277150  0.40784009  0.48603041  1
  O2-  O273  1  0.07137241  0.40581774  0.97885853  1
  O2-  O274  1  0.07332199  0.74068345  0.47708120  1
  O2-  O275  1  0.07052591  0.73969507  0.97814465  1
  O2-  O276  1  0.40528060  0.07356205  0.48804051  1
  O2-  O277  1  0.40882721  0.07472279  0.98243927  1
  O2-  O278  1  0.40614441  0.40345317  0.47852344  1
  O2-  O279  1  0.40431420  0.40416070  0.98165923  1
  O2-  O280  1  0.40569086  0.73859403  0.47820543  1
  O2-  O281  1  0.40445132  0.73716663  0.98197939  1
  O2-  O282  1  0.73564110  0.06942606  0.47867124  1
  O2-  O283  1  0.73634004  0.07118617  0.97786132  1
  O2-  O284  1  0.73701412  0.40283397  0.48012369  1
  O2-  O285  1  0.73704967  0.40621235  0.97409096  1
  O2-  O286  1  0.73579036  0.73542407  0.48322203  1
  O2-  O287  1  0.73573066  0.73950529  0.98113457  1
  O2-  O288  1  0.09712883  0.23803289  0.48305718  1
  O2-  O289  1  0.09571614  0.23919427  0.97805923  1
  O2-  O290  1  0.09698740  0.57458126  0.47806788  1
  O2-  O291  1  0.09472150  0.57413927  0.97586953  1
  O2-  O292  1  0.09610193  0.90222753  0.48292368  1
  O2-  O293  1  0.09213977  0.90705141  0.97810882  1
  O2-  O294  1  0.42906910  0.23801093  0.47671587  1
  O2-  O295  1  0.42941296  0.24069986  0.97550483  1
  O2-  O296  1  0.42757185  0.57145087  0.47712088  1
  O2-  O297  1  0.42889412  0.57101350  0.97816710  1
  O2-  O298  1  0.43317665  0.90459970  0.48231937  1
  O2-  O299  1  0.43072148  0.90739350  0.98380307  1
  O2-  O300  1  0.76060790  0.23607295  0.48108492  1
  O2-  O301  1  0.76243868  0.23518773  0.98326239  1
  O2-  O302  1  0.76179287  0.57101373  0.48095940  1
  O2-  O303  1  0.75869783  0.56958779  0.97807233  1
  O2-  O304  1  0.76483834  0.89999625  0.48000272  1
  O2-  O305  1  0.76597317  0.90402257  0.98327058  1
  O2-  O306  1  0.07488814  0.07763336  0.26647558  1
  O2-  O307  1  0.06858153  0.07280021  0.76908503  1
  O2-  O308  1  0.07401003  0.40761937  0.26286233  1
  O2-  O309  1  0.07212725  0.40514970  0.77262671  1
  O2-  O310  1  0.07037985  0.73800361  0.26942710  1
  O2-  O311  1  0.07373396  0.74178193  0.77464539  1
  O2-  O312  1  0.40950414  0.07483233  0.26904109  1
  O2-  O313  1  0.40598651  0.07260360  0.76076492  1
  O2-  O314  1  0.40876286  0.40492891  0.27340908  1
  O2-  O315  1  0.40210261  0.40262452  0.76589385  1
  O2-  O316  1  0.40468470  0.73790314  0.26958987  1
  O2-  O317  1  0.40537588  0.73793345  0.76937490  1
  O2-  O318  1  0.73477323  0.07073022  0.27123477  1
  O2-  O319  1  0.73670239  0.06959418  0.77275519  1
  O2-  O320  1  0.73961945  0.40576583  0.27244799  1
  O2-  O321  1  0.73562959  0.40368704  0.77250301  1
  O2-  O322  1  0.73427600  0.73666011  0.26552587  1
  O2-  O323  1  0.73850693  0.73758153  0.77117871  1
  O2-  O324  1  0.23924063  0.09658087  0.23340740  1
  O2-  O325  1  0.23720281  0.09414741  0.72990787  1
  O2-  O326  1  0.24046461  0.42615122  0.22920739  1
  O2-  O327  1  0.23699044  0.42937273  0.72867213  1
  O2-  O328  1  0.23657455  0.75962516  0.22668804  1
  O2-  O329  1  0.23916687  0.76175477  0.72972165  1
  O2-  O330  1  0.57144052  0.09593999  0.22754203  1
  O2-  O331  1  0.57448291  0.09354178  0.72606701  1
  O2-  O332  1  0.56941706  0.43066601  0.23395035  1
  O2-  O333  1  0.57182551  0.42626360  0.72492084  1
  O2-  O334  1  0.57142810  0.76447108  0.22811662  1
  O2-  O335  1  0.57304866  0.76003219  0.72703561  1
  O2-  O336  1  0.90101394  0.09457389  0.23169183  1
  O2-  O337  1  0.90121377  0.09527317  0.72810809  1
  O2-  O338  1  0.90684889  0.42917602  0.23046085  1
  O2-  O339  1  0.90071988  0.42484745  0.72999291  1
  O2-  O340  1  0.90705830  0.76070865  0.22543988  1
  O2-  O341  1  0.90497189  0.76486126  0.73525150  1
  O2-  O342  1  0.26440583  0.26083458  0.02194031  1
  O2-  O343  1  0.26138939  0.26181749  0.51917646  1
  O2-  O344  1  0.26415818  0.59313764  0.02141095  1
  O2-  O345  1  0.26180000  0.59573961  0.51936305  1
  O2-  O346  1  0.25605552  0.92590974  0.01765888  1
  O2-  O347  1  0.26036176  0.92666503  0.52255660  1
  O2-  O348  1  0.59366376  0.26064892  0.01428236  1
  O2-  O349  1  0.59379021  0.25832053  0.52556340  1
  O2-  O350  1  0.59511820  0.59630037  0.02021601  1
  O2-  O351  1  0.59409451  0.59438014  0.52175309  1
  O2-  O352  1  0.59749107  0.92985492  0.01478949  1
  O2-  O353  1  0.59724621  0.92599841  0.52163260  1
  O2-  O354  1  0.93039088  0.26055269  0.01863332  1
  O2-  O355  1  0.92740789  0.26167486  0.52088065  1
  O2-  O356  1  0.92813197  0.59403464  0.02108978  1
  O2-  O357  1  0.92618312  0.59204212  0.51662202  1
  O2-  O358  1  0.92939700  0.93068705  0.02491136  1
  O2-  O359  1  0.92775688  0.92798337  0.52078167  1
