# generated using pymatgen
data_Sr7Ca15Pr50Mn72O216
_symmetry_space_group_name_H-M   'P 1'
_cell_length_a   16.55918502
_cell_length_b   16.60814470
_cell_length_c   15.59136064
_cell_angle_alpha   89.99524796
_cell_angle_beta   90.00208309
_cell_angle_gamma   89.99217379
_symmetry_Int_Tables_number   1
_chemical_formula_structural   Sr7Ca15Pr50Mn72O216
_chemical_formula_sum   'Sr7 Ca15 Pr50 Mn72 O216'
_cell_volume   4287.89448614
_cell_formula_units_Z   1
loop_
 _symmetry_equiv_pos_site_id
 _symmetry_equiv_pos_as_xyz
  1  'x, y, z'
loop_
 _atom_type_symbol
 _atom_type_oxidation_number
  Sr2+  2.0
  Ca2+  2.0
  Pr3+  3.0
  Mn3.30+  3.3
  O2-  -2.0
loop_
 _atom_site_type_symbol
 _atom_site_label
 _atom_site_symmetry_multiplicity
 _atom_site_fract_x
 _atom_site_fract_y
 _atom_site_fract_z
 _atom_site_occupancy
  Sr2+  Sr0  1  0.50117827  0.49203214  0.87790347  1
  Sr2+  Sr1  1  0.66379444  0.67471843  0.12448264  1
  Sr2+  Sr2  1  0.83370822  0.82343928  0.87439285  1
  Sr2+  Sr3  1  0.99799951  0.65730407  0.87587484  1
  Sr2+  Sr4  1  0.16636800  0.50903258  0.62668257  1
  Sr2+  Sr5  1  0.66976420  0.32024391  0.37405745  1
  Sr2+  Sr6  1  0.99852379  0.32647859  0.87484160  1
  Ca2+  Ca7  1  -0.00415015  0.01559835  0.12385649  1
  Ca2+  Ca8  1  0.49821150  0.81892523  0.37381023  1
  Ca2+  Ca9  1  0.66447183  0.01431076  0.12190930  1
  Ca2+  Ca10  1  0.67123908  0.32176681  0.87638382  1
  Ca2+  Ca11  1  0.66552854  0.68054148  0.62615347  1
  Ca2+  Ca12  1  0.16774134  0.51303737  0.12233185  1
  Ca2+  Ca13  1  0.33692856  0.98659085  0.87623229  1
  Ca2+  Ca14  1  1.00395226  0.31554836  0.37501952  1
  Ca2+  Ca15  1  0.49777770  0.15322048  0.87528790  1
  Ca2+  Ca16  1  0.83778396  0.51374790  0.62840662  1
  Ca2+  Ca17  1  0.16203227  0.15323946  0.37347800  1
  Ca2+  Ca18  1  0.82789312  0.48500995  0.87526061  1
  Ca2+  Ca19  1  0.50612399  0.51538393  0.12468361  1
  Ca2+  Ca20  1  0.83028748  0.15369365  0.37380018  1
  Ca2+  Ca21  1  1.00216952  0.98702850  0.87725996  1
  Pr3+  Pr22  1  0.66334010  0.34700623  0.12542932  1
  Pr3+  Pr23  1  0.83459149  0.84457456  0.62642798  1
  Pr3+  Pr24  1  0.16819655  0.17989494  0.62432927  1
  Pr3+  Pr25  1  0.49872764  0.82133010  0.87569483  1
  Pr3+  Pr26  1  -0.00276063  0.01325865  0.62659537  1
  Pr3+  Pr27  1  0.33086672  0.34708600  0.62572490  1
  Pr3+  Pr28  1  0.16162585  0.82120541  0.87597134  1
  Pr3+  Pr29  1  0.83444520  0.51227899  0.12358762  1
  Pr3+  Pr30  1  0.50371523  0.84576285  0.62481590  1
  Pr3+  Pr31  1  0.33718845  0.65341177  0.37522167  1
  Pr3+  Pr32  1  0.66489126  0.01299437  0.62754941  1
  Pr3+  Pr33  1  0.16083382  0.15229408  0.87579211  1
  Pr3+  Pr34  1  0.83040688  0.48599747  0.37484817  1
  Pr3+  Pr35  1  0.82941771  0.82204092  0.37498367  1
  Pr3+  Pr36  1  -0.00383910  0.67843672  0.12401687  1
  Pr3+  Pr37  1  0.16116321  0.48493157  0.37464359  1
  Pr3+  Pr38  1  0.32983945  0.67854890  0.62645425  1
  Pr3+  Pr39  1  0.83648877  0.18034658  0.62376333  1
  Pr3+  Pr40  1  0.66969544  0.98700982  0.87674755  1
  Pr3+  Pr41  1  0.50479468  0.17711160  0.12256922  1
  Pr3+  Pr42  1  0.33391124  0.67675699  0.12352855  1
  Pr3+  Pr43  1  0.50542131  0.51502888  0.62519003  1
  Pr3+  Pr44  1  0.49873677  0.48639200  0.37248512  1
  Pr3+  Pr45  1  -0.00312589  0.34586991  0.12467223  1
  Pr3+  Pr46  1  0.66700030  0.34626843  0.62444961  1
  Pr3+  Pr47  1  0.33088327  0.34891976  0.12455003  1
  Pr3+  Pr48  1  -0.00329734  0.67664750  0.62584313  1
  Pr3+  Pr49  1  0.50751985  0.84820432  0.12487743  1
  Pr3+  Pr50  1  1.00091083  0.99129243  0.37295273  1
  Pr3+  Pr51  1  0.16799004  0.84661733  0.12424615  1
  Pr3+  Pr52  1  0.16395516  0.82027581  0.37392723  1
  Pr3+  Pr53  1  0.33571143  0.65329681  0.87533281  1
  Pr3+  Pr54  1  0.66744998  0.65500590  0.37522622  1
  Pr3+  Pr55  1  0.33108021  0.01330740  0.12232490  1
  Pr3+  Pr56  1  0.16177292  0.48806056  0.87567769  1
  Pr3+  Pr57  1  -0.00527080  0.34949456  0.62590175  1
  Pr3+  Pr58  1  0.16886661  0.84503680  0.62542337  1
  Pr3+  Pr59  1  0.33735090  0.98560630  0.37367795  1
  Pr3+  Pr60  1  0.83200820  0.15642090  0.87569734  1
  Pr3+  Pr61  1  0.66996957  0.99025264  0.37349601  1
  Pr3+  Pr62  1  0.83481223  0.17798376  0.12625535  1
  Pr3+  Pr63  1  0.32951783  0.01259841  0.62732999  1
  Pr3+  Pr64  1  0.33536552  0.31960065  0.37571482  1
  Pr3+  Pr65  1  0.16704839  0.17886348  0.12606872  1
  Pr3+  Pr66  1  0.50311105  0.18009242  0.62691529  1
  Pr3+  Pr67  1  0.83500087  0.84834718  0.12326179  1
  Pr3+  Pr68  1  1.00170094  0.65323335  0.37437655  1
  Pr3+  Pr69  1  0.49938285  0.15501186  0.37454955  1
  Pr3+  Pr70  1  0.67439038  0.65187316  0.87441981  1
  Pr3+  Pr71  1  0.33827847  0.32174888  0.87463565  1
  Mn3.30+  Mn72  1  0.16508044  0.00058314  0.00023426  1
  Mn3.30+  Mn73  1  0.16676822  0.00107028  0.49814371  1
  Mn3.30+  Mn74  1  0.16681468  0.33385922  0.00095496  1
  Mn3.30+  Mn75  1  0.16454469  0.33176276  0.49847590  1
  Mn3.30+  Mn76  1  0.16581006  0.66566021  0.00171621  1
  Mn3.30+  Mn77  1  0.16658315  0.66532110  0.49988020  1
  Mn3.30+  Mn78  1  0.49982817  0.00170187  -0.00215318  1
  Mn3.30+  Mn79  1  0.49987617  -0.00066782  0.49992694  1
  Mn3.30+  Mn80  1  0.50184228  0.33366275  -0.00221154  1
  Mn3.30+  Mn81  1  0.50052350  0.33320382  0.50009259  1
  Mn3.30+  Mn82  1  0.50169032  0.66550292  -0.00010728  1
  Mn3.30+  Mn83  1  0.50143453  0.66838089  0.50038139  1
  Mn3.30+  Mn84  1  0.83444185  0.00085706  0.00033927  1
  Mn3.30+  Mn85  1  0.83336061  0.00140588  0.49970511  1
  Mn3.30+  Mn86  1  0.83128862  0.33370257  -0.00088528  1
  Mn3.30+  Mn87  1  0.83508355  0.33288510  0.49758579  1
  Mn3.30+  Mn88  1  0.83251548  0.66630943  -0.00141110  1
  Mn3.30+  Mn89  1  0.83137478  0.66576844  0.50195836  1
  Mn3.30+  Mn90  1  -0.00019027  0.16656567  0.25168124  1
  Mn3.30+  Mn91  1  0.00009086  0.16725434  0.75140501  1
  Mn3.30+  Mn92  1  0.00083327  0.49814519  0.24913912  1
  Mn3.30+  Mn93  1  -0.00347876  0.50129118  0.75226446  1
  Mn3.30+  Mn94  1  -0.00092385  0.83538649  0.24909785  1
  Mn3.30+  Mn95  1  0.00051670  0.83368436  0.75096789  1
  Mn3.30+  Mn96  1  0.33226914  0.16627941  0.25014905  1
  Mn3.30+  Mn97  1  0.33459035  0.16576735  0.75226989  1
  Mn3.30+  Mn98  1  0.33191410  0.50029305  0.24811560  1
  Mn3.30+  Mn99  1  0.33435079  0.49986120  0.75098855  1
  Mn3.30+  Mn100  1  0.33570700  0.83276644  0.24862672  1
  Mn3.30+  Mn101  1  0.33347917  0.83478375  0.75218211  1
  Mn3.30+  Mn102  1  0.66862988  0.16536171  0.24937469  1
  Mn3.30+  Mn103  1  0.66576061  0.16895875  0.75304181  1
  Mn3.30+  Mn104  1  0.66544228  0.49998234  0.25027483  1
  Mn3.30+  Mn105  1  0.67012511  0.49912107  0.74862191  1
  Mn3.30+  Mn106  1  0.66516377  0.83457626  0.25007788  1
  Mn3.30+  Mn107  1  0.66696606  0.83201449  0.74924913  1
  Mn3.30+  Mn108  1  0.16580415  0.00171790  0.24930425  1
  Mn3.30+  Mn109  1  0.16640437  -0.00043061  0.75252334  1
  Mn3.30+  Mn110  1  0.16498963  0.33283738  0.25038835  1
  Mn3.30+  Mn111  1  0.16630412  0.33342469  0.75048021  1
  Mn3.30+  Mn112  1  0.16726952  0.66496434  0.24830282  1
  Mn3.30+  Mn113  1  0.16534637  0.66587953  0.75066486  1
  Mn3.30+  Mn114  1  0.50188539  -0.00038932  0.24948524  1
  Mn3.30+  Mn115  1  0.49770049  0.00146391  0.75206911  1
  Mn3.30+  Mn116  1  0.49939727  0.33257802  0.24879418  1
  Mn3.30+  Mn117  1  0.50291478  0.33412743  0.75326113  1
  Mn3.30+  Mn118  1  0.50043544  0.66722461  0.25054749  1
  Mn3.30+  Mn119  1  0.50229420  0.66695153  0.74969928  1
  Mn3.30+  Mn120  1  0.83327105  0.00214021  0.24775976  1
  Mn3.30+  Mn121  1  0.83403148  0.00025139  0.75232300  1
  Mn3.30+  Mn122  1  0.83456279  0.33121766  0.25213129  1
  Mn3.30+  Mn123  1  0.83146941  0.33524046  0.75145168  1
  Mn3.30+  Mn124  1  0.83248360  0.66761152  0.24953396  1
  Mn3.30+  Mn125  1  0.83165171  0.66433370  0.74907916  1
  Mn3.30+  Mn126  1  -0.00030848  0.16583136  0.00022175  1
  Mn3.30+  Mn127  1  0.00030342  0.16785249  0.49677141  1
  Mn3.30+  Mn128  1  -0.00035350  0.50026164  -0.00089087  1
  Mn3.30+  Mn129  1  -0.00256940  0.49913776  0.50008904  1
  Mn3.30+  Mn130  1  -0.00011575  0.83595063  -0.00002351  1
  Mn3.30+  Mn131  1  -0.00059669  0.83374165  0.49951692  1
  Mn3.30+  Mn132  1  0.33492756  0.16669015  -0.00204042  1
  Mn3.30+  Mn133  1  0.33160994  0.16530259  0.49896007  1
  Mn3.30+  Mn134  1  0.33387150  0.50031112  0.00214540  1
  Mn3.30+  Mn135  1  0.33264033  0.49982255  0.49958373  1
  Mn3.30+  Mn136  1  0.33409518  0.83458228  -0.00024886  1
  Mn3.30+  Mn137  1  0.33526448  0.83294595  0.49932009  1
  Mn3.30+  Mn138  1  0.66570238  0.16720758  -0.00224029  1
  Mn3.30+  Mn139  1  0.66889795  0.16677651  0.49941866  1
  Mn3.30+  Mn140  1  0.66593619  0.49798631  -0.00142619  1
  Mn3.30+  Mn141  1  0.66945375  0.50115310  0.50230459  1
  Mn3.30+  Mn142  1  0.66769023  0.83308944  0.00114388  1
  Mn3.30+  Mn143  1  0.66510096  0.83341951  0.49925347  1
  O2-  O144  1  0.02394492  0.16086448  0.12543004  1
  O2-  O145  1  0.02452540  0.16063482  0.62429700  1
  O2-  O146  1  0.02590108  0.49376568  0.12638448  1
  O2-  O147  1  0.01825074  0.49783281  0.62447070  1
  O2-  O148  1  0.02476719  0.82601375  0.12675153  1
  O2-  O149  1  0.02480421  0.82720980  0.62373919  1
  O2-  O150  1  0.36021345  0.16109171  0.12205483  1
  O2-  O151  1  0.35906731  0.15956149  0.62492403  1
  O2-  O152  1  0.36270937  0.49652548  0.12576174  1
  O2-  O153  1  0.35952904  0.49584193  0.62470300  1
  O2-  O154  1  0.36274512  0.82705944  0.12511830  1
  O2-  O155  1  0.35942138  0.82754854  0.62734660  1
  O2-  O156  1  0.69007471  0.16002922  0.12367048  1
  O2-  O157  1  0.69136719  0.16102406  0.62599734  1
  O2-  O158  1  0.68987240  0.49607361  0.12525115  1
  O2-  O159  1  0.69646993  0.49206516  0.62392309  1
  O2-  O160  1  0.69040783  0.82893617  0.12577755  1
  O2-  O161  1  0.69056809  0.82999935  0.62310973  1
  O2-  O162  1  0.14084519  0.32587576  0.12670892  1
  O2-  O163  1  0.14081236  0.32725216  0.62389848  1
  O2-  O164  1  0.14028031  0.66038572  0.12617801  1
  O2-  O165  1  0.14223869  0.66625029  0.62299802  1
  O2-  O166  1  0.13922562  0.99509103  0.12602117  1
  O2-  O167  1  0.14155481  0.99358366  0.62452965  1
  O2-  O168  1  0.47400168  0.32283873  0.12505234  1
  O2-  O169  1  0.47477374  0.32783906  0.62559136  1
  O2-  O170  1  0.47803666  0.66200763  0.12633109  1
  O2-  O171  1  0.47380996  0.66341418  0.62545583  1
  O2-  O172  1  0.47468107  0.99662449  0.12405970  1
  O2-  O173  1  0.47296881  0.99405316  0.62693955  1
  O2-  O174  1  0.80847005  0.32722665  0.12578283  1
  O2-  O175  1  0.81036953  0.32575344  0.62356814  1
  O2-  O176  1  0.81410971  0.66124048  0.12627437  1
  O2-  O177  1  0.80675921  0.65974332  0.62287413  1
  O2-  O178  1  0.80587852  0.99682369  0.12395554  1
  O2-  O179  1  0.80936380  0.99536960  0.62651096  1
  O2-  O180  1  0.30494091  0.17156053  0.37650980  1
  O2-  O181  1  0.30451059  0.17574141  0.87627227  1
  O2-  O182  1  0.30598011  0.50529885  0.37331643  1
  O2-  O183  1  0.30752033  0.50389932  0.87715253  1
  O2-  O184  1  0.30746269  0.83807244  0.37200757  1
  O2-  O185  1  0.30616761  0.83956805  0.87572167  1
  O2-  O186  1  0.64275033  0.16433465  0.37587041  1
  O2-  O187  1  0.63986416  0.17561259  0.87380653  1
  O2-  O188  1  0.64251525  0.50535447  0.37740547  1
  O2-  O189  1  0.64855370  0.50552777  0.87267980  1
  O2-  O190  1  0.63968366  0.84380731  0.37533737  1
  O2-  O191  1  0.64331378  0.83854029  0.87552539  1
  O2-  O192  1  0.97183897  0.17061307  0.37528710  1
  O2-  O193  1  0.97613133  0.17194446  0.87593406  1
  O2-  O194  1  0.97360107  0.50712412  0.37436257  1
  O2-  O195  1  0.97284558  0.50104429  0.87523968  1
  O2-  O196  1  0.97392467  0.84120224  0.37376105  1
  O2-  O197  1  0.98349037  0.84094206  0.87645904  1
  O2-  O198  1  0.19349797  0.00592272  0.37328459  1
  O2-  O199  1  0.19470934  0.00525928  0.87610671  1
  O2-  O200  1  0.19283411  0.33972243  0.37339378  1
  O2-  O201  1  0.19219774  0.33882680  0.87631449  1
  O2-  O202  1  0.19228028  0.67187306  0.37350815  1
  O2-  O203  1  0.19174435  0.67328475  0.87767972  1
  O2-  O204  1  0.52611917  0.00849899  0.37451579  1
  O2-  O205  1  0.52621956  0.00486748  0.87369116  1
  O2-  O206  1  0.51902047  0.33727098  0.37403959  1
  O2-  O207  1  0.52908717  0.34053925  0.87484732  1
  O2-  O208  1  0.52339537  0.67290366  0.37644034  1
  O2-  O209  1  0.52729011  0.67305343  0.87242248  1
  O2-  O210  1  0.85669816  0.00384938  0.37409946  1
  O2-  O211  1  0.85972878  0.00696271  0.87573893  1
  O2-  O212  1  0.86262426  0.34138963  0.37435001  1
  O2-  O213  1  0.85033964  0.33740082  0.87612660  1
  O2-  O214  1  0.85811150  0.67386270  0.37465267  1
  O2-  O215  1  0.84920917  0.67053758  0.87456994  1
  O2-  O216  1  0.23628309  0.09428600  0.02165575  1
  O2-  O217  1  0.23967721  0.09243105  0.52369589  1
  O2-  O218  1  0.23984517  0.42914122  0.02273609  1
  O2-  O219  1  0.24048526  0.42462958  0.51715370  1
  O2-  O220  1  0.23981737  0.75981366  0.02294557  1
  O2-  O221  1  0.23882278  0.76193032  0.51931764  1
  O2-  O222  1  0.57055380  0.09496677  0.01649322  1
  O2-  O223  1  0.56981990  0.09355832  0.52196880  1
  O2-  O224  1  0.57106624  0.42686264  0.02554835  1
  O2-  O225  1  0.57459849  0.43024136  0.52037213  1
  O2-  O226  1  0.56924404  0.76511047  0.01620237  1
  O2-  O227  1  0.57143509  0.76345212  0.51927814  1
  O2-  O228  1  0.90317973  0.09637307  0.01905539  1
  O2-  O229  1  0.90741789  0.09405962  0.52158956  1
  O2-  O230  1  0.90600472  0.42571989  0.02293980  1
  O2-  O231  1  0.90323328  0.43007895  0.52134159  1
  O2-  O232  1  0.90844836  0.76136292  0.02100425  1
  O2-  O233  1  0.90254361  0.76001408  0.52070944  1
  O2-  O234  1  0.26151008  0.26307374  0.22879461  1
  O2-  O235  1  0.26322008  0.25987472  0.72856709  1
  O2-  O236  1  0.26431782  0.59608595  0.22997846  1
  O2-  O237  1  0.26172576  0.59684405  0.73469773  1
  O2-  O238  1  0.26365060  0.92644997  0.22815003  1
  O2-  O239  1  0.26052298  0.92648320  0.72717054  1
  O2-  O240  1  0.59540374  0.25773181  0.22945225  1
  O2-  O241  1  0.59433602  0.26072712  0.72504152  1
  O2-  O242  1  0.59180400  0.59489793  0.23869059  1
  O2-  O243  1  0.59801724  0.59382340  0.72717917  1
  O2-  O244  1  0.59691781  0.93112456  0.22669472  1
  O2-  O245  1  0.59217843  0.92846904  0.73051699  1
  O2-  O246  1  0.92935181  0.26053471  0.22753332  1
  O2-  O247  1  0.92625104  0.26161854  0.72893524  1
  O2-  O248  1  0.92957394  0.59369285  0.23129355  1
  O2-  O249  1  0.92696260  0.59572561  0.72890832  1
  O2-  O250  1  0.92677814  0.93038369  0.22750485  1
  O2-  O251  1  0.92739580  0.92471423  0.72792247  1
  O2-  O252  1  0.09692231  0.23546842  0.26869703  1
  O2-  O253  1  0.09774280  0.23570557  0.76635920  1
  O2-  O254  1  0.09278115  0.57111753  0.27277497  1
  O2-  O255  1  0.09353676  0.57231258  0.76995249  1
  O2-  O256  1  0.09497578  0.90570018  0.27149183  1
  O2-  O257  1  0.09954572  0.90456247  0.76637711  1
  O2-  O258  1  0.42589395  0.23716973  0.27126743  1
  O2-  O259  1  0.43095099  0.23847641  0.77134022  1
  O2-  O260  1  0.42558706  0.57215240  0.27412929  1
  O2-  O261  1  0.42630146  0.57521754  0.76749601  1
  O2-  O262  1  0.43001748  0.90437476  0.27099089  1
  O2-  O263  1  0.42847838  0.90472560  0.77043171  1
  O2-  O264  1  0.76551533  0.23556279  0.26736446  1
  O2-  O265  1  0.76392157  0.23661617  0.76625777  1
  O2-  O266  1  0.76108485  0.57363065  0.27017735  1
  O2-  O267  1  0.76307124  0.56890791  0.77158263  1
  O2-  O268  1  0.76215053  0.90561373  0.26976516  1
  O2-  O269  1  0.75778066  0.90863201  0.76666787  1
  O2-  O270  1  0.06871939  0.07085110  0.48130904  1
  O2-  O271  1  0.07198945  0.07151949  0.97706170  1
  O2-  O272  1  0.06951723  0.40428459  0.47925205  1
  O2-  O273  1  0.07391920  0.40824781  0.98222785  1
  O2-  O274  1  0.07225267  0.73946194  0.47725218  1
  O2-  O275  1  0.07562617  0.74152409  0.98525513  1
  O2-  O276  1  0.40363218  0.07153756  0.47835167  1
  O2-  O277  1  0.40131165  0.06992534  0.97997341  1
  O2-  O278  1  0.40533633  0.40601498  0.47972460  1
  O2-  O279  1  0.40306216  0.40178011  0.98350615  1
  O2-  O280  1  0.40237164  0.73751204  0.48248182  1
  O2-  O281  1  0.40575460  0.74025284  0.97818677  1
  O2-  O282  1  0.73661948  0.06909784  0.48443108  1
  O2-  O283  1  0.73862735  0.07478028  0.97564439  1
  O2-  O284  1  0.74190991  0.40575857  0.48002045  1
  O2-  O285  1  0.73389558  0.40154679  0.98614079  1
  O2-  O286  1  0.73841616  0.74152117  0.47701741  1
  O2-  O287  1  0.73655745  0.73813752  0.98303613  1
  O2-  O288  1  0.09757056  0.23399553  0.47992038  1
  O2-  O289  1  0.09675225  0.23552412  0.98501618  1
  O2-  O290  1  0.09250532  0.57188437  0.47758588  1
  O2-  O291  1  0.09534078  0.57183251  0.98153145  1
  O2-  O292  1  0.09693607  0.90704766  0.47820468  1
  O2-  O293  1  0.09852194  0.90440008  0.98373352  1
  O2-  O294  1  0.42508555  0.23616837  0.48027582  1
  O2-  O295  1  0.43049917  0.23855778  0.97589168  1
  O2-  O296  1  0.43003038  0.57124316  0.47912896  1
  O2-  O297  1  0.42207963  0.57726558  0.98106966  1
  O2-  O298  1  0.43015597  0.90487616  0.47802059  1
  O2-  O299  1  0.43088135  0.90609480  0.98125961  1
  O2-  O300  1  0.76730878  0.23567770  0.48224829  1
  O2-  O301  1  0.76244877  0.23630875  0.98325489  1
  O2-  O302  1  0.76045024  0.57453925  0.47422139  1
  O2-  O303  1  0.76133492  0.56784891  0.98268794  1
  O2-  O304  1  0.76056589  0.90524177  0.48057086  1
  O2-  O305  1  0.76055390  0.90781131  0.98262983  1
  O2-  O306  1  0.07028348  0.07409294  0.27149877  1
  O2-  O307  1  0.07124292  0.06890745  0.77077180  1
  O2-  O308  1  0.07029305  0.40232144  0.27298581  1
  O2-  O309  1  0.07429383  0.40913015  0.76582546  1
  O2-  O310  1  0.07251286  0.73917506  0.27060606  1
  O2-  O311  1  0.07485207  0.74126426  0.76745608  1
  O2-  O312  1  0.40581424  0.07054488  0.27030190  1
  O2-  O313  1  0.40123231  0.06940699  0.76982090  1
  O2-  O314  1  0.40090674  0.40529444  0.26984721  1
  O2-  O315  1  0.40638883  0.40294863  0.76722948  1
  O2-  O316  1  0.40295878  0.73615491  0.26793344  1
  O2-  O317  1  0.40410254  0.74101314  0.77240417  1
  O2-  O318  1  0.73853986  0.07140491  0.26852250  1
  O2-  O319  1  0.73705410  0.07416229  0.77191158  1
  O2-  O320  1  0.74257049  0.40680564  0.26694083  1
  O2-  O321  1  0.73403930  0.39961986  0.76583994  1
  O2-  O322  1  0.73741643  0.74277437  0.27441443  1
  O2-  O323  1  0.73723512  0.73569165  0.76365541  1
  O2-  O324  1  0.24146208  0.09364469  0.22588511  1
  O2-  O325  1  0.23547335  0.09384297  0.72934913  1
  O2-  O326  1  0.23633053  0.43032822  0.22747346  1
  O2-  O327  1  0.24294382  0.42432119  0.73282999  1
  O2-  O328  1  0.24005205  0.76204889  0.22761348  1
  O2-  O329  1  0.24033044  0.76173363  0.72996636  1
  O2-  O330  1  0.56930179  0.09630785  0.23239493  1
  O2-  O331  1  0.57181448  0.09346710  0.72831044  1
  O2-  O332  1  0.57031246  0.42769155  0.23061389  1
  O2-  O333  1  0.57445231  0.42818525  0.72417118  1
  O2-  O334  1  0.57001374  0.76502263  0.23389272  1
  O2-  O335  1  0.56973123  0.76394707  0.73132686  1
  O2-  O336  1  0.90506787  0.09495061  0.23062040  1
  O2-  O337  1  0.90542922  0.09483466  0.72958595  1
  O2-  O338  1  0.90573089  0.42818937  0.22753596  1
  O2-  O339  1  0.90457700  0.42642369  0.72941783  1
  O2-  O340  1  0.90435114  0.76252413  0.23017136  1
  O2-  O341  1  0.90543954  0.75774174  0.72724431  1
  O2-  O342  1  0.26334092  0.26137215  0.02169909  1
  O2-  O343  1  0.26263071  0.25987794  0.52215889  1
  O2-  O344  1  0.26133618  0.59569574  0.01912833  1
  O2-  O345  1  0.26438197  0.59662678  0.51714270  1
  O2-  O346  1  0.26019130  0.92656579  0.02429180  1
  O2-  O347  1  0.26371977  0.92679067  0.51929665  1
  O2-  O348  1  0.59469124  0.26050275  0.02369056  1
  O2-  O349  1  0.59384971  0.25908773  0.52059144  1
  O2-  O350  1  0.59376894  0.59243964  0.01201259  1
  O2-  O351  1  0.59657388  0.59649020  0.52214101  1
  O2-  O352  1  0.59552970  0.92952262  0.01854408  1
  O2-  O353  1  0.59577111  0.92896799  0.52296033  1
  O2-  O354  1  0.92643605  0.25957660  0.02209424  1
  O2-  O355  1  0.93057089  0.26197798  0.52216744  1
  O2-  O356  1  0.92801228  0.59212882  0.02276502  1
  O2-  O357  1  0.92938426  0.59769383  0.51551117  1
  O2-  O358  1  0.92765798  0.92803916  0.02415290  1
  O2-  O359  1  0.92710663  0.92796417  0.52102876  1
