# generated using pymatgen
data_Sr7Ca15Pr50Mn72O216
_symmetry_space_group_name_H-M   'P 1'
_cell_length_a   16.55461631
_cell_length_b   16.59950963
_cell_length_c   15.58806702
_cell_angle_alpha   89.99775685
_cell_angle_beta   89.99950907
_cell_angle_gamma   90.01311376
_symmetry_Int_Tables_number   1
_chemical_formula_structural   Sr7Ca15Pr50Mn72O216
_chemical_formula_sum   'Sr7 Ca15 Pr50 Mn72 O216'
_cell_volume   4283.57751956
_cell_formula_units_Z   1
loop_
 _symmetry_equiv_pos_site_id
 _symmetry_equiv_pos_as_xyz
  1  'x, y, z'
loop_
 _atom_type_symbol
 _atom_type_oxidation_number
  Sr2+  2.0
  Ca2+  2.0
  Pr3+  3.0
  Mn3.30+  3.3
  O2-  -2.0
loop_
 _atom_site_type_symbol
 _atom_site_label
 _atom_site_symmetry_multiplicity
 _atom_site_fract_x
 _atom_site_fract_y
 _atom_site_fract_z
 _atom_site_occupancy
  Sr2+  Sr0  1  0.16527054  0.48913334  0.87600545  1
  Sr2+  Sr1  1  1.00209939  0.98573109  0.37689491  1
  Sr2+  Sr2  1  1.00459091  0.32139885  0.87495608  1
  Sr2+  Sr3  1  0.83439591  0.82376572  0.37385468  1
  Sr2+  Sr4  1  0.50099201  0.17552120  0.12440824  1
  Sr2+  Sr5  1  0.33210129  0.00960102  0.62635698  1
  Sr2+  Sr6  1  0.16813647  0.84456044  0.62366864  1
  Ca2+  Ca7  1  0.83589651  0.51616279  0.12415848  1
  Ca2+  Ca8  1  0.82915630  0.81850035  0.87610208  1
  Ca2+  Ca9  1  0.33203814  0.34766426  0.12515570  1
  Ca2+  Ca10  1  0.66944325  0.31899905  0.87540367  1
  Ca2+  Ca11  1  0.33088187  0.67988077  0.12478007  1
  Ca2+  Ca12  1  0.66175592  0.01483742  0.12541891  1
  Ca2+  Ca13  1  0.16354540  0.48653144  0.37291830  1
  Ca2+  Ca14  1  0.50113306  0.51714739  0.12591183  1
  Ca2+  Ca15  1  0.49642678  0.81789448  0.37417989  1
  Ca2+  Ca16  1  0.50514216  0.18532740  0.62555929  1
  Ca2+  Ca17  1  0.66506215  0.67973153  0.12741664  1
  Ca2+  Ca18  1  0.16359221  0.15417378  0.87329565  1
  Ca2+  Ca19  1  0.16247463  0.82031194  0.37583566  1
  Ca2+  Ca20  1  0.66322678  0.34723659  0.62679559  1
  Ca2+  Ca21  1  -0.00136170  0.01315761  0.62271262  1
  Pr3+  Pr22  1  0.67245189  0.98566886  0.87717517  1
  Pr3+  Pr23  1  0.33729748  0.65173320  0.87741904  1
  Pr3+  Pr24  1  0.50387379  0.51096972  0.62388083  1
  Pr3+  Pr25  1  0.16490763  0.82229517  0.87356938  1
  Pr3+  Pr26  1  0.66837780  0.65647497  0.37136940  1
  Pr3+  Pr27  1  0.83992323  0.84854878  0.62471080  1
  Pr3+  Pr28  1  0.49892838  0.15573695  0.87470084  1
  Pr3+  Pr29  1  0.49682936  0.15416916  0.37527722  1
  Pr3+  Pr30  1  0.16692081  0.17257560  0.62622534  1
  Pr3+  Pr31  1  0.83334957  0.17735366  0.12493881  1
  Pr3+  Pr32  1  0.83748318  0.18032478  0.62507080  1
  Pr3+  Pr33  1  0.66462586  0.68038905  0.62382361  1
  Pr3+  Pr34  1  0.67017248  0.98676815  0.37251649  1
  Pr3+  Pr35  1  -0.00288469  0.34595665  0.62603833  1
  Pr3+  Pr36  1  0.83080837  0.15608698  0.87546479  1
  Pr3+  Pr37  1  0.82782545  0.48449673  0.87798154  1
  Pr3+  Pr38  1  1.00571383  0.65680880  0.37384455  1
  Pr3+  Pr39  1  0.83049211  0.15309002  0.37476661  1
  Pr3+  Pr40  1  -0.00127571  0.01164924  0.12746539  1
  Pr3+  Pr41  1  0.16934222  0.50924686  0.62636223  1
  Pr3+  Pr42  1  -0.00254540  0.67761182  0.12383575  1
  Pr3+  Pr43  1  0.33346311  0.34043190  0.62483368  1
  Pr3+  Pr44  1  -0.00464337  0.34885352  0.12331251  1
  Pr3+  Pr45  1  0.49719326  0.48835905  0.37168083  1
  Pr3+  Pr46  1  0.33500656  0.32095085  0.37331538  1
  Pr3+  Pr47  1  1.00387770  0.32159793  0.37423387  1
  Pr3+  Pr48  1  -0.00174159  0.67911947  0.62651277  1
  Pr3+  Pr49  1  0.16521715  0.15205027  0.37591154  1
  Pr3+  Pr50  1  0.49744089  0.82000848  0.87550265  1
  Pr3+  Pr51  1  0.83412715  0.51200027  0.62544613  1
  Pr3+  Pr52  1  0.66156115  0.01619110  0.62475447  1
  Pr3+  Pr53  1  0.33384477  0.65581513  0.37362626  1
  Pr3+  Pr54  1  0.17324117  0.18172938  0.12431936  1
  Pr3+  Pr55  1  0.66821103  0.32161074  0.37435876  1
  Pr3+  Pr56  1  0.83296599  0.84382389  0.12533701  1
  Pr3+  Pr57  1  0.66979474  0.65536828  0.87815586  1
  Pr3+  Pr58  1  0.50216553  0.84630406  0.62317476  1
  Pr3+  Pr59  1  0.33151269  0.01154027  0.12515053  1
  Pr3+  Pr60  1  0.99996129  0.65459463  0.87587387  1
  Pr3+  Pr61  1  0.33019121  0.67785154  0.62559694  1
  Pr3+  Pr62  1  0.17205905  0.51271344  0.12381855  1
  Pr3+  Pr63  1  0.66091115  0.34821128  0.12265002  1
  Pr3+  Pr64  1  0.33364007  0.32117635  0.87672564  1
  Pr3+  Pr65  1  0.33369924  0.98872127  0.87402960  1
  Pr3+  Pr66  1  0.83022123  0.48958571  0.37166860  1
  Pr3+  Pr67  1  0.17060367  0.84406255  0.12652981  1
  Pr3+  Pr68  1  1.00225982  0.99181938  0.87369054  1
  Pr3+  Pr69  1  0.49745859  0.48578125  0.87767249  1
  Pr3+  Pr70  1  0.33694544  0.98268091  0.37639405  1
  Pr3+  Pr71  1  0.50505269  0.84560277  0.12666007  1
  Mn3.30+  Mn72  1  0.16622364  0.00108458  -0.00038592  1
  Mn3.30+  Mn73  1  0.16684822  -0.00282646  0.50098805  1
  Mn3.30+  Mn74  1  0.16695226  0.33325387  0.00027464  1
  Mn3.30+  Mn75  1  0.16657710  0.33287183  0.49966043  1
  Mn3.30+  Mn76  1  0.16785724  0.66675737  0.00018668  1
  Mn3.30+  Mn77  1  0.16718538  0.66548737  0.49945511  1
  Mn3.30+  Mn78  1  0.50236068  0.00036150  -0.00058273  1
  Mn3.30+  Mn79  1  0.50040828  0.00057648  0.50056892  1
  Mn3.30+  Mn80  1  0.50012425  0.33355052  0.00172842  1
  Mn3.30+  Mn81  1  0.50187715  0.33334828  0.50013843  1
  Mn3.30+  Mn82  1  0.50158027  0.66607602  0.00468936  1
  Mn3.30+  Mn83  1  0.49950225  0.66708988  0.49787405  1
  Mn3.30+  Mn84  1  0.83270714  -0.00084335  0.00165292  1
  Mn3.30+  Mn85  1  0.83297899  -0.00021183  0.49975098  1
  Mn3.30+  Mn86  1  0.83074734  0.33340261  0.00017485  1
  Mn3.30+  Mn87  1  0.83215968  0.33461171  0.50006748  1
  Mn3.30+  Mn88  1  0.83146591  0.66687855  0.00198133  1
  Mn3.30+  Mn89  1  0.83369196  0.66753772  0.49789125  1
  Mn3.30+  Mn90  1  0.00131128  0.16656693  0.24943523  1
  Mn3.30+  Mn91  1  0.00055709  0.16594269  0.75027791  1
  Mn3.30+  Mn92  1  0.00046330  0.50098201  0.24949655  1
  Mn3.30+  Mn93  1  -0.00034580  0.49960151  0.75082777  1
  Mn3.30+  Mn94  1  0.00225451  0.83187573  0.25055732  1
  Mn3.30+  Mn95  1  -0.00232836  0.83625227  0.75127111  1
  Mn3.30+  Mn96  1  0.33368594  0.16709481  0.24924436  1
  Mn3.30+  Mn97  1  0.33365480  0.16610522  0.75026502  1
  Mn3.30+  Mn98  1  0.33253300  0.50033937  0.24820216  1
  Mn3.30+  Mn99  1  0.33483191  0.49700255  0.75037630  1
  Mn3.30+  Mn100  1  0.33440600  0.83077744  0.25086838  1
  Mn3.30+  Mn101  1  0.33270921  0.83285169  0.75003764  1
  Mn3.30+  Mn102  1  0.66475591  0.16679342  0.24879922  1
  Mn3.30+  Mn103  1  0.66580175  0.16992990  0.74918849  1
  Mn3.30+  Mn104  1  0.66526034  0.50242155  0.24537015  1
  Mn3.30+  Mn105  1  0.66615681  0.49829325  0.75167750  1
  Mn3.30+  Mn106  1  0.66530787  0.83281403  0.25008599  1
  Mn3.30+  Mn107  1  0.66929778  0.83386575  0.74992004  1
  Mn3.30+  Mn108  1  0.16659271  -0.00213848  0.25161360  1
  Mn3.30+  Mn109  1  0.16572968  0.00063140  0.74880412  1
  Mn3.30+  Mn110  1  0.16766005  0.33540327  0.24960378  1
  Mn3.30+  Mn111  1  0.16578731  0.33068797  0.75073771  1
  Mn3.30+  Mn112  1  0.16901910  0.66617155  0.24953491  1
  Mn3.30+  Mn113  1  0.16633814  0.66599532  0.75112177  1
  Mn3.30+  Mn114  1  0.50135743  -0.00122414  0.25086248  1
  Mn3.30+  Mn115  1  0.50119479  0.00195922  0.74893423  1
  Mn3.30+  Mn116  1  0.49862900  0.33439796  0.24602961  1
  Mn3.30+  Mn117  1  0.50361192  0.33284635  0.75134882  1
  Mn3.30+  Mn118  1  0.49928955  0.66729454  0.24771381  1
  Mn3.30+  Mn119  1  0.50130609  0.66580204  0.75022162  1
  Mn3.30+  Mn120  1  0.83141504  -0.00109244  0.24841304  1
  Mn3.30+  Mn121  1  0.83405854  0.00029847  0.75012274  1
  Mn3.30+  Mn122  1  0.83252408  0.33496870  0.24801865  1
  Mn3.30+  Mn123  1  0.83025184  0.33310618  0.75092386  1
  Mn3.30+  Mn124  1  0.83310607  0.66664801  0.24846549  1
  Mn3.30+  Mn125  1  0.83173696  0.66771587  0.75125077  1
  Mn3.30+  Mn126  1  0.00232057  0.16719993  0.00069828  1
  Mn3.30+  Mn127  1  0.00011212  0.16490860  0.49938274  1
  Mn3.30+  Mn128  1  -0.00098584  0.50000132  0.00052742  1
  Mn3.30+  Mn129  1  0.00105802  0.50073140  0.49873386  1
  Mn3.30+  Mn130  1  -0.00198367  0.83446831  -0.00169239  1
  Mn3.30+  Mn131  1  0.00238512  0.83352974  0.50039706  1
  Mn3.30+  Mn132  1  0.33224990  0.16776455  -0.00087673  1
  Mn3.30+  Mn133  1  0.33517584  0.16531815  0.50261532  1
  Mn3.30+  Mn134  1  0.33563186  0.49871990  0.00386372  1
  Mn3.30+  Mn135  1  0.33212564  0.49839892  0.49783905  1
  Mn3.30+  Mn136  1  0.33455537  0.83199042  0.00151175  1
  Mn3.30+  Mn137  1  0.33236369  0.83167873  0.49839818  1
  Mn3.30+  Mn138  1  0.66554557  0.16696979  -0.00042442  1
  Mn3.30+  Mn139  1  0.66497209  0.16952045  0.50140397  1
  Mn3.30+  Mn140  1  0.66490265  0.50179461  0.00314961  1
  Mn3.30+  Mn141  1  0.66662359  0.49966554  0.49902693  1
  Mn3.30+  Mn142  1  0.66757176  0.83292634  0.00160721  1
  Mn3.30+  Mn143  1  0.66690732  0.83402178  0.49811063  1
  O2-  O144  1  0.02794733  0.16056110  0.12651855  1
  O2-  O145  1  0.02164678  0.16254868  0.62364603  1
  O2-  O146  1  0.02619380  0.49834087  0.12542589  1
  O2-  O147  1  0.02390828  0.49611031  0.62338734  1
  O2-  O148  1  0.02654914  0.82747854  0.12295363  1
  O2-  O149  1  0.01892800  0.82560777  0.62666555  1
  O2-  O150  1  0.35206309  0.15797155  0.12450675  1
  O2-  O151  1  0.36161167  0.16791621  0.62525942  1
  O2-  O152  1  0.36047741  0.49075366  0.12598287  1
  O2-  O153  1  0.36050551  0.49177867  0.62470646  1
  O2-  O154  1  0.35978635  0.83037435  0.12478190  1
  O2-  O155  1  0.35848326  0.82631331  0.62457454  1
  O2-  O156  1  0.68936510  0.16098714  0.12473851  1
  O2-  O157  1  0.69462416  0.16136136  0.62494729  1
  O2-  O158  1  0.69610052  0.49248187  0.12477857  1
  O2-  O159  1  0.69056076  0.49373813  0.62651932  1
  O2-  O160  1  0.68969434  0.82474972  0.12498162  1
  O2-  O161  1  0.69448387  0.82795768  0.62372937  1
  O2-  O162  1  0.13998119  0.32787975  0.12586193  1
  O2-  O163  1  0.14092843  0.32329177  0.62391574  1
  O2-  O164  1  0.14168177  0.66159252  0.12319593  1
  O2-  O165  1  0.14290307  0.65697501  0.62526986  1
  O2-  O166  1  0.14345651  0.99225841  0.12535154  1
  O2-  O167  1  0.14207143  1.00146797  0.62439879  1
  O2-  O168  1  0.47365110  0.32722121  0.12531729  1
  O2-  O169  1  0.47711288  0.33249274  0.62645986  1
  O2-  O170  1  0.47175418  0.66451462  0.12575975  1
  O2-  O171  1  0.47509839  0.65987193  0.62276378  1
  O2-  O172  1  0.47513654  0.99418073  0.12497209  1
  O2-  O173  1  0.48166768  0.99214011  0.62497840  1
  O2-  O174  1  0.80549403  0.32419607  0.12515439  1
  O2-  O175  1  0.80633310  0.32961290  0.62613521  1
  O2-  O176  1  0.80811090  0.66195658  0.12502304  1
  O2-  O177  1  0.80816397  0.65999433  0.62388154  1
  O2-  O178  1  0.80455911  0.99359466  0.12445437  1
  O2-  O179  1  0.80556774  0.99570864  0.62372326  1
  O2-  O180  1  0.30950930  0.17259080  0.37487782  1
  O2-  O181  1  0.30530673  0.17339211  0.87612709  1
  O2-  O182  1  0.30478388  0.50741395  0.37295154  1
  O2-  O183  1  0.31577588  0.50397861  0.87664738  1
  O2-  O184  1  0.30569178  0.83511039  0.37430343  1
  O2-  O185  1  0.31031511  0.83806701  0.87683994  1
  O2-  O186  1  0.64104128  0.17446988  0.37620584  1
  O2-  O187  1  0.64315395  0.17282134  0.87359050  1
  O2-  O188  1  0.64155158  0.50709856  0.37056368  1
  O2-  O189  1  0.63947725  0.51061580  0.87789887  1
  O2-  O190  1  0.63881207  0.83971949  0.37491113  1
  O2-  O191  1  0.64131350  0.83783664  0.87627147  1
  O2-  O192  1  0.97500259  0.17382309  0.37323482  1
  O2-  O193  1  0.97547430  0.16412437  0.87709723  1
  O2-  O194  1  0.97405462  0.50561955  0.37487564  1
  O2-  O195  1  0.97358167  0.50471722  0.87585245  1
  O2-  O196  1  0.98340369  0.82618137  0.37445561  1
  O2-  O197  1  0.96940664  0.84417897  0.87584429  1
  O2-  O198  1  0.19276219  0.00544106  0.37496799  1
  O2-  O199  1  0.18946772  0.00683536  0.87617865  1
  O2-  O200  1  0.19079891  0.34078718  0.37500953  1
  O2-  O201  1  0.18983849  0.33659970  0.87504371  1
  O2-  O202  1  0.19009850  0.67492486  0.37474975  1
  O2-  O203  1  0.19257068  0.67249636  0.87658592  1
  O2-  O204  1  0.52649635  0.00719391  0.37755097  1
  O2-  O205  1  0.52741845  0.00506184  0.87251341  1
  O2-  O206  1  0.52451635  0.33985409  0.37181895  1
  O2-  O207  1  0.52791066  0.33941799  0.87584431  1
  O2-  O208  1  0.52462633  0.67005732  0.37425171  1
  O2-  O209  1  0.52587432  0.67162238  0.87749840  1
  O2-  O210  1  0.85132394  0.00543440  0.37329107  1
  O2-  O211  1  0.85870304  0.00893566  0.87794416  1
  O2-  O212  1  0.85970910  0.34073048  0.37191858  1
  O2-  O213  1  0.85424434  0.33634187  0.87651166  1
  O2-  O214  1  0.85958069  0.66650290  0.37369739  1
  O2-  O215  1  0.85582882  0.67237308  0.87698119  1
  O2-  O216  1  0.23875319  0.09241469  0.02152503  1
  O2-  O217  1  0.23903572  0.09595514  0.51659844  1
  O2-  O218  1  0.23962989  0.42747571  0.01986884  1
  O2-  O219  1  0.23910076  0.42396123  0.52396037  1
  O2-  O220  1  0.23727095  0.76233879  0.01827440  1
  O2-  O221  1  0.24291733  0.75425087  0.52111982  1
  O2-  O222  1  0.57319695  0.09455162  0.01286657  1
  O2-  O223  1  0.57153294  0.10063350  0.52194434  1
  O2-  O224  1  0.56975980  0.43309983  0.02354033  1
  O2-  O225  1  0.56984860  0.43102056  0.51465289  1
  O2-  O226  1  0.56822594  0.76466270  0.01726536  1
  O2-  O227  1  0.57361709  0.76190894  0.52231702  1
  O2-  O228  1  0.90597931  0.09332088  0.02450560  1
  O2-  O229  1  0.90198235  0.09567262  0.51597188  1
  O2-  O230  1  0.90242684  0.42842232  0.02179883  1
  O2-  O231  1  0.90455594  0.42943284  0.52067349  1
  O2-  O232  1  0.90550207  0.75985254  0.02217721  1
  O2-  O233  1  0.90616170  0.75939008  0.52178043  1
  O2-  O234  1  0.26102569  0.26426923  0.23032515  1
  O2-  O235  1  0.26170400  0.25935850  0.72890885  1
  O2-  O236  1  0.26318431  0.59524691  0.22568373  1
  O2-  O237  1  0.26376821  0.58811424  0.73056860  1
  O2-  O238  1  0.26458423  0.92717376  0.22997995  1
  O2-  O239  1  0.25853391  0.92680662  0.73895886  1
  O2-  O240  1  0.59830517  0.26493247  0.23305921  1
  O2-  O241  1  0.59684305  0.26479804  0.72913438  1
  O2-  O242  1  0.59538435  0.59787254  0.22959402  1
  O2-  O243  1  0.59611774  0.59512179  0.72880717  1
  O2-  O244  1  0.59492509  0.92932770  0.22806694  1
  O2-  O245  1  0.59897997  0.92711703  0.73044202  1
  O2-  O246  1  0.92772087  0.26142360  0.22819005  1
  O2-  O247  1  0.92796312  0.25946069  0.72904357  1
  O2-  O248  1  0.93046320  0.59515454  0.23123957  1
  O2-  O249  1  0.92475279  0.59517831  0.73091795  1
  O2-  O250  1  0.92605080  0.92401787  0.22880805  1
  O2-  O251  1  0.92909497  0.93167764  0.72641105  1
  O2-  O252  1  0.09757445  0.24034885  0.27120850  1
  O2-  O253  1  0.09698393  0.23437751  0.76638000  1
  O2-  O254  1  0.09815421  0.57204342  0.27114594  1
  O2-  O255  1  0.08983994  0.57622466  0.76855860  1
  O2-  O256  1  0.09811209  0.90039755  0.26589592  1
  O2-  O257  1  0.09174741  0.90785914  0.77396616  1
  O2-  O258  1  0.42697556  0.23963679  0.27264513  1
  O2-  O259  1  0.42752197  0.24193325  0.77279776  1
  O2-  O260  1  0.42642972  0.57380477  0.27198200  1
  O2-  O261  1  0.42998607  0.57148213  0.76972320  1
  O2-  O262  1  0.42876575  0.90311194  0.27259191  1
  O2-  O263  1  0.42711755  0.90502367  0.76942071  1
  O2-  O264  1  0.76216777  0.23950778  0.27076177  1
  O2-  O265  1  0.76349497  0.23554270  0.76790894  1
  O2-  O266  1  0.76005082  0.57387782  0.27090783  1
  O2-  O267  1  0.76035038  0.57017164  0.77086522  1
  O2-  O268  1  0.75770844  0.90693175  0.26716971  1
  O2-  O269  1  0.76509747  0.90443537  0.77214407  1
  O2-  O270  1  0.07649950  0.07462364  0.48065468  1
  O2-  O271  1  0.06871096  0.06856004  0.98571116  1
  O2-  O272  1  0.06740998  0.40405443  0.48324395  1
  O2-  O273  1  0.07163974  0.40439043  0.98820481  1
  O2-  O274  1  0.07086407  0.73377001  0.48731297  1
  O2-  O275  1  0.06956772  0.74275844  0.97625485  1
  O2-  O276  1  0.40601188  0.07269524  0.47677923  1
  O2-  O277  1  0.40479899  0.07310603  0.97849082  1
  O2-  O278  1  0.40406169  0.40572068  0.47799067  1
  O2-  O279  1  0.40720785  0.40455472  0.97772019  1
  O2-  O280  1  0.40397276  0.73591065  0.48149357  1
  O2-  O281  1  0.40726646  0.73847360  0.97776188  1
  O2-  O282  1  0.73477866  0.07410092  0.47944292  1
  O2-  O283  1  0.74064892  0.07350743  0.97830852  1
  O2-  O284  1  0.74045339  0.40804824  0.47556465  1
  O2-  O285  1  0.73304405  0.40556476  0.97907311  1
  O2-  O286  1  0.73480410  0.73766438  0.48069174  1
  O2-  O287  1  0.73784296  0.73911134  0.98138625  1
  O2-  O288  1  0.09451805  0.23969337  0.47788652  1
  O2-  O289  1  0.09961793  0.23356636  0.98387546  1
  O2-  O290  1  0.09663441  0.56948278  0.47799904  1
  O2-  O291  1  0.09126770  0.57667208  0.98173728  1
  O2-  O292  1  0.09665317  0.90200071  0.48138295  1
  O2-  O293  1  0.09512601  0.90631860  0.97859713  1
  O2-  O294  1  0.42796277  0.24132750  0.47915728  1
  O2-  O295  1  0.42637103  0.23951938  0.97562699  1
  O2-  O296  1  0.42646922  0.57096001  0.47815344  1
  O2-  O297  1  0.42979576  0.57287625  0.98035543  1
  O2-  O298  1  0.42818942  0.90174369  0.47925716  1
  O2-  O299  1  0.42930673  0.90675003  0.97885543  1
  O2-  O300  1  0.76228304  0.23882487  0.47762769  1
  O2-  O301  1  0.76191789  0.23576196  0.98382150  1
  O2-  O302  1  0.76136297  0.57210212  0.47949823  1
  O2-  O303  1  0.76033131  0.57224112  0.97807812  1
  O2-  O304  1  0.75894820  0.90744573  0.48099929  1
  O2-  O305  1  0.76352699  0.90379954  0.97851816  1
  O2-  O306  1  0.07410735  0.07225926  0.26856965  1
  O2-  O307  1  0.07078121  0.07193847  0.76686110  1
  O2-  O308  1  0.06834825  0.40362910  0.26657219  1
  O2-  O309  1  0.07362798  0.40493002  0.76012154  1
  O2-  O310  1  0.07194673  0.73433094  0.26306119  1
  O2-  O311  1  0.06902440  0.74335565  0.77304684  1
  O2-  O312  1  0.40637062  0.06940797  0.27046447  1
  O2-  O313  1  0.40510383  0.07557953  0.77489236  1
  O2-  O314  1  0.40426060  0.40786476  0.27387643  1
  O2-  O315  1  0.40615867  0.40408178  0.77111541  1
  O2-  O316  1  0.40456572  0.73805369  0.27107469  1
  O2-  O317  1  0.40690058  0.73682419  0.77075101  1
  O2-  O318  1  0.73915199  0.07604998  0.27078103  1
  O2-  O319  1  0.73752202  0.07086583  0.77034676  1
  O2-  O320  1  0.73712729  0.40599635  0.27028265  1
  O2-  O321  1  0.73584311  0.40722276  0.77515753  1
  O2-  O322  1  0.73833566  0.73942252  0.26860935  1
  O2-  O323  1  0.73543792  0.73611158  0.76703476  1
  O2-  O324  1  0.23862490  0.09419491  0.23173444  1
  O2-  O325  1  0.23875453  0.09430100  0.73196010  1
  O2-  O326  1  0.23650934  0.42935679  0.22958256  1
  O2-  O327  1  0.24160143  0.42226543  0.72693343  1
  O2-  O328  1  0.23972044  0.76011418  0.22775205  1
  O2-  O329  1  0.24183274  0.75634258  0.73272089  1
  O2-  O330  1  0.57245846  0.09532227  0.23728785  1
  O2-  O331  1  0.57305462  0.09975329  0.72826777  1
  O2-  O332  1  0.57035612  0.43075716  0.22719835  1
  O2-  O333  1  0.56878740  0.43232317  0.73334552  1
  O2-  O334  1  0.57057775  0.76211020  0.23190756  1
  O2-  O335  1  0.57132210  0.76176096  0.72909728  1
  O2-  O336  1  0.90492822  0.09236348  0.22866201  1
  O2-  O337  1  0.90239085  0.09681564  0.73235730  1
  O2-  O338  1  0.90224242  0.42874220  0.22668427  1
  O2-  O339  1  0.90358407  0.42765511  0.72999986  1
  O2-  O340  1  0.90755937  0.75893397  0.22607421  1
  O2-  O341  1  0.90494405  0.76163559  0.73067998  1
  O2-  O342  1  0.26311745  0.26336263  0.02267943  1
  O2-  O343  1  0.26223232  0.25828793  0.51924785  1
  O2-  O344  1  0.26483084  0.59308822  0.02052032  1
  O2-  O345  1  0.26155034  0.59094845  0.52253872  1
  O2-  O346  1  0.26130158  0.92820119  0.01900100  1
  O2-  O347  1  0.26328505  0.92761242  0.51423912  1
  O2-  O348  1  0.59448806  0.26377107  0.01805356  1
  O2-  O349  1  0.59948224  0.26670973  0.51844039  1
  O2-  O350  1  0.59812931  0.59986680  0.02269386  1
  O2-  O351  1  0.59486145  0.59477543  0.51916432  1
  O2-  O352  1  0.59815757  0.92791233  0.02094172  1
  O2-  O353  1  0.59658761  0.92882702  0.52065270  1
  O2-  O354  1  0.92849755  0.25785571  0.02297496  1
  O2-  O355  1  0.92656145  0.26270039  0.51943587  1
  O2-  O356  1  0.92690771  0.59641083  0.01727667  1
  O2-  O357  1  0.92994588  0.59376367  0.52087059  1
  O2-  O358  1  0.92824593  0.92742933  0.02484599  1
  O2-  O359  1  0.92752526  0.92624909  0.52019459  1
