# generated using pymatgen
data_Sr7Ca15Pr50Mn72O216
_symmetry_space_group_name_H-M   'P 1'
_cell_length_a   16.55916826
_cell_length_b   16.60496219
_cell_length_c   15.59336866
_cell_angle_alpha   90.00213896
_cell_angle_beta   90.00047236
_cell_angle_gamma   90.00013899
_symmetry_Int_Tables_number   1
_chemical_formula_structural   Sr7Ca15Pr50Mn72O216
_chemical_formula_sum   'Sr7 Ca15 Pr50 Mn72 O216'
_cell_volume   4287.62067727
_cell_formula_units_Z   1
loop_
 _symmetry_equiv_pos_site_id
 _symmetry_equiv_pos_as_xyz
  1  'x, y, z'
loop_
 _atom_type_symbol
 _atom_type_oxidation_number
  Sr2+  2.0
  Ca2+  2.0
  Pr3+  3.0
  Mn3.30+  3.3
  O2-  -2.0
loop_
 _atom_site_type_symbol
 _atom_site_label
 _atom_site_symmetry_multiplicity
 _atom_site_fract_x
 _atom_site_fract_y
 _atom_site_fract_z
 _atom_site_occupancy
  Sr2+  Sr0  1  0.16788492  0.15809263  0.87459730  1
  Sr2+  Sr1  1  0.50192340  0.16126678  0.37368219  1
  Sr2+  Sr2  1  0.66203070  0.33956299  0.12711945  1
  Sr2+  Sr3  1  0.66445779  0.67617920  0.12629220  1
  Sr2+  Sr4  1  0.16837800  0.50881527  0.62400550  1
  Sr2+  Sr5  1  0.50283159  0.17733204  0.12639101  1
  Sr2+  Sr6  1  0.16836924  0.17592314  0.12191620  1
  Ca2+  Ca7  1  0.67058982  0.31424438  0.87620471  1
  Ca2+  Ca8  1  0.33551615  0.98825920  0.87635335  1
  Ca2+  Ca9  1  0.67052485  0.98729667  0.87507659  1
  Ca2+  Ca10  1  0.50057114  0.48486179  0.37344779  1
  Ca2+  Ca11  1  0.66918536  0.65120166  0.37211189  1
  Ca2+  Ca12  1  0.83738638  0.18146126  0.62795411  1
  Ca2+  Ca13  1  0.17125935  0.18383780  0.62812017  1
  Ca2+  Ca14  1  0.33591787  0.31910523  0.87336947  1
  Ca2+  Ca15  1  0.66629553  0.31860169  0.37462441  1
  Ca2+  Ca16  1  -0.00441168  0.68291710  0.12655436  1
  Ca2+  Ca17  1  0.83811399  0.84916066  0.62553066  1
  Ca2+  Ca18  1  1.00350384  0.98690660  0.37402883  1
  Ca2+  Ca19  1  0.16920772  0.84953931  0.12491181  1
  Ca2+  Ca20  1  0.82760441  0.15000008  0.87333648  1
  Ca2+  Ca21  1  0.32945497  0.34678004  0.62730507  1
  Pr3+  Pr22  1  0.16881895  0.51145537  0.12481826  1
  Pr3+  Pr23  1  0.66788754  0.99150329  0.37574369  1
  Pr3+  Pr24  1  -0.00523170  0.01545104  0.62563076  1
  Pr3+  Pr25  1  0.66787887  0.01332174  0.62690213  1
  Pr3+  Pr26  1  -0.00167736  0.34469277  0.62670161  1
  Pr3+  Pr27  1  0.33659866  0.32196169  0.37754410  1
  Pr3+  Pr28  1  -0.00456613  0.68248405  0.62353288  1
  Pr3+  Pr29  1  0.82661661  0.48457364  0.37484269  1
  Pr3+  Pr30  1  0.66906020  0.65354600  0.87664131  1
  Pr3+  Pr31  1  0.16529992  0.48666134  0.87324286  1
  Pr3+  Pr32  1  0.50487836  0.84602645  0.12495141  1
  Pr3+  Pr33  1  1.00161163  0.99017013  0.87586143  1
  Pr3+  Pr34  1  0.50209409  0.84706231  0.62446066  1
  Pr3+  Pr35  1  0.32734648  0.01592367  0.62670093  1
  Pr3+  Pr36  1  0.82792414  0.48411871  0.87502486  1
  Pr3+  Pr37  1  1.00298630  0.32040358  0.37607676  1
  Pr3+  Pr38  1  0.66330831  0.01279144  0.12369766  1
  Pr3+  Pr39  1  0.50577074  0.50874060  0.12714320  1
  Pr3+  Pr40  1  0.32998597  0.68181156  0.12488756  1
  Pr3+  Pr41  1  0.83697971  0.51153556  0.62465638  1
  Pr3+  Pr42  1  0.49736017  0.48324227  0.87590826  1
  Pr3+  Pr43  1  -0.00337429  0.34313050  0.12283125  1
  Pr3+  Pr44  1  0.32923755  0.67779365  0.62478947  1
  Pr3+  Pr45  1  0.83440181  0.17876358  0.12252435  1
  Pr3+  Pr46  1  0.49836332  0.82241898  0.87437223  1
  Pr3+  Pr47  1  0.49644630  0.15383861  0.87552210  1
  Pr3+  Pr48  1  0.33043422  0.01432019  0.12307934  1
  Pr3+  Pr49  1  0.82989855  0.81966370  0.37575741  1
  Pr3+  Pr50  1  0.83532536  0.84594094  0.12512517  1
  Pr3+  Pr51  1  0.33446787  0.34179881  0.12316589  1
  Pr3+  Pr52  1  0.16552871  0.82572513  0.87663310  1
  Pr3+  Pr53  1  0.66489253  0.67945929  0.62353967  1
  Pr3+  Pr54  1  0.16129269  0.15285055  0.37526197  1
  Pr3+  Pr55  1  0.49872064  0.82090139  0.37489691  1
  Pr3+  Pr56  1  0.33768605  0.65077862  0.37535752  1
  Pr3+  Pr57  1  0.16186157  0.82281862  0.37310155  1
  Pr3+  Pr58  1  0.33665382  0.99033278  0.37442261  1
  Pr3+  Pr59  1  0.16432070  0.48505748  0.37595871  1
  Pr3+  Pr60  1  0.66533404  0.34376737  0.62425232  1
  Pr3+  Pr61  1  0.33575908  0.65464326  0.87462623  1
  Pr3+  Pr62  1  1.00315706  0.65589890  0.87677887  1
  Pr3+  Pr63  1  0.82987409  0.15496749  0.37738343  1
  Pr3+  Pr64  1  1.00237283  0.65325741  0.37277353  1
  Pr3+  Pr65  1  0.83006906  0.82295354  0.87444698  1
  Pr3+  Pr66  1  1.00293602  0.31919155  0.87362010  1
  Pr3+  Pr67  1  0.83472667  0.51348713  0.12495334  1
  Pr3+  Pr68  1  0.50062852  0.50982713  0.62360957  1
  Pr3+  Pr69  1  0.00023717  0.01345023  0.12451557  1
  Pr3+  Pr70  1  0.50120057  0.18089434  0.62404228  1
  Pr3+  Pr71  1  0.16761124  0.84641194  0.62452617  1
  Mn3.30+  Mn72  1  0.16859924  0.00037940  -0.00180645  1
  Mn3.30+  Mn73  1  0.16417072  0.00222387  0.50101705  1
  Mn3.30+  Mn74  1  0.16770540  0.33264405  -0.00118609  1
  Mn3.30+  Mn75  1  0.16882616  0.33170059  0.50239522  1
  Mn3.30+  Mn76  1  0.16552637  0.66904433  0.00282055  1
  Mn3.30+  Mn77  1  0.16631277  0.66665747  0.49886992  1
  Mn3.30+  Mn78  1  0.50078982  -0.00018835  -0.00315762  1
  Mn3.30+  Mn79  1  0.49923689  0.00226767  0.50115985  1
  Mn3.30+  Mn80  1  0.50192701  0.33050304  -0.00238908  1
  Mn3.30+  Mn81  1  0.49913319  0.33463487  0.50035732  1
  Mn3.30+  Mn82  1  0.50041713  0.66582412  0.00072461  1
  Mn3.30+  Mn83  1  0.50151479  0.66436236  0.49782342  1
  Mn3.30+  Mn84  1  0.83133263  0.00112699  -0.00110173  1
  Mn3.30+  Mn85  1  0.83614621  -0.00025765  0.50028633  1
  Mn3.30+  Mn86  1  0.83016808  0.33117485  -0.00172097  1
  Mn3.30+  Mn87  1  0.83222800  0.33158166  0.50076412  1
  Mn3.30+  Mn88  1  0.83504752  0.66731495  0.00179200  1
  Mn3.30+  Mn89  1  0.83113969  0.66715161  0.49897585  1
  Mn3.30+  Mn90  1  -0.00101272  0.16600660  0.25011760  1
  Mn3.30+  Mn91  1  -0.00081107  0.16683122  0.74984794  1
  Mn3.30+  Mn92  1  -0.00057830  0.50005870  0.24880144  1
  Mn3.30+  Mn93  1  -0.00069448  0.50102961  0.75053146  1
  Mn3.30+  Mn94  1  0.00042366  0.83469569  0.24862168  1
  Mn3.30+  Mn95  1  -0.00161350  0.83505974  0.75022752  1
  Mn3.30+  Mn96  1  0.33222422  0.16780114  0.24979199  1
  Mn3.30+  Mn97  1  0.33279803  0.16840676  0.75090978  1
  Mn3.30+  Mn98  1  0.33541135  0.49947850  0.24947402  1
  Mn3.30+  Mn99  1  0.33303875  0.49712468  0.75049893  1
  Mn3.30+  Mn100  1  0.33208189  0.83376492  0.24946655  1
  Mn3.30+  Mn101  1  0.33326958  0.83509298  0.75042020  1
  Mn3.30+  Mn102  1  0.66668893  0.16711505  0.25163970  1
  Mn3.30+  Mn103  1  0.66904984  0.16633068  0.75040104  1
  Mn3.30+  Mn104  1  0.66560748  0.49794386  0.25243328  1
  Mn3.30+  Mn105  1  0.66665229  0.49752626  0.74993307  1
  Mn3.30+  Mn106  1  0.66699436  0.83173141  0.25162185  1
  Mn3.30+  Mn107  1  0.66856960  0.83508932  0.74832183  1
  Mn3.30+  Mn108  1  0.16657315  -0.00047981  0.24964621  1
  Mn3.30+  Mn109  1  0.16644341  0.00264988  0.75094431  1
  Mn3.30+  Mn110  1  0.16704558  0.33234712  0.24811492  1
  Mn3.30+  Mn111  1  0.16958575  0.33214886  0.75025694  1
  Mn3.30+  Mn112  1  0.16588572  0.66827026  0.24749466  1
  Mn3.30+  Mn113  1  0.16620334  0.66740188  0.75007216  1
  Mn3.30+  Mn114  1  0.49988877  0.00085883  0.25091317  1
  Mn3.30+  Mn115  1  0.49987330  0.00079486  0.75074961  1
  Mn3.30+  Mn116  1  0.50088152  0.33339580  0.25276620  1
  Mn3.30+  Mn117  1  0.49977390  0.33221550  0.75008928  1
  Mn3.30+  Mn118  1  0.50143536  0.66458977  0.25203857  1
  Mn3.30+  Mn119  1  0.50041107  0.66590171  0.74865084  1
  Mn3.30+  Mn120  1  0.83544854  0.00005333  0.25181505  1
  Mn3.30+  Mn121  1  0.83206459  0.00129397  0.75000105  1
  Mn3.30+  Mn122  1  0.83110605  0.33266977  0.24959652  1
  Mn3.30+  Mn123  1  0.83127399  0.32964118  0.75163944  1
  Mn3.30+  Mn124  1  0.83332146  0.66661001  0.24951126  1
  Mn3.30+  Mn125  1  0.83328826  0.66779968  0.74997650  1
  Mn3.30+  Mn126  1  -0.00134211  0.16655754  -0.00247344  1
  Mn3.30+  Mn127  1  -0.00002532  0.16638989  0.50274972  1
  Mn3.30+  Mn128  1  -0.00033961  0.50130368  0.00026282  1
  Mn3.30+  Mn129  1  -0.00077524  0.50001321  0.49982193  1
  Mn3.30+  Mn130  1  0.00079638  0.83393311  0.00316285  1
  Mn3.30+  Mn131  1  -0.00221129  0.83601929  0.49802618  1
  Mn3.30+  Mn132  1  0.33409130  0.16721293  -0.00255137  1
  Mn3.30+  Mn133  1  0.33068529  0.16875795  0.50184870  1
  Mn3.30+  Mn134  1  0.33451432  0.49854027  -0.00022875  1
  Mn3.30+  Mn135  1  0.33477688  0.49832805  0.50004132  1
  Mn3.30+  Mn136  1  0.33302815  0.83506780  0.00033559  1
  Mn3.30+  Mn137  1  0.33238156  0.83366312  0.49930806  1
  Mn3.30+  Mn138  1  0.66654382  0.16555645  -0.00348265  1
  Mn3.30+  Mn139  1  0.66909976  0.16768145  0.50248406  1
  Mn3.30+  Mn140  1  0.66609014  0.49650634  0.00031476  1
  Mn3.30+  Mn141  1  0.66589772  0.49908899  0.49788929  1
  Mn3.30+  Mn142  1  0.66687223  0.83361596  -0.00053265  1
  Mn3.30+  Mn143  1  0.66879362  0.83318544  0.50099388  1
  O2-  O144  1  0.01809981  0.16294676  0.12420036  1
  O2-  O145  1  0.02850630  0.16181692  0.62564328  1
  O2-  O146  1  0.02559255  0.48957452  0.12375466  1
  O2-  O147  1  0.01710250  0.49495081  0.62512777  1
  O2-  O148  1  0.02717330  0.82803440  0.12572756  1
  O2-  O149  1  0.02414989  0.82874210  0.62327756  1
  O2-  O150  1  0.35280574  0.16288192  0.12206382  1
  O2-  O151  1  0.35807629  0.16006180  0.62708359  1
  O2-  O152  1  0.36090424  0.49239869  0.12507919  1
  O2-  O153  1  0.35706580  0.49589618  0.62724318  1
  O2-  O154  1  0.36171799  0.82847020  0.12684414  1
  O2-  O155  1  0.35774795  0.82628499  0.62585804  1
  O2-  O156  1  0.69015504  0.16041325  0.12328817  1
  O2-  O157  1  0.69610413  0.16156373  0.62689915  1
  O2-  O158  1  0.68993098  0.49389093  0.12470121  1
  O2-  O159  1  0.69379097  0.49252299  0.62503740  1
  O2-  O160  1  0.69070942  0.83156917  0.12746406  1
  O2-  O161  1  0.69651143  0.82583203  0.62348088  1
  O2-  O162  1  0.14121937  0.33403676  0.12364722  1
  O2-  O163  1  0.14174802  0.32986521  0.62628599  1
  O2-  O164  1  0.13733474  0.65701522  0.12499369  1
  O2-  O165  1  0.14055195  0.66640544  0.62353036  1
  O2-  O166  1  0.14467340  0.99597527  0.12360600  1
  O2-  O167  1  0.13899912  0.99265566  0.62543364  1
  O2-  O168  1  0.47902511  0.33491299  0.12557041  1
  O2-  O169  1  0.47279615  0.33035368  0.62579854  1
  O2-  O170  1  0.47408378  0.65910901  0.12763742  1
  O2-  O171  1  0.47283517  0.65938077  0.62324970  1
  O2-  O172  1  0.47573948  0.99335879  0.12378723  1
  O2-  O173  1  0.47221695  0.99549862  0.62500675  1
  O2-  O174  1  0.81211842  0.32758416  0.12363121  1
  O2-  O175  1  0.80914479  0.32954888  0.62809377  1
  O2-  O176  1  0.81264949  0.66284967  0.12524357  1
  O2-  O177  1  0.80811012  0.65866027  0.62354962  1
  O2-  O178  1  0.80731309  0.99487022  0.12551714  1
  O2-  O179  1  0.81054290  0.99106986  0.62507371  1
  O2-  O180  1  0.30526565  0.17318167  0.37767465  1
  O2-  O181  1  0.31618632  0.17522601  0.87309230  1
  O2-  O182  1  0.30687042  0.50422550  0.37176182  1
  O2-  O183  1  0.30817337  0.50872911  0.87550771  1
  O2-  O184  1  0.30615455  0.84049680  0.37302602  1
  O2-  O185  1  0.30968836  0.83746625  0.87333742  1
  O2-  O186  1  0.65244889  0.16614268  0.37916273  1
  O2-  O187  1  0.64027302  0.17120653  0.87175889  1
  O2-  O188  1  0.64194558  0.50912897  0.37739835  1
  O2-  O189  1  0.64175904  0.50788744  0.87345824  1
  O2-  O190  1  0.64148640  0.84359423  0.37691164  1
  O2-  O191  1  0.64226208  0.83874821  0.87204980  1
  O2-  O192  1  0.97352807  0.17425233  0.37594118  1
  O2-  O193  1  0.97151205  0.17026121  0.87391955  1
  O2-  O194  1  0.97311421  0.50366048  0.37420266  1
  O2-  O195  1  0.97259362  0.50800102  0.87632478  1
  O2-  O196  1  0.97375328  0.84210953  0.37331268  1
  O2-  O197  1  0.97415089  0.83990544  0.87764850  1
  O2-  O198  1  0.19231052  0.00526208  0.37715039  1
  O2-  O199  1  0.19134197  -0.00258111  0.87334723  1
  O2-  O200  1  0.19054328  0.33652310  0.37419954  1
  O2-  O201  1  0.19174048  0.33983134  0.87497295  1
  O2-  O202  1  0.19274581  0.67469647  0.37238195  1
  O2-  O203  1  0.19215290  0.67593388  0.87822344  1
  O2-  O204  1  0.52271614  0.00162109  0.37876287  1
  O2-  O205  1  0.52863941  0.00419991  0.87202333  1
  O2-  O206  1  0.52402791  0.33894372  0.37825445  1
  O2-  O207  1  0.52875420  0.33691648  0.87138958  1
  O2-  O208  1  0.52753609  0.67561037  0.37598414  1
  O2-  O209  1  0.52508570  0.67347893  0.87307587  1
  O2-  O210  1  0.86260525  0.00834803  0.37513713  1
  O2-  O211  1  0.85823163  0.00373405  0.87499607  1
  O2-  O212  1  0.85952998  0.33662314  0.37388870  1
  O2-  O213  1  0.85982002  0.33964709  0.87471244  1
  O2-  O214  1  0.85899260  0.67047078  0.37427629  1
  O2-  O215  1  0.85897146  0.67301287  0.87722789  1
  O2-  O216  1  0.24325738  0.09031000  0.01590928  1
  O2-  O217  1  0.23353161  0.09795327  0.52228788  1
  O2-  O218  1  0.23986062  0.42991342  0.02037554  1
  O2-  O219  1  0.23946093  0.42786515  0.51224250  1
  O2-  O220  1  0.23671757  0.76192152  0.02369268  1
  O2-  O221  1  0.23851931  0.76236379  0.51936053  1
  O2-  O222  1  0.57327145  0.09146272  0.01726488  1
  O2-  O223  1  0.57779819  0.09358657  0.52421135  1
  O2-  O224  1  0.56872481  0.42978177  0.01467404  1
  O2-  O225  1  0.57361355  0.42663642  0.52427546  1
  O2-  O226  1  0.56941762  0.76232966  0.01633338  1
  O2-  O227  1  0.57118974  0.76037865  0.52222888  1
  O2-  O228  1  0.90475264  0.09158642  0.02086726  1
  O2-  O229  1  0.90463992  0.09741815  0.52399813  1
  O2-  O230  1  0.90488456  0.42868706  0.01913894  1
  O2-  O231  1  0.90280859  0.42624330  0.51879849  1
  O2-  O232  1  0.90626475  0.76457624  0.01991027  1
  O2-  O233  1  0.90243847  0.76372935  0.51895704  1
  O2-  O234  1  0.26085780  0.26365207  0.23103327  1
  O2-  O235  1  0.26322788  0.26276866  0.73027745  1
  O2-  O236  1  0.26373573  0.59472775  0.22794639  1
  O2-  O237  1  0.26317577  0.59805344  0.73416632  1
  O2-  O238  1  0.26524095  0.92910737  0.23114292  1
  O2-  O239  1  0.25813796  0.92717511  0.72686955  1
  O2-  O240  1  0.59263767  0.25774857  0.24120748  1
  O2-  O241  1  0.59511771  0.25935136  0.72499593  1
  O2-  O242  1  0.59254734  0.59019127  0.23095578  1
  O2-  O243  1  0.59459590  0.59471244  0.72818311  1
  O2-  O244  1  0.59463468  0.92604101  0.23118072  1
  O2-  O245  1  0.59264491  0.92705584  0.72416596  1
  O2-  O246  1  0.92812542  0.26194136  0.23018561  1
  O2-  O247  1  0.93002324  0.26345638  0.73092373  1
  O2-  O248  1  0.93083513  0.59445385  0.22898126  1
  O2-  O249  1  0.92742102  0.59752159  0.73009281  1
  O2-  O250  1  0.92770386  0.92743052  0.22518121  1
  O2-  O251  1  0.93033141  0.93106101  0.73372320  1
  O2-  O252  1  0.09098347  0.23890321  0.27164920  1
  O2-  O253  1  0.09105636  0.24287064  0.76955436  1
  O2-  O254  1  0.09641554  0.57162001  0.27151430  1
  O2-  O255  1  0.09381459  0.57597877  0.77369165  1
  O2-  O256  1  0.09541178  0.90603112  0.26878754  1
  O2-  O257  1  0.09387706  0.90494829  0.76995429  1
  O2-  O258  1  0.42203977  0.24462847  0.26915146  1
  O2-  O259  1  0.43346967  0.23579356  0.76582436  1
  O2-  O260  1  0.42849738  0.57170072  0.27354041  1
  O2-  O261  1  0.42831597  0.57081326  0.77086465  1
  O2-  O262  1  0.42775122  0.90470185  0.27127487  1
  O2-  O263  1  0.43027781  0.90416637  0.76738528  1
  O2-  O264  1  0.76499500  0.23613302  0.26554233  1
  O2-  O265  1  0.76352992  0.23533829  0.77214205  1
  O2-  O266  1  0.76305575  0.56837684  0.26616153  1
  O2-  O267  1  0.76168617  0.57079491  0.77023534  1
  O2-  O268  1  0.76309405  0.90724366  0.27232275  1
  O2-  O269  1  0.76305116  0.90509135  0.76910135  1
  O2-  O270  1  0.06896582  0.07076855  0.47712478  1
  O2-  O271  1  0.07051871  0.07214531  0.98346306  1
  O2-  O272  1  0.07407067  0.40421262  0.48094184  1
  O2-  O273  1  0.07218754  0.40806631  0.97696547  1
  O2-  O274  1  0.06731403  0.74177540  0.47771008  1
  O2-  O275  1  0.07319611  0.74159350  0.97685631  1
  O2-  O276  1  0.39868457  0.07316539  0.48420461  1
  O2-  O277  1  0.40753537  0.07018721  0.97799757  1
  O2-  O278  1  0.40620373  0.40708456  0.48063098  1
  O2-  O279  1  0.40655894  0.40225167  0.97760787  1
  O2-  O280  1  0.40662337  0.73642716  0.47870703  1
  O2-  O281  1  0.40385832  0.73884205  0.98095952  1
  O2-  O282  1  0.74258794  0.06920295  0.48145940  1
  O2-  O283  1  0.73502064  0.06810605  0.98138679  1
  O2-  O284  1  0.73577835  0.40426574  0.47846096  1
  O2-  O285  1  0.73915502  0.40378977  0.97537796  1
  O2-  O286  1  0.73630502  0.73561047  0.47670859  1
  O2-  O287  1  0.73879285  0.74072184  0.97790789  1
  O2-  O288  1  0.09409728  0.23874796  0.47891126  1
  O2-  O289  1  0.08848649  0.24390701  0.98021590  1
  O2-  O290  1  0.09363799  0.57446935  0.47594045  1
  O2-  O291  1  0.09575125  0.57322100  0.97765543  1
  O2-  O292  1  0.09713374  0.90387213  0.48154148  1
  O2-  O293  1  0.09259670  0.90794046  0.97927340  1
  O2-  O294  1  0.42577490  0.24102269  0.48281160  1
  O2-  O295  1  0.42958924  0.23854332  0.98155416  1
  O2-  O296  1  0.43112689  0.57019623  0.47739232  1
  O2-  O297  1  0.42667962  0.57179179  0.97849140  1
  O2-  O298  1  0.42555581  0.90351571  0.48038445  1
  O2-  O299  1  0.43197911  0.90448234  0.98009451  1
  O2-  O300  1  0.76318589  0.23906578  0.48310835  1
  O2-  O301  1  0.76403154  0.23228005  0.98067853  1
  O2-  O302  1  0.76340595  0.56829903  0.48275967  1
  O2-  O303  1  0.76083216  0.57033921  0.98122484  1
  O2-  O304  1  0.76214255  0.90723814  0.47641887  1
  O2-  O305  1  0.76472112  0.90383989  0.98273652  1
  O2-  O306  1  0.06956211  0.07227706  0.26977862  1
  O2-  O307  1  0.06858837  0.07007318  0.76881807  1
  O2-  O308  1  0.07225358  0.40588848  0.27065704  1
  O2-  O309  1  0.07259655  0.40733911  0.77062718  1
  O2-  O310  1  0.07020497  0.74134777  0.27357585  1
  O2-  O311  1  0.07068353  0.74057615  0.77020573  1
  O2-  O312  1  0.40392913  0.07176449  0.26624638  1
  O2-  O313  1  0.40467122  0.07012637  0.77116234  1
  O2-  O314  1  0.40366339  0.40526637  0.26905297  1
  O2-  O315  1  0.40706246  0.40525453  0.77425184  1
  O2-  O316  1  0.40277486  0.73865358  0.27143462  1
  O2-  O317  1  0.40638695  0.73792154  0.76956032  1
  O2-  O318  1  0.74171536  0.07117215  0.26994117  1
  O2-  O319  1  0.73488422  0.06723216  0.76842127  1
  O2-  O320  1  0.73841338  0.40421261  0.27506055  1
  O2-  O321  1  0.73761181  0.40164449  0.77173166  1
  O2-  O322  1  0.73800492  0.74036672  0.27403298  1
  O2-  O323  1  0.73898099  0.73655168  0.77124554  1
  O2-  O324  1  0.23914367  0.09255855  0.23445430  1
  O2-  O325  1  0.23797311  0.09480514  0.72788481  1
  O2-  O326  1  0.23982308  0.42945257  0.22938234  1
  O2-  O327  1  0.23859584  0.42931426  0.73541496  1
  O2-  O328  1  0.23761832  0.76328704  0.22574093  1
  O2-  O329  1  0.23780975  0.76143860  0.73012595  1
  O2-  O330  1  0.57814362  0.08843003  0.23328665  1
  O2-  O331  1  0.57113138  0.09506143  0.72693780  1
  O2-  O332  1  0.57046847  0.42857548  0.23523200  1
  O2-  O333  1  0.57085256  0.42740665  0.72787943  1
  O2-  O334  1  0.56715697  0.76259774  0.23378502  1
  O2-  O335  1  0.57330002  0.76112699  0.72677426  1
  O2-  O336  1  0.90454641  0.09470988  0.22837043  1
  O2-  O337  1  0.90415250  0.09440744  0.72698984  1
  O2-  O338  1  0.90335281  0.42702688  0.22871904  1
  O2-  O339  1  0.90329493  0.42748736  0.73289874  1
  O2-  O340  1  0.90429723  0.76432231  0.23305228  1
  O2-  O341  1  0.90491828  0.76369231  0.72902848  1
  O2-  O342  1  0.26112689  0.26312161  0.01689764  1
  O2-  O343  1  0.26350928  0.26478564  0.52122963  1
  O2-  O344  1  0.26003078  0.59667535  0.02168281  1
  O2-  O345  1  0.26738816  0.59536868  0.51531134  1
  O2-  O346  1  0.26359138  0.92635765  0.01946024  1
  O2-  O347  1  0.25927283  0.93116322  0.52098391  1
  O2-  O348  1  0.59502180  0.25883881  0.01313187  1
  O2-  O349  1  0.59172605  0.26024017  0.52229497  1
  O2-  O350  1  0.59260202  0.59180481  0.01615344  1
  O2-  O351  1  0.59452637  0.59264416  0.52506819  1
  O2-  O352  1  0.59488403  0.92585784  0.02099010  1
  O2-  O353  1  0.59686214  0.92545185  0.52322409  1
  O2-  O354  1  0.92618679  0.26179207  0.01884063  1
  O2-  O355  1  0.93237299  0.26291822  0.51936111  1
  O2-  O356  1  0.93072412  0.59504269  0.02286527  1
  O2-  O357  1  0.92640069  0.59776844  0.51902538  1
  O2-  O358  1  0.92859567  0.92823068  0.02201878  1
  O2-  O359  1  0.92960617  0.92977286  0.51997365  1
