# generated using pymatgen
data_Sr7Ca15Pr50Mn72O216
_symmetry_space_group_name_H-M   'P 1'
_cell_length_a   16.55956725
_cell_length_b   16.60936760
_cell_length_c   15.59565982
_cell_angle_alpha   89.99829491
_cell_angle_beta   90.00181134
_cell_angle_gamma   89.99688801
_symmetry_Int_Tables_number   1
_chemical_formula_structural   Sr7Ca15Pr50Mn72O216
_chemical_formula_sum   'Sr7 Ca15 Pr50 Mn72 O216'
_cell_volume   4289.49170931
_cell_formula_units_Z   1
loop_
 _symmetry_equiv_pos_site_id
 _symmetry_equiv_pos_as_xyz
  1  'x, y, z'
loop_
 _atom_type_symbol
 _atom_type_oxidation_number
  Sr2+  2.0
  Ca2+  2.0
  Pr3+  3.0
  Mn3.30+  3.3
  O2-  -2.0
loop_
 _atom_site_type_symbol
 _atom_site_label
 _atom_site_symmetry_multiplicity
 _atom_site_fract_x
 _atom_site_fract_y
 _atom_site_fract_z
 _atom_site_occupancy
  Sr2+  Sr0  1  0.83142830  0.48927229  0.37589314  1
  Sr2+  Sr1  1  0.83044871  0.84164559  0.12401604  1
  Sr2+  Sr2  1  0.16742033  0.82515353  0.87562435  1
  Sr2+  Sr3  1  0.66830448  0.65965744  0.87781892  1
  Sr2+  Sr4  1  0.82842254  0.15653140  0.87277187  1
  Sr2+  Sr5  1  0.50417659  0.51111341  0.12575994  1
  Sr2+  Sr6  1  0.33481858  0.98900304  0.87454733  1
  Ca2+  Ca7  1  0.16528742  0.48615282  0.87673506  1
  Ca2+  Ca8  1  0.16326423  0.15357228  0.37655361  1
  Ca2+  Ca9  1  0.66058639  0.68394562  0.12602679  1
  Ca2+  Ca10  1  0.17349934  0.18523656  0.62477983  1
  Ca2+  Ca11  1  0.49623217  0.15425661  0.37416433  1
  Ca2+  Ca12  1  0.66989460  0.98710191  0.87470701  1
  Ca2+  Ca13  1  0.50398379  0.18073277  0.12529177  1
  Ca2+  Ca14  1  0.17373615  0.51412503  0.12368839  1
  Ca2+  Ca15  1  0.67131918  0.65103402  0.37022947  1
  Ca2+  Ca16  1  0.32759118  0.34691698  0.62560313  1
  Ca2+  Ca17  1  0.50597726  0.84589968  0.12221478  1
  Ca2+  Ca18  1  0.16303950  0.48382451  0.37385231  1
  Ca2+  Ca19  1  0.83388823  0.18056152  0.62595912  1
  Ca2+  Ca20  1  0.66310905  0.01721781  0.62779911  1
  Ca2+  Ca21  1  0.67021115  0.31833499  0.87520879  1
  Pr3+  Pr22  1  0.16296692  0.15382992  0.87360936  1
  Pr3+  Pr23  1  0.49936662  0.48723028  0.87673050  1
  Pr3+  Pr24  1  0.16406372  0.82008833  0.37400604  1
  Pr3+  Pr25  1  0.33245788  0.34768223  0.12417907  1
  Pr3+  Pr26  1  0.16946471  0.84611879  0.12466835  1
  Pr3+  Pr27  1  1.00352898  0.31998419  0.87419085  1
  Pr3+  Pr28  1  -0.00636299  0.01088455  0.12427265  1
  Pr3+  Pr29  1  0.66506902  0.67742464  0.62334670  1
  Pr3+  Pr30  1  0.33560129  0.01225244  0.12368686  1
  Pr3+  Pr31  1  0.50046490  0.17870778  0.62479779  1
  Pr3+  Pr32  1  1.00313393  0.64987095  0.37289523  1
  Pr3+  Pr33  1  -0.00184495  0.34635271  0.12469616  1
  Pr3+  Pr34  1  0.66229549  0.34448865  0.12321536  1
  Pr3+  Pr35  1  0.82839812  0.48540916  0.87522285  1
  Pr3+  Pr36  1  1.00544409  0.65357283  0.87726085  1
  Pr3+  Pr37  1  0.83404058  0.51322127  0.12601338  1
  Pr3+  Pr38  1  0.50001668  0.50904154  0.62501005  1
  Pr3+  Pr39  1  0.66001079  0.01245770  0.12312676  1
  Pr3+  Pr40  1  0.82904348  0.82323379  0.87648939  1
  Pr3+  Pr41  1  0.16939279  0.84641277  0.62492902  1
  Pr3+  Pr42  1  0.33582990  0.99075282  0.37529609  1
  Pr3+  Pr43  1  0.66691016  0.98879344  0.37740675  1
  Pr3+  Pr44  1  0.33087074  0.67994742  0.62442169  1
  Pr3+  Pr45  1  1.00097155  0.98687956  0.87486092  1
  Pr3+  Pr46  1  0.33620708  0.31883778  0.37571273  1
  Pr3+  Pr47  1  1.00165875  0.98823307  0.37486994  1
  Pr3+  Pr48  1  0.17116035  0.51045858  0.62548322  1
  Pr3+  Pr49  1  1.00541936  0.31928676  0.37542717  1
  Pr3+  Pr50  1  0.49976458  0.15304925  0.87566618  1
  Pr3+  Pr51  1  -0.00107371  0.34484977  0.62502570  1
  Pr3+  Pr52  1  0.83370791  0.17832837  0.12452003  1
  Pr3+  Pr53  1  -0.00390323  0.01670068  0.62553344  1
  Pr3+  Pr54  1  -0.00293718  0.67846495  0.62435195  1
  Pr3+  Pr55  1  0.82727666  0.81810712  0.37386731  1
  Pr3+  Pr56  1  0.33431854  0.67962377  0.12543412  1
  Pr3+  Pr57  1  0.32823163  0.01589865  0.62585337  1
  Pr3+  Pr58  1  0.33598120  0.65076750  0.37429430  1
  Pr3+  Pr59  1  0.83022801  0.15637833  0.37733036  1
  Pr3+  Pr60  1  0.49721124  0.82219726  0.87662112  1
  Pr3+  Pr61  1  0.66734810  0.34260521  0.62698939  1
  Pr3+  Pr62  1  0.49915921  0.48727628  0.37358177  1
  Pr3+  Pr63  1  0.16995082  0.17885805  0.12599214  1
  Pr3+  Pr64  1  0.83711823  0.51199804  0.62470875  1
  Pr3+  Pr65  1  0.33521238  0.32183203  0.87399160  1
  Pr3+  Pr66  1  0.49779333  0.81888109  0.37352323  1
  Pr3+  Pr67  1  0.83432249  0.84730959  0.62610341  1
  Pr3+  Pr68  1  -0.00124895  0.67905006  0.12552473  1
  Pr3+  Pr69  1  0.50458870  0.84973035  0.62454930  1
  Pr3+  Pr70  1  0.33745523  0.65575440  0.87571880  1
  Pr3+  Pr71  1  0.66775113  0.32127038  0.37469496  1
  Mn3.30+  Mn72  1  0.16577486  0.00006959  0.00043406  1
  Mn3.30+  Mn73  1  0.16586644  0.00352278  0.49990734  1
  Mn3.30+  Mn74  1  0.16723520  0.33561416  0.00041049  1
  Mn3.30+  Mn75  1  0.16885102  0.33204993  0.49923686  1
  Mn3.30+  Mn76  1  0.16836146  0.66549033  -0.00014940  1
  Mn3.30+  Mn77  1  0.16639863  0.66441916  0.49887599  1
  Mn3.30+  Mn78  1  0.50110831  -0.00035409  -0.00037460  1
  Mn3.30+  Mn79  1  0.50038800  0.00277591  0.50018237  1
  Mn3.30+  Mn80  1  0.50198761  0.33197551  -0.00165428  1
  Mn3.30+  Mn81  1  0.49772912  0.33169513  0.50153587  1
  Mn3.30+  Mn82  1  0.50339055  0.66638086  0.00190429  1
  Mn3.30+  Mn83  1  0.50128194  0.66495058  0.49845196  1
  Mn3.30+  Mn84  1  0.82934824  0.00071803  -0.00114082  1
  Mn3.30+  Mn85  1  0.83175850  0.00235875  0.50270036  1
  Mn3.30+  Mn86  1  0.83140140  0.33269193  -0.00035924  1
  Mn3.30+  Mn87  1  0.83429691  0.33261536  0.50006982  1
  Mn3.30+  Mn88  1  0.83234429  0.66710525  0.00161583  1
  Mn3.30+  Mn89  1  0.83151793  0.66569497  0.49842511  1
  Mn3.30+  Mn90  1  0.00122972  0.16621798  0.25097364  1
  Mn3.30+  Mn91  1  -0.00076927  0.16745776  0.74778251  1
  Mn3.30+  Mn92  1  0.00399965  0.49844734  0.24840889  1
  Mn3.30+  Mn93  1  0.00215487  0.49973353  0.75190056  1
  Mn3.30+  Mn94  1  -0.00177522  0.83283556  0.25048025  1
  Mn3.30+  Mn95  1  0.00009110  0.83332623  0.74936365  1
  Mn3.30+  Mn96  1  0.33491814  0.16700782  0.25001338  1
  Mn3.30+  Mn97  1  0.33219811  0.16831755  0.74961815  1
  Mn3.30+  Mn98  1  0.33118368  0.49925801  0.24944104  1
  Mn3.30+  Mn99  1  0.33230056  0.49903449  0.75133040  1
  Mn3.30+  Mn100  1  0.33534995  0.83402525  0.24918623  1
  Mn3.30+  Mn101  1  0.33428854  0.83368812  0.75019804  1
  Mn3.30+  Mn102  1  0.66300915  0.16589524  0.25150590  1
  Mn3.30+  Mn103  1  0.66760049  0.16580874  0.74903058  1
  Mn3.30+  Mn104  1  0.66728887  0.50144578  0.24989747  1
  Mn3.30+  Mn105  1  0.66715482  0.49939393  0.75132777  1
  Mn3.30+  Mn106  1  0.66364502  0.83279997  0.24961129  1
  Mn3.30+  Mn107  1  0.66673421  0.83607974  0.74931991  1
  Mn3.30+  Mn108  1  0.16657216  0.00194195  0.25021511  1
  Mn3.30+  Mn109  1  0.16502929  0.00102615  0.74913680  1
  Mn3.30+  Mn110  1  0.16793234  0.33403279  0.25008614  1
  Mn3.30+  Mn111  1  0.16821288  0.33375971  0.75001243  1
  Mn3.30+  Mn112  1  0.16770806  0.66342864  0.24911109  1
  Mn3.30+  Mn113  1  0.16672010  0.66583951  0.75170405  1
  Mn3.30+  Mn114  1  0.50015378  0.00119229  0.25059043  1
  Mn3.30+  Mn115  1  0.50202740  0.00080601  0.75020034  1
  Mn3.30+  Mn116  1  0.49991109  0.33118599  0.24995601  1
  Mn3.30+  Mn117  1  0.49982783  0.33271791  0.74995099  1
  Mn3.30+  Mn118  1  0.50369812  0.66612732  0.25022190  1
  Mn3.30+  Mn119  1  0.50092669  0.66602610  0.74925670  1
  Mn3.30+  Mn120  1  0.83081716  -0.00014577  0.25022024  1
  Mn3.30+  Mn121  1  0.82953495  0.00318639  0.74836161  1
  Mn3.30+  Mn122  1  0.83332749  0.33353372  0.25103950  1
  Mn3.30+  Mn123  1  0.83259546  0.33149243  0.74994179  1
  Mn3.30+  Mn124  1  0.83047108  0.66604181  0.24869669  1
  Mn3.30+  Mn125  1  0.83355728  0.66702067  0.75148836  1
  Mn3.30+  Mn126  1  -0.00114888  0.16650237  -0.00074933  1
  Mn3.30+  Mn127  1  0.00223981  0.16769524  0.50221084  1
  Mn3.30+  Mn128  1  0.00323946  0.49989166  0.00139840  1
  Mn3.30+  Mn129  1  0.00270456  0.49825485  0.49829361  1
  Mn3.30+  Mn130  1  -0.00075572  0.83309344  0.00055008  1
  Mn3.30+  Mn131  1  -0.00094877  0.83324992  0.49919647  1
  Mn3.30+  Mn132  1  0.33542989  0.16708031  0.00105022  1
  Mn3.30+  Mn133  1  0.33090477  0.16806552  0.49886572  1
  Mn3.30+  Mn134  1  0.33231628  0.50101774  0.00003146  1
  Mn3.30+  Mn135  1  0.33142950  0.49714019  0.49878864  1
  Mn3.30+  Mn136  1  0.33571350  0.83356259  0.00129808  1
  Mn3.30+  Mn137  1  0.33368222  0.83442760  0.49897347  1
  Mn3.30+  Mn138  1  0.66568277  0.16639815  -0.00123853  1
  Mn3.30+  Mn139  1  0.66496596  0.16610458  0.50151733  1
  Mn3.30+  Mn140  1  0.66661015  0.50119364  -0.00055822  1
  Mn3.30+  Mn141  1  0.66709116  0.49955770  0.50015808  1
  Mn3.30+  Mn142  1  0.66502381  0.83489239  0.00021398  1
  Mn3.30+  Mn143  1  0.66616692  0.83348337  0.49988982  1
  O2-  O144  1  0.02494471  0.15991046  0.12538337  1
  O2-  O145  1  0.03097633  0.16329278  0.62383292  1
  O2-  O146  1  0.03161011  0.49336043  0.12453144  1
  O2-  O147  1  0.02689676  0.49556782  0.62392403  1
  O2-  O148  1  0.02440842  0.82978163  0.12670914  1
  O2-  O149  1  0.02536082  0.82629211  0.62235566  1
  O2-  O150  1  0.36105034  0.16197072  0.12467625  1
  O2-  O151  1  0.35697051  0.16192298  0.62411351  1
  O2-  O152  1  0.35485434  0.49616536  0.12557344  1
  O2-  O153  1  0.35610423  0.49445930  0.62621502  1
  O2-  O154  1  0.36204011  0.82870589  0.12849486  1
  O2-  O155  1  0.35844172  0.82906385  0.62341430  1
  O2-  O156  1  0.69086447  0.16057167  0.12721268  1
  O2-  O157  1  0.69176093  0.16269606  0.62399803  1
  O2-  O158  1  0.69074458  0.48984890  0.12331644  1
  O2-  O159  1  0.69278069  0.49200735  0.62662180  1
  O2-  O160  1  0.68257517  0.83177904  0.12763891  1
  O2-  O161  1  0.69182447  0.82368796  0.62328019  1
  O2-  O162  1  0.14100157  0.32348845  0.12504796  1
  O2-  O163  1  0.14270703  0.32893402  0.62487752  1
  O2-  O164  1  0.14239756  0.65965082  0.12592745  1
  O2-  O165  1  0.14052981  0.65816369  0.62525477  1
  O2-  O166  1  0.13880873  0.99570697  0.12636854  1
  O2-  O167  1  0.14045774  0.99214593  0.62385696  1
  O2-  O168  1  0.47692079  0.32736703  0.12366164  1
  O2-  O169  1  0.46982679  0.32828639  0.62483662  1
  O2-  O170  1  0.47683392  0.66344232  0.12741364  1
  O2-  O171  1  0.47394897  0.65883446  0.62271341  1
  O2-  O172  1  0.47787003  0.99044107  0.12718026  1
  O2-  O173  1  0.47274579  0.99709772  0.62350122  1
  O2-  O174  1  0.80791121  0.32756712  0.12653032  1
  O2-  O175  1  0.81215488  0.33097335  0.62463491  1
  O2-  O176  1  0.80673351  0.66111197  0.12492777  1
  O2-  O177  1  0.81103600  0.66123975  0.62495176  1
  O2-  O178  1  0.80569046  0.99916763  0.12691667  1
  O2-  O179  1  0.80368035  0.99206506  0.62398988  1
  O2-  O180  1  0.30450337  0.17059400  0.37436092  1
  O2-  O181  1  0.30690828  0.17274538  0.87627242  1
  O2-  O182  1  0.30546887  0.50421034  0.37254823  1
  O2-  O183  1  0.30739608  0.50690930  0.87529625  1
  O2-  O184  1  0.30736419  0.84057113  0.37413687  1
  O2-  O185  1  0.31785354  0.83030687  0.87369581  1
  O2-  O186  1  0.63790177  0.17322219  0.37603754  1
  O2-  O187  1  0.64202155  0.17505282  0.87351939  1
  O2-  O188  1  0.64291448  0.50493812  0.37727135  1
  O2-  O189  1  0.64276112  0.50654332  0.87400910  1
  O2-  O190  1  0.63998762  0.84229921  0.37698491  1
  O2-  O191  1  0.64124346  0.84014380  0.87148321  1
  O2-  O192  1  0.97465459  0.17065767  0.37653572  1
  O2-  O193  1  0.97986704  0.17209895  0.87443768  1
  O2-  O194  1  0.98051441  0.50198456  0.37359287  1
  O2-  O195  1  0.97263751  0.50565458  0.87794919  1
  O2-  O196  1  0.97324485  0.83873927  0.37598343  1
  O2-  O197  1  0.97480177  0.83769904  0.87476247  1
  O2-  O198  1  0.19104070  0.00657774  0.37443250  1
  O2-  O199  1  0.18423357  0.00597353  0.87474201  1
  O2-  O200  1  0.19287968  0.34192640  0.37356394  1
  O2-  O201  1  0.19113528  0.33960966  0.87646638  1
  O2-  O202  1  0.19313756  0.67439734  0.37315516  1
  O2-  O203  1  0.19354092  0.67285423  0.87480977  1
  O2-  O204  1  0.52353705  0.00994353  0.37656922  1
  O2-  O205  1  0.52676231  0.00562602  0.87306909  1
  O2-  O206  1  0.52407115  0.33986333  0.37742626  1
  O2-  O207  1  0.52778434  0.33924603  0.87360814  1
  O2-  O208  1  0.52850836  0.67036884  0.37664341  1
  O2-  O209  1  0.51879784  0.67382468  0.87330532  1
  O2-  O210  1  0.85814476  0.00817760  0.37770725  1
  O2-  O211  1  0.85793112  0.00200472  0.87185614  1
  O2-  O212  1  0.85905855  0.33200279  0.37515706  1
  O2-  O213  1  0.85931620  0.33759370  0.87447203  1
  O2-  O214  1  0.85799274  0.67001860  0.37410259  1
  O2-  O215  1  0.85959442  0.67258235  0.87633109  1
  O2-  O216  1  0.23886531  0.09422818  0.02070534  1
  O2-  O217  1  0.23684849  0.09714441  0.52345197  1
  O2-  O218  1  0.23797072  0.42666979  0.02201360  1
  O2-  O219  1  0.23711709  0.42795694  0.51997656  1
  O2-  O220  1  0.24149974  0.76050841  0.02449125  1
  O2-  O221  1  0.23757619  0.76099609  0.51965716  1
  O2-  O222  1  0.56994500  0.09642279  0.02055187  1
  O2-  O223  1  0.57112702  0.09548782  0.52168258  1
  O2-  O224  1  0.57385907  0.42617326  0.01605288  1
  O2-  O225  1  0.57205023  0.42678645  0.52154721  1
  O2-  O226  1  0.57012057  0.76423931  0.01492832  1
  O2-  O227  1  0.57120262  0.76139867  0.52159086  1
  O2-  O228  1  0.90383856  0.09230114  0.02201774  1
  O2-  O229  1  0.90438523  0.09731374  0.52362084  1
  O2-  O230  1  0.90545116  0.42728925  0.02182812  1
  O2-  O231  1  0.90954721  0.42759976  0.52187339  1
  O2-  O232  1  0.90987157  0.75744985  0.01912018  1
  O2-  O233  1  0.90392031  0.76144468  0.51949565  1
  O2-  O234  1  0.26336368  0.26238012  0.22806594  1
  O2-  O235  1  0.26424032  0.26585298  0.73305048  1
  O2-  O236  1  0.26499542  0.59752193  0.23134575  1
  O2-  O237  1  0.26164888  0.59599160  0.72838524  1
  O2-  O238  1  0.26014522  0.92843118  0.22758601  1
  O2-  O239  1  0.25903801  0.92643590  0.72892158  1
  O2-  O240  1  0.59687603  0.26224827  0.23172493  1
  O2-  O241  1  0.59073894  0.25912694  0.72540176  1
  O2-  O242  1  0.59823171  0.59861870  0.23246053  1
  O2-  O243  1  0.59300391  0.59246038  0.72603249  1
  O2-  O244  1  0.59644617  0.93251673  0.23697583  1
  O2-  O245  1  0.59461920  0.92821057  0.72364855  1
  O2-  O246  1  0.92831224  0.25966063  0.22957756  1
  O2-  O247  1  0.93116859  0.26206491  0.73149017  1
  O2-  O248  1  0.93164610  0.59199310  0.22921652  1
  O2-  O249  1  0.93116439  0.59446716  0.73014026  1
  O2-  O250  1  0.92723511  0.93147851  0.23435315  1
  O2-  O251  1  0.92562446  0.92975396  0.72798987  1
  O2-  O252  1  0.09788975  0.23788428  0.27130125  1
  O2-  O253  1  0.09687076  0.24123659  0.77172961  1
  O2-  O254  1  0.09631556  0.57128325  0.27325659  1
  O2-  O255  1  0.09674762  0.56966301  0.77338624  1
  O2-  O256  1  0.09406127  0.90444458  0.27120965  1
  O2-  O257  1  0.09016746  0.90602276  0.76603135  1
  O2-  O258  1  0.42624997  0.23826071  0.27379114  1
  O2-  O259  1  0.42860822  0.23941065  0.77274046  1
  O2-  O260  1  0.42842056  0.57292930  0.27336051  1
  O2-  O261  1  0.42884487  0.57212078  0.76982340  1
  O2-  O262  1  0.42750769  0.90896344  0.27613728  1
  O2-  O263  1  0.43323918  0.90470109  0.76513695  1
  O2-  O264  1  0.75899548  0.23660313  0.27070739  1
  O2-  O265  1  0.75705664  0.24065797  0.76344560  1
  O2-  O266  1  0.76260461  0.57006284  0.26431963  1
  O2-  O267  1  0.76587363  0.57005237  0.76601381  1
  O2-  O268  1  0.75953721  0.90753503  0.27450055  1
  O2-  O269  1  0.76436981  0.90364041  0.76694414  1
  O2-  O270  1  0.06783709  0.06951118  0.48163719  1
  O2-  O271  1  0.07041384  0.07312418  0.98040096  1
  O2-  O272  1  0.07158950  0.40114071  0.48291344  1
  O2-  O273  1  0.06878960  0.40285573  0.98142164  1
  O2-  O274  1  0.07214714  0.73571451  0.47818658  1
  O2-  O275  1  0.07365708  0.73562054  0.98503891  1
  O2-  O276  1  0.39922789  0.07139537  0.48347201  1
  O2-  O277  1  0.40848947  0.07186216  0.98252782  1
  O2-  O278  1  0.40665598  0.40632153  0.47675029  1
  O2-  O279  1  0.40617553  0.40576234  0.97956623  1
  O2-  O280  1  0.40689618  0.73673880  0.47839849  1
  O2-  O281  1  0.40650398  0.73689065  0.98355928  1
  O2-  O282  1  0.73904409  0.07436690  0.47699764  1
  O2-  O283  1  0.73346279  0.06969856  0.98247511  1
  O2-  O284  1  0.73544223  0.40391651  0.48342905  1
  O2-  O285  1  0.73918832  0.40457560  0.97813618  1
  O2-  O286  1  0.73603885  0.73785654  0.47760894  1
  O2-  O287  1  0.74217774  0.74653269  0.98230397  1
  O2-  O288  1  0.09720116  0.23912222  0.47609166  1
  O2-  O289  1  0.09669556  0.23955167  0.98024438  1
  O2-  O290  1  0.09634067  0.56943608  0.47771932  1
  O2-  O291  1  0.09569374  0.57184305  0.97612740  1
  O2-  O292  1  0.09460787  0.90469470  0.47823478  1
  O2-  O293  1  0.09024437  0.90763842  0.98400912  1
  O2-  O294  1  0.42769736  0.23595392  0.47702051  1
  O2-  O295  1  0.42721049  0.24170544  0.97516756  1
  O2-  O296  1  0.42669892  0.57024610  0.47844180  1
  O2-  O297  1  0.42884380  0.57361852  0.97852198  1
  O2-  O298  1  0.42991743  0.90685707  0.47916061  1
  O2-  O299  1  0.42965338  0.90502559  0.98229026  1
  O2-  O300  1  0.75667361  0.23959880  0.47944969  1
  O2-  O301  1  0.76054330  0.23778490  0.98734388  1
  O2-  O302  1  0.76038850  0.57158512  0.48814933  1
  O2-  O303  1  0.76618324  0.56874283  0.98332852  1
  O2-  O304  1  0.76247210  0.90417419  0.47898180  1
  O2-  O305  1  0.75992181  0.90701660  0.97968751  1
  O2-  O306  1  0.06931855  0.07061655  0.26873209  1
  O2-  O307  1  0.06840594  0.07221914  0.76873482  1
  O2-  O308  1  0.07034759  0.40078413  0.26744146  1
  O2-  O309  1  0.06985030  0.40323360  0.76769811  1
  O2-  O310  1  0.07394956  0.73657514  0.27000133  1
  O2-  O311  1  0.07092561  0.73365270  0.76625757  1
  O2-  O312  1  0.40250124  0.06968084  0.26709223  1
  O2-  O313  1  0.40717612  0.07435656  0.76653939  1
  O2-  O314  1  0.40431354  0.40519671  0.26910844  1
  O2-  O315  1  0.40835897  0.40726535  0.77431500  1
  O2-  O316  1  0.40587459  0.73680788  0.27369104  1
  O2-  O317  1  0.40616170  0.73711825  0.76483241  1
  O2-  O318  1  0.73682798  0.07322811  0.27337324  1
  O2-  O319  1  0.73382221  0.06899545  0.76874664  1
  O2-  O320  1  0.73800996  0.40327216  0.26806592  1
  O2-  O321  1  0.73846620  0.40509005  0.77126626  1
  O2-  O322  1  0.73624062  0.74199715  0.27245820  1
  O2-  O323  1  0.74154909  0.74221596  0.76689882  1
  O2-  O324  1  0.24179929  0.09449776  0.22581143  1
  O2-  O325  1  0.23674562  0.09676620  0.72982843  1
  O2-  O326  1  0.23804727  0.42663201  0.22489484  1
  O2-  O327  1  0.23677251  0.42804348  0.73188402  1
  O2-  O328  1  0.23843586  0.76123525  0.22886681  1
  O2-  O329  1  0.23879499  0.75892531  0.72543463  1
  O2-  O330  1  0.57071116  0.09455519  0.22641016  1
  O2-  O331  1  0.56894402  0.09735146  0.73108261  1
  O2-  O332  1  0.57466859  0.42650917  0.23590725  1
  O2-  O333  1  0.57125098  0.42602816  0.72776942  1
  O2-  O334  1  0.56626830  0.76689661  0.23440992  1
  O2-  O335  1  0.57230942  0.75992260  0.72725786  1
  O2-  O336  1  0.90264557  0.09405538  0.23086558  1
  O2-  O337  1  0.90321876  0.09406133  0.72425468  1
  O2-  O338  1  0.90981722  0.42703382  0.22582396  1
  O2-  O339  1  0.90684595  0.42909114  0.73078043  1
  O2-  O340  1  0.90733538  0.75777606  0.23281259  1
  O2-  O341  1  0.90671437  0.76177305  0.72860206  1
  O2-  O342  1  0.26145265  0.26234247  0.02088216  1
  O2-  O343  1  0.26569027  0.26604905  0.51770933  1
  O2-  O344  1  0.26422824  0.59847121  0.01860526  1
  O2-  O345  1  0.26200796  0.59500303  0.52033615  1
  O2-  O346  1  0.25941638  0.92598458  0.02238370  1
  O2-  O347  1  0.25910359  0.93085826  0.51987895  1
  O2-  O348  1  0.59470148  0.25968708  0.01943905  1
  O2-  O349  1  0.59323777  0.26126068  0.52334924  1
  O2-  O350  1  0.59759241  0.59793498  0.01953547  1
  O2-  O351  1  0.59213446  0.59084253  0.52460101  1
  O2-  O352  1  0.59471748  0.92982530  0.01723509  1
  O2-  O353  1  0.59642254  0.92890228  0.52152442  1
  O2-  O354  1  0.92785076  0.26044900  0.02072992  1
  O2-  O355  1  0.93244993  0.26089073  0.51863850  1
  O2-  O356  1  0.93147896  0.59236010  0.02349342  1
  O2-  O357  1  0.93003383  0.59355710  0.51801631  1
  O2-  O358  1  0.92543615  0.93013751  0.01585465  1
  O2-  O359  1  0.92637720  0.93063110  0.52156914  1
