# generated using pymatgen
data_Sr7Ca15Pr50Mn72O216
_symmetry_space_group_name_H-M   'P 1'
_cell_length_a   16.55890285
_cell_length_b   16.60670284
_cell_length_c   15.59209271
_cell_angle_alpha   89.99988564
_cell_angle_beta   89.99931553
_cell_angle_gamma   89.98059388
_symmetry_Int_Tables_number   1
_chemical_formula_structural   Sr7Ca15Pr50Mn72O216
_chemical_formula_sum   'Sr7 Ca15 Pr50 Mn72 O216'
_cell_volume   4287.65029031
_cell_formula_units_Z   1
loop_
 _symmetry_equiv_pos_site_id
 _symmetry_equiv_pos_as_xyz
  1  'x, y, z'
loop_
 _atom_type_symbol
 _atom_type_oxidation_number
  Sr2+  2.0
  Ca2+  2.0
  Pr3+  3.0
  Mn3.30+  3.3
  O2-  -2.0
loop_
 _atom_site_type_symbol
 _atom_site_label
 _atom_site_symmetry_multiplicity
 _atom_site_fract_x
 _atom_site_fract_y
 _atom_site_fract_z
 _atom_site_occupancy
  Sr2+  Sr0  1  0.50049296  0.49390879  0.37556182  1
  Sr2+  Sr1  1  0.83075484  0.49173715  0.87791983  1
  Sr2+  Sr2  1  0.83173739  0.50728420  0.12333071  1
  Sr2+  Sr3  1  0.49891929  0.82300816  0.37343850  1
  Sr2+  Sr4  1  0.66405811  0.00850542  0.12470375  1
  Sr2+  Sr5  1  0.33142665  0.01000400  0.12609616  1
  Sr2+  Sr6  1  0.66752415  0.65396167  0.87558091  1
  Ca2+  Ca7  1  0.83786353  0.85190479  0.62585353  1
  Ca2+  Ca8  1  0.49857359  0.48703305  0.87592329  1
  Ca2+  Ca9  1  -0.00399184  0.01547875  0.62533272  1
  Ca2+  Ca10  1  0.83063023  0.14945909  0.37561494  1
  Ca2+  Ca11  1  0.83124749  0.15207712  0.87451259  1
  Ca2+  Ca12  1  0.33810887  0.65204845  0.87678599  1
  Ca2+  Ca13  1  0.16363175  0.81856755  0.87598269  1
  Ca2+  Ca14  1  0.16717470  0.17926027  0.62542608  1
  Ca2+  Ca15  1  0.66595123  0.01340958  0.62471302  1
  Ca2+  Ca16  1  0.34004056  0.65393654  0.37305667  1
  Ca2+  Ca17  1  0.16794625  0.17798281  0.12497783  1
  Ca2+  Ca18  1  -0.00505932  0.01442695  0.12448463  1
  Ca2+  Ca19  1  0.66639926  0.65223445  0.37329870  1
  Ca2+  Ca20  1  0.33024518  0.68118837  0.12604315  1
  Ca2+  Ca21  1  0.66396277  0.34929227  0.12417615  1
  Pr3+  Pr22  1  1.00343179  0.65497280  0.87516725  1
  Pr3+  Pr23  1  0.66391136  0.67805980  0.62541920  1
  Pr3+  Pr24  1  0.83542012  0.17594492  0.12509945  1
  Pr3+  Pr25  1  0.50221609  0.51410909  0.62581833  1
  Pr3+  Pr26  1  0.49807807  0.15321903  0.87577152  1
  Pr3+  Pr27  1  0.32851574  0.01467938  0.62451852  1
  Pr3+  Pr28  1  -0.00103522  0.34413909  0.12488845  1
  Pr3+  Pr29  1  0.50324020  0.51290556  0.12471082  1
  Pr3+  Pr30  1  0.33199996  0.34588187  0.12474295  1
  Pr3+  Pr31  1  0.67201618  0.32360769  0.87712798  1
  Pr3+  Pr32  1  0.33774427  0.32066679  0.87621486  1
  Pr3+  Pr33  1  0.33635511  0.98725301  0.37370781  1
  Pr3+  Pr34  1  1.00314255  0.98549151  0.87391036  1
  Pr3+  Pr35  1  1.00118302  0.31955645  0.37316272  1
  Pr3+  Pr36  1  -0.00497438  0.68184797  0.62556716  1
  Pr3+  Pr37  1  0.49757017  0.82018568  0.87618991  1
  Pr3+  Pr38  1  0.82980794  0.82076324  0.87354185  1
  Pr3+  Pr39  1  0.16398051  0.48741836  0.87547950  1
  Pr3+  Pr40  1  0.17287665  0.51635235  0.12413090  1
  Pr3+  Pr41  1  0.49770768  0.15428940  0.37438774  1
  Pr3+  Pr42  1  0.33295709  0.98673218  0.87655965  1
  Pr3+  Pr43  1  0.16919648  0.84625133  0.12384369  1
  Pr3+  Pr44  1  0.82789772  0.48823474  0.37325761  1
  Pr3+  Pr45  1  0.16385995  0.15432483  0.37379342  1
  Pr3+  Pr46  1  0.83684532  0.84791452  0.12356905  1
  Pr3+  Pr47  1  -0.00375444  0.67892640  0.12448963  1
  Pr3+  Pr48  1  0.99913580  0.98864627  0.37605310  1
  Pr3+  Pr49  1  0.50760479  0.18125502  0.12444398  1
  Pr3+  Pr50  1  0.83451583  0.51162270  0.62669321  1
  Pr3+  Pr51  1  0.66433967  0.67515126  0.12454571  1
  Pr3+  Pr52  1  0.33883882  0.32182182  0.37406259  1
  Pr3+  Pr53  1  0.66425960  0.34630247  0.62480078  1
  Pr3+  Pr54  1  0.16816381  0.84738378  0.62618823  1
  Pr3+  Pr55  1  1.00276361  0.65390088  0.37492756  1
  Pr3+  Pr56  1  -0.00164552  0.34317364  0.62493185  1
  Pr3+  Pr57  1  0.17026369  0.51383154  0.62563511  1
  Pr3+  Pr58  1  0.33244902  0.67960661  0.62419610  1
  Pr3+  Pr59  1  0.82614937  0.81860640  0.37615402  1
  Pr3+  Pr60  1  0.67177458  0.98850834  0.87388764  1
  Pr3+  Pr61  1  0.16576187  0.82156126  0.37459556  1
  Pr3+  Pr62  1  0.16650203  0.48770072  0.37445827  1
  Pr3+  Pr63  1  0.49989351  0.84393280  0.12505008  1
  Pr3+  Pr64  1  0.16251400  0.15497714  0.87623264  1
  Pr3+  Pr65  1  0.33078150  0.34653911  0.62566255  1
  Pr3+  Pr66  1  0.50540004  0.17897629  0.62578266  1
  Pr3+  Pr67  1  0.83570912  0.17546833  0.62470048  1
  Pr3+  Pr68  1  0.67146791  0.31843006  0.37260854  1
  Pr3+  Pr69  1  0.99962679  0.32086654  0.87666290  1
  Pr3+  Pr70  1  0.67043533  0.98745980  0.37589439  1
  Pr3+  Pr71  1  0.50399592  0.84756944  0.62488138  1
  Mn3.30+  Mn72  1  0.16473257  0.00055582  0.00184196  1
  Mn3.30+  Mn73  1  0.16476060  0.00171658  0.50151217  1
  Mn3.30+  Mn74  1  0.16787529  0.33206199  0.00124862  1
  Mn3.30+  Mn75  1  0.16707735  0.33195842  0.50011883  1
  Mn3.30+  Mn76  1  0.16992451  0.66839460  -0.00183312  1
  Mn3.30+  Mn77  1  0.16778217  0.66751432  0.49911874  1
  Mn3.30+  Mn78  1  0.50041027  -0.00035851  0.00015303  1
  Mn3.30+  Mn79  1  0.50120509  0.00043058  0.50144314  1
  Mn3.30+  Mn80  1  0.50235399  0.33485938  -0.00063547  1
  Mn3.30+  Mn81  1  0.50088936  0.33438671  0.49927599  1
  Mn3.30+  Mn82  1  0.49576270  0.66535796  -0.00064554  1
  Mn3.30+  Mn83  1  0.49938305  0.66820308  0.49760512  1
  Mn3.30+  Mn84  1  0.83524894  0.00184709  -0.00102398  1
  Mn3.30+  Mn85  1  0.83361787  -0.00026660  0.50265562  1
  Mn3.30+  Mn86  1  0.83237304  0.33182678  0.00120134  1
  Mn3.30+  Mn87  1  0.83322869  0.33075959  0.49907693  1
  Mn3.30+  Mn88  1  0.83223888  0.66622814  0.00043270  1
  Mn3.30+  Mn89  1  0.83151630  0.66715927  0.50024870  1
  Mn3.30+  Mn90  1  -0.00021241  0.16453576  0.24913907  1
  Mn3.30+  Mn91  1  -0.00059878  0.16540178  0.74964336  1
  Mn3.30+  Mn92  1  -0.00025998  0.49971453  0.24932816  1
  Mn3.30+  Mn93  1  0.00020793  0.49931036  0.75023610  1
  Mn3.30+  Mn94  1  -0.00100360  0.83479911  0.25089034  1
  Mn3.30+  Mn95  1  -0.00016758  0.83501954  0.74870384  1
  Mn3.30+  Mn96  1  0.33232980  0.16670287  0.24768382  1
  Mn3.30+  Mn97  1  0.33190406  0.16657043  0.74997999  1
  Mn3.30+  Mn98  1  0.33505668  0.50313690  0.24950120  1
  Mn3.30+  Mn99  1  0.33483470  0.50150578  0.75272879  1
  Mn3.30+  Mn100  1  0.33269057  0.83143205  0.24959241  1
  Mn3.30+  Mn101  1  0.33189441  0.83218541  0.75217499  1
  Mn3.30+  Mn102  1  0.66890785  0.16609154  0.24920429  1
  Mn3.30+  Mn103  1  0.66895784  0.16629179  0.75070865  1
  Mn3.30+  Mn104  1  0.66578259  0.49970493  0.24954924  1
  Mn3.30+  Mn105  1  0.66624382  0.50002142  0.75212301  1
  Mn3.30+  Mn106  1  0.66601795  0.83086659  0.25073299  1
  Mn3.30+  Mn107  1  0.66853572  0.83448145  0.74707156  1
  Mn3.30+  Mn108  1  0.16462906  0.00142937  0.24791578  1
  Mn3.30+  Mn109  1  0.16448362  0.00080397  0.74885697  1
  Mn3.30+  Mn110  1  0.16811931  0.33235862  0.24925317  1
  Mn3.30+  Mn111  1  0.16688334  0.33175552  0.74986943  1
  Mn3.30+  Mn112  1  0.16941600  0.66743549  0.25087208  1
  Mn3.30+  Mn113  1  0.16844736  0.66837782  0.75179841  1
  Mn3.30+  Mn114  1  0.50042717  -0.00003325  0.24888282  1
  Mn3.30+  Mn115  1  0.50104169  -0.00004532  0.74960385  1
  Mn3.30+  Mn116  1  0.50258318  0.33495671  0.25012184  1
  Mn3.30+  Mn117  1  0.50085116  0.33456838  0.75155921  1
  Mn3.30+  Mn118  1  0.49701032  0.66706764  0.25006854  1
  Mn3.30+  Mn119  1  0.49821319  0.66604888  0.75282891  1
  Mn3.30+  Mn120  1  0.83394274  0.00052809  0.24966503  1
  Mn3.30+  Mn121  1  0.83489234  0.00087368  0.74816961  1
  Mn3.30+  Mn122  1  0.83264551  0.33083306  0.24839300  1
  Mn3.30+  Mn123  1  0.83298621  0.33179223  0.75088359  1
  Mn3.30+  Mn124  1  0.83193774  0.66593752  0.24993914  1
  Mn3.30+  Mn125  1  0.83220120  0.66785525  0.74929927  1
  Mn3.30+  Mn126  1  -0.00049369  0.16446009  0.00082517  1
  Mn3.30+  Mn127  1  -0.00021440  0.16539315  0.50022563  1
  Mn3.30+  Mn128  1  0.00024839  0.49952399  0.00044510  1
  Mn3.30+  Mn129  1  -0.00030311  0.49949112  0.49976825  1
  Mn3.30+  Mn130  1  0.00206541  0.83428674  -0.00069922  1
  Mn3.30+  Mn131  1  -0.00269614  0.83562987  0.50097163  1
  Mn3.30+  Mn132  1  0.33201459  0.16562010  0.00223416  1
  Mn3.30+  Mn133  1  0.33197433  0.16758361  0.50088967  1
  Mn3.30+  Mn134  1  0.33532479  0.50259168  -0.00118493  1
  Mn3.30+  Mn135  1  0.33449812  0.50208567  0.49930647  1
  Mn3.30+  Mn136  1  0.33027192  0.83090970  -0.00171352  1
  Mn3.30+  Mn137  1  0.33456639  0.83298269  0.50023038  1
  Mn3.30+  Mn138  1  0.66907410  0.16746020  -0.00022355  1
  Mn3.30+  Mn139  1  0.66871506  0.16469839  0.49990586  1
  Mn3.30+  Mn140  1  0.66525767  0.49940764  -0.00005850  1
  Mn3.30+  Mn141  1  0.66670413  0.50087174  0.49846226  1
  Mn3.30+  Mn142  1  0.66653045  0.83236866  -0.00028035  1
  Mn3.30+  Mn143  1  0.66814968  0.83273316  0.50185446  1
  O2-  O144  1  0.02627897  0.15952123  0.12540793  1
  O2-  O145  1  0.02568259  0.16262037  0.62405481  1
  O2-  O146  1  0.02748149  0.49554409  0.12460408  1
  O2-  O147  1  0.02606830  0.49343906  0.62418386  1
  O2-  O148  1  0.02566772  0.82465038  0.12738986  1
  O2-  O149  1  0.02622261  0.82660429  0.62505118  1
  O2-  O150  1  0.36175002  0.16634401  0.12455920  1
  O2-  O151  1  0.36099331  0.16213453  0.62623398  1
  O2-  O152  1  0.35894529  0.49225894  0.12385246  1
  O2-  O153  1  0.35734534  0.49414482  0.62806630  1
  O2-  O154  1  0.35504463  0.82711828  0.12376729  1
  O2-  O155  1  0.35891032  0.82831934  0.62701865  1
  O2-  O156  1  0.69182640  0.16104263  0.12475229  1
  O2-  O157  1  0.69116264  0.16146432  0.62570301  1
  O2-  O158  1  0.68268167  0.49833576  0.12573750  1
  O2-  O159  1  0.69041268  0.49500383  0.62388671  1
  O2-  O160  1  0.69195598  0.82496730  0.12699116  1
  O2-  O161  1  0.69553821  0.82352704  0.62463944  1
  O2-  O162  1  0.14355947  0.32766731  0.12490627  1
  O2-  O163  1  0.14248725  0.32775685  0.62388984  1
  O2-  O164  1  0.13989740  0.66315199  0.12514320  1
  O2-  O165  1  0.13932663  0.66130694  0.62373302  1
  O2-  O166  1  0.13572685  0.99056640  0.12489034  1
  O2-  O167  1  0.13771269  0.99225240  0.62496105  1
  O2-  O168  1  0.47589632  0.32792096  0.12471976  1
  O2-  O169  1  0.47537313  0.32654181  0.62598374  1
  O2-  O170  1  0.47134437  0.66065163  0.12245966  1
  O2-  O171  1  0.47575472  0.66307893  0.62791647  1
  O2-  O172  1  0.48199132  0.99496305  0.12316165  1
  O2-  O173  1  0.47319721  0.99715318  0.62687593  1
  O2-  O174  1  0.80639197  0.32275121  0.12618631  1
  O2-  O175  1  0.80791577  0.32362312  0.62320914  1
  O2-  O176  1  0.81071020  0.66816449  0.12649459  1
  O2-  O177  1  0.80862587  0.65837761  0.62398925  1
  O2-  O178  1  0.81318585  0.99588678  0.12458286  1
  O2-  O179  1  0.80685686  0.99739348  0.62543313  1
  O2-  O180  1  0.30856146  0.17352094  0.37420740  1
  O2-  O181  1  0.30778105  0.17203901  0.87566662  1
  O2-  O182  1  0.30901608  0.50705562  0.37382952  1
  O2-  O183  1  0.30617665  0.50573245  0.87466972  1
  O2-  O184  1  0.30885853  0.84119770  0.37590741  1
  O2-  O185  1  0.30424586  0.84197496  0.87321659  1
  O2-  O186  1  0.64135977  0.17108675  0.37429995  1
  O2-  O187  1  0.64131686  0.17478928  0.87476319  1
  O2-  O188  1  0.65005932  0.50446308  0.37600474  1
  O2-  O189  1  0.64228294  0.49631049  0.87441801  1
  O2-  O190  1  0.64891631  0.84087014  0.37712844  1
  O2-  O191  1  0.64344278  0.84116926  0.87068283  1
  O2-  O192  1  0.97294806  0.17222241  0.37493750  1
  O2-  O193  1  0.97310196  0.17370902  0.87543327  1
  O2-  O194  1  0.97357240  0.50544898  0.37582735  1
  O2-  O195  1  0.98216765  0.50552879  0.87540154  1
  O2-  O196  1  0.97084206  0.83945397  0.37596538  1
  O2-  O197  1  0.97350702  0.83690936  0.87149351  1
  O2-  O198  1  0.19316614  0.00699806  0.37668808  1
  O2-  O199  1  0.19090962  0.00930391  0.87391204  1
  O2-  O200  1  0.19402890  0.33855574  0.37505629  1
  O2-  O201  1  0.19276441  0.33770038  0.87647326  1
  O2-  O202  1  0.19591826  0.67362186  0.37678835  1
  O2-  O203  1  0.19491420  0.67335421  0.87440464  1
  O2-  O204  1  0.52424504  0.00562731  0.37619976  1
  O2-  O205  1  0.52541040  0.00330541  0.87364026  1
  O2-  O206  1  0.52641235  0.33523326  0.37482434  1
  O2-  O207  1  0.52659274  0.33906210  0.87450120  1
  O2-  O208  1  0.52469759  0.66887478  0.37529820  1
  O2-  O209  1  0.52089709  0.67488064  0.87473797  1
  O2-  O210  1  0.85569456  0.00255076  0.37616145  1
  O2-  O211  1  0.85953130  0.00505264  0.87348231  1
  O2-  O212  1  0.85828940  0.34142297  0.37497770  1
  O2-  O213  1  0.85664472  0.33824996  0.87528054  1
  O2-  O214  1  0.85946821  0.67074752  0.37566539  1
  O2-  O215  1  0.85857560  0.67223532  0.87393745  1
  O2-  O216  1  0.23248150  0.09659086  0.01886890  1
  O2-  O217  1  0.23575181  0.09561131  0.52294409  1
  O2-  O218  1  0.24037255  0.43060299  0.01966244  1
  O2-  O219  1  0.23815365  0.42885117  0.51964368  1
  O2-  O220  1  0.23596772  0.76268510  0.02023015  1
  O2-  O221  1  0.23679523  0.76249642  0.52202901  1
  O2-  O222  1  0.57204860  0.10008286  0.01407436  1
  O2-  O223  1  0.56927202  0.09616985  0.51797525  1
  O2-  O224  1  0.56990065  0.42804715  0.01907163  1
  O2-  O225  1  0.57237914  0.42587144  0.52254128  1
  O2-  O226  1  0.56845894  0.75764869  0.02012822  1
  O2-  O227  1  0.57271155  0.76117838  0.52388492  1
  O2-  O228  1  0.90523331  0.09481033  0.01967307  1
  O2-  O229  1  0.90457242  0.09474823  0.51891555  1
  O2-  O230  1  0.91015991  0.41974082  0.02021789  1
  O2-  O231  1  0.90399855  0.42514187  0.52176402  1
  O2-  O232  1  0.90770239  0.76299368  0.01906653  1
  O2-  O233  1  0.90222995  0.76193139  0.52146668  1
  O2-  O234  1  0.26381060  0.26358916  0.23208598  1
  O2-  O235  1  0.26311852  0.26258198  0.73202366  1
  O2-  O236  1  0.26167750  0.59431297  0.22562480  1
  O2-  O237  1  0.26072688  0.59412790  0.72685730  1
  O2-  O238  1  0.25484774  0.92621470  0.23323503  1
  O2-  O239  1  0.26184442  0.92911515  0.72809680  1
  O2-  O240  1  0.59864736  0.26252374  0.22953237  1
  O2-  O241  1  0.59703829  0.26059386  0.72924312  1
  O2-  O242  1  0.59107110  0.59485695  0.22948121  1
  O2-  O243  1  0.59293558  0.59342771  0.72834334  1
  O2-  O244  1  0.59168080  0.92200356  0.23439287  1
  O2-  O245  1  0.59638402  0.92820394  0.72572193  1
  O2-  O246  1  0.92946796  0.25920004  0.22810177  1
  O2-  O247  1  0.92906610  0.25978972  0.72862835  1
  O2-  O248  1  0.92949676  0.59803402  0.23330110  1
  O2-  O249  1  0.92775528  0.59439213  0.72965678  1
  O2-  O250  1  0.92903744  0.92859322  0.22884603  1
  O2-  O251  1  0.93172933  0.93171667  0.73048007  1
  O2-  O252  1  0.09205871  0.23916189  0.27177696  1
  O2-  O253  1  0.09205640  0.24002567  0.77191989  1
  O2-  O254  1  0.09705337  0.57396457  0.27180765  1
  O2-  O255  1  0.09829007  0.57398285  0.76991546  1
  O2-  O256  1  0.09211033  0.90628356  0.27506911  1
  O2-  O257  1  0.09653236  0.90372874  0.77193159  1
  O2-  O258  1  0.43092142  0.24110362  0.26994669  1
  O2-  O259  1  0.42941523  0.23920293  0.77177204  1
  O2-  O260  1  0.42785260  0.57222647  0.26547872  1
  O2-  O261  1  0.43021704  0.56826974  0.76874734  1
  O2-  O262  1  0.42140939  0.90771464  0.26491285  1
  O2-  O263  1  0.42759288  0.90364788  0.77081247  1
  O2-  O264  1  0.76374341  0.23565964  0.27374760  1
  O2-  O265  1  0.76321363  0.23754476  0.77103454  1
  O2-  O266  1  0.76169842  0.57220751  0.26736425  1
  O2-  O267  1  0.75967163  0.57002391  0.76290394  1
  O2-  O268  1  0.76283389  0.90474555  0.26773914  1
  O2-  O269  1  0.76340372  0.90818834  0.77145134  1
  O2-  O270  1  0.07230549  0.07390665  0.47556454  1
  O2-  O271  1  0.07080897  0.07219083  0.97592262  1
  O2-  O272  1  0.07200030  0.40548152  0.47800268  1
  O2-  O273  1  0.07466942  0.40518402  0.98020396  1
  O2-  O274  1  0.07156158  0.73942119  0.47899609  1
  O2-  O275  1  0.07105045  0.73685325  0.98052699  1
  O2-  O276  1  0.40240614  0.07366865  0.48008998  1
  O2-  O277  1  0.40507944  0.07345388  0.97738014  1
  O2-  O278  1  0.40333600  0.40348971  0.48423599  1
  O2-  O279  1  0.40324479  0.40394522  0.98161179  1
  O2-  O280  1  0.40283572  0.73601521  0.48355868  1
  O2-  O281  1  0.40396423  0.73907383  0.97637872  1
  O2-  O282  1  0.73781997  0.06994449  0.48131570  1
  O2-  O283  1  0.73851397  0.07246823  0.97849967  1
  O2-  O284  1  0.73912362  0.40208686  0.48090203  1
  O2-  O285  1  0.73775393  0.40431421  0.98574220  1
  O2-  O286  1  0.73645739  0.73404488  0.47770602  1
  O2-  O287  1  0.74161594  0.74267842  0.98107047  1
  O2-  O288  1  0.09272224  0.24045284  0.47652263  1
  O2-  O289  1  0.09054804  0.23893051  0.97890453  1
  O2-  O290  1  0.09654251  0.57364095  0.47765104  1
  O2-  O291  1  0.09912304  0.57423687  0.98006238  1
  O2-  O292  1  0.09512249  0.90643146  0.47771480  1
  O2-  O293  1  0.09486208  0.90383585  0.97649679  1
  O2-  O294  1  0.42970604  0.24005709  0.47968037  1
  O2-  O295  1  0.43105465  0.24074107  0.97900812  1
  O2-  O296  1  0.42691998  0.57338212  0.48875428  1
  O2-  O297  1  0.43018975  0.56820097  0.97845088  1
  O2-  O298  1  0.42633332  0.90858846  0.48410084  1
  O2-  O299  1  0.42294780  0.90315853  0.97963857  1
  O2-  O300  1  0.76347605  0.23695814  0.47733527  1
  O2-  O301  1  0.76338945  0.23673373  0.97738919  1
  O2-  O302  1  0.76632237  0.56864485  0.48447459  1
  O2-  O303  1  0.75662911  0.57428147  0.98716813  1
  O2-  O304  1  0.76273800  0.90504033  0.48051003  1
  O2-  O305  1  0.76467823  0.90855300  0.97998860  1
  O2-  O306  1  0.07150603  0.07280305  0.27486542  1
  O2-  O307  1  0.07076498  0.07395352  0.77331206  1
  O2-  O308  1  0.07514474  0.40495099  0.27105452  1
  O2-  O309  1  0.07296604  0.40446981  0.77053378  1
  O2-  O310  1  0.07087704  0.74024525  0.27325649  1
  O2-  O311  1  0.07095912  0.73659625  0.76759852  1
  O2-  O312  1  0.40519307  0.07532956  0.27204987  1
  O2-  O313  1  0.40323051  0.07162093  0.77108541  1
  O2-  O314  1  0.40276343  0.40425776  0.26646805  1
  O2-  O315  1  0.40202613  0.40424875  0.76872358  1
  O2-  O316  1  0.40294337  0.73766352  0.26810866  1
  O2-  O317  1  0.40269432  0.73773929  0.77135962  1
  O2-  O318  1  0.73815534  0.07034909  0.27042694  1
  O2-  O319  1  0.73809258  0.07245662  0.77003213  1
  O2-  O320  1  0.74114571  0.40476761  0.26974817  1
  O2-  O321  1  0.73646379  0.40181901  0.76356161  1
  O2-  O322  1  0.73742830  0.73635568  0.27255043  1
  O2-  O323  1  0.74036151  0.74091907  0.76883297  1
  O2-  O324  1  0.23309810  0.09693665  0.23175015  1
  O2-  O325  1  0.23596709  0.09478219  0.72745541  1
  O2-  O326  1  0.23981869  0.43065359  0.23022761  1
  O2-  O327  1  0.23811835  0.42871113  0.73039935  1
  O2-  O328  1  0.23473171  0.76403994  0.23234083  1
  O2-  O329  1  0.23874716  0.76051805  0.72482634  1
  O2-  O330  1  0.57120363  0.09897925  0.23397952  1
  O2-  O331  1  0.57078322  0.09792825  0.73410819  1
  O2-  O332  1  0.57092978  0.42734091  0.23101856  1
  O2-  O333  1  0.57281547  0.42671067  0.72659190  1
  O2-  O334  1  0.57097006  0.75747384  0.22523359  1
  O2-  O335  1  0.57135102  0.76190286  0.72990398  1
  O2-  O336  1  0.90531315  0.09435527  0.23168987  1
  O2-  O337  1  0.90473351  0.09484064  0.72882545  1
  O2-  O338  1  0.90871461  0.42205945  0.23127068  1
  O2-  O339  1  0.90536785  0.42247178  0.72646635  1
  O2-  O340  1  0.90438271  0.76311306  0.23121581  1
  O2-  O341  1  0.90614772  0.76372499  0.72769020  1
  O2-  O342  1  0.26352795  0.26286183  0.01803997  1
  O2-  O343  1  0.26408072  0.26229954  0.51913569  1
  O2-  O344  1  0.26221031  0.59616713  0.02299278  1
  O2-  O345  1  0.25863705  0.59412101  0.52430086  1
  O2-  O346  1  0.25757336  0.92774854  0.01779922  1
  O2-  O347  1  0.25957654  0.92929800  0.52087214  1
  O2-  O348  1  0.59791577  0.26309391  0.02074251  1
  O2-  O349  1  0.59624556  0.26048413  0.51971777  1
  O2-  O350  1  0.59047848  0.59389078  0.02088783  1
  O2-  O351  1  0.59230868  0.59444884  0.52148060  1
  O2-  O352  1  0.59130711  0.92207414  0.01583896  1
  O2-  O353  1  0.59627344  0.92780921  0.52284299  1
  O2-  O354  1  0.92915629  0.25840963  0.02297285  1
  O2-  O355  1  0.92937141  0.26086478  0.52043335  1
  O2-  O356  1  0.93028343  0.59610371  0.01631990  1
  O2-  O357  1  0.92905043  0.59529159  0.52069410  1
  O2-  O358  1  0.93055321  0.92833387  0.01899110  1
  O2-  O359  1  0.93041850  0.93207313  0.52069692  1
