# generated using pymatgen
data_Sr7Ca15Pr50Mn72O216
_symmetry_space_group_name_H-M   'P 1'
_cell_length_a   16.55892951
_cell_length_b   16.60393592
_cell_length_c   15.59441353
_cell_angle_alpha   90.00154374
_cell_angle_beta   89.99749596
_cell_angle_gamma   89.99695188
_symmetry_Int_Tables_number   1
_chemical_formula_structural   Sr7Ca15Pr50Mn72O216
_chemical_formula_sum   'Sr7 Ca15 Pr50 Mn72 O216'
_cell_volume   4287.58113490
_cell_formula_units_Z   1
loop_
 _symmetry_equiv_pos_site_id
 _symmetry_equiv_pos_as_xyz
  1  'x, y, z'
loop_
 _atom_type_symbol
 _atom_type_oxidation_number
  Sr2+  2.0
  Ca2+  2.0
  Pr3+  3.0
  Mn3.30+  3.3
  O2-  -2.0
loop_
 _atom_site_type_symbol
 _atom_site_label
 _atom_site_symmetry_multiplicity
 _atom_site_fract_x
 _atom_site_fract_y
 _atom_site_fract_z
 _atom_site_occupancy
  Sr2+  Sr0  1  0.33364296  0.99368522  0.37528796  1
  Sr2+  Sr1  1  0.33292732  0.65745743  0.37472157  1
  Sr2+  Sr2  1  0.66525337  0.34242189  0.12592318  1
  Sr2+  Sr3  1  0.50071592  0.50565144  0.12582114  1
  Sr2+  Sr4  1  0.00187621  0.00784857  0.62328725  1
  Sr2+  Sr5  1  0.83271175  0.82298020  0.87335596  1
  Sr2+  Sr6  1  0.83448500  0.17901923  0.12684337  1
  Ca2+  Ca7  1  0.16273740  0.14958851  0.37588205  1
  Ca2+  Ca8  1  0.49509711  0.15148271  0.37281404  1
  Ca2+  Ca9  1  1.00637520  0.98812214  0.37539817  1
  Ca2+  Ca10  1  0.16945026  0.85000163  0.62464538  1
  Ca2+  Ca11  1  0.33723821  0.31951606  0.87607793  1
  Ca2+  Ca12  1  0.50418305  0.18213471  0.12765890  1
  Ca2+  Ca13  1  0.83835769  0.51540406  0.62332188  1
  Ca2+  Ca14  1  0.82995879  0.48476055  0.37643660  1
  Ca2+  Ca15  1  1.00419175  0.31623233  0.37502391  1
  Ca2+  Ca16  1  0.66310161  0.01437080  0.62549654  1
  Ca2+  Ca17  1  0.32851446  0.34673719  0.62525707  1
  Ca2+  Ca18  1  -0.00328714  0.68076375  0.12447271  1
  Ca2+  Ca19  1  0.33314531  0.34645709  0.12492565  1
  Ca2+  Ca20  1  0.49667873  0.81809165  0.87478865  1
  Ca2+  Ca21  1  0.16057841  0.81845326  0.87278744  1
  Pr3+  Pr22  1  0.49925625  0.51203021  0.62400804  1
  Pr3+  Pr23  1  0.50252987  0.84869901  0.62573652  1
  Pr3+  Pr24  1  1.00376131  0.65402257  0.87584670  1
  Pr3+  Pr25  1  -0.00404464  0.34587081  0.62238183  1
  Pr3+  Pr26  1  1.00394776  0.65327660  0.37442364  1
  Pr3+  Pr27  1  0.66513133  0.34598201  0.62347218  1
  Pr3+  Pr28  1  0.66729451  0.32138316  0.87630069  1
  Pr3+  Pr29  1  0.82987461  0.15470601  0.87588999  1
  Pr3+  Pr30  1  0.83462496  0.82457954  0.37637714  1
  Pr3+  Pr31  1  -0.00274509  0.68010681  0.62509910  1
  Pr3+  Pr32  1  1.00346071  0.98492228  0.87507863  1
  Pr3+  Pr33  1  0.49665215  0.15615178  0.87710095  1
  Pr3+  Pr34  1  0.33276122  0.67718880  0.12638686  1
  Pr3+  Pr35  1  0.50053316  0.17667159  0.62188657  1
  Pr3+  Pr36  1  0.83557242  0.84781182  0.62632490  1
  Pr3+  Pr37  1  -0.00508182  0.34328344  0.12767345  1
  Pr3+  Pr38  1  0.49395562  0.82208797  0.37546029  1
  Pr3+  Pr39  1  0.17199350  0.17935578  0.62241154  1
  Pr3+  Pr40  1  0.67130146  0.65276415  0.37525387  1
  Pr3+  Pr41  1  0.16469745  0.48490766  0.87449816  1
  Pr3+  Pr42  1  0.16372325  0.82500569  0.37696973  1
  Pr3+  Pr43  1  0.50264247  0.84374688  0.12481805  1
  Pr3+  Pr44  1  0.33235408  0.01468513  0.12658255  1
  Pr3+  Pr45  1  0.16980270  0.51164764  0.12581330  1
  Pr3+  Pr46  1  0.83060592  0.48931106  0.87342989  1
  Pr3+  Pr47  1  0.16319956  0.48364620  0.37536247  1
  Pr3+  Pr48  1  0.32796423  0.01208370  0.62370227  1
  Pr3+  Pr49  1  0.83703993  0.84439966  0.12381987  1
  Pr3+  Pr50  1  1.00291391  0.31946878  0.87439587  1
  Pr3+  Pr51  1  0.66257691  0.67625744  0.12491964  1
  Pr3+  Pr52  1  0.33466415  0.65532287  0.87479106  1
  Pr3+  Pr53  1  0.66579582  0.67907068  0.62518767  1
  Pr3+  Pr54  1  0.83683171  0.17635803  0.62300871  1
  Pr3+  Pr55  1  0.16890606  0.84577813  0.12397488  1
  Pr3+  Pr56  1  0.66760026  0.99065003  0.37611303  1
  Pr3+  Pr57  1  0.66340831  0.01483786  0.12497292  1
  Pr3+  Pr58  1  0.83531143  0.15573788  0.37352154  1
  Pr3+  Pr59  1  0.33760572  0.31970140  0.37449035  1
  Pr3+  Pr60  1  -0.00297247  0.01415605  0.12669495  1
  Pr3+  Pr61  1  0.83641959  0.51347953  0.12705895  1
  Pr3+  Pr62  1  0.66720989  0.32112511  0.37345679  1
  Pr3+  Pr63  1  0.33748411  0.98357162  0.87542090  1
  Pr3+  Pr64  1  0.17179798  0.18154950  0.12794744  1
  Pr3+  Pr65  1  0.66843401  0.65517044  0.87450368  1
  Pr3+  Pr66  1  0.49522894  0.48385579  0.87571082  1
  Pr3+  Pr67  1  0.32725004  0.68371420  0.62344238  1
  Pr3+  Pr68  1  0.16705992  0.15533038  0.87528470  1
  Pr3+  Pr69  1  0.49648432  0.48815027  0.37375765  1
  Pr3+  Pr70  1  0.66974711  0.98708168  0.87429141  1
  Pr3+  Pr71  1  0.16970665  0.51132320  0.62382017  1
  Mn3.30+  Mn72  1  0.16789046  -0.00038970  -0.00017287  1
  Mn3.30+  Mn73  1  0.16544444  0.00060222  0.49933805  1
  Mn3.30+  Mn74  1  0.16899152  0.33308727  0.00053822  1
  Mn3.30+  Mn75  1  0.16655975  0.33092942  0.49877895  1
  Mn3.30+  Mn76  1  0.16581930  0.66740999  0.00093721  1
  Mn3.30+  Mn77  1  0.16561527  0.66745113  0.49962832  1
  Mn3.30+  Mn78  1  0.49976924  -0.00042712  -0.00025637  1
  Mn3.30+  Mn79  1  0.50026548  0.00188742  0.50012698  1
  Mn3.30+  Mn80  1  0.49795967  0.33194389  0.00186807  1
  Mn3.30+  Mn81  1  0.49802861  0.33248666  0.50111554  1
  Mn3.30+  Mn82  1  0.49988797  0.66587226  -0.00116759  1
  Mn3.30+  Mn83  1  0.49904330  0.66721611  0.50075060  1
  Mn3.30+  Mn84  1  0.83342502  -0.00011956  0.00030386  1
  Mn3.30+  Mn85  1  0.83468131  0.00106933  0.49920550  1
  Mn3.30+  Mn86  1  0.83333107  0.33424053  0.00132343  1
  Mn3.30+  Mn87  1  0.83467340  0.33470204  0.49754463  1
  Mn3.30+  Mn88  1  0.83477164  0.66726240  0.00006867  1
  Mn3.30+  Mn89  1  0.83437372  0.66495548  0.49946893  1
  Mn3.30+  Mn90  1  0.00322108  0.16675392  0.25255523  1
  Mn3.30+  Mn91  1  0.00088426  0.16522331  0.74838488  1
  Mn3.30+  Mn92  1  -0.00095844  0.49859850  0.25228980  1
  Mn3.30+  Mn93  1  -0.00067832  0.49977541  0.74844122  1
  Mn3.30+  Mn94  1  0.00057523  0.83313338  0.24904906  1
  Mn3.30+  Mn95  1  0.00218965  0.83308245  0.74989093  1
  Mn3.30+  Mn96  1  0.33527404  0.16867630  0.24989614  1
  Mn3.30+  Mn97  1  0.33362315  0.16843692  0.75062230  1
  Mn3.30+  Mn98  1  0.33210235  0.49918982  0.24974701  1
  Mn3.30+  Mn99  1  0.33263430  0.49813128  0.74966731  1
  Mn3.30+  Mn100  1  0.33343992  0.83482314  0.24973852  1
  Mn3.30+  Mn101  1  0.33132042  0.83338492  0.75181792  1
  Mn3.30+  Mn102  1  0.66374341  0.16731844  0.25147314  1
  Mn3.30+  Mn103  1  0.66566647  0.16615980  0.74787009  1
  Mn3.30+  Mn104  1  0.66791308  0.49864852  0.25145183  1
  Mn3.30+  Mn105  1  0.66690851  0.50018861  0.74718433  1
  Mn3.30+  Mn106  1  0.66713655  0.83343178  0.25092911  1
  Mn3.30+  Mn107  1  0.66496200  0.83471710  0.75039278  1
  Mn3.30+  Mn108  1  0.16574408  0.00092943  0.25097906  1
  Mn3.30+  Mn109  1  0.16765921  -0.00144287  0.75086717  1
  Mn3.30+  Mn110  1  0.16654993  0.33135414  0.25147542  1
  Mn3.30+  Mn111  1  0.16930180  0.33243128  0.74959917  1
  Mn3.30+  Mn112  1  0.16448812  0.66705917  0.24915036  1
  Mn3.30+  Mn113  1  0.16675930  0.66864783  0.74940865  1
  Mn3.30+  Mn114  1  0.49934368  0.00196990  0.24989966  1
  Mn3.30+  Mn115  1  0.50026431  -0.00028469  0.75094448  1
  Mn3.30+  Mn116  1  0.49969455  0.33154950  0.24948785  1
  Mn3.30+  Mn117  1  0.49650984  0.33204358  0.74769777  1
  Mn3.30+  Mn118  1  0.50005441  0.66547977  0.25068088  1
  Mn3.30+  Mn119  1  0.49859980  0.66758637  0.74955664  1
  Mn3.30+  Mn120  1  0.83535300  0.00054003  0.25181140  1
  Mn3.30+  Mn121  1  0.83258584  0.00080452  0.74815890  1
  Mn3.30+  Mn122  1  0.83484635  0.33457235  0.25304608  1
  Mn3.30+  Mn123  1  0.83324184  0.33441063  0.74821027  1
  Mn3.30+  Mn124  1  0.83536907  0.66643655  0.25088030  1
  Mn3.30+  Mn125  1  0.83359265  0.66651584  0.74933386  1
  Mn3.30+  Mn126  1  0.00042033  0.16650740  0.00012111  1
  Mn3.30+  Mn127  1  0.00350741  0.16558476  0.49911380  1
  Mn3.30+  Mn128  1  0.00029735  0.49990823  0.00139733  1
  Mn3.30+  Mn129  1  -0.00274877  0.49777082  0.49768482  1
  Mn3.30+  Mn130  1  0.00213464  0.83092055  -0.00039635  1
  Mn3.30+  Mn131  1  0.00054933  0.83511466  0.50123764  1
  Mn3.30+  Mn132  1  0.33467753  0.17011796  0.00274739  1
  Mn3.30+  Mn133  1  0.33405694  0.16754564  0.49725184  1
  Mn3.30+  Mn134  1  0.33276206  0.49779314  0.00055049  1
  Mn3.30+  Mn135  1  0.33233109  0.49910089  0.49956933  1
  Mn3.30+  Mn136  1  0.33323415  0.83193822  -0.00162621  1
  Mn3.30+  Mn137  1  0.33190169  0.83609146  0.50020805  1
  Mn3.30+  Mn138  1  0.66374937  0.16793541  0.00174389  1
  Mn3.30+  Mn139  1  0.66609684  0.16573463  0.49865241  1
  Mn3.30+  Mn140  1  0.66562289  0.49927933  0.00013857  1
  Mn3.30+  Mn141  1  0.66930163  0.49986206  0.50116453  1
  Mn3.30+  Mn142  1  0.66635089  0.83286672  -0.00143899  1
  Mn3.30+  Mn143  1  0.66578603  0.83510248  0.50049069  1
  O2-  O144  1  0.02593793  0.16346673  0.12618125  1
  O2-  O145  1  0.02625444  0.16524138  0.62503265  1
  O2-  O146  1  0.02670524  0.48901974  0.12618041  1
  O2-  O147  1  0.02677517  0.49313603  0.62187910  1
  O2-  O148  1  0.02530204  0.82618631  0.12371031  1
  O2-  O149  1  0.02581315  0.82811948  0.62627043  1
  O2-  O150  1  0.36177858  0.16036453  0.12533300  1
  O2-  O151  1  0.35679856  0.15794496  0.62376386  1
  O2-  O152  1  0.35006789  0.49573030  0.12461541  1
  O2-  O153  1  0.35546123  0.49263660  0.62519488  1
  O2-  O154  1  0.35883893  0.82750037  0.12277414  1
  O2-  O155  1  0.35795555  0.83249793  0.62604191  1
  O2-  O156  1  0.68647278  0.16249238  0.12654060  1
  O2-  O157  1  0.69295585  0.16162718  0.62266739  1
  O2-  O158  1  0.69097481  0.50185650  0.12740431  1
  O2-  O159  1  0.69551543  0.49411702  0.62461807  1
  O2-  O160  1  0.69288671  0.82586871  0.12481629  1
  O2-  O161  1  0.69237380  0.82627866  0.62378000  1
  O2-  O162  1  0.13855811  0.32928817  0.12698811  1
  O2-  O163  1  0.14022835  0.32809552  0.62381976  1
  O2-  O164  1  0.13825091  0.65942715  0.12701133  1
  O2-  O165  1  0.14038529  0.65725698  0.62444487  1
  O2-  O166  1  0.14142517  0.99547707  0.12338912  1
  O2-  O167  1  0.15157823  0.99810948  0.62714637  1
  O2-  O168  1  0.47531368  0.32800210  0.12609905  1
  O2-  O169  1  0.47005000  0.32521647  0.62447730  1
  O2-  O170  1  0.47847346  0.66471876  0.12587161  1
  O2-  O171  1  0.47275953  0.66113339  0.62576158  1
  O2-  O172  1  0.47486377  0.98920986  0.12275403  1
  O2-  O173  1  0.47194657  0.99557006  0.62820049  1
  O2-  O174  1  0.81650094  0.33383290  0.12788140  1
  O2-  O175  1  0.80804690  0.32280504  0.62352108  1
  O2-  O176  1  0.80647683  0.66241226  0.12677670  1
  O2-  O177  1  0.80910641  0.66070889  0.62297660  1
  O2-  O178  1  0.80927256  0.99366664  0.12692565  1
  O2-  O179  1  0.80662509  0.99747796  0.62343034  1
  O2-  O180  1  0.30544919  0.17324879  0.37314016  1
  O2-  O181  1  0.30937420  0.17544899  0.87787131  1
  O2-  O182  1  0.30874232  0.50147677  0.37507471  1
  O2-  O183  1  0.30741559  0.50828961  0.87464852  1
  O2-  O184  1  0.30925761  0.83637011  0.37479650  1
  O2-  O185  1  0.30355595  0.83564175  0.87681249  1
  O2-  O186  1  0.63767016  0.17081970  0.37631787  1
  O2-  O187  1  0.64124729  0.17258412  0.87413654  1
  O2-  O188  1  0.64097621  0.50509347  0.37788942  1
  O2-  O189  1  0.64105701  0.50581823  0.87045063  1
  O2-  O190  1  0.63806132  0.84111532  0.37758015  1
  O2-  O191  1  0.63822359  0.84038786  0.87379887  1
  O2-  O192  1  0.97836071  0.17279131  0.37620473  1
  O2-  O193  1  0.97528472  0.17192246  0.87312669  1
  O2-  O194  1  0.97060730  0.50870634  0.37543458  1
  O2-  O195  1  0.97461190  0.50542139  0.87613111  1
  O2-  O196  1  0.97825985  0.83987590  0.37495732  1
  O2-  O197  1  0.98109686  0.83623680  0.87493273  1
  O2-  O198  1  0.18487610  -0.00080921  0.37280942  1
  O2-  O199  1  0.19428003  0.00874529  0.87739353  1
  O2-  O200  1  0.19409005  0.33847361  0.37516693  1
  O2-  O201  1  0.19327803  0.33666124  0.87421552  1
  O2-  O202  1  0.18376329  0.67459483  0.37439042  1
  O2-  O203  1  0.19130828  0.67262584  0.87361465  1
  O2-  O204  1  0.52448107  0.00415520  0.37389132  1
  O2-  O205  1  0.52696482  0.00935805  0.87560979  1
  O2-  O206  1  0.52361466  0.34187261  0.37788590  1
  O2-  O207  1  0.52374387  0.33504815  0.87139455  1
  O2-  O208  1  0.52538384  0.67370332  0.37648813  1
  O2-  O209  1  0.52374982  0.67215481  0.87149821  1
  O2-  O210  1  0.86198102  0.00339371  0.37465980  1
  O2-  O211  1  0.85729536  0.00646960  0.87423713  1
  O2-  O212  1  0.86156539  0.33987022  0.37710026  1
  O2-  O213  1  0.85912910  0.34088397  0.87231334  1
  O2-  O214  1  0.86093692  0.67794540  0.37537849  1
  O2-  O215  1  0.85948318  0.66687257  0.87499853  1
  O2-  O216  1  0.24106548  0.09731375  0.02163231  1
  O2-  O217  1  0.24044259  0.09462865  0.51754379  1
  O2-  O218  1  0.23432887  0.43093732  0.01620985  1
  O2-  O219  1  0.23358326  0.42835446  0.51669247  1
  O2-  O220  1  0.24082390  0.75913598  0.02494094  1
  O2-  O221  1  0.23810996  0.76380393  0.52126452  1
  O2-  O222  1  0.57014759  0.09436868  0.02180713  1
  O2-  O223  1  0.57358955  0.09165828  0.52118483  1
  O2-  O224  1  0.57098119  0.42613339  0.01017805  1
  O2-  O225  1  0.57071207  0.42671248  0.52343196  1
  O2-  O226  1  0.57405060  0.76104955  0.02035797  1
  O2-  O227  1  0.57227146  0.76149246  0.52218405  1
  O2-  O228  1  0.90857886  0.09301505  0.01797280  1
  O2-  O229  1  0.90514061  0.09768992  0.51641101  1
  O2-  O230  1  0.90545080  0.43005193  0.01925369  1
  O2-  O231  1  0.90406370  0.42800373  0.52542772  1
  O2-  O232  1  0.90532061  0.76055212  0.02019791  1
  O2-  O233  1  0.90478316  0.76140250  0.52140032  1
  O2-  O234  1  0.26436643  0.26433391  0.22673016  1
  O2-  O235  1  0.26128719  0.26100561  0.72567357  1
  O2-  O236  1  0.25746849  0.59437571  0.22918740  1
  O2-  O237  1  0.26088747  0.59684293  0.72904895  1
  O2-  O238  1  0.25922449  0.92741031  0.22618380  1
  O2-  O239  1  0.26599060  0.93150875  0.73577144  1
  O2-  O240  1  0.59356407  0.26077097  0.23598545  1
  O2-  O241  1  0.59455715  0.26131237  0.72732869  1
  O2-  O242  1  0.59833275  0.59699732  0.23713035  1
  O2-  O243  1  0.59426483  0.59343179  0.72635982  1
  O2-  O244  1  0.59623884  0.92774851  0.22919104  1
  O2-  O245  1  0.59504415  0.92988217  0.72722232  1
  O2-  O246  1  0.93143508  0.26149536  0.23614450  1
  O2-  O247  1  0.92755788  0.26275993  0.72975272  1
  O2-  O248  1  0.92926493  0.59718438  0.22703857  1
  O2-  O249  1  0.93136749  0.59399066  0.73056848  1
  O2-  O250  1  0.92851101  0.92432659  0.22597454  1
  O2-  O251  1  0.92427394  0.92572469  0.73362581  1
  O2-  O252  1  0.10179808  0.23277341  0.26850267  1
  O2-  O253  1  0.09602543  0.23909936  0.77056850  1
  O2-  O254  1  0.09293291  0.56900219  0.27207631  1
  O2-  O255  1  0.09617159  0.57131564  0.77073096  1
  O2-  O256  1  0.09664033  0.90170524  0.26430247  1
  O2-  O257  1  0.09625187  0.90749707  0.77233161  1
  O2-  O258  1  0.42754927  0.23932084  0.27521972  1
  O2-  O259  1  0.43086498  0.23467109  0.76707125  1
  O2-  O260  1  0.42894202  0.57328948  0.26826713  1
  O2-  O261  1  0.42772039  0.57039826  0.76925882  1
  O2-  O262  1  0.43142688  0.90489789  0.26615315  1
  O2-  O263  1  0.43093426  0.90405246  0.77371114  1
  O2-  O264  1  0.75971443  0.24154236  0.27409432  1
  O2-  O265  1  0.76159318  0.24042771  0.77100929  1
  O2-  O266  1  0.76446897  0.57289016  0.27320380  1
  O2-  O267  1  0.76051000  0.57515786  0.77117151  1
  O2-  O268  1  0.76061548  0.90608949  0.27220691  1
  O2-  O269  1  0.75755097  0.90826926  0.76729501  1
  O2-  O270  1  0.07174433  0.07037051  0.48050371  1
  O2-  O271  1  0.07253508  0.07165651  0.97955026  1
  O2-  O272  1  0.06845704  0.40242525  0.47756201  1
  O2-  O273  1  0.07132381  0.40455562  0.97775228  1
  O2-  O274  1  0.06961197  0.73869396  0.48119662  1
  O2-  O275  1  0.07220353  0.73713287  0.98049739  1
  O2-  O276  1  0.40739619  0.07412250  0.48476732  1
  O2-  O277  1  0.40482593  0.07058675  0.97939060  1
  O2-  O278  1  0.40616466  0.40614701  0.47899500  1
  O2-  O279  1  0.40443571  0.40516606  0.97794787  1
  O2-  O280  1  0.40561045  0.74267908  0.48431659  1
  O2-  O281  1  0.40292522  0.73672104  0.98185043  1
  O2-  O282  1  0.74360859  0.07431240  0.47420369  1
  O2-  O283  1  0.73606041  0.07505139  0.98037492  1
  O2-  O284  1  0.73603615  0.40301485  0.48150116  1
  O2-  O285  1  0.74031949  0.40871187  0.97705541  1
  O2-  O286  1  0.73877650  0.74062420  0.47919787  1
  O2-  O287  1  0.73549698  0.73759090  0.98074559  1
  O2-  O288  1  0.10046145  0.23416982  0.48214560  1
  O2-  O289  1  0.09640485  0.23842743  0.97986715  1
  O2-  O290  1  0.09267427  0.56918925  0.47849008  1
  O2-  O291  1  0.09458597  0.56993420  0.97847583  1
  O2-  O292  1  0.09404604  0.90476587  0.48405876  1
  O2-  O293  1  0.09601810  0.90283766  0.97983210  1
  O2-  O294  1  0.42931306  0.23715982  0.47649615  1
  O2-  O295  1  0.42798707  0.23856400  0.98010120  1
  O2-  O296  1  0.43075453  0.57057425  0.48437407  1
  O2-  O297  1  0.42496621  0.57141066  0.97796950  1
  O2-  O298  1  0.43101834  0.90481554  0.48418448  1
  O2-  O299  1  0.42886527  0.90301567  0.97640700  1
  O2-  O300  1  0.76158983  0.24036761  0.47665343  1
  O2-  O301  1  0.75936814  0.24195109  0.97840714  1
  O2-  O302  1  0.76320971  0.57493037  0.47579962  1
  O2-  O303  1  0.76248374  0.57270068  0.97986531  1
  O2-  O304  1  0.75915406  0.90690759  0.47796064  1
  O2-  O305  1  0.75748740  0.90719081  0.98167530  1
  O2-  O306  1  0.06959096  0.06773613  0.26605563  1
  O2-  O307  1  0.07530300  0.07152380  0.77371595  1
  O2-  O308  1  0.07093701  0.40121552  0.27427154  1
  O2-  O309  1  0.07047107  0.40497991  0.76964330  1
  O2-  O310  1  0.07168112  0.74017874  0.27087210  1
  O2-  O311  1  0.07009531  0.73430898  0.76773455  1
  O2-  O312  1  0.40561007  0.07260879  0.26442807  1
  O2-  O313  1  0.40459768  0.07104750  0.77257227  1
  O2-  O314  1  0.40708329  0.40599285  0.27004570  1
  O2-  O315  1  0.40579216  0.40389047  0.77323032  1
  O2-  O316  1  0.40908179  0.74129314  0.26631300  1
  O2-  O317  1  0.39996304  0.73753873  0.76686990  1
  O2-  O318  1  0.73815645  0.07430867  0.27130658  1
  O2-  O319  1  0.73923964  0.07461096  0.77240360  1
  O2-  O320  1  0.73998835  0.40735943  0.27283430  1
  O2-  O321  1  0.73753166  0.40492539  0.77003560  1
  O2-  O322  1  0.73888151  0.73961783  0.27276978  1
  O2-  O323  1  0.73470778  0.73864587  0.76650464  1
  O2-  O324  1  0.24102495  0.09442274  0.22815625  1
  O2-  O325  1  0.23907812  0.09683244  0.73288231  1
  O2-  O326  1  0.23296901  0.42872745  0.23420150  1
  O2-  O327  1  0.23478075  0.43025716  0.73228821  1
  O2-  O328  1  0.23915507  0.76024335  0.22840737  1
  O2-  O329  1  0.23551600  0.76160131  0.72466699  1
  O2-  O330  1  0.57198831  0.09122244  0.22697418  1
  O2-  O331  1  0.56922509  0.09557303  0.72997775  1
  O2-  O332  1  0.57326679  0.42671494  0.23859907  1
  O2-  O333  1  0.56986283  0.42568775  0.72725481  1
  O2-  O334  1  0.57354416  0.76098231  0.23068971  1
  O2-  O335  1  0.57218758  0.76113716  0.72671991  1
  O2-  O336  1  0.90838155  0.09409897  0.23305648  1
  O2-  O337  1  0.90303927  0.09657897  0.73248055  1
  O2-  O338  1  0.90704812  0.42963625  0.22902177  1
  O2-  O339  1  0.90286945  0.42859333  0.72736523  1
  O2-  O340  1  0.90276698  0.76366986  0.23225795  1
  O2-  O341  1  0.90487901  0.75883178  0.72708104  1
  O2-  O342  1  0.26101204  0.26238949  0.02632032  1
  O2-  O343  1  0.26480475  0.26292323  0.52183242  1
  O2-  O344  1  0.26019477  0.59535782  0.02015076  1
  O2-  O345  1  0.25941911  0.59400106  0.52094597  1
  O2-  O346  1  0.26376245  0.92828720  0.02140053  1
  O2-  O347  1  0.26102700  0.92868800  0.51813124  1
  O2-  O348  1  0.59314917  0.26063978  0.01364263  1
  O2-  O349  1  0.59342027  0.26180564  0.52224265  1
  O2-  O350  1  0.59731547  0.59568516  0.01425703  1
  O2-  O351  1  0.59641344  0.59398514  0.52153585  1
  O2-  O352  1  0.59533332  0.92824005  0.02133294  1
  O2-  O353  1  0.59503653  0.92907677  0.52302775  1
  O2-  O354  1  0.93110335  0.26392672  0.01410687  1
  O2-  O355  1  0.92793820  0.25958832  0.52023147  1
  O2-  O356  1  0.93006134  0.59331866  0.02354346  1
  O2-  O357  1  0.93123971  0.59632862  0.51917983  1
  O2-  O358  1  0.93126478  0.92521903  0.01932570  1
  O2-  O359  1  0.92190556  0.92307238  0.52041754  1
