# generated using pymatgen
data_Sr7Ca15Pr50Mn72O216
_symmetry_space_group_name_H-M   'P 1'
_cell_length_a   16.55722838
_cell_length_b   16.60618449
_cell_length_c   15.59438665
_cell_angle_alpha   90.00106001
_cell_angle_beta   89.99139046
_cell_angle_gamma   89.99944681
_symmetry_Int_Tables_number   1
_chemical_formula_structural   Sr7Ca15Pr50Mn72O216
_chemical_formula_sum   'Sr7 Ca15 Pr50 Mn72 O216'
_cell_volume   4287.71381667
_cell_formula_units_Z   1
loop_
 _symmetry_equiv_pos_site_id
 _symmetry_equiv_pos_as_xyz
  1  'x, y, z'
loop_
 _atom_type_symbol
 _atom_type_oxidation_number
  Sr2+  2.0
  Ca2+  2.0
  Pr3+  3.0
  Mn3.30+  3.3
  O2-  -2.0
loop_
 _atom_site_type_symbol
 _atom_site_label
 _atom_site_symmetry_multiplicity
 _atom_site_fract_x
 _atom_site_fract_y
 _atom_site_fract_z
 _atom_site_occupancy
  Sr2+  Sr0  1  0.50191918  0.17854104  0.62493466  1
  Sr2+  Sr1  1  0.83217606  0.17509552  0.62293450  1
  Sr2+  Sr2  1  0.66605410  0.32447415  0.37597872  1
  Sr2+  Sr3  1  0.50294895  0.49170598  0.37260086  1
  Sr2+  Sr4  1  0.82824583  0.15729147  0.37680180  1
  Sr2+  Sr5  1  0.67125803  0.99038584  0.37657380  1
  Sr2+  Sr6  1  0.83282358  0.48968106  0.87634723  1
  Ca2+  Ca7  1  0.82464556  0.81743965  0.37381500  1
  Ca2+  Ca8  1  0.83414805  0.51534872  0.12436307  1
  Ca2+  Ca9  1  0.66994931  0.65459578  0.37532183  1
  Ca2+  Ca10  1  0.49799110  0.81642513  0.87438824  1
  Ca2+  Ca11  1  0.82908600  0.81801414  0.87585182  1
  Ca2+  Ca12  1  0.33269967  0.68060755  0.62346373  1
  Ca2+  Ca13  1  0.66250062  0.68027973  0.62410162  1
  Ca2+  Ca14  1  0.34119307  0.98581659  0.37498337  1
  Ca2+  Ca15  1  0.49637710  0.48633659  0.87629219  1
  Ca2+  Ca16  1  1.00324794  0.31847658  0.87345803  1
  Ca2+  Ca17  1  0.50538820  0.51487061  0.12462148  1
  Ca2+  Ca18  1  0.17338129  0.18597655  0.62487999  1
  Ca2+  Ca19  1  0.83531927  0.84582549  0.12722845  1
  Ca2+  Ca20  1  0.33214189  0.34630714  0.62418856  1
  Ca2+  Ca21  1  0.33035757  0.01375949  0.12560000  1
  Pr3+  Pr22  1  0.67006250  0.98519241  0.87332289  1
  Pr3+  Pr23  1  0.66691995  0.67725842  0.12509990  1
  Pr3+  Pr24  1  0.50150689  0.17790284  0.12501974  1
  Pr3+  Pr25  1  0.99988968  0.31947001  0.37583968  1
  Pr3+  Pr26  1  0.17392908  0.51415075  0.62498957  1
  Pr3+  Pr27  1  0.33584185  0.32106028  0.87394937  1
  Pr3+  Pr28  1  0.82447118  0.48894129  0.37336844  1
  Pr3+  Pr29  1  0.17170910  0.84443976  0.62444313  1
  Pr3+  Pr30  1  -0.00338178  0.34388963  0.62627810  1
  Pr3+  Pr31  1  0.99887258  0.65479358  0.37562366  1
  Pr3+  Pr32  1  0.66681392  0.32310916  0.87455651  1
  Pr3+  Pr33  1  0.49591557  0.15373421  0.87380316  1
  Pr3+  Pr34  1  -0.00706406  0.34854815  0.12385540  1
  Pr3+  Pr35  1  0.33492814  0.67749558  0.12699157  1
  Pr3+  Pr36  1  1.00234754  0.98670606  0.87415941  1
  Pr3+  Pr37  1  0.17077277  0.84807665  0.12544358  1
  Pr3+  Pr38  1  -0.00816089  0.68214421  0.12489887  1
  Pr3+  Pr39  1  -0.00323212  0.67799295  0.62546208  1
  Pr3+  Pr40  1  0.50440832  0.84511183  0.12358803  1
  Pr3+  Pr41  1  0.33875316  0.98414742  0.87570254  1
  Pr3+  Pr42  1  0.16472958  0.15272011  0.37690958  1
  Pr3+  Pr43  1  0.33058488  0.01563193  0.62341191  1
  Pr3+  Pr44  1  0.66683953  0.01092748  0.12601250  1
  Pr3+  Pr45  1  0.83349010  0.84412849  0.62539766  1
  Pr3+  Pr46  1  0.16432668  0.81991925  0.87489275  1
  Pr3+  Pr47  1  0.33161427  0.34801449  0.12471470  1
  Pr3+  Pr48  1  0.50113814  0.82087699  0.37500940  1
  Pr3+  Pr49  1  0.16256851  0.15519298  0.87293389  1
  Pr3+  Pr50  1  0.83510227  0.17853576  0.12693700  1
  Pr3+  Pr51  1  0.66739543  0.65395284  0.87370063  1
  Pr3+  Pr52  1  -0.00354108  0.01136901  0.12533951  1
  Pr3+  Pr53  1  0.66284285  0.34327794  0.62389739  1
  Pr3+  Pr54  1  0.50411346  0.84327283  0.62612819  1
  Pr3+  Pr55  1  0.49762538  0.15294229  0.37607996  1
  Pr3+  Pr56  1  -0.00064220  0.01373801  0.62527169  1
  Pr3+  Pr57  1  0.33886454  0.32152652  0.37594068  1
  Pr3+  Pr58  1  0.16416028  0.48689703  0.37513394  1
  Pr3+  Pr59  1  0.16979356  0.17910109  0.12511943  1
  Pr3+  Pr60  1  0.50201280  0.51200085  0.62529155  1
  Pr3+  Pr61  1  0.66377968  0.34869801  0.12564326  1
  Pr3+  Pr62  1  0.34014256  0.65248703  0.87328492  1
  Pr3+  Pr63  1  0.66303019  0.01393830  0.62378545  1
  Pr3+  Pr64  1  0.16650234  0.82214868  0.37541209  1
  Pr3+  Pr65  1  0.83177405  0.51162810  0.62600308  1
  Pr3+  Pr66  1  0.33892080  0.65374836  0.37663837  1
  Pr3+  Pr67  1  0.99800468  0.98828624  0.37641610  1
  Pr3+  Pr68  1  0.83377490  0.15795203  0.87339355  1
  Pr3+  Pr69  1  0.16052184  0.48484320  0.87508210  1
  Pr3+  Pr70  1  0.16816738  0.51442503  0.12505036  1
  Pr3+  Pr71  1  1.00058407  0.65487685  0.87470730  1
  Mn3.30+  Mn72  1  0.16855407  0.00033422  0.00032666  1
  Mn3.30+  Mn73  1  0.16944230  0.00043293  0.49861977  1
  Mn3.30+  Mn74  1  0.16435698  0.33330098  0.00035740  1
  Mn3.30+  Mn75  1  0.16844351  0.33335140  0.50108968  1
  Mn3.30+  Mn76  1  0.16710171  0.66731646  0.00083665  1
  Mn3.30+  Mn77  1  0.16835618  0.66705049  0.49969651  1
  Mn3.30+  Mn78  1  0.49955262  -0.00186806  0.00058341  1
  Mn3.30+  Mn79  1  0.49952059  -0.00124101  0.49867790  1
  Mn3.30+  Mn80  1  0.49936638  0.33612097  0.00036171  1
  Mn3.30+  Mn81  1  0.49797942  0.33413436  0.50034498  1
  Mn3.30+  Mn82  1  0.50079206  0.66514354  -0.00054797  1
  Mn3.30+  Mn83  1  0.50190386  0.66609210  0.50092244  1
  Mn3.30+  Mn84  1  0.83345306  -0.00257171  -0.00156361  1
  Mn3.30+  Mn85  1  0.83274083  -0.00114235  0.50021997  1
  Mn3.30+  Mn86  1  0.83342856  0.33473726  -0.00212821  1
  Mn3.30+  Mn87  1  0.83152840  0.33335228  0.50183490  1
  Mn3.30+  Mn88  1  0.83215274  0.66781206  -0.00106921  1
  Mn3.30+  Mn89  1  0.82965430  0.66807166  0.50120660  1
  Mn3.30+  Mn90  1  0.00024089  0.16537287  0.25166075  1
  Mn3.30+  Mn91  1  0.00162466  0.16817723  0.74766140  1
  Mn3.30+  Mn92  1  -0.00330304  0.50085110  0.25043305  1
  Mn3.30+  Mn93  1  0.00087236  0.49843162  0.75005583  1
  Mn3.30+  Mn94  1  -0.00296731  0.83405510  0.25219029  1
  Mn3.30+  Mn95  1  -0.00055046  0.83257615  0.75017644  1
  Mn3.30+  Mn96  1  0.33323366  0.16409087  0.25018703  1
  Mn3.30+  Mn97  1  0.33119483  0.16878898  0.74772698  1
  Mn3.30+  Mn98  1  0.33541459  0.50089121  0.24865666  1
  Mn3.30+  Mn99  1  0.33447246  0.49967639  0.75017461  1
  Mn3.30+  Mn100  1  0.33472278  0.83600036  0.24972472  1
  Mn3.30+  Mn101  1  0.33601610  0.83139029  0.74990904  1
  Mn3.30+  Mn102  1  0.66728359  0.16688500  0.25012075  1
  Mn3.30+  Mn103  1  0.66487378  0.16729397  0.75058631  1
  Mn3.30+  Mn104  1  0.66696036  0.50211770  0.24794322  1
  Mn3.30+  Mn105  1  0.66455034  0.50031552  0.75177841  1
  Mn3.30+  Mn106  1  0.67035667  0.83282558  0.24964720  1
  Mn3.30+  Mn107  1  0.66651699  0.83094452  0.75160781  1
  Mn3.30+  Mn108  1  0.16980887  -0.00046766  0.25219603  1
  Mn3.30+  Mn109  1  0.16873238  0.00120150  0.74874546  1
  Mn3.30+  Mn110  1  0.16597888  0.33329256  0.24992814  1
  Mn3.30+  Mn111  1  0.16715252  0.33366158  0.74853583  1
  Mn3.30+  Mn112  1  0.16538999  0.66746052  0.25049045  1
  Mn3.30+  Mn113  1  0.17014446  0.66676507  0.74951088  1
  Mn3.30+  Mn114  1  0.49872972  -0.00091947  0.24909134  1
  Mn3.30+  Mn115  1  0.49994213  -0.00231333  0.75119641  1
  Mn3.30+  Mn116  1  0.49994971  0.33465780  0.24982020  1
  Mn3.30+  Mn117  1  0.49743937  0.33516615  0.74935533  1
  Mn3.30+  Mn118  1  0.50283308  0.66589682  0.25050468  1
  Mn3.30+  Mn119  1  0.50017912  0.66570074  0.74898992  1
  Mn3.30+  Mn120  1  0.83237924  -0.00247768  0.25051898  1
  Mn3.30+  Mn121  1  0.83410201  -0.00084829  0.75060878  1
  Mn3.30+  Mn122  1  0.83133158  0.33487885  0.24874844  1
  Mn3.30+  Mn123  1  0.83367137  0.33322364  0.75170918  1
  Mn3.30+  Mn124  1  0.83143265  0.66817627  0.24993814  1
  Mn3.30+  Mn125  1  0.83051845  0.66729199  0.74977914  1
  Mn3.30+  Mn126  1  0.00010820  0.16706469  -0.00047869  1
  Mn3.30+  Mn127  1  0.00134108  0.16628013  0.50154828  1
  Mn3.30+  Mn128  1  -0.00197246  0.50000590  -0.00009797  1
  Mn3.30+  Mn129  1  -0.00078067  0.49944675  0.50060658  1
  Mn3.30+  Mn130  1  -0.00262402  0.83365290  -0.00043495  1
  Mn3.30+  Mn131  1  -0.00158799  0.83294584  0.49901310  1
  Mn3.30+  Mn132  1  0.33244828  0.16549532  0.00026810  1
  Mn3.30+  Mn133  1  0.33159557  0.16781419  0.50090560  1
  Mn3.30+  Mn134  1  0.33504829  0.50107662  0.00026867  1
  Mn3.30+  Mn135  1  0.33492545  0.49975674  0.50100011  1
  Mn3.30+  Mn136  1  0.33546792  0.83279147  0.00042328  1
  Mn3.30+  Mn137  1  0.33530641  0.83390807  0.49951047  1
  Mn3.30+  Mn138  1  0.66632285  0.16639537  -0.00066050  1
  Mn3.30+  Mn139  1  0.66560981  0.16791114  0.49967193  1
  Mn3.30+  Mn140  1  0.66543171  0.50068852  -0.00037279  1
  Mn3.30+  Mn141  1  0.66595393  0.50258771  0.50030360  1
  Mn3.30+  Mn142  1  0.66850941  0.83235706  -0.00120328  1
  Mn3.30+  Mn143  1  0.66864826  0.83130957  0.49963741  1
  O2-  O144  1  0.02562269  0.15979616  0.12768006  1
  O2-  O145  1  0.03032623  0.16187954  0.62398153  1
  O2-  O146  1  0.02521940  0.49655053  0.12624782  1
  O2-  O147  1  0.02885664  0.49403487  0.62648078  1
  O2-  O148  1  0.02617615  0.83062553  0.12634381  1
  O2-  O149  1  0.02756740  0.82677739  0.62479749  1
  O2-  O150  1  0.35763146  0.15878744  0.12585463  1
  O2-  O151  1  0.35433990  0.16110274  0.62546149  1
  O2-  O152  1  0.36075621  0.49611897  0.12451034  1
  O2-  O153  1  0.35695160  0.49089202  0.62679992  1
  O2-  O154  1  0.36021604  0.82469297  0.12497419  1
  O2-  O155  1  0.35895296  0.82766195  0.62617687  1
  O2-  O156  1  0.69055273  0.16045209  0.12162125  1
  O2-  O157  1  0.68102246  0.16419247  0.62767162  1
  O2-  O158  1  0.69303739  0.49667454  0.12220957  1
  O2-  O159  1  0.68893868  0.49117739  0.62750441  1
  O2-  O160  1  0.69453889  0.82588377  0.12301335  1
  O2-  O161  1  0.69070499  0.82632001  0.62661433  1
  O2-  O162  1  0.13814594  0.32786028  0.12638808  1
  O2-  O163  1  0.14061081  0.33244439  0.62413215  1
  O2-  O164  1  0.13818101  0.66286320  0.12856980  1
  O2-  O165  1  0.14185709  0.66331117  0.62462883  1
  O2-  O166  1  0.14034766  0.99533742  0.12779513  1
  O2-  O167  1  0.14255182  0.99012178  0.62486981  1
  O2-  O168  1  0.47347436  0.32441604  0.12377989  1
  O2-  O169  1  0.47430934  0.33367861  0.62630629  1
  O2-  O170  1  0.47724485  0.66218336  0.12500296  1
  O2-  O171  1  0.47268735  0.66088369  0.62530871  1
  O2-  O172  1  0.47237005  0.99348933  0.12306751  1
  O2-  O173  1  0.47507193  0.99185068  0.62656988  1
  O2-  O174  1  0.80893891  0.32561202  0.12151999  1
  O2-  O175  1  0.80859581  0.33297548  0.62864560  1
  O2-  O176  1  0.81125573  0.65976744  0.12339332  1
  O2-  O177  1  0.80571357  0.66056331  0.62650596  1
  O2-  O178  1  0.81124914  0.99200573  0.12080127  1
  O2-  O179  1  0.80855453  0.99220013  0.62775931  1
  O2-  O180  1  0.30673547  0.17598959  0.37513478  1
  O2-  O181  1  0.30629222  0.17291095  0.87259243  1
  O2-  O182  1  0.30829581  0.50557420  0.37232322  1
  O2-  O183  1  0.30472325  0.50643009  0.87628593  1
  O2-  O184  1  0.30985397  0.84019209  0.37273795  1
  O2-  O185  1  0.30761598  0.83690137  0.87569715  1
  O2-  O186  1  0.64374839  0.16698405  0.37339831  1
  O2-  O187  1  0.64008487  0.17218643  0.87685090  1
  O2-  O188  1  0.65273879  0.50761587  0.37494773  1
  O2-  O189  1  0.63768412  0.50518227  0.87547058  1
  O2-  O190  1  0.64348220  0.83775006  0.37419510  1
  O2-  O191  1  0.63820698  0.83889793  0.87552563  1
  O2-  O192  1  0.97941682  0.17024617  0.37540233  1
  O2-  O193  1  0.97799150  0.17141216  0.87304410  1
  O2-  O194  1  0.97052492  0.50537981  0.37468760  1
  O2-  O195  1  0.98261132  0.50872236  0.87308863  1
  O2-  O196  1  0.96948653  0.83981857  0.37696431  1
  O2-  O197  1  0.97338593  0.83874369  0.87291267  1
  O2-  O198  1  0.19899462  0.00497578  0.37494061  1
  O2-  O199  1  0.19443490  0.00655591  0.87234559  1
  O2-  O200  1  0.19350267  0.33945092  0.37364526  1
  O2-  O201  1  0.19191448  0.33746771  0.87541670  1
  O2-  O202  1  0.19318142  0.67205703  0.37346141  1
  O2-  O203  1  0.19436494  0.67267629  0.87385200  1
  O2-  O204  1  0.52073357  0.00331761  0.37330686  1
  O2-  O205  1  0.52522727  0.00664943  0.87684991  1
  O2-  O206  1  0.51582344  0.33466201  0.37238887  1
  O2-  O207  1  0.52264095  0.34007844  0.87746156  1
  O2-  O208  1  0.52668557  0.67245152  0.37509761  1
  O2-  O209  1  0.52375350  0.67310672  0.87468873  1
  O2-  O210  1  0.85487034  0.00402021  0.37735001  1
  O2-  O211  1  0.85979785  0.01000694  0.87417621  1
  O2-  O212  1  0.85616967  0.34184900  0.37522514  1
  O2-  O213  1  0.86014579  0.33243841  0.87532761  1
  O2-  O214  1  0.85670933  0.67114547  0.37683771  1
  O2-  O215  1  0.85813995  0.67340507  0.87357944  1
  O2-  O216  1  0.23604034  0.09616666  0.01810238  1
  O2-  O217  1  0.23634258  0.09844048  0.52147810  1
  O2-  O218  1  0.23660684  0.42966508  0.02143970  1
  O2-  O219  1  0.23467646  0.43195903  0.51537928  1
  O2-  O220  1  0.23727570  0.76162640  0.02153247  1
  O2-  O221  1  0.23935217  0.76462521  0.51581410  1
  O2-  O222  1  0.57181228  0.09349047  0.02083179  1
  O2-  O223  1  0.57161482  0.09032927  0.51531148  1
  O2-  O224  1  0.57129916  0.42766902  0.02448404  1
  O2-  O225  1  0.57345931  0.42781427  0.51961345  1
  O2-  O226  1  0.57397729  0.75918517  0.02165880  1
  O2-  O227  1  0.57020981  0.76300714  0.51864482  1
  O2-  O228  1  0.90511323  0.09489703  0.01980696  1
  O2-  O229  1  0.91376605  0.08914455  0.52031955  1
  O2-  O230  1  0.90429328  0.42853181  0.02309410  1
  O2-  O231  1  0.90686076  0.42742488  0.52346069  1
  O2-  O232  1  0.90422937  0.76246572  0.02263781  1
  O2-  O233  1  0.90485880  0.75726225  0.52477918  1
  O2-  O234  1  0.26229546  0.25989761  0.22703895  1
  O2-  O235  1  0.26197392  0.26807180  0.73041616  1
  O2-  O236  1  0.26028610  0.59249761  0.22816166  1
  O2-  O237  1  0.26574749  0.59622773  0.72739391  1
  O2-  O238  1  0.26168435  0.92781098  0.22455853  1
  O2-  O239  1  0.26371300  0.92973528  0.73037528  1
  O2-  O240  1  0.59070696  0.25994970  0.22660682  1
  O2-  O241  1  0.59337996  0.26515451  0.73621853  1
  O2-  O242  1  0.59575809  0.59376599  0.22926054  1
  O2-  O243  1  0.59367153  0.59549921  0.72749862  1
  O2-  O244  1  0.59532587  0.92487515  0.22517743  1
  O2-  O245  1  0.59698860  0.92655638  0.72963056  1
  O2-  O246  1  0.92682987  0.26337470  0.23127908  1
  O2-  O247  1  0.92942654  0.25976414  0.73025378  1
  O2-  O248  1  0.93050343  0.59917042  0.23383181  1
  O2-  O249  1  0.92850487  0.59252643  0.72928567  1
  O2-  O250  1  0.93203246  0.93089380  0.23338552  1
  O2-  O251  1  0.93016368  0.92707271  0.72861231  1
  O2-  O252  1  0.09553800  0.23874944  0.27154121  1
  O2-  O253  1  0.09667003  0.23903871  0.76817713  1
  O2-  O254  1  0.09117807  0.57025487  0.27254670  1
  O2-  O255  1  0.09749147  0.57314662  0.76881176  1
  O2-  O256  1  0.09708861  0.90647592  0.27308329  1
  O2-  O257  1  0.09681721  0.90629508  0.77139278  1
  O2-  O258  1  0.42676516  0.23642642  0.26849002  1
  O2-  O259  1  0.42674953  0.24007408  0.77322090  1
  O2-  O260  1  0.42418309  0.57810285  0.26886098  1
  O2-  O261  1  0.43012975  0.56934664  0.77191660  1
  O2-  O262  1  0.43109526  0.90289367  0.26750562  1
  O2-  O263  1  0.43003552  0.90350606  0.77327376  1
  O2-  O264  1  0.76064710  0.23946496  0.26128146  1
  O2-  O265  1  0.75910774  0.24069839  0.77289412  1
  O2-  O266  1  0.76467105  0.57222776  0.26513618  1
  O2-  O267  1  0.75843723  0.57351087  0.76908144  1
  O2-  O268  1  0.76473208  0.90060484  0.26611204  1
  O2-  O269  1  0.76202145  0.90400658  0.77215087  1
  O2-  O270  1  0.07592231  0.06957625  0.47797643  1
  O2-  O271  1  0.07192963  0.07108554  0.97899658  1
  O2-  O272  1  0.07220086  0.40471494  0.47696346  1
  O2-  O273  1  0.07012576  0.40354109  0.98033743  1
  O2-  O274  1  0.07095899  0.74034589  0.47844495  1
  O2-  O275  1  0.06984778  0.74031332  0.97887341  1
  O2-  O276  1  0.40227336  0.07116668  0.48110729  1
  O2-  O277  1  0.40528300  0.07307544  0.97627163  1
  O2-  O278  1  0.40284755  0.40509735  0.48216638  1
  O2-  O279  1  0.39988689  0.40353792  0.98275387  1
  O2-  O280  1  0.40802391  0.73923081  0.47760129  1
  O2-  O281  1  0.40376807  0.73434126  0.98349511  1
  O2-  O282  1  0.74153819  0.07166505  0.49201251  1
  O2-  O283  1  0.73934931  0.07121643  0.97861880  1
  O2-  O284  1  0.74134165  0.40983574  0.48502788  1
  O2-  O285  1  0.73445707  0.40346350  0.98157466  1
  O2-  O286  1  0.73598912  0.73580412  0.48040788  1
  O2-  O287  1  0.73635112  0.73756059  0.97881433  1
  O2-  O288  1  0.09539332  0.24096788  0.47818184  1
  O2-  O289  1  0.09610200  0.23587673  0.98263503  1
  O2-  O290  1  0.09322171  0.57207319  0.47892312  1
  O2-  O291  1  0.09723884  0.57294143  0.98178495  1
  O2-  O292  1  0.09592900  0.90654848  0.47744297  1
  O2-  O293  1  0.09708673  0.90583508  0.97935460  1
  O2-  O294  1  0.42519670  0.23743931  0.47826734  1
  O2-  O295  1  0.42710133  0.23828110  0.97972649  1
  O2-  O296  1  0.42725513  0.57334653  0.48156522  1
  O2-  O297  1  0.42767553  0.57134511  0.97663928  1
  O2-  O298  1  0.43044963  0.90309599  0.48181549  1
  O2-  O299  1  0.43050072  0.90205266  0.97752848  1
  O2-  O300  1  0.75849331  0.24365418  0.48709315  1
  O2-  O301  1  0.76095561  0.23813248  0.97893515  1
  O2-  O302  1  0.76525239  0.57042516  0.48603328  1
  O2-  O303  1  0.75692659  0.57642698  0.97932112  1
  O2-  O304  1  0.76508792  0.89879319  0.48595917  1
  O2-  O305  1  0.76141670  0.90632940  0.97330347  1
  O2-  O306  1  0.07484498  0.06930185  0.27360628  1
  O2-  O307  1  0.07330250  0.07145713  0.77059997  1
  O2-  O308  1  0.06876562  0.40645794  0.27147291  1
  O2-  O309  1  0.07161572  0.40343570  0.77197531  1
  O2-  O310  1  0.06937189  0.74200093  0.27366147  1
  O2-  O311  1  0.07227798  0.73925721  0.77115024  1
  O2-  O312  1  0.40417245  0.07361653  0.27356347  1
  O2-  O313  1  0.40439568  0.07052458  0.77008742  1
  O2-  O314  1  0.40093828  0.40300662  0.26410246  1
  O2-  O315  1  0.40307639  0.40579051  0.77250554  1
  O2-  O316  1  0.40644488  0.74036675  0.27078864  1
  O2-  O317  1  0.40575511  0.73585146  0.76939479  1
  O2-  O318  1  0.74065122  0.06931548  0.25927154  1
  O2-  O319  1  0.74023715  0.07270316  0.76969430  1
  O2-  O320  1  0.73884704  0.40720508  0.26469604  1
  O2-  O321  1  0.73588157  0.40503000  0.76972459  1
  O2-  O322  1  0.73518874  0.73372835  0.26800490  1
  O2-  O323  1  0.73705164  0.74025303  0.77197478  1
  O2-  O324  1  0.23544602  0.09676611  0.23167410  1
  O2-  O325  1  0.23646179  0.09659338  0.72697912  1
  O2-  O326  1  0.23684387  0.42838072  0.22797214  1
  O2-  O327  1  0.23413568  0.43283460  0.73479336  1
  O2-  O328  1  0.24151617  0.76372524  0.22973777  1
  O2-  O329  1  0.23691727  0.76412308  0.73207172  1
  O2-  O330  1  0.57085090  0.09285332  0.22857897  1
  O2-  O331  1  0.57236957  0.09006131  0.73496218  1
  O2-  O332  1  0.57317147  0.42758563  0.22695901  1
  O2-  O333  1  0.57140027  0.42698590  0.72929728  1
  O2-  O334  1  0.57296366  0.76157140  0.22859614  1
  O2-  O335  1  0.57109307  0.75997280  0.73053806  1
  O2-  O336  1  0.90734287  0.09192675  0.22815652  1
  O2-  O337  1  0.91059351  0.09205000  0.73094167  1
  O2-  O338  1  0.90431578  0.43057086  0.22728993  1
  O2-  O339  1  0.90707520  0.42637895  0.72775764  1
  O2-  O340  1  0.90328443  0.76071277  0.22792169  1
  O2-  O341  1  0.90660873  0.75752047  0.72622258  1
  O2-  O342  1  0.26048898  0.26200875  0.02151220  1
  O2-  O343  1  0.26290994  0.26660575  0.51885951  1
  O2-  O344  1  0.26370419  0.59424482  0.02339446  1
  O2-  O345  1  0.26404220  0.59444748  0.51995627  1
  O2-  O346  1  0.26338543  0.92927603  0.02051678  1
  O2-  O347  1  0.26133855  0.92864351  0.52247552  1
  O2-  O348  1  0.59378790  0.26145133  0.02021943  1
  O2-  O349  1  0.59015406  0.26330470  0.51660037  1
  O2-  O350  1  0.59515794  0.59596135  0.01888675  1
  O2-  O351  1  0.59347369  0.59383877  0.52425303  1
  O2-  O352  1  0.59764725  0.92659886  0.02170311  1
  O2-  O353  1  0.59589693  0.92469200  0.52282568  1
  O2-  O354  1  0.92689384  0.25917312  0.02266463  1
  O2-  O355  1  0.92953358  0.26386143  0.51624274  1
  O2-  O356  1  0.93006791  0.59845502  0.01515383  1
  O2-  O357  1  0.92716972  0.59497167  0.52190067  1
  O2-  O358  1  0.93256245  0.93146600  0.01544509  1
  O2-  O359  1  0.92983330  0.92671359  0.52341249  1
