# generated using pymatgen
data_Sr7Ca15Pr50Mn72O216
_symmetry_space_group_name_H-M   'P 1'
_cell_length_a   16.55945788
_cell_length_b   16.60436621
_cell_length_c   15.59351090
_cell_angle_alpha   90.01064125
_cell_angle_beta   90.00549264
_cell_angle_gamma   89.98650389
_symmetry_Int_Tables_number   1
_chemical_formula_structural   Sr7Ca15Pr50Mn72O216
_chemical_formula_sum   'Sr7 Ca15 Pr50 Mn72 O216'
_cell_volume   4287.58067407
_cell_formula_units_Z   1
loop_
 _symmetry_equiv_pos_site_id
 _symmetry_equiv_pos_as_xyz
  1  'x, y, z'
loop_
 _atom_type_symbol
 _atom_type_oxidation_number
  Sr2+  2.0
  Ca2+  2.0
  Pr3+  3.0
  Mn3.30+  3.3
  O2-  -2.0
loop_
 _atom_site_type_symbol
 _atom_site_label
 _atom_site_symmetry_multiplicity
 _atom_site_fract_x
 _atom_site_fract_y
 _atom_site_fract_z
 _atom_site_occupancy
  Sr2+  Sr0  1  0.16806013  0.51174463  0.62663878  1
  Sr2+  Sr1  1  0.83240845  0.17555389  0.12392304  1
  Sr2+  Sr2  1  0.16446867  0.82119119  0.87733476  1
  Sr2+  Sr3  1  0.16467946  0.49199400  0.87391252  1
  Sr2+  Sr4  1  0.16600613  0.17464323  0.62405744  1
  Sr2+  Sr5  1  0.83321575  0.49159055  0.87520011  1
  Sr2+  Sr6  1  0.66750386  0.65440316  0.87754381  1
  Ca2+  Ca7  1  0.33396195  0.65244438  0.87207101  1
  Ca2+  Ca8  1  -0.00159615  0.01251337  0.62600382  1
  Ca2+  Ca9  1  0.33048935  0.01450910  0.12380917  1
  Ca2+  Ca10  1  1.00452340  0.65218067  0.87354492  1
  Ca2+  Ca11  1  0.67123710  0.31671599  0.37248695  1
  Ca2+  Ca12  1  0.50310282  0.18175318  0.62546060  1
  Ca2+  Ca13  1  0.66258833  0.01553863  0.12566343  1
  Ca2+  Ca14  1  1.00296244  0.32162972  0.87494220  1
  Ca2+  Ca15  1  0.66484518  0.34599523  0.12498941  1
  Ca2+  Ca16  1  0.32604925  0.67912217  0.62950680  1
  Ca2+  Ca17  1  0.84080383  0.85083539  0.62707172  1
  Ca2+  Ca18  1  0.16353667  0.15025608  0.37565767  1
  Ca2+  Ca19  1  0.17303875  0.85222540  0.12315201  1
  Ca2+  Ca20  1  0.66260634  0.67887940  0.12170694  1
  Ca2+  Ca21  1  0.33575692  0.31997882  0.87225799  1
  Pr3+  Pr22  1  1.00398391  0.31622341  0.37487119  1
  Pr3+  Pr23  1  -0.00124812  0.34574001  0.62765560  1
  Pr3+  Pr24  1  1.00272336  0.65374610  0.37486126  1
  Pr3+  Pr25  1  0.00088690  0.01100261  0.12286482  1
  Pr3+  Pr26  1  0.16312272  0.48692820  0.37592715  1
  Pr3+  Pr27  1  0.32780302  0.68202015  0.12273052  1
  Pr3+  Pr28  1  0.33595901  0.98801047  0.87505629  1
  Pr3+  Pr29  1  0.33052866  0.34583918  0.12389055  1
  Pr3+  Pr30  1  0.66956323  0.65415838  0.37366692  1
  Pr3+  Pr31  1  0.83336039  0.15831518  0.87632617  1
  Pr3+  Pr32  1  0.50052659  0.15458109  0.37738546  1
  Pr3+  Pr33  1  0.66508119  0.01455454  0.62564621  1
  Pr3+  Pr34  1  0.32855952  0.34399326  0.62709806  1
  Pr3+  Pr35  1  0.33348761  0.98964863  0.37505660  1
  Pr3+  Pr36  1  0.49372162  0.81620713  0.87518910  1
  Pr3+  Pr37  1  0.49270280  0.48597964  0.87486816  1
  Pr3+  Pr38  1  0.16849596  0.51245736  0.12353127  1
  Pr3+  Pr39  1  0.16737798  0.15992465  0.87299249  1
  Pr3+  Pr40  1  0.50539465  0.18003489  0.12545263  1
  Pr3+  Pr41  1  0.67133592  0.98699787  0.37292903  1
  Pr3+  Pr42  1  -0.00122506  0.67763657  0.11987288  1
  Pr3+  Pr43  1  0.67032857  0.98885050  0.87759825  1
  Pr3+  Pr44  1  0.83061733  0.50896801  0.12219763  1
  Pr3+  Pr45  1  0.49555385  0.15599072  0.87380547  1
  Pr3+  Pr46  1  0.16365697  0.82192670  0.37250016  1
  Pr3+  Pr47  1  1.00511831  0.99055358  0.87455719  1
  Pr3+  Pr48  1  0.16890118  0.84289076  0.62650363  1
  Pr3+  Pr49  1  0.66673553  0.67918106  0.62845241  1
  Pr3+  Pr50  1  0.33319934  0.31901240  0.37641387  1
  Pr3+  Pr51  1  0.33084658  0.01294271  0.62544747  1
  Pr3+  Pr52  1  0.49932484  0.51323790  0.62488622  1
  Pr3+  Pr53  1  0.50547256  0.84925565  0.12383088  1
  Pr3+  Pr54  1  0.82986694  0.15225429  0.37379867  1
  Pr3+  Pr55  1  1.00371728  0.98899686  0.37442092  1
  Pr3+  Pr56  1  0.17199108  0.17729709  0.12550772  1
  Pr3+  Pr57  1  0.33602151  0.65412785  0.37668630  1
  Pr3+  Pr58  1  0.83135047  0.82129409  0.37462941  1
  Pr3+  Pr59  1  0.83718317  0.51301910  0.62717445  1
  Pr3+  Pr60  1  0.49809517  0.48502899  0.37536006  1
  Pr3+  Pr61  1  0.83094196  0.84365131  0.12217883  1
  Pr3+  Pr62  1  -0.00391504  0.34395497  0.12211532  1
  Pr3+  Pr63  1  0.82782668  0.48287347  0.37468595  1
  Pr3+  Pr64  1  0.66902368  0.32494845  0.87702776  1
  Pr3+  Pr65  1  0.49806931  0.82218330  0.37513592  1
  Pr3+  Pr66  1  0.50508468  0.51478226  0.12508073  1
  Pr3+  Pr67  1  0.83239504  0.81975638  0.87503434  1
  Pr3+  Pr68  1  0.83951109  0.17804515  0.62503914  1
  Pr3+  Pr69  1  -0.00278387  0.68063965  0.63053096  1
  Pr3+  Pr70  1  0.66386292  0.34503614  0.62391867  1
  Pr3+  Pr71  1  0.50032298  0.84370358  0.62662307  1
  Mn3.30+  Mn72  1  0.17009224  0.00064166  0.00012925  1
  Mn3.30+  Mn73  1  0.16568902  -0.00022988  0.50102813  1
  Mn3.30+  Mn74  1  0.16642242  0.33373723  -0.00293113  1
  Mn3.30+  Mn75  1  0.16607241  0.33123380  0.50065583  1
  Mn3.30+  Mn76  1  0.16581126  0.66799416  -0.00213018  1
  Mn3.30+  Mn77  1  0.16751689  0.66716684  0.50111396  1
  Mn3.30+  Mn78  1  0.50035875  0.00106519  0.00116394  1
  Mn3.30+  Mn79  1  0.50136254  0.00071477  0.50141361  1
  Mn3.30+  Mn80  1  0.49912132  0.33361162  0.00068462  1
  Mn3.30+  Mn81  1  0.50093762  0.33173377  0.49930222  1
  Mn3.30+  Mn82  1  0.49758389  0.66564959  -0.00061146  1
  Mn3.30+  Mn83  1  0.49925442  0.66753117  0.50215331  1
  Mn3.30+  Mn84  1  0.83339225  0.00053935  0.00119856  1
  Mn3.30+  Mn85  1  0.83574455  -0.00146973  0.50130851  1
  Mn3.30+  Mn86  1  0.83284289  0.33343457  0.00016528  1
  Mn3.30+  Mn87  1  0.83198349  0.33169478  0.49889643  1
  Mn3.30+  Mn88  1  0.83156987  0.66525384  -0.00004672  1
  Mn3.30+  Mn89  1  0.83443312  0.66808754  0.50048077  1
  Mn3.30+  Mn90  1  0.00130805  0.16540408  0.24899388  1
  Mn3.30+  Mn91  1  0.00058369  0.16758680  0.75015414  1
  Mn3.30+  Mn92  1  -0.00193284  0.49889092  0.24948625  1
  Mn3.30+  Mn93  1  0.00143008  0.50027596  0.75256776  1
  Mn3.30+  Mn94  1  0.00078127  0.83292667  0.24584058  1
  Mn3.30+  Mn95  1  0.00028019  0.83473625  0.75158211  1
  Mn3.30+  Mn96  1  0.33432223  0.16506296  0.25162125  1
  Mn3.30+  Mn97  1  0.33434618  0.16802174  0.74803055  1
  Mn3.30+  Mn98  1  0.33369513  0.49970642  0.24996529  1
  Mn3.30+  Mn99  1  0.33099360  0.50062377  0.75105004  1
  Mn3.30+  Mn100  1  0.33271334  0.83602204  0.24768320  1
  Mn3.30+  Mn101  1  0.33246519  0.83037545  0.75095913  1
  Mn3.30+  Mn102  1  0.66669120  0.16771122  0.24863886  1
  Mn3.30+  Mn103  1  0.66599081  0.16803808  0.75006773  1
  Mn3.30+  Mn104  1  0.66564777  0.49819697  0.24995626  1
  Mn3.30+  Mn105  1  0.66593826  0.50005520  0.75042918  1
  Mn3.30+  Mn106  1  0.66555734  0.83272264  0.24851325  1
  Mn3.30+  Mn107  1  0.66890137  0.83399559  0.75000010  1
  Mn3.30+  Mn108  1  0.16935445  0.00044970  0.24897582  1
  Mn3.30+  Mn109  1  0.16659105  -0.00006413  0.74900430  1
  Mn3.30+  Mn110  1  0.16594990  0.33131755  0.25009335  1
  Mn3.30+  Mn111  1  0.16630600  0.33379294  0.75199100  1
  Mn3.30+  Mn112  1  0.16680355  0.66849424  0.24830938  1
  Mn3.30+  Mn113  1  0.16663404  0.66663305  0.75227417  1
  Mn3.30+  Mn114  1  0.50018259  0.00105392  0.24923456  1
  Mn3.30+  Mn115  1  0.50144186  0.00063036  0.74942512  1
  Mn3.30+  Mn116  1  0.50208546  0.33283182  0.25183794  1
  Mn3.30+  Mn117  1  0.49865626  0.33244807  0.74845083  1
  Mn3.30+  Mn118  1  0.50040637  0.66792681  0.24984105  1
  Mn3.30+  Mn119  1  0.49656787  0.66541167  0.74892418  1
  Mn3.30+  Mn120  1  0.83343907  -0.00082563  0.24602260  1
  Mn3.30+  Mn121  1  0.83570861  -0.00014918  0.75087750  1
  Mn3.30+  Mn122  1  0.83107576  0.33139265  0.24824457  1
  Mn3.30+  Mn123  1  0.83366766  0.33388105  0.75237651  1
  Mn3.30+  Mn124  1  0.83227661  0.66576193  0.24696760  1
  Mn3.30+  Mn125  1  0.83318130  0.66764902  0.75227777  1
  Mn3.30+  Mn126  1  0.00136947  0.16818050  -0.00054409  1
  Mn3.30+  Mn127  1  0.00117336  0.16449661  0.50032017  1
  Mn3.30+  Mn128  1  0.00061719  0.49925514  -0.00228183  1
  Mn3.30+  Mn129  1  -0.00117270  0.50008573  0.50057218  1
  Mn3.30+  Mn130  1  0.00243558  0.83255617  0.00068036  1
  Mn3.30+  Mn131  1  -0.00118266  0.83467020  0.50093190  1
  Mn3.30+  Mn132  1  0.33517251  0.16711365  0.00060109  1
  Mn3.30+  Mn133  1  0.33315317  0.16611818  0.50022436  1
  Mn3.30+  Mn134  1  0.33278114  0.49987583  -0.00147933  1
  Mn3.30+  Mn135  1  0.33192517  0.50057735  0.50079989  1
  Mn3.30+  Mn136  1  0.33209970  0.83361029  0.00019467  1
  Mn3.30+  Mn137  1  0.33308143  0.83236007  0.50042158  1
  Mn3.30+  Mn138  1  0.66565697  0.16827078  0.00140837  1
  Mn3.30+  Mn139  1  0.66676192  0.16740012  0.50043468  1
  Mn3.30+  Mn140  1  0.66481163  0.49979585  0.00015678  1
  Mn3.30+  Mn141  1  0.66652052  0.49893618  0.49971077  1
  Mn3.30+  Mn142  1  0.66503355  0.83305823  -0.00049115  1
  Mn3.30+  Mn143  1  0.66912807  0.83359573  0.50316248  1
  O2-  O144  1  0.02765022  0.16163529  0.12476146  1
  O2-  O145  1  0.01634235  0.16038951  0.62415943  1
  O2-  O146  1  0.02477950  0.49161777  0.12584992  1
  O2-  O147  1  0.01689339  0.49398899  0.62572015  1
  O2-  O148  1  0.03061371  0.82513836  0.12395871  1
  O2-  O149  1  0.02574383  0.82664157  0.62721017  1
  O2-  O150  1  0.36085210  0.16042197  0.12873420  1
  O2-  O151  1  0.36105652  0.16084823  0.62316036  1
  O2-  O152  1  0.35953884  0.49303081  0.12678159  1
  O2-  O153  1  0.35648648  0.49081040  0.62365941  1
  O2-  O154  1  0.36230503  0.82731618  0.12451610  1
  O2-  O155  1  0.35713536  0.82571575  0.62579015  1
  O2-  O156  1  0.68349883  0.15860709  0.12474932  1
  O2-  O157  1  0.69510981  0.16224432  0.62555374  1
  O2-  O158  1  0.68650688  0.49070284  0.12730875  1
  O2-  O159  1  0.69236174  0.49308688  0.62213379  1
  O2-  O160  1  0.68677449  0.82367126  0.12363599  1
  O2-  O161  1  0.69664688  0.82710862  0.62606921  1
  O2-  O162  1  0.14150327  0.32622104  0.12556621  1
  O2-  O163  1  0.14276673  0.33078661  0.62413384  1
  O2-  O164  1  0.14256293  0.65939984  0.12620639  1
  O2-  O165  1  0.14191338  0.67107534  0.62372838  1
  O2-  O166  1  0.14503871  1.00013879  0.12411674  1
  O2-  O167  1  0.14090552  0.99201365  0.62378988  1
  O2-  O168  1  0.47312875  0.32811565  0.12891306  1
  O2-  O169  1  0.47343173  0.32813843  0.62323082  1
  O2-  O170  1  0.47214550  0.66264547  0.12455952  1
  O2-  O171  1  0.46944562  0.66298752  0.62320603  1
  O2-  O172  1  0.47261645  0.99650449  0.12351821  1
  O2-  O173  1  0.47466313  0.99112809  0.62439579  1
  O2-  O174  1  0.80822140  0.33379598  0.12594241  1
  O2-  O175  1  0.80833302  0.32614587  0.62483413  1
  O2-  O176  1  0.80436170  0.65937236  0.12594647  1
  O2-  O177  1  0.80996151  0.66023069  0.62549344  1
  O2-  O178  1  0.80444541  0.99272810  0.12314550  1
  O2-  O179  1  0.80866938  0.99701499  0.62801443  1
  O2-  O180  1  0.30627423  0.17095436  0.37583657  1
  O2-  O181  1  0.31250023  0.17202331  0.87304097  1
  O2-  O182  1  0.30746330  0.50633479  0.37433947  1
  O2-  O183  1  0.31544608  0.50804843  0.87610778  1
  O2-  O184  1  0.30785270  0.84121413  0.37293058  1
  O2-  O185  1  0.31429479  0.84249781  0.87557488  1
  O2-  O186  1  0.64430302  0.17015879  0.37523649  1
  O2-  O187  1  0.63951233  0.17491665  0.87526984  1
  O2-  O188  1  0.64128458  0.50905929  0.37610568  1
  O2-  O189  1  0.63850496  0.49724368  0.87435284  1
  O2-  O190  1  0.64281527  0.83917820  0.37657753  1
  O2-  O191  1  0.63939153  0.84140106  0.87490723  1
  O2-  O192  1  0.97405345  0.16819638  0.37417612  1
  O2-  O193  1  0.97724877  0.17198022  0.87568901  1
  O2-  O194  1  0.97247993  0.50664528  0.37377053  1
  O2-  O195  1  0.98129640  0.50831333  0.87581212  1
  O2-  O196  1  0.97447541  0.84035053  0.37069748  1
  O2-  O197  1  0.97500164  0.84400217  0.87719477  1
  O2-  O198  1  0.18969916  0.00120396  0.37541332  1
  O2-  O199  1  0.19234380  0.00836771  0.87550410  1
  O2-  O200  1  0.18942960  0.34050419  0.37488076  1
  O2-  O201  1  0.19362204  0.33080853  0.87633547  1
  O2-  O202  1  0.19122930  0.67353340  0.37247735  1
  O2-  O203  1  0.19215192  0.66769914  0.87754915  1
  O2-  O204  1  0.52824008  0.00398654  0.37835839  1
  O2-  O205  1  0.52631836  0.00694436  0.87434658  1
  O2-  O206  1  0.52936668  0.33781128  0.37539797  1
  O2-  O207  1  0.52489707  0.33732092  0.87291008  1
  O2-  O208  1  0.52625608  0.67378722  0.37819244  1
  O2-  O209  1  0.51849793  0.66795897  0.87406137  1
  O2-  O210  1  0.85826080  0.00206831  0.37134824  1
  O2-  O211  1  0.85988253  0.00696699  0.87684317  1
  O2-  O212  1  0.86003263  0.33609464  0.37371701  1
  O2-  O213  1  0.85787006  0.33209805  0.87521400  1
  O2-  O214  1  0.85964596  0.67392354  0.37279505  1
  O2-  O215  1  0.85967194  0.67222788  0.87644925  1
  O2-  O216  1  0.24036587  0.09743949  0.01734225  1
  O2-  O217  1  0.24325393  0.08801271  0.51893282  1
  O2-  O218  1  0.23883383  0.42670973  0.02324243  1
  O2-  O219  1  0.24010514  0.42576642  0.51479662  1
  O2-  O220  1  0.23656786  0.76261232  0.02458661  1
  O2-  O221  1  0.23473421  0.76383892  0.51412722  1
  O2-  O222  1  0.56935574  0.09722114  0.01623277  1
  O2-  O223  1  0.57191343  0.09485519  0.52301540  1
  O2-  O224  1  0.56691310  0.42963970  0.01746083  1
  O2-  O225  1  0.57017839  0.42824993  0.52085217  1
  O2-  O226  1  0.56563302  0.76257313  0.01468051  1
  O2-  O227  1  0.57305940  0.76112465  0.52353642  1
  O2-  O228  1  0.91104614  0.08957439  0.01863259  1
  O2-  O229  1  0.90195999  0.09657101  0.51427288  1
  O2-  O230  1  0.90636549  0.42599921  0.02164641  1
  O2-  O231  1  0.90018228  0.42676727  0.51824533  1
  O2-  O232  1  0.90538213  0.75981746  0.02257852  1
  O2-  O233  1  0.90476947  0.76525930  0.52038681  1
  O2-  O234  1  0.26483554  0.26050535  0.23008419  1
  O2-  O235  1  0.26173285  0.25963780  0.73102017  1
  O2-  O236  1  0.26229363  0.59520961  0.22988281  1
  O2-  O237  1  0.26287401  0.59582617  0.73168178  1
  O2-  O238  1  0.26616664  0.93245886  0.23025920  1
  O2-  O239  1  0.26279510  0.92607822  0.72940999  1
  O2-  O240  1  0.59468694  0.26220866  0.22795835  1
  O2-  O241  1  0.59671751  0.26266098  0.72981581  1
  O2-  O242  1  0.59544082  0.59836507  0.22979385  1
  O2-  O243  1  0.59032652  0.59358046  0.72494914  1
  O2-  O244  1  0.59529235  0.93079287  0.22955252  1
  O2-  O245  1  0.59646676  0.92788877  0.72817027  1
  O2-  O246  1  0.93084643  0.26287315  0.23282894  1
  O2-  O247  1  0.92623132  0.25989292  0.72854089  1
  O2-  O248  1  0.92787860  0.59392369  0.22698290  1
  O2-  O249  1  0.92486496  0.59387144  0.73012301  1
  O2-  O250  1  0.92857620  0.92398524  0.22372716  1
  O2-  O251  1  0.93145117  0.93232971  0.73210060  1
  O2-  O252  1  0.09676507  0.23638575  0.27210604  1
  O2-  O253  1  0.09357177  0.24056500  0.76880202  1
  O2-  O254  1  0.09236178  0.56994926  0.27008080  1
  O2-  O255  1  0.09219310  0.57613568  0.76333149  1
  O2-  O256  1  0.09457817  0.90758214  0.26817643  1
  O2-  O257  1  0.09332091  0.90770209  0.76974084  1
  O2-  O258  1  0.42934184  0.23878751  0.27380334  1
  O2-  O259  1  0.42948852  0.23877337  0.76730852  1
  O2-  O260  1  0.42966767  0.57284395  0.27226994  1
  O2-  O261  1  0.43004559  0.56780670  0.76398712  1
  O2-  O262  1  0.42948123  0.90554564  0.27136142  1
  O2-  O263  1  0.42894366  0.90401322  0.76805533  1
  O2-  O264  1  0.76257033  0.23734154  0.26974661  1
  O2-  O265  1  0.76092744  0.23830460  0.77086862  1
  O2-  O266  1  0.76258646  0.57097264  0.27119266  1
  O2-  O267  1  0.75738673  0.57190615  0.76261693  1
  O2-  O268  1  0.76134491  0.90334005  0.26851825  1
  O2-  O269  1  0.76300239  0.90944796  0.77485111  1
  O2-  O270  1  0.07168275  0.07103375  0.47971147  1
  O2-  O271  1  0.07544087  0.07549103  0.97965773  1
  O2-  O272  1  0.07037649  0.40505447  0.47955964  1
  O2-  O273  1  0.06960706  0.40096005  0.98307845  1
  O2-  O274  1  0.07024044  0.73919547  0.47828080  1
  O2-  O275  1  0.06725190  0.73451056  0.98063646  1
  O2-  O276  1  0.40735779  0.07230194  0.47837096  1
  O2-  O277  1  0.40703223  0.07256975  0.97656100  1
  O2-  O278  1  0.40798955  0.40468962  0.47717277  1
  O2-  O279  1  0.40242405  0.40210666  0.97962972  1
  O2-  O280  1  0.40769653  0.74222643  0.47505363  1
  O2-  O281  1  0.40075456  0.73571011  0.97942903  1
  O2-  O282  1  0.73867595  0.06957281  0.48028877  1
  O2-  O283  1  0.74070272  0.07709681  0.97707541  1
  O2-  O284  1  0.73730151  0.40089552  0.47727129  1
  O2-  O285  1  0.73683264  0.40606983  0.98317339  1
  O2-  O286  1  0.73925894  0.73675167  0.47911514  1
  O2-  O287  1  0.74327646  0.74331835  0.98082812  1
  O2-  O288  1  0.09320467  0.23740890  0.47717148  1
  O2-  O289  1  0.09811708  0.23765943  0.98256019  1
  O2-  O290  1  0.09551686  0.57507033  0.47726643  1
  O2-  O291  1  0.09395276  0.57170045  0.98973406  1
  O2-  O292  1  0.09480904  0.90385207  0.47811203  1
  O2-  O293  1  0.09171026  0.91242761  0.98344613  1
  O2-  O294  1  0.42749401  0.24041386  0.47596875  1
  O2-  O295  1  0.43128686  0.23643558  0.98443050  1
  O2-  O296  1  0.42903707  0.57216787  0.47845608  1
  O2-  O297  1  0.43045131  0.56760583  0.98572913  1
  O2-  O298  1  0.42856434  0.90683466  0.48012893  1
  O2-  O299  1  0.43206437  0.90492416  0.97929319  1
  O2-  O300  1  0.76546799  0.23574419  0.48120988  1
  O2-  O301  1  0.75871614  0.24116976  0.97874003  1
  O2-  O302  1  0.76247440  0.57126534  0.47949921  1
  O2-  O303  1  0.75909193  0.57098300  0.98625901  1
  O2-  O304  1  0.76306656  0.90626338  0.47847995  1
  O2-  O305  1  0.76195552  0.90705598  0.97822860  1
  O2-  O306  1  0.07298044  0.06973883  0.26717182  1
  O2-  O307  1  0.07410748  0.07665584  0.77118948  1
  O2-  O308  1  0.06908165  0.40516272  0.27128885  1
  O2-  O309  1  0.06885985  0.40332720  0.76704196  1
  O2-  O310  1  0.06957344  0.73916377  0.27100647  1
  O2-  O311  1  0.06781589  0.73770353  0.76880304  1
  O2-  O312  1  0.40773316  0.07365762  0.27679754  1
  O2-  O313  1  0.40669268  0.07176875  0.76926586  1
  O2-  O314  1  0.40461909  0.40400802  0.27325995  1
  O2-  O315  1  0.40518426  0.40445889  0.76983618  1
  O2-  O316  1  0.40332272  0.73948332  0.27136329  1
  O2-  O317  1  0.40477956  0.73823461  0.77204345  1
  O2-  O318  1  0.73933599  0.07340680  0.27067769  1
  O2-  O319  1  0.73758455  0.07338058  0.77188033  1
  O2-  O320  1  0.73893590  0.40448499  0.27407764  1
  O2-  O321  1  0.73639109  0.40167025  0.76542252  1
  O2-  O322  1  0.73984892  0.73916054  0.27208377  1
  O2-  O323  1  0.74012581  0.74105184  0.77079583  1
  O2-  O324  1  0.23999951  0.09509975  0.23276664  1
  O2-  O325  1  0.24352914  0.09089431  0.73092787  1
  O2-  O326  1  0.23694768  0.42711195  0.23043778  1
  O2-  O327  1  0.24148307  0.42451641  0.73196991  1
  O2-  O328  1  0.23892942  0.76688836  0.22768377  1
  O2-  O329  1  0.23720372  0.76190593  0.73188779  1
  O2-  O330  1  0.56936959  0.09708653  0.23521194  1
  O2-  O331  1  0.57372427  0.09663402  0.72743632  1
  O2-  O332  1  0.56638208  0.43111366  0.23463465  1
  O2-  O333  1  0.57030508  0.42679817  0.72671360  1
  O2-  O334  1  0.56772380  0.76534343  0.23435917  1
  O2-  O335  1  0.57058471  0.75957877  0.72946396  1
  O2-  O336  1  0.90976201  0.09008637  0.22939694  1
  O2-  O337  1  0.90262281  0.09677341  0.73620675  1
  O2-  O338  1  0.90329718  0.42820625  0.23014845  1
  O2-  O339  1  0.90439232  0.42583718  0.72910489  1
  O2-  O340  1  0.90417228  0.75956372  0.22555475  1
  O2-  O341  1  0.90537733  0.76586469  0.73065060  1
  O2-  O342  1  0.26168143  0.25961182  0.02336369  1
  O2-  O343  1  0.26427593  0.26244237  0.51736595  1
  O2-  O344  1  0.26029634  0.59292785  0.02324409  1
  O2-  O345  1  0.26341926  0.60066951  0.51647148  1
  O2-  O346  1  0.26591319  0.93159241  0.01822394  1
  O2-  O347  1  0.26194051  0.92624715  0.52132241  1
  O2-  O348  1  0.59482848  0.26401974  0.02171817  1
  O2-  O349  1  0.59400752  0.26083577  0.52051475  1
  O2-  O350  1  0.59259208  0.59455340  0.02293504  1
  O2-  O351  1  0.59390247  0.59649778  0.52245406  1
  O2-  O352  1  0.59568063  0.93178744  0.02193985  1
  O2-  O353  1  0.59571026  0.92778687  0.52275930  1
  O2-  O354  1  0.92837272  0.25921828  0.01893958  1
  O2-  O355  1  0.92934457  0.26234106  0.51878769  1
  O2-  O356  1  0.92349695  0.59112395  0.02394830  1
  O2-  O357  1  0.92821253  0.59783815  0.51983373  1
  O2-  O358  1  0.92662123  0.92384913  0.02385317  1
  O2-  O359  1  0.93203590  0.93209624  0.51856692  1
