# generated using pymatgen
data_Sr7Ca15Pr50Mn72O216
_symmetry_space_group_name_H-M   'P 1'
_cell_length_a   16.55716518
_cell_length_b   16.60447818
_cell_length_c   15.59231057
_cell_angle_alpha   89.99861391
_cell_angle_beta   89.99847447
_cell_angle_gamma   89.99599774
_symmetry_Int_Tables_number   1
_chemical_formula_structural   Sr7Ca15Pr50Mn72O216
_chemical_formula_sum   'Sr7 Ca15 Pr50 Mn72 O216'
_cell_volume   4286.68615734
_cell_formula_units_Z   1
loop_
 _symmetry_equiv_pos_site_id
 _symmetry_equiv_pos_as_xyz
  1  'x, y, z'
loop_
 _atom_type_symbol
 _atom_type_oxidation_number
  Sr2+  2.0
  Ca2+  2.0
  Pr3+  3.0
  Mn3.30+  3.3
  O2-  -2.0
loop_
 _atom_site_type_symbol
 _atom_site_label
 _atom_site_symmetry_multiplicity
 _atom_site_fract_x
 _atom_site_fract_y
 _atom_site_fract_z
 _atom_site_occupancy
  Sr2+  Sr0  1  0.16811770  0.51125272  0.62436645  1
  Sr2+  Sr1  1  0.50125924  0.50981415  0.12612694  1
  Sr2+  Sr2  1  0.33230757  0.34380593  0.12501062  1
  Sr2+  Sr3  1  0.83280691  0.17532446  0.12445054  1
  Sr2+  Sr4  1  -0.00293881  0.34202423  0.12763421  1
  Sr2+  Sr5  1  0.16778019  0.82644050  0.37756007  1
  Sr2+  Sr6  1  0.33540478  0.00587637  0.62305572  1
  Ca2+  Ca7  1  0.50664380  0.85116363  0.62587137  1
  Ca2+  Ca8  1  0.66069983  0.01345557  0.62552890  1
  Ca2+  Ca9  1  0.50126716  0.82244330  0.87047031  1
  Ca2+  Ca10  1  0.83082835  0.84822380  0.62545783  1
  Ca2+  Ca11  1  0.33800774  0.98473665  0.37740507  1
  Ca2+  Ca12  1  0.66086886  0.68707577  0.62353441  1
  Ca2+  Ca13  1  0.66930512  0.98572744  0.87154548  1
  Ca2+  Ca14  1  0.66378593  0.34694102  0.62444009  1
  Ca2+  Ca15  1  -0.00622027  0.68617025  0.62398929  1
  Ca2+  Ca16  1  0.82484851  0.14798446  0.87475744  1
  Ca2+  Ca17  1  0.66399152  0.01423422  0.12439307  1
  Ca2+  Ca18  1  0.50545011  0.18065890  0.62476254  1
  Ca2+  Ca19  1  1.00221465  0.31786346  0.37488603  1
  Ca2+  Ca20  1  0.66929519  0.98629240  0.37856422  1
  Ca2+  Ca21  1  0.67059853  0.65336436  0.37714880  1
  Pr3+  Pr22  1  0.16616949  0.15398302  0.87530079  1
  Pr3+  Pr23  1  0.17118703  0.51060706  0.12573351  1
  Pr3+  Pr24  1  0.16471927  0.15477749  0.37496486  1
  Pr3+  Pr25  1  0.66140566  0.67890558  0.12629854  1
  Pr3+  Pr26  1  0.66747919  0.65559487  0.87194432  1
  Pr3+  Pr27  1  0.33364007  0.67692647  0.12600093  1
  Pr3+  Pr28  1  0.50566121  0.17873275  0.12472239  1
  Pr3+  Pr29  1  0.82561602  0.81970248  0.37746518  1
  Pr3+  Pr30  1  0.16237941  0.48493113  0.37769583  1
  Pr3+  Pr31  1  0.83246464  0.84696059  0.12467352  1
  Pr3+  Pr32  1  0.34058812  0.98387268  0.87380318  1
  Pr3+  Pr33  1  0.99739348  0.98932565  0.87498294  1
  Pr3+  Pr34  1  0.33524789  0.65522459  0.37764021  1
  Pr3+  Pr35  1  -0.00360307  0.67794379  0.12540576  1
  Pr3+  Pr36  1  0.82923029  0.15215467  0.37487391  1
  Pr3+  Pr37  1  0.83724457  0.50998090  0.12543733  1
  Pr3+  Pr38  1  0.16996750  0.17555925  0.62466492  1
  Pr3+  Pr39  1  0.83064893  0.48610178  0.87379620  1
  Pr3+  Pr40  1  0.16468535  0.82192524  0.87263139  1
  Pr3+  Pr41  1  0.49915030  0.82427472  0.37832295  1
  Pr3+  Pr42  1  0.16798865  0.18094369  0.12511228  1
  Pr3+  Pr43  1  0.17041324  0.84540599  0.12608240  1
  Pr3+  Pr44  1  0.82749705  0.82243348  0.87228951  1
  Pr3+  Pr45  1  0.83548199  0.51593724  0.62459045  1
  Pr3+  Pr46  1  -0.00342623  0.34582060  0.62290218  1
  Pr3+  Pr47  1  0.16797406  0.84399773  0.62306686  1
  Pr3+  Pr48  1  -0.00509487  0.00832477  0.62375500  1
  Pr3+  Pr49  1  0.66911435  0.32034469  0.37686460  1
  Pr3+  Pr50  1  0.33821190  0.31968454  0.87442843  1
  Pr3+  Pr51  1  0.66457993  0.34620792  0.12592484  1
  Pr3+  Pr52  1  -0.00452891  0.01282346  0.12591888  1
  Pr3+  Pr53  1  1.00010905  0.31846263  0.87427166  1
  Pr3+  Pr54  1  0.49598293  0.14967046  0.37756033  1
  Pr3+  Pr55  1  0.83172443  0.48629578  0.37600798  1
  Pr3+  Pr56  1  0.33274317  0.34324388  0.62464176  1
  Pr3+  Pr57  1  0.33297883  0.67994713  0.62408869  1
  Pr3+  Pr58  1  0.16475400  0.48635677  0.87247621  1
  Pr3+  Pr59  1  0.49922709  0.15242999  0.87252671  1
  Pr3+  Pr60  1  0.33772798  0.65554170  0.87286260  1
  Pr3+  Pr61  1  0.50065521  0.48862958  0.37605680  1
  Pr3+  Pr62  1  1.00010191  0.98711217  0.37452732  1
  Pr3+  Pr63  1  0.67216856  0.31760163  0.87326865  1
  Pr3+  Pr64  1  1.00261685  0.65729497  0.37879252  1
  Pr3+  Pr65  1  1.00187087  0.65461264  0.87149742  1
  Pr3+  Pr66  1  0.83211979  0.17617508  0.62587535  1
  Pr3+  Pr67  1  0.49867127  0.48763592  0.87394539  1
  Pr3+  Pr68  1  0.50733848  0.51535312  0.62457726  1
  Pr3+  Pr69  1  0.33259983  0.01188725  0.12729230  1
  Pr3+  Pr70  1  0.33780675  0.32044607  0.37580939  1
  Pr3+  Pr71  1  0.50529450  0.84890873  0.12440003  1
  Mn3.30+  Mn72  1  0.16730708  -0.00050689  -0.00020045  1
  Mn3.30+  Mn73  1  0.16723470  -0.00086663  0.49874910  1
  Mn3.30+  Mn74  1  0.16677717  0.33333815  -0.00058542  1
  Mn3.30+  Mn75  1  0.16596812  0.33165009  0.50009600  1
  Mn3.30+  Mn76  1  0.16653366  0.66675051  -0.00099240  1
  Mn3.30+  Mn77  1  0.16518228  0.66753143  0.50201990  1
  Mn3.30+  Mn78  1  0.50390933  -0.00098739  -0.00224677  1
  Mn3.30+  Mn79  1  0.50292576  -0.00027625  0.50232922  1
  Mn3.30+  Mn80  1  0.50220022  0.33338834  -0.00046268  1
  Mn3.30+  Mn81  1  0.50311820  0.33208455  0.50219649  1
  Mn3.30+  Mn82  1  0.50046301  0.66850030  -0.00063282  1
  Mn3.30+  Mn83  1  0.50494520  0.66965573  0.50023517  1
  Mn3.30+  Mn84  1  0.82901539  0.00069380  -0.00051128  1
  Mn3.30+  Mn85  1  0.82792812  -0.00154708  0.50183743  1
  Mn3.30+  Mn86  1  0.83399370  0.33033503  -0.00037336  1
  Mn3.30+  Mn87  1  0.83235938  0.33219722  0.50077617  1
  Mn3.30+  Mn88  1  0.83195464  0.66640377  -0.00110208  1
  Mn3.30+  Mn89  1  0.83063564  0.66957763  0.50329333  1
  Mn3.30+  Mn90  1  -0.00209171  0.16757754  0.25128665  1
  Mn3.30+  Mn91  1  -0.00257118  0.16462531  0.75055974  1
  Mn3.30+  Mn92  1  0.00080099  0.49883674  0.25160256  1
  Mn3.30+  Mn93  1  -0.00107064  0.50179006  0.74700582  1
  Mn3.30+  Mn94  1  -0.00101736  0.83258222  0.25033270  1
  Mn3.30+  Mn95  1  -0.00390357  0.83387926  0.74857821  1
  Mn3.30+  Mn96  1  0.33384527  0.16507049  0.25130118  1
  Mn3.30+  Mn97  1  0.33612364  0.16386030  0.74697939  1
  Mn3.30+  Mn98  1  0.33348354  0.50022157  0.25095984  1
  Mn3.30+  Mn99  1  0.33489014  0.49999861  0.74829255  1
  Mn3.30+  Mn100  1  0.33545642  0.83359407  0.25183783  1
  Mn3.30+  Mn101  1  0.33686906  0.83327454  0.74814484  1
  Mn3.30+  Mn102  1  0.66604040  0.16370453  0.25117976  1
  Mn3.30+  Mn103  1  0.66576929  0.16450725  0.74817345  1
  Mn3.30+  Mn104  1  0.66794021  0.50177244  0.25203388  1
  Mn3.30+  Mn105  1  0.66747687  0.50065475  0.74748234  1
  Mn3.30+  Mn106  1  0.66580956  0.83539454  0.25149770  1
  Mn3.30+  Mn107  1  0.66478015  0.83608931  0.74752004  1
  Mn3.30+  Mn108  1  0.16721568  -0.00020316  0.25132949  1
  Mn3.30+  Mn109  1  0.16716157  -0.00090747  0.75007534  1
  Mn3.30+  Mn110  1  0.16572601  0.33318707  0.25104076  1
  Mn3.30+  Mn111  1  0.16718833  0.33178124  0.74931181  1
  Mn3.30+  Mn112  1  0.16588061  0.66731111  0.25190350  1
  Mn3.30+  Mn113  1  0.16585385  0.66703141  0.74655365  1
  Mn3.30+  Mn114  1  0.50223463  -0.00043941  0.25197979  1
  Mn3.30+  Mn115  1  0.50436790  -0.00043755  0.74810155  1
  Mn3.30+  Mn116  1  0.50126418  0.33321007  0.25067838  1
  Mn3.30+  Mn117  1  0.50387404  0.33206100  0.74799938  1
  Mn3.30+  Mn118  1  0.50221700  0.66747402  0.25287349  1
  Mn3.30+  Mn119  1  0.50292175  0.67122219  0.74799838  1
  Mn3.30+  Mn120  1  0.82934559  -0.00060529  0.25000473  1
  Mn3.30+  Mn121  1  0.82759513  -0.00031158  0.74850617  1
  Mn3.30+  Mn122  1  0.83494128  0.33138225  0.25201077  1
  Mn3.30+  Mn123  1  0.83137186  0.33109542  0.74768826  1
  Mn3.30+  Mn124  1  0.83122066  0.66629508  0.25130886  1
  Mn3.30+  Mn125  1  0.83179642  0.67004100  0.74570495  1
  Mn3.30+  Mn126  1  -0.00365635  0.16593511  -0.00216633  1
  Mn3.30+  Mn127  1  -0.00103293  0.16609712  0.50036747  1
  Mn3.30+  Mn128  1  0.00080946  0.49881268  -0.00057432  1
  Mn3.30+  Mn129  1  -0.00104429  0.50191712  0.50185544  1
  Mn3.30+  Mn130  1  -0.00088370  0.83298767  -0.00045682  1
  Mn3.30+  Mn131  1  -0.00418093  0.83347469  0.50137542  1
  Mn3.30+  Mn132  1  0.33450055  0.16536672  -0.00021456  1
  Mn3.30+  Mn133  1  0.33552451  0.16305206  0.50156757  1
  Mn3.30+  Mn134  1  0.33394129  0.50073074  0.00001835  1
  Mn3.30+  Mn135  1  0.33456553  0.49965731  0.50067517  1
  Mn3.30+  Mn136  1  0.33643413  0.83221185  -0.00031276  1
  Mn3.30+  Mn137  1  0.33605547  0.83458575  0.50054557  1
  Mn3.30+  Mn138  1  0.66812809  0.16364477  -0.00060850  1
  Mn3.30+  Mn139  1  0.66383866  0.16486256  0.50163382  1
  Mn3.30+  Mn140  1  0.66690153  0.50035688  -0.00080220  1
  Mn3.30+  Mn141  1  0.66822892  0.50239258  0.50134491  1
  Mn3.30+  Mn142  1  0.66480821  0.83564633  -0.00248835  1
  Mn3.30+  Mn143  1  0.66567188  0.83532089  0.50270827  1
  O2-  O144  1  0.02364294  0.16017087  0.12300098  1
  O2-  O145  1  0.02529779  0.15757698  0.62525278  1
  O2-  O146  1  0.02695257  0.49803298  0.12603126  1
  O2-  O147  1  0.02007889  0.49183229  0.62483609  1
  O2-  O148  1  0.02601029  0.82656736  0.12433706  1
  O2-  O149  1  0.02346541  0.83509174  0.62647255  1
  O2-  O150  1  0.36066844  0.15947691  0.12686762  1
  O2-  O151  1  0.36092023  0.16346029  0.62525822  1
  O2-  O152  1  0.35067801  0.50258842  0.12684770  1
  O2-  O153  1  0.36185699  0.49288025  0.62479613  1
  O2-  O154  1  0.35994866  0.82684418  0.12581025  1
  O2-  O155  1  0.36067275  0.82774176  0.62529581  1
  O2-  O156  1  0.68319834  0.15993074  0.12575146  1
  O2-  O157  1  0.69075291  0.15721781  0.62430630  1
  O2-  O158  1  0.69262983  0.49554459  0.12446902  1
  O2-  O159  1  0.69190071  0.49082569  0.62467195  1
  O2-  O160  1  0.69024872  0.82371044  0.12461797  1
  O2-  O161  1  0.69225114  0.82638198  0.62461171  1
  O2-  O162  1  0.14688418  0.33011965  0.12465132  1
  O2-  O163  1  0.14069955  0.32349611  0.62556292  1
  O2-  O164  1  0.14029621  0.65885748  0.12661317  1
  O2-  O165  1  0.13867929  0.66737325  0.62585833  1
  O2-  O166  1  0.14079645  0.99409188  0.12409680  1
  O2-  O167  1  0.14035779  0.99524896  0.62493591  1
  O2-  O168  1  0.48280849  0.32761097  0.12541567  1
  O2-  O169  1  0.47611644  0.32877420  0.62533253  1
  O2-  O170  1  0.47779161  0.66552034  0.12777920  1
  O2-  O171  1  0.47565923  0.66037360  0.62433746  1
  O2-  O172  1  0.47543092  0.99751130  0.12388862  1
  O2-  O173  1  0.48178220  0.99358241  0.62590860  1
  O2-  O174  1  0.80886383  0.33310228  0.12721606  1
  O2-  O175  1  0.80502792  0.32449562  0.62471678  1
  O2-  O176  1  0.80602853  0.65810058  0.12396303  1
  O2-  O177  1  0.80081663  0.66050732  0.62506891  1
  O2-  O178  1  0.80668454  0.99474274  0.12476592  1
  O2-  O179  1  0.80451556  0.99493300  0.62447119  1
  O2-  O180  1  0.30839682  0.17361177  0.37583872  1
  O2-  O181  1  0.31059896  0.17092278  0.87233822  1
  O2-  O182  1  0.30843205  0.50511849  0.37621233  1
  O2-  O183  1  0.30944476  0.50658637  0.87255860  1
  O2-  O184  1  0.31745207  0.83758250  0.37439122  1
  O2-  O185  1  0.30898156  0.83508553  0.87417436  1
  O2-  O186  1  0.63925320  0.17499789  0.37784013  1
  O2-  O187  1  0.64119237  0.17382706  0.87240663  1
  O2-  O188  1  0.64445181  0.50715750  0.37837039  1
  O2-  O189  1  0.64286719  0.50626386  0.87285440  1
  O2-  O190  1  0.64226946  0.84348966  0.37596877  1
  O2-  O191  1  0.64210932  0.84009982  0.87432564  1
  O2-  O192  1  0.97485687  0.17044615  0.37868980  1
  O2-  O193  1  0.96989306  0.17038141  0.87307785  1
  O2-  O194  1  0.97453461  0.51081281  0.37867560  1
  O2-  O195  1  0.97448767  0.50675046  0.87036249  1
  O2-  O196  1  0.97144864  0.83693470  0.37513154  1
  O2-  O197  1  0.97295000  0.83920530  0.87422637  1
  O2-  O198  1  0.19380702  0.00662293  0.37411269  1
  O2-  O199  1  0.19509056  0.00491562  0.87647201  1
  O2-  O200  1  0.19336387  0.33535468  0.37611390  1
  O2-  O201  1  0.19355936  0.33647389  0.87325442  1
  O2-  O202  1  0.19038447  0.67079684  0.37584529  1
  O2-  O203  1  0.19291981  0.67429132  0.87170980  1
  O2-  O204  1  0.52757640  0.00324265  0.37672064  1
  O2-  O205  1  0.52758657  0.00701416  0.87359853  1
  O2-  O206  1  0.52454929  0.33842892  0.37692458  1
  O2-  O207  1  0.52677898  0.33839564  0.87282870  1
  O2-  O208  1  0.52942145  0.67578382  0.37698464  1
  O2-  O209  1  0.52397042  0.67452582  0.87169557  1
  O2-  O210  1  0.85639824  0.00269287  0.37528543  1
  O2-  O211  1  0.85487374  0.00157245  0.87498543  1
  O2-  O212  1  0.86013419  0.33797199  0.37746898  1
  O2-  O213  1  0.85747436  0.33992203  0.87137509  1
  O2-  O214  1  0.85909598  0.67260115  0.37821354  1
  O2-  O215  1  0.85829872  0.67337863  0.87282510  1
  O2-  O216  1  0.23833881  0.09298694  0.02178006  1
  O2-  O217  1  0.23612216  0.09590197  0.51759676  1
  O2-  O218  1  0.23754438  0.43184086  0.01403399  1
  O2-  O219  1  0.24041825  0.42218469  0.51859090  1
  O2-  O220  1  0.23676255  0.76085342  0.02101824  1
  O2-  O221  1  0.24105159  0.75785092  0.52166071  1
  O2-  O222  1  0.56777795  0.09842600  0.01504121  1
  O2-  O223  1  0.56611439  0.10018659  0.51800896  1
  O2-  O224  1  0.57616691  0.42691307  0.01676606  1
  O2-  O225  1  0.57173974  0.43266702  0.51633159  1
  O2-  O226  1  0.57247200  0.76234705  0.02008714  1
  O2-  O227  1  0.56870729  0.76872153  0.51959354  1
  O2-  O228  1  0.90808254  0.08879137  0.01832852  1
  O2-  O229  1  0.90210673  0.09161526  0.52022985  1
  O2-  O230  1  0.90448227  0.43012780  0.01476675  1
  O2-  O231  1  0.90340232  0.42801311  0.52134935  1
  O2-  O232  1  0.90368902  0.75864475  0.02192269  1
  O2-  O233  1  0.89907999  0.76535352  0.52135684  1
  O2-  O234  1  0.25952355  0.25848848  0.23266224  1
  O2-  O235  1  0.26164987  0.25880509  0.72888336  1
  O2-  O236  1  0.25958417  0.59533353  0.23217107  1
  O2-  O237  1  0.26417518  0.59612280  0.73048324  1
  O2-  O238  1  0.26014735  0.92513515  0.22733717  1
  O2-  O239  1  0.25885349  0.92248613  0.73274147  1
  O2-  O240  1  0.59591465  0.26073976  0.23143670  1
  O2-  O241  1  0.60016111  0.26571542  0.73100784  1
  O2-  O242  1  0.59564312  0.59746760  0.23360412  1
  O2-  O243  1  0.59646739  0.59935644  0.72927517  1
  O2-  O244  1  0.59634870  0.92919528  0.22565452  1
  O2-  O245  1  0.59902174  0.93179818  0.72979159  1
  O2-  O246  1  0.92584565  0.25883571  0.23634004  1
  O2-  O247  1  0.92882760  0.26135079  0.72726114  1
  O2-  O248  1  0.92907196  0.59442018  0.23006038  1
  O2-  O249  1  0.92576150  0.60047774  0.72701927  1
  O2-  O250  1  0.92681253  0.92612140  0.22839058  1
  O2-  O251  1  0.92816146  0.93076555  0.73350586  1
  O2-  O252  1  0.09639463  0.23834872  0.26672865  1
  O2-  O253  1  0.09521155  0.23807341  0.77197679  1
  O2-  O254  1  0.09522922  0.57114811  0.27244603  1
  O2-  O255  1  0.09525532  0.57506767  0.77254697  1
  O2-  O256  1  0.09100073  0.90817957  0.26829505  1
  O2-  O257  1  0.09253767  0.90694433  0.77166379  1
  O2-  O258  1  0.42700188  0.23762998  0.27142366  1
  O2-  O259  1  0.42797609  0.24114633  0.77128777  1
  O2-  O260  1  0.42777735  0.57599959  0.27545307  1
  O2-  O261  1  0.43142085  0.57304568  0.76902202  1
  O2-  O262  1  0.43395836  0.90524747  0.26570706  1
  O2-  O263  1  0.42865183  0.90654661  0.77248333  1
  O2-  O264  1  0.75786523  0.23821973  0.27303476  1
  O2-  O265  1  0.76350135  0.23428618  0.76977302  1
  O2-  O266  1  0.76496845  0.56998845  0.26907255  1
  O2-  O267  1  0.76300820  0.57206181  0.77001362  1
  O2-  O268  1  0.76362906  0.90082964  0.26594704  1
  O2-  O269  1  0.76181975  0.90372800  0.76860306  1
  O2-  O270  1  0.07213963  0.07203566  0.47796641  1
  O2-  O271  1  0.07186461  0.07357170  0.97776233  1
  O2-  O272  1  0.07198732  0.40324076  0.47979498  1
  O2-  O273  1  0.07335233  0.40670163  0.97416283  1
  O2-  O274  1  0.06814818  0.74145047  0.48431467  1
  O2-  O275  1  0.07163268  0.73803847  0.97839494  1
  O2-  O276  1  0.40478421  0.07072356  0.47647840  1
  O2-  O277  1  0.40580990  0.06900951  0.97967194  1
  O2-  O278  1  0.40725620  0.40545983  0.48021802  1
  O2-  O279  1  0.40765829  0.40719450  0.97776426  1
  O2-  O280  1  0.40723519  0.73709891  0.47999442  1
  O2-  O281  1  0.40248133  0.73609105  0.98351473  1
  O2-  O282  1  0.73807241  0.07303860  0.47657467  1
  O2-  O283  1  0.73530526  0.06945580  0.97903549  1
  O2-  O284  1  0.74067044  0.40580161  0.47763020  1
  O2-  O285  1  0.74053149  0.40387127  0.97972851  1
  O2-  O286  1  0.73569011  0.73888109  0.47636414  1
  O2-  O287  1  0.73646749  0.73947186  0.97817038  1
  O2-  O288  1  0.09747933  0.23708055  0.48204751  1
  O2-  O289  1  0.09209315  0.23788668  0.97808193  1
  O2-  O290  1  0.09446552  0.57394870  0.47920382  1
  O2-  O291  1  0.09534121  0.57198782  0.97737174  1
  O2-  O292  1  0.08835585  0.90961276  0.48148095  1
  O2-  O293  1  0.09597375  0.90624963  0.97868946  1
  O2-  O294  1  0.42594787  0.23937564  0.47881056  1
  O2-  O295  1  0.42883825  0.23930270  0.97926275  1
  O2-  O296  1  0.43196774  0.57378599  0.47934105  1
  O2-  O297  1  0.42731899  0.57393510  0.97761763  1
  O2-  O298  1  0.43040672  0.90780726  0.48258925  1
  O2-  O299  1  0.43242097  0.90438512  0.97820911  1
  O2-  O300  1  0.76151628  0.23701163  0.47921853  1
  O2-  O301  1  0.75994447  0.23658698  0.97792763  1
  O2-  O302  1  0.76607455  0.56980225  0.48294736  1
  O2-  O303  1  0.76189197  0.57185569  0.97751844  1
  O2-  O304  1  0.76125478  0.90341526  0.48067051  1
  O2-  O305  1  0.76352459  0.90154095  0.98369469  1
  O2-  O306  1  0.07213121  0.07394334  0.27033046  1
  O2-  O307  1  0.07146211  0.07253685  0.77318711  1
  O2-  O308  1  0.07178549  0.40598915  0.27642927  1
  O2-  O309  1  0.07417490  0.40353405  0.76970937  1
  O2-  O310  1  0.06899978  0.73585788  0.26720290  1
  O2-  O311  1  0.07180055  0.74250003  0.77162562  1
  O2-  O312  1  0.40284167  0.06841562  0.27217644  1
  O2-  O313  1  0.40698869  0.07112306  0.77258624  1
  O2-  O314  1  0.40824252  0.40763335  0.27193515  1
  O2-  O315  1  0.40725404  0.40473803  0.77072683  1
  O2-  O316  1  0.40677850  0.73779604  0.27157408  1
  O2-  O317  1  0.40295826  0.73607103  0.76610684  1
  O2-  O318  1  0.73649532  0.07247379  0.27419189  1
  O2-  O319  1  0.73536513  0.07024949  0.77000080  1
  O2-  O320  1  0.74144118  0.40439741  0.27160518  1
  O2-  O321  1  0.74041408  0.40492752  0.77152612  1
  O2-  O322  1  0.73596361  0.73778805  0.27137107  1
  O2-  O323  1  0.73746081  0.74053089  0.77258694  1
  O2-  O324  1  0.23842120  0.09482603  0.22705762  1
  O2-  O325  1  0.23687032  0.09467493  0.73284451  1
  O2-  O326  1  0.23450485  0.42891488  0.23613129  1
  O2-  O327  1  0.24128983  0.42304935  0.73105672  1
  O2-  O328  1  0.23940373  0.75775328  0.22696275  1
  O2-  O329  1  0.23825340  0.76042587  0.72783358  1
  O2-  O330  1  0.56613391  0.09778568  0.23539467  1
  O2-  O331  1  0.56735637  0.10151942  0.73169089  1
  O2-  O332  1  0.57821034  0.42730213  0.23547712  1
  O2-  O333  1  0.56971501  0.43161307  0.73235720  1
  O2-  O334  1  0.57118003  0.76456550  0.23090601  1
  O2-  O335  1  0.57020214  0.76667534  0.72984744  1
  O2-  O336  1  0.90667256  0.08958663  0.23436289  1
  O2-  O337  1  0.90307119  0.09035682  0.72715392  1
  O2-  O338  1  0.90487252  0.43191499  0.23451797  1
  O2-  O339  1  0.90326673  0.42640629  0.72827895  1
  O2-  O340  1  0.90294982  0.75908530  0.22790261  1
  O2-  O341  1  0.90089400  0.76547393  0.72934342  1
  O2-  O342  1  0.25816014  0.25783595  0.01587529  1
  O2-  O343  1  0.26250403  0.25870868  0.52136459  1
  O2-  O344  1  0.26071583  0.59651199  0.01876506  1
  O2-  O345  1  0.26533881  0.59435222  0.51803837  1
  O2-  O346  1  0.26464741  0.92594260  0.02072083  1
  O2-  O347  1  0.25420429  0.92224783  0.51855050  1
  O2-  O348  1  0.59760114  0.26090606  0.01856703  1
  O2-  O349  1  0.59817383  0.26567080  0.51979483  1
  O2-  O350  1  0.59626018  0.59833493  0.01487386  1
  O2-  O351  1  0.59638901  0.59760756  0.52375200  1
  O2-  O352  1  0.59577479  0.92948257  0.02459537  1
  O2-  O353  1  0.59866093  0.93154254  0.52032366  1
  O2-  O354  1  0.92864363  0.26230604  0.01330160  1
  O2-  O355  1  0.92559700  0.25918278  0.52423314  1
  O2-  O356  1  0.92901600  0.59334681  0.01873054  1
  O2-  O357  1  0.92628988  0.59992131  0.52407945  1
  O2-  O358  1  0.92696638  0.92724428  0.02075039  1
  O2-  O359  1  0.92660238  0.93012051  0.51676218  1
