# generated using pymatgen
data_Sr7Ca15Pr50Mn72O216
_symmetry_space_group_name_H-M   'P 1'
_cell_length_a   16.55964349
_cell_length_b   16.60638094
_cell_length_c   15.59186561
_cell_angle_alpha   90.00219739
_cell_angle_beta   89.99853355
_cell_angle_gamma   90.00365469
_symmetry_Int_Tables_number   1
_chemical_formula_structural   Sr7Ca15Pr50Mn72O216
_chemical_formula_sum   'Sr7 Ca15 Pr50 Mn72 O216'
_cell_volume   4287.69673498
_cell_formula_units_Z   1
loop_
 _symmetry_equiv_pos_site_id
 _symmetry_equiv_pos_as_xyz
  1  'x, y, z'
loop_
 _atom_type_symbol
 _atom_type_oxidation_number
  Sr2+  2.0
  Ca2+  2.0
  Pr3+  3.0
  Mn3.30+  3.3
  O2-  -2.0
loop_
 _atom_site_type_symbol
 _atom_site_label
 _atom_site_symmetry_multiplicity
 _atom_site_fract_x
 _atom_site_fract_y
 _atom_site_fract_z
 _atom_site_occupancy
  Sr2+  Sr0  1  0.66576512  0.34202181  0.62464785  1
  Sr2+  Sr1  1  0.16607904  0.15609494  0.87374309  1
  Sr2+  Sr2  1  0.16701885  0.51069086  0.12328189  1
  Sr2+  Sr3  1  0.16492387  0.84062330  0.12552871  1
  Sr2+  Sr4  1  0.83290269  0.50873732  0.62642808  1
  Sr2+  Sr5  1  0.82950407  0.82355024  0.37571617  1
  Sr2+  Sr6  1  0.66973183  0.98762518  0.37817473  1
  Ca2+  Ca7  1  0.33714104  0.98335040  0.37784316  1
  Ca2+  Ca8  1  1.00420368  0.31931406  0.37631066  1
  Ca2+  Ca9  1  0.16979087  0.51177750  0.62727122  1
  Ca2+  Ca10  1  0.82925242  0.15296507  0.87207267  1
  Ca2+  Ca11  1  0.65914244  0.01600074  0.62357443  1
  Ca2+  Ca12  1  1.00604209  0.64896042  0.87515229  1
  Ca2+  Ca13  1  0.50608991  0.84984434  0.62577457  1
  Ca2+  Ca14  1  0.66551069  0.68266045  0.12417229  1
  Ca2+  Ca15  1  0.17107943  0.84825177  0.62553820  1
  Ca2+  Ca16  1  0.66410388  0.68083188  0.62493114  1
  Ca2+  Ca17  1  0.49534765  0.15267341  0.86953432  1
  Ca2+  Ca18  1  0.16352064  0.48652347  0.87314463  1
  Ca2+  Ca19  1  0.50513190  0.18176805  0.62559497  1
  Ca2+  Ca20  1  0.33077880  0.34946693  0.62653051  1
  Ca2+  Ca21  1  -0.00277156  0.68196002  0.12340472  1
  Pr3+  Pr22  1  1.00089635  0.98513042  0.37728725  1
  Pr3+  Pr23  1  0.83098002  0.15419956  0.37712217  1
  Pr3+  Pr24  1  -0.00144151  0.67526809  0.62681516  1
  Pr3+  Pr25  1  0.33551994  0.31962459  0.87371362  1
  Pr3+  Pr26  1  0.50290489  0.17840054  0.12422873  1
  Pr3+  Pr27  1  0.33658040  0.32150377  0.37605701  1
  Pr3+  Pr28  1  0.17176305  0.18264797  0.62743111  1
  Pr3+  Pr29  1  0.66931694  0.65406908  0.87342369  1
  Pr3+  Pr30  1  0.66871855  0.32129183  0.37772190  1
  Pr3+  Pr31  1  0.16447649  0.15288882  0.37743139  1
  Pr3+  Pr32  1  0.50492841  0.51242455  0.62501863  1
  Pr3+  Pr33  1  0.84032829  0.51750275  0.12361225  1
  Pr3+  Pr34  1  0.49596385  0.82068873  0.87244458  1
  Pr3+  Pr35  1  0.33345694  0.01291332  0.62397910  1
  Pr3+  Pr36  1  0.49832971  0.82283689  0.37805002  1
  Pr3+  Pr37  1  -0.00156965  0.34640774  0.12473176  1
  Pr3+  Pr38  1  0.16163461  0.81994903  0.87247281  1
  Pr3+  Pr39  1  0.16413116  0.82073707  0.37752941  1
  Pr3+  Pr40  1  0.33522463  0.65448385  0.37482807  1
  Pr3+  Pr41  1  0.49610055  0.14955416  0.37846883  1
  Pr3+  Pr42  1  0.49694001  0.48689521  0.87399198  1
  Pr3+  Pr43  1  -0.00083130  0.01096254  0.62516911  1
  Pr3+  Pr44  1  0.66979489  0.31704926  0.87218421  1
  Pr3+  Pr45  1  0.32772391  0.68086662  0.62542698  1
  Pr3+  Pr46  1  0.16246057  0.48551007  0.37594948  1
  Pr3+  Pr47  1  0.50219406  0.84553016  0.12402522  1
  Pr3+  Pr48  1  0.66868492  0.98957136  0.87185434  1
  Pr3+  Pr49  1  0.66470381  0.34721586  0.12508733  1
  Pr3+  Pr50  1  0.83672787  0.17785367  0.12476692  1
  Pr3+  Pr51  1  0.83334086  0.48759743  0.87301558  1
  Pr3+  Pr52  1  1.00003263  0.65601872  0.37401608  1
  Pr3+  Pr53  1  0.32732214  0.68056855  0.12416499  1
  Pr3+  Pr54  1  0.66494682  0.01063696  0.12652795  1
  Pr3+  Pr55  1  -0.00383481  0.34703824  0.62531988  1
  Pr3+  Pr56  1  0.83598484  0.84443415  0.12524524  1
  Pr3+  Pr57  1  0.32935501  0.34606252  0.12468037  1
  Pr3+  Pr58  1  0.32829923  0.01022452  0.12628989  1
  Pr3+  Pr59  1  0.83198216  0.48912725  0.37635378  1
  Pr3+  Pr60  1  0.33611145  0.98917800  0.87275670  1
  Pr3+  Pr61  1  1.00363599  0.32131838  0.87427093  1
  Pr3+  Pr62  1  0.83106580  0.84356710  0.62412233  1
  Pr3+  Pr63  1  0.16956572  0.17732312  0.12334059  1
  Pr3+  Pr64  1  0.49797814  0.48860298  0.37565092  1
  Pr3+  Pr65  1  0.83264394  0.17720181  0.62521664  1
  Pr3+  Pr66  1  1.00262743  0.98857929  0.87332280  1
  Pr3+  Pr67  1  0.83197005  0.81936877  0.87319054  1
  Pr3+  Pr68  1  -0.00116310  0.00950952  0.12507471  1
  Pr3+  Pr69  1  0.67164616  0.65962822  0.37685418  1
  Pr3+  Pr70  1  0.50391167  0.51681841  0.12451036  1
  Pr3+  Pr71  1  0.33339430  0.65194246  0.87483192  1
  Mn3.30+  Mn72  1  0.16650945  -0.00112268  -0.00088781  1
  Mn3.30+  Mn73  1  0.16916371  -0.00091063  0.50122646  1
  Mn3.30+  Mn74  1  0.16645432  0.33412195  -0.00142999  1
  Mn3.30+  Mn75  1  0.16765081  0.33481632  0.50181474  1
  Mn3.30+  Mn76  1  0.16348289  0.66527596  -0.00048758  1
  Mn3.30+  Mn77  1  0.16689274  0.66533071  0.50193297  1
  Mn3.30+  Mn78  1  0.49991984  0.00149659  -0.00124824  1
  Mn3.30+  Mn79  1  0.49972883  -0.00149986  0.50169788  1
  Mn3.30+  Mn80  1  0.50051720  0.33234684  -0.00063421  1
  Mn3.30+  Mn81  1  0.49894705  0.33281863  0.50215194  1
  Mn3.30+  Mn82  1  0.50078130  0.66742992  -0.00045149  1
  Mn3.30+  Mn83  1  0.50080232  0.66902974  0.50224993  1
  Mn3.30+  Mn84  1  0.83327120  0.00078620  -0.00281425  1
  Mn3.30+  Mn85  1  0.83006275  -0.00084715  0.50354481  1
  Mn3.30+  Mn86  1  0.83278750  0.33227828  -0.00078876  1
  Mn3.30+  Mn87  1  0.83573185  0.33402353  0.49882130  1
  Mn3.30+  Mn88  1  0.83560703  0.66713367  -0.00206363  1
  Mn3.30+  Mn89  1  0.83231733  0.66626708  0.50332379  1
  Mn3.30+  Mn90  1  0.00082933  0.16672132  0.25147300  1
  Mn3.30+  Mn91  1  -0.00042555  0.16644559  0.75040327  1
  Mn3.30+  Mn92  1  -0.00003207  0.50089159  0.24939708  1
  Mn3.30+  Mn93  1  0.00341253  0.50077112  0.75031589  1
  Mn3.30+  Mn94  1  -0.00066277  0.83170851  0.25044584  1
  Mn3.30+  Mn95  1  0.00071948  0.83112839  0.74807197  1
  Mn3.30+  Mn96  1  0.33360865  0.16454081  0.25208004  1
  Mn3.30+  Mn97  1  0.33717225  0.16821705  0.74782606  1
  Mn3.30+  Mn98  1  0.33235184  0.50025368  0.24956422  1
  Mn3.30+  Mn99  1  0.33130898  0.49883656  0.74901451  1
  Mn3.30+  Mn100  1  0.33253724  0.83412898  0.25193271  1
  Mn3.30+  Mn101  1  0.33321935  0.83372294  0.74718868  1
  Mn3.30+  Mn102  1  0.66701308  0.16648208  0.25066509  1
  Mn3.30+  Mn103  1  0.66326324  0.16528234  0.74987060  1
  Mn3.30+  Mn104  1  0.66810402  0.50343794  0.24861771  1
  Mn3.30+  Mn105  1  0.66593698  0.50028739  0.74857180  1
  Mn3.30+  Mn106  1  0.66666573  0.83280126  0.24922881  1
  Mn3.30+  Mn107  1  0.66378508  0.83360101  0.74861800  1
  Mn3.30+  Mn108  1  0.16771833  -0.00159829  0.25259249  1
  Mn3.30+  Mn109  1  0.16774358  -0.00032166  0.74840408  1
  Mn3.30+  Mn110  1  0.16567864  0.33207325  0.25123724  1
  Mn3.30+  Mn111  1  0.16822695  0.33664549  0.74919525  1
  Mn3.30+  Mn112  1  0.16557844  0.66608222  0.24820735  1
  Mn3.30+  Mn113  1  0.16509796  0.66453086  0.74992715  1
  Mn3.30+  Mn114  1  0.49767166  -0.00146962  0.25179799  1
  Mn3.30+  Mn115  1  0.50216001  0.00141686  0.74786320  1
  Mn3.30+  Mn116  1  0.50026757  0.33350760  0.24981931  1
  Mn3.30+  Mn117  1  0.49927135  0.33182105  0.74837333  1
  Mn3.30+  Mn118  1  0.50196968  0.66864300  0.24935000  1
  Mn3.30+  Mn119  1  0.49995127  0.66801473  0.74779837  1
  Mn3.30+  Mn120  1  0.83231323  -0.00049477  0.25077098  1
  Mn3.30+  Mn121  1  0.83123395  0.00079506  0.74838242  1
  Mn3.30+  Mn122  1  0.83478592  0.33397862  0.25163346  1
  Mn3.30+  Mn123  1  0.83372162  0.33176836  0.75014925  1
  Mn3.30+  Mn124  1  0.83299478  0.66863648  0.24788220  1
  Mn3.30+  Mn125  1  0.83425022  0.66522231  0.74967437  1
  Mn3.30+  Mn126  1  -0.00052011  0.16591411  -0.00173149  1
  Mn3.30+  Mn127  1  0.00109544  0.16723395  0.50063761  1
  Mn3.30+  Mn128  1  0.00211576  0.50273823  -0.00089093  1
  Mn3.30+  Mn129  1  0.00156385  0.49915807  0.50047301  1
  Mn3.30+  Mn130  1  -0.00064366  0.83109672  -0.00099459  1
  Mn3.30+  Mn131  1  0.00104902  0.83130891  0.50298175  1
  Mn3.30+  Mn132  1  0.33594889  0.16532641  -0.00170327  1
  Mn3.30+  Mn133  1  0.33485363  0.16805560  0.50262148  1
  Mn3.30+  Mn134  1  0.33145663  0.49940940  -0.00105446  1
  Mn3.30+  Mn135  1  0.33214210  0.49966190  0.50226739  1
  Mn3.30+  Mn136  1  0.33130486  0.83336781  -0.00190790  1
  Mn3.30+  Mn137  1  0.33351744  0.83436965  0.50267412  1
  Mn3.30+  Mn138  1  0.66682357  0.16553092  -0.00212460  1
  Mn3.30+  Mn139  1  0.66359761  0.16608386  0.50175473  1
  Mn3.30+  Mn140  1  0.66795290  0.50112071  0.00021319  1
  Mn3.30+  Mn141  1  0.66605110  0.50208716  0.50138949  1
  Mn3.30+  Mn142  1  0.66676424  0.83280122  -0.00165649  1
  Mn3.30+  Mn143  1  0.66415964  0.83363800  0.50340063  1
  O2-  O144  1  0.02584674  0.15802632  0.12692943  1
  O2-  O145  1  0.02698336  0.16028503  0.62514434  1
  O2-  O146  1  0.01890616  0.49243105  0.12573019  1
  O2-  O147  1  0.02783082  0.49398276  0.62435117  1
  O2-  O148  1  0.01554726  0.83171292  0.12382893  1
  O2-  O149  1  0.02955016  0.82427971  0.62521374  1
  O2-  O150  1  0.35945979  0.15868113  0.12443731  1
  O2-  O151  1  0.36341990  0.16022396  0.62387564  1
  O2-  O152  1  0.35908997  0.49477027  0.12466191  1
  O2-  O153  1  0.36057556  0.49564165  0.62499359  1
  O2-  O154  1  0.35774409  0.82848117  0.12242243  1
  O2-  O155  1  0.36280167  0.82648848  0.62541040  1
  O2-  O156  1  0.69208873  0.16131019  0.12568135  1
  O2-  O157  1  0.68909678  0.16421858  0.62580435  1
  O2-  O158  1  0.69637087  0.49209609  0.12442536  1
  O2-  O159  1  0.68325801  0.49537170  0.62647190  1
  O2-  O160  1  0.69085321  0.82940640  0.11989288  1
  O2-  O161  1  0.68890518  0.82427441  0.62813698  1
  O2-  O162  1  0.14274550  0.32482878  0.12667069  1
  O2-  O163  1  0.13973632  0.32833119  0.62517514  1
  O2-  O164  1  0.14116979  0.66546153  0.12353157  1
  O2-  O165  1  0.14207965  0.65540925  0.62567636  1
  O2-  O166  1  0.14321573  0.99902966  0.12685415  1
  O2-  O167  1  0.14320149  0.99605725  0.62480716  1
  O2-  O168  1  0.47424026  0.32653433  0.12428468  1
  O2-  O169  1  0.47382915  0.32896217  0.62418269  1
  O2-  O170  1  0.47191279  0.66402983  0.12336457  1
  O2-  O171  1  0.47079791  0.65799588  0.62557173  1
  O2-  O172  1  0.47210549  0.99391330  0.12681162  1
  O2-  O173  1  0.47441756  0.99109663  0.62484558  1
  O2-  O174  1  0.80743111  0.32569170  0.12461860  1
  O2-  O175  1  0.81563575  0.32703605  0.62435940  1
  O2-  O176  1  0.80669595  0.66359741  0.12117929  1
  O2-  O177  1  0.80780518  0.66397353  0.62729427  1
  O2-  O178  1  0.80978213  0.99459042  0.12108832  1
  O2-  O179  1  0.80410979  0.99401764  0.62645839  1
  O2-  O180  1  0.30657720  0.17582310  0.37867386  1
  O2-  O181  1  0.31429958  0.17059638  0.87377593  1
  O2-  O182  1  0.30852289  0.50542021  0.37529209  1
  O2-  O183  1  0.30804454  0.50405316  0.87459664  1
  O2-  O184  1  0.30771674  0.83720704  0.37963951  1
  O2-  O185  1  0.30722448  0.84009691  0.87270983  1
  O2-  O186  1  0.64166418  0.17265926  0.37412827  1
  O2-  O187  1  0.63764671  0.16925498  0.87477997  1
  O2-  O188  1  0.64152393  0.51059585  0.37326875  1
  O2-  O189  1  0.64095832  0.50636342  0.87532100  1
  O2-  O190  1  0.64329223  0.83025324  0.37758854  1
  O2-  O191  1  0.63996973  0.84068596  0.87400296  1
  O2-  O192  1  0.97512621  0.17248315  0.37549577  1
  O2-  O193  1  0.97236495  0.17247957  0.87330645  1
  O2-  O194  1  0.97493363  0.50838451  0.37272377  1
  O2-  O195  1  0.97582592  0.50348624  0.87638940  1
  O2-  O196  1  0.97970985  0.83541678  0.37832481  1
  O2-  O197  1  0.97465808  0.84222664  0.87300930  1
  O2-  O198  1  0.19409742  0.00562777  0.37808991  1
  O2-  O199  1  0.19064634  -0.00002495  0.87172161  1
  O2-  O200  1  0.19326402  0.33667320  0.37637352  1
  O2-  O201  1  0.19133479  0.33959758  0.87252310  1
  O2-  O202  1  0.19124504  0.67246577  0.37650365  1
  O2-  O203  1  0.19164723  0.67478300  0.87380804  1
  O2-  O204  1  0.52132172  0.00190596  0.37590683  1
  O2-  O205  1  0.52539088  0.00704901  0.87266480  1
  O2-  O206  1  0.52438333  0.34046937  0.37401418  1
  O2-  O207  1  0.52617566  0.34142759  0.87728536  1
  O2-  O208  1  0.52692976  0.67394510  0.37611603  1
  O2-  O209  1  0.52437477  0.67114332  0.87447854  1
  O2-  O210  1  0.85646096  0.00481916  0.38016886  1
  O2-  O211  1  0.85888111  0.00662428  0.87254156  1
  O2-  O212  1  0.86271053  0.34026067  0.37513140  1
  O2-  O213  1  0.85943489  0.33886201  0.87592193  1
  O2-  O214  1  0.85476556  0.66811704  0.37678197  1
  O2-  O215  1  0.86215759  0.67179968  0.87383216  1
  O2-  O216  1  0.24123694  0.09269875  0.02023374  1
  O2-  O217  1  0.23909546  0.09805110  0.52255995  1
  O2-  O218  1  0.24249591  0.42214053  0.02024562  1
  O2-  O219  1  0.23364901  0.43171196  0.51759227  1
  O2-  O220  1  0.23930937  0.75931140  0.01606057  1
  O2-  O221  1  0.23857969  0.76336731  0.52292342  1
  O2-  O222  1  0.57423793  0.09251310  0.02563210  1
  O2-  O223  1  0.56563300  0.09509946  0.51763724  1
  O2-  O224  1  0.57105570  0.42863486  0.02265388  1
  O2-  O225  1  0.56894056  0.43067534  0.51336420  1
  O2-  O226  1  0.56861616  0.76255086  0.01625644  1
  O2-  O227  1  0.56656819  0.76526500  0.52032498  1
  O2-  O228  1  0.90594546  0.09261145  0.02249973  1
  O2-  O229  1  0.90591284  0.09197184  0.52226042  1
  O2-  O230  1  0.90437313  0.42906803  0.01870506  1
  O2-  O231  1  0.90895056  0.42630719  0.51841302  1
  O2-  O232  1  0.90157057  0.76417316  0.01621218  1
  O2-  O233  1  0.90748449  0.75798885  0.52470225  1
  O2-  O234  1  0.26274777  0.25977023  0.22928526  1
  O2-  O235  1  0.26266763  0.26382799  0.72955645  1
  O2-  O236  1  0.26264192  0.59640406  0.23253743  1
  O2-  O237  1  0.26553854  0.59802861  0.73358328  1
  O2-  O238  1  0.26288767  0.92739421  0.23310492  1
  O2-  O239  1  0.26551618  0.92765340  0.72926359  1
  O2-  O240  1  0.59533798  0.26178632  0.22924411  1
  O2-  O241  1  0.59429204  0.26286598  0.73602725  1
  O2-  O242  1  0.59714206  0.59667965  0.22504482  1
  O2-  O243  1  0.59292368  0.59951525  0.73018120  1
  O2-  O244  1  0.59167769  0.92628957  0.22766305  1
  O2-  O245  1  0.59822060  0.93299411  0.73175830  1
  O2-  O246  1  0.92894171  0.25849729  0.22660483  1
  O2-  O247  1  0.92786929  0.25884093  0.72878040  1
  O2-  O248  1  0.92716537  0.59857404  0.22839997  1
  O2-  O249  1  0.93174412  0.59229328  0.73167655  1
  O2-  O250  1  0.92689288  0.92866217  0.23349214  1
  O2-  O251  1  0.92742436  0.92575494  0.72670803  1
  O2-  O252  1  0.09771660  0.23464296  0.26868280  1
  O2-  O253  1  0.09276887  0.24191231  0.76708161  1
  O2-  O254  1  0.09448907  0.57351755  0.27275682  1
  O2-  O255  1  0.09803911  0.56961446  0.77124055  1
  O2-  O256  1  0.09327109  0.90713501  0.27345515  1
  O2-  O257  1  0.09091327  0.90413630  0.76893913  1
  O2-  O258  1  0.42716030  0.23482074  0.27053480  1
  O2-  O259  1  0.42812434  0.24020049  0.77367064  1
  O2-  O260  1  0.43128225  0.57450470  0.26946304  1
  O2-  O261  1  0.42782820  0.57106266  0.77082886  1
  O2-  O262  1  0.42963763  0.90305247  0.26841196  1
  O2-  O263  1  0.42912984  0.90827291  0.77249408  1
  O2-  O264  1  0.76343782  0.24139178  0.27281569  1
  O2-  O265  1  0.75987685  0.23677684  0.77027359  1
  O2-  O266  1  0.76368070  0.57161683  0.26892814  1
  O2-  O267  1  0.76083882  0.57413516  0.77396632  1
  O2-  O268  1  0.75854692  0.90536696  0.26107766  1
  O2-  O269  1  0.76193480  0.90520265  0.77106762  1
  O2-  O270  1  0.07133002  0.07202661  0.47955752  1
  O2-  O271  1  0.06998838  0.06970733  0.98227827  1
  O2-  O272  1  0.07124078  0.40306167  0.47669875  1
  O2-  O273  1  0.06836937  0.40484842  0.98375789  1
  O2-  O274  1  0.07253937  0.73682090  0.48014834  1
  O2-  O275  1  0.07126580  0.73923748  0.97673321  1
  O2-  O276  1  0.40307013  0.07014053  0.47914186  1
  O2-  O277  1  0.40490607  0.07044401  0.98129076  1
  O2-  O278  1  0.40575629  0.40696895  0.47820634  1
  O2-  O279  1  0.40656741  0.40360386  0.97946670  1
  O2-  O280  1  0.40376583  0.73818043  0.47858664  1
  O2-  O281  1  0.40353706  0.74018489  0.97743827  1
  O2-  O282  1  0.74176874  0.07884144  0.48295451  1
  O2-  O283  1  0.73773390  0.06928513  0.98129666  1
  O2-  O284  1  0.74174869  0.40807605  0.47674523  1
  O2-  O285  1  0.73720381  0.40419495  0.97846211  1
  O2-  O286  1  0.73637772  0.73823569  0.48669997  1
  O2-  O287  1  0.74017487  0.73898335  0.97439418  1
  O2-  O288  1  0.09990606  0.23741790  0.48342447  1
  O2-  O289  1  0.09252825  0.24130693  0.98215753  1
  O2-  O290  1  0.09259351  0.57158465  0.47634539  1
  O2-  O291  1  0.09703747  0.57001612  0.97749965  1
  O2-  O292  1  0.09292471  0.90622876  0.48031848  1
  O2-  O293  1  0.09178514  0.90537262  0.97859182  1
  O2-  O294  1  0.42704319  0.24025457  0.47504130  1
  O2-  O295  1  0.43106526  0.23662310  0.98027136  1
  O2-  O296  1  0.42945029  0.57361140  0.47827018  1
  O2-  O297  1  0.42921837  0.57198168  0.98038541  1
  O2-  O298  1  0.42769815  0.90479915  0.48059169  1
  O2-  O299  1  0.42774062  0.90613335  0.97798783  1
  O2-  O300  1  0.76246697  0.24235637  0.47903881  1
  O2-  O301  1  0.76110135  0.23620662  0.97735084  1
  O2-  O302  1  0.76015433  0.57398607  0.47891489  1
  O2-  O303  1  0.76542067  0.57211797  0.97747804  1
  O2-  O304  1  0.76054114  0.90344870  0.48854733  1
  O2-  O305  1  0.76257977  0.90647706  0.97688284  1
  O2-  O306  1  0.07104835  0.07122923  0.27374382  1
  O2-  O307  1  0.06837168  0.07190366  0.76669843  1
  O2-  O308  1  0.07220715  0.40218356  0.27122325  1
  O2-  O309  1  0.07104336  0.40435644  0.76960668  1
  O2-  O310  1  0.07453662  0.73991088  0.27078066  1
  O2-  O311  1  0.06975062  0.73528851  0.77166134  1
  O2-  O312  1  0.40270516  0.06949848  0.27349101  1
  O2-  O313  1  0.40526537  0.06982209  0.76672016  1
  O2-  O314  1  0.40602195  0.40577931  0.26931065  1
  O2-  O315  1  0.40495118  0.40552110  0.77221814  1
  O2-  O316  1  0.40537288  0.74017104  0.27092133  1
  O2-  O317  1  0.40263815  0.73806054  0.77178457  1
  O2-  O318  1  0.74243177  0.07516215  0.26768948  1
  O2-  O319  1  0.73682168  0.07348085  0.76942646  1
  O2-  O320  1  0.73723010  0.40725492  0.27250289  1
  O2-  O321  1  0.74272553  0.40499432  0.77229174  1
  O2-  O322  1  0.73687795  0.73659886  0.26486922  1
  O2-  O323  1  0.73828062  0.74146057  0.77297823  1
  O2-  O324  1  0.23818911  0.09544369  0.23053922  1
  O2-  O325  1  0.24430006  0.09643314  0.72741423  1
  O2-  O326  1  0.23940803  0.42311141  0.23273941  1
  O2-  O327  1  0.23873417  0.43024737  0.72755093  1
  O2-  O328  1  0.24090283  0.75811416  0.23364132  1
  O2-  O329  1  0.23503772  0.76165055  0.72834000  1
  O2-  O330  1  0.56934714  0.09252700  0.23043534  1
  O2-  O331  1  0.56922541  0.09645366  0.72708562  1
  O2-  O332  1  0.57449547  0.43173946  0.22861589  1
  O2-  O333  1  0.56675139  0.42976308  0.73512850  1
  O2-  O334  1  0.56961327  0.76320432  0.22999274  1
  O2-  O335  1  0.56587068  0.76589596  0.73373381  1
  O2-  O336  1  0.90723542  0.09457269  0.23147019  1
  O2-  O337  1  0.90552721  0.09209839  0.72507686  1
  O2-  O338  1  0.90317641  0.42812811  0.22875000  1
  O2-  O339  1  0.91056673  0.42523456  0.73410074  1
  O2-  O340  1  0.90360804  0.76088191  0.23103939  1
  O2-  O341  1  0.90531514  0.76125943  0.72817830  1
  O2-  O342  1  0.26365425  0.25790841  0.01943737  1
  O2-  O343  1  0.26341180  0.26524994  0.52436069  1
  O2-  O344  1  0.26347650  0.59755900  0.01694987  1
  O2-  O345  1  0.26431977  0.59751690  0.51709927  1
  O2-  O346  1  0.26316624  0.92910000  0.01665795  1
  O2-  O347  1  0.26324346  0.92749748  0.52225287  1
  O2-  O348  1  0.59585691  0.26279262  0.02154073  1
  O2-  O349  1  0.59281935  0.26222090  0.51335936  1
  O2-  O350  1  0.59755632  0.59524996  0.02180620  1
  O2-  O351  1  0.59338322  0.59861572  0.52154359  1
  O2-  O352  1  0.59320944  0.92894719  0.02035882  1
  O2-  O353  1  0.59519611  0.92899264  0.52087824  1
  O2-  O354  1  0.92791935  0.26061713  0.02257676  1
  O2-  O355  1  0.92830131  0.25756328  0.52170408  1
  O2-  O356  1  0.92974710  0.59599274  0.02225826  1
  O2-  O357  1  0.93015883  0.59479589  0.51711965  1
  O2-  O358  1  0.92677116  0.92878901  0.01807353  1
  O2-  O359  1  0.92808951  0.92518158  0.52276279  1
