# generated using pymatgen
data_Sr7Ca15Pr50Mn72O216
_symmetry_space_group_name_H-M   'P 1'
_cell_length_a   16.56096366
_cell_length_b   16.60379499
_cell_length_c   15.59100259
_cell_angle_alpha   90.00488924
_cell_angle_beta   90.00752504
_cell_angle_gamma   89.97910807
_symmetry_Int_Tables_number   1
_chemical_formula_structural   Sr7Ca15Pr50Mn72O216
_chemical_formula_sum   'Sr7 Ca15 Pr50 Mn72 O216'
_cell_volume   4287.13319063
_cell_formula_units_Z   1
loop_
 _symmetry_equiv_pos_site_id
 _symmetry_equiv_pos_as_xyz
  1  'x, y, z'
loop_
 _atom_type_symbol
 _atom_type_oxidation_number
  Sr2+  2.0
  Ca2+  2.0
  Pr3+  3.0
  Mn3.30+  3.3
  O2-  -2.0
loop_
 _atom_site_type_symbol
 _atom_site_label
 _atom_site_symmetry_multiplicity
 _atom_site_fract_x
 _atom_site_fract_y
 _atom_site_fract_z
 _atom_site_occupancy
  Sr2+  Sr0  1  -0.00159530  0.00865478  0.12724370  1
  Sr2+  Sr1  1  0.16783468  0.17746847  0.12643599  1
  Sr2+  Sr2  1  0.99964855  0.65839024  0.37445861  1
  Sr2+  Sr3  1  0.49605737  0.49160079  0.37180442  1
  Sr2+  Sr4  1  0.33142013  0.32415075  0.87714999  1
  Sr2+  Sr5  1  1.00057456  0.32511647  0.37455174  1
  Sr2+  Sr6  1  1.00130389  0.99213431  0.37535696  1
  Ca2+  Ca7  1  0.49867747  0.81538334  0.37461639  1
  Ca2+  Ca8  1  0.83024288  0.15188136  0.87539723  1
  Ca2+  Ca9  1  0.67237138  0.98409478  0.37598128  1
  Ca2+  Ca10  1  -0.00510230  0.01487264  0.62296351  1
  Ca2+  Ca11  1  0.66526169  0.67982587  0.12663863  1
  Ca2+  Ca12  1  0.67180011  0.31472137  0.87606199  1
  Ca2+  Ca13  1  0.33916633  0.65165214  0.37330448  1
  Ca2+  Ca14  1  0.83673628  0.51471727  0.12599731  1
  Ca2+  Ca15  1  0.50134257  0.51543680  0.12589818  1
  Ca2+  Ca16  1  0.66227601  0.68126235  0.62297837  1
  Ca2+  Ca17  1  0.66248699  0.01656942  0.62374334  1
  Ca2+  Ca18  1  0.16428716  0.48377441  0.87739626  1
  Ca2+  Ca19  1  0.32999850  0.34632674  0.12706441  1
  Ca2+  Ca20  1  0.33744461  0.32135809  0.37108230  1
  Ca2+  Ca21  1  0.83499761  0.84669588  0.12738621  1
  Pr3+  Pr22  1  0.50407642  0.84261000  0.12797638  1
  Pr3+  Pr23  1  -0.00377583  0.34678423  0.62404915  1
  Pr3+  Pr24  1  0.16886234  0.84527752  0.12717912  1
  Pr3+  Pr25  1  0.50500746  0.18092649  0.62524621  1
  Pr3+  Pr26  1  0.83440910  0.17684135  0.62569794  1
  Pr3+  Pr27  1  0.82721555  0.48438763  0.87713428  1
  Pr3+  Pr28  1  0.49820967  0.48655527  0.87819187  1
  Pr3+  Pr29  1  0.49896156  0.82090421  0.87570505  1
  Pr3+  Pr30  1  -0.00348237  0.34670337  0.12604306  1
  Pr3+  Pr31  1  0.49825568  0.15515644  0.87608642  1
  Pr3+  Pr32  1  0.33246368  0.34572842  0.62475360  1
  Pr3+  Pr33  1  0.33637478  0.65227440  0.87641447  1
  Pr3+  Pr34  1  0.83045249  0.15049857  0.37441041  1
  Pr3+  Pr35  1  0.16656441  0.17870360  0.62341456  1
  Pr3+  Pr36  1  0.66824089  0.65415153  0.37293094  1
  Pr3+  Pr37  1  0.16941584  0.50766358  0.12424113  1
  Pr3+  Pr38  1  0.66942822  0.65480312  0.87618806  1
  Pr3+  Pr39  1  0.67159834  0.98909203  0.87416294  1
  Pr3+  Pr40  1  0.66269624  0.34837215  0.12279999  1
  Pr3+  Pr41  1  0.66718187  0.01226898  0.12687969  1
  Pr3+  Pr42  1  0.32909478  0.01251192  0.12626204  1
  Pr3+  Pr43  1  0.66205416  0.34540997  0.62658644  1
  Pr3+  Pr44  1  0.83048069  0.82200601  0.87753547  1
  Pr3+  Pr45  1  1.00336896  0.65125985  0.87587774  1
  Pr3+  Pr46  1  0.16428126  0.15560253  0.87541395  1
  Pr3+  Pr47  1  0.49822143  0.15613057  0.37471151  1
  Pr3+  Pr48  1  0.83097993  0.82245645  0.37201963  1
  Pr3+  Pr49  1  1.00349521  0.32037999  0.87554550  1
  Pr3+  Pr50  1  0.50815482  0.84718521  0.62231358  1
  Pr3+  Pr51  1  0.83396297  0.51377397  0.62478551  1
  Pr3+  Pr52  1  -0.00577236  0.68016940  0.12675247  1
  Pr3+  Pr53  1  0.16816357  0.84635970  0.62265555  1
  Pr3+  Pr54  1  0.83923246  0.17629484  0.12409595  1
  Pr3+  Pr55  1  0.50111254  0.18091501  0.12510531  1
  Pr3+  Pr56  1  0.99952475  0.98954977  0.87478497  1
  Pr3+  Pr57  1  0.16690579  0.48859409  0.37365641  1
  Pr3+  Pr58  1  0.16454195  0.15741916  0.37421562  1
  Pr3+  Pr59  1  0.16841043  0.51072153  0.62548323  1
  Pr3+  Pr60  1  0.16320029  0.82109576  0.87525208  1
  Pr3+  Pr61  1  0.50392125  0.51557745  0.62485966  1
  Pr3+  Pr62  1  0.33293913  0.01301539  0.62357100  1
  Pr3+  Pr63  1  0.33255862  0.67620516  0.12842180  1
  Pr3+  Pr64  1  0.33675249  0.98890062  0.87531602  1
  Pr3+  Pr65  1  -0.00360191  0.67902110  0.62336012  1
  Pr3+  Pr66  1  0.33851428  0.98594366  0.37460368  1
  Pr3+  Pr67  1  0.83280969  0.84778224  0.62408678  1
  Pr3+  Pr68  1  0.82865015  0.48844199  0.37246548  1
  Pr3+  Pr69  1  0.66874393  0.32278405  0.37353030  1
  Pr3+  Pr70  1  0.16248087  0.81963483  0.37462001  1
  Pr3+  Pr71  1  0.33192380  0.67823882  0.62195770  1
  Mn3.30+  Mn72  1  0.16707899  0.00023335  -0.00036480  1
  Mn3.30+  Mn73  1  0.16617285  0.00087120  0.50057499  1
  Mn3.30+  Mn74  1  0.16719863  0.33288169  0.00111305  1
  Mn3.30+  Mn75  1  0.16797641  0.33422165  0.49848727  1
  Mn3.30+  Mn76  1  0.16619526  0.66409511  0.00025117  1
  Mn3.30+  Mn77  1  0.16760477  0.66594996  0.49858307  1
  Mn3.30+  Mn78  1  0.50125372  -0.00023248  0.00205633  1
  Mn3.30+  Mn79  1  0.50451774  -0.00117329  0.49687537  1
  Mn3.30+  Mn80  1  0.49953855  0.33498179  0.00105059  1
  Mn3.30+  Mn81  1  0.49834476  0.33532033  0.49768985  1
  Mn3.30+  Mn82  1  0.50265241  0.66613544  0.00245320  1
  Mn3.30+  Mn83  1  0.49956996  0.66747955  0.49812347  1
  Mn3.30+  Mn84  1  0.83406411  -0.00025411  -0.00001588  1
  Mn3.30+  Mn85  1  0.83114080  -0.00072360  0.50089979  1
  Mn3.30+  Mn86  1  0.83120157  0.33251035  -0.00032942  1
  Mn3.30+  Mn87  1  0.83165893  0.33275770  0.49976325  1
  Mn3.30+  Mn88  1  0.83221525  0.66648858  0.00268815  1
  Mn3.30+  Mn89  1  0.83025649  0.66771531  0.50004894  1
  Mn3.30+  Mn90  1  0.00061439  0.16749762  0.25026048  1
  Mn3.30+  Mn91  1  -0.00244525  0.16579120  0.74993761  1
  Mn3.30+  Mn92  1  -0.00097231  0.50127708  0.25034062  1
  Mn3.30+  Mn93  1  -0.00061042  0.49957237  0.75094919  1
  Mn3.30+  Mn94  1  -0.00148759  0.83451274  0.25039564  1
  Mn3.30+  Mn95  1  -0.00110435  0.83449459  0.74855732  1
  Mn3.30+  Mn96  1  0.33366173  0.16928256  0.25061221  1
  Mn3.30+  Mn97  1  0.33400738  0.16714082  0.75010152  1
  Mn3.30+  Mn98  1  0.33551575  0.49850166  0.24818201  1
  Mn3.30+  Mn99  1  0.33338783  0.49924049  0.75217255  1
  Mn3.30+  Mn100  1  0.33630720  0.83066406  0.25306125  1
  Mn3.30+  Mn101  1  0.33415906  0.83314674  0.74827498  1
  Mn3.30+  Mn102  1  0.66682673  0.16644800  0.24954512  1
  Mn3.30+  Mn103  1  0.66866068  0.16624222  0.75136075  1
  Mn3.30+  Mn104  1  0.66483369  0.50191464  0.24550188  1
  Mn3.30+  Mn105  1  0.66630019  0.49964548  0.75172733  1
  Mn3.30+  Mn106  1  0.66598943  0.83310939  0.25039133  1
  Mn3.30+  Mn107  1  0.66701118  0.83404840  0.74860573  1
  Mn3.30+  Mn108  1  0.16763264  0.00082841  0.25141782  1
  Mn3.30+  Mn109  1  0.16536583  0.00021897  0.74789081  1
  Mn3.30+  Mn110  1  0.16895487  0.33343588  0.25028866  1
  Mn3.30+  Mn111  1  0.16572320  0.33363015  0.75067960  1
  Mn3.30+  Mn112  1  0.16690746  0.66526411  0.25043887  1
  Mn3.30+  Mn113  1  0.16670125  0.66487625  0.75057523  1
  Mn3.30+  Mn114  1  0.50236187  -0.00169198  0.25276746  1
  Mn3.30+  Mn115  1  0.50299528  0.00061483  0.74885126  1
  Mn3.30+  Mn116  1  0.49746201  0.33671943  0.24753580  1
  Mn3.30+  Mn117  1  0.50114197  0.33356288  0.75402990  1
  Mn3.30+  Mn118  1  0.50059146  0.66587600  0.24942401  1
  Mn3.30+  Mn119  1  0.50175028  0.66781875  0.74986749  1
  Mn3.30+  Mn120  1  0.83251912  -0.00248263  0.25106870  1
  Mn3.30+  Mn121  1  0.83270380  0.00133425  0.74751300  1
  Mn3.30+  Mn122  1  0.83228180  0.33379217  0.24858907  1
  Mn3.30+  Mn123  1  0.83100837  0.33132613  0.75189581  1
  Mn3.30+  Mn124  1  0.83118123  0.66644585  0.24738195  1
  Mn3.30+  Mn125  1  0.83163861  0.66754701  0.74983692  1
  Mn3.30+  Mn126  1  -0.00144561  0.16626692  -0.00007936  1
  Mn3.30+  Mn127  1  -0.00067037  0.16676486  0.49959708  1
  Mn3.30+  Mn128  1  -0.00166320  0.49945982  0.00044304  1
  Mn3.30+  Mn129  1  -0.00029113  0.50136658  0.49799766  1
  Mn3.30+  Mn130  1  -0.00237085  0.83358348  0.00057331  1
  Mn3.30+  Mn131  1  -0.00068565  0.83561023  0.50038551  1
  Mn3.30+  Mn132  1  0.33295333  0.16871067  0.00065943  1
  Mn3.30+  Mn133  1  0.33470693  0.16827450  0.49923995  1
  Mn3.30+  Mn134  1  0.33411697  0.49744586  0.00128752  1
  Mn3.30+  Mn135  1  0.33502226  0.49981078  0.49856299  1
  Mn3.30+  Mn136  1  0.33383609  0.83230670  0.00060766  1
  Mn3.30+  Mn137  1  0.33665366  0.83154195  0.49794411  1
  Mn3.30+  Mn138  1  0.66911243  0.16751828  0.00005342  1
  Mn3.30+  Mn139  1  0.66645316  0.16494486  0.49901840  1
  Mn3.30+  Mn140  1  0.66643363  0.50129902  0.00303482  1
  Mn3.30+  Mn141  1  0.66486465  0.50091186  0.49947681  1
  Mn3.30+  Mn142  1  0.66795657  0.83301797  0.00337000  1
  Mn3.30+  Mn143  1  0.66546776  0.83402868  0.49785400  1
  O2-  O144  1  0.01643126  0.16595621  0.12471630  1
  O2-  O145  1  0.02229448  0.16216171  0.62515087  1
  O2-  O146  1  0.02433989  0.49613643  0.12438142  1
  O2-  O147  1  0.02276714  0.49663802  0.62478580  1
  O2-  O148  1  0.02481508  0.82858055  0.12412724  1
  O2-  O149  1  0.02489582  0.82535096  0.62592833  1
  O2-  O150  1  0.35834582  0.15742684  0.12600670  1
  O2-  O151  1  0.36097288  0.16112934  0.62510983  1
  O2-  O152  1  0.35837448  0.49223250  0.12304886  1
  O2-  O153  1  0.35932876  0.49428914  0.62767535  1
  O2-  O154  1  0.35980101  0.82652541  0.12901476  1
  O2-  O155  1  0.36277422  0.82683605  0.62367649  1
  O2-  O156  1  0.69445255  0.16103974  0.12422360  1
  O2-  O157  1  0.68987506  0.16400068  0.62287077  1
  O2-  O158  1  0.69698352  0.49241872  0.12270163  1
  O2-  O159  1  0.69120645  0.49142900  0.62757348  1
  O2-  O160  1  0.69237816  0.82644270  0.12484644  1
  O2-  O161  1  0.68926018  0.82324952  0.62292307  1
  O2-  O162  1  0.14160978  0.33575880  0.12559148  1
  O2-  O163  1  0.14080130  0.32966112  0.62541914  1
  O2-  O164  1  0.13887646  0.65805482  0.12392169  1
  O2-  O165  1  0.13997966  0.65829232  0.62719300  1
  O2-  O166  1  0.15024819  0.99343236  0.12536215  1
  O2-  O167  1  0.13860300  0.99409431  0.62504598  1
  O2-  O168  1  0.47242086  0.32608266  0.12397096  1
  O2-  O169  1  0.47764989  0.32885670  0.62784521  1
  O2-  O170  1  0.47640811  0.66873307  0.12459107  1
  O2-  O171  1  0.47602411  0.66466028  0.62651982  1
  O2-  O172  1  0.47273170  0.99180654  0.12837689  1
  O2-  O173  1  0.47552073  0.99460504  0.62153628  1
  O2-  O174  1  0.80659475  0.32247775  0.12366871  1
  O2-  O175  1  0.80528756  0.32607859  0.62624255  1
  O2-  O176  1  0.80648688  0.65760287  0.12334206  1
  O2-  O177  1  0.80452051  0.66100365  0.62471754  1
  O2-  O178  1  0.81110735  0.99627643  0.12553243  1
  O2-  O179  1  0.80343818  0.99629172  0.62417782  1
  O2-  O180  1  0.30991803  0.17357585  0.37626240  1
  O2-  O181  1  0.30933975  0.16602238  0.87320463  1
  O2-  O182  1  0.31055564  0.50873059  0.37439915  1
  O2-  O183  1  0.30728718  0.50703410  0.87464475  1
  O2-  O184  1  0.30557423  0.84003691  0.37564951  1
  O2-  O185  1  0.30711152  0.84070499  0.87168817  1
  O2-  O186  1  0.64114737  0.17613707  0.37447299  1
  O2-  O187  1  0.64147359  0.16839529  0.87848700  1
  O2-  O188  1  0.64684339  0.50418831  0.37194901  1
  O2-  O189  1  0.64105433  0.50939623  0.87691369  1
  O2-  O190  1  0.64073556  0.84050381  0.37485394  1
  O2-  O191  1  0.64234968  0.84204442  0.87702219  1
  O2-  O192  1  0.97593193  0.16965296  0.37657122  1
  O2-  O193  1  0.97274414  0.17317035  0.87327815  1
  O2-  O194  1  0.97288105  0.50251788  0.37511423  1
  O2-  O195  1  0.97126967  0.50388785  0.87579553  1
  O2-  O196  1  0.97657356  0.83476157  0.37722008  1
  O2-  O197  1  0.97510547  0.83906466  0.87267210  1
  O2-  O198  1  0.19407558  0.00649958  0.37722096  1
  O2-  O199  1  0.19265256  0.00437221  0.87249008  1
  O2-  O200  1  0.19494196  0.34016774  0.37597458  1
  O2-  O201  1  0.18185454  0.33615855  0.87351495  1
  O2-  O202  1  0.19516430  0.67298338  0.37457430  1
  O2-  O203  1  0.19317894  0.67559785  0.87445630  1
  O2-  O204  1  0.53136859  0.01048309  0.37433549  1
  O2-  O205  1  0.52728146  0.00616201  0.87647023  1
  O2-  O206  1  0.52540481  0.33589039  0.37099876  1
  O2-  O207  1  0.52930685  0.33902045  0.87750989  1
  O2-  O208  1  0.52445932  0.66725636  0.37244533  1
  O2-  O209  1  0.52484675  0.67205845  0.87614448  1
  O2-  O210  1  0.85216920  0.00113450  0.37698578  1
  O2-  O211  1  0.85523204  0.00308411  0.87257255  1
  O2-  O212  1  0.85024952  0.34084379  0.37423109  1
  O2-  O213  1  0.86057222  0.34013796  0.87579708  1
  O2-  O214  1  0.85056705  0.67223612  0.37500348  1
  O2-  O215  1  0.85944621  0.67388413  0.87637990  1
  O2-  O216  1  0.24242368  0.09169616  0.01601561  1
  O2-  O217  1  0.24116584  0.09342939  0.52222215  1
  O2-  O218  1  0.23790236  0.42769200  0.01583840  1
  O2-  O219  1  0.23967894  0.42853353  0.52200261  1
  O2-  O220  1  0.23730482  0.75876868  0.02173218  1
  O2-  O221  1  0.23841635  0.75959888  0.52306619  1
  O2-  O222  1  0.57272361  0.09387732  0.02338850  1
  O2-  O223  1  0.57029488  0.09749876  0.51920482  1
  O2-  O224  1  0.57128887  0.43230625  0.02315223  1
  O2-  O225  1  0.57160993  0.42813993  0.52166046  1
  O2-  O226  1  0.57082253  0.76522919  0.01623884  1
  O2-  O227  1  0.57044028  0.76322028  0.51550639  1
  O2-  O228  1  0.90403317  0.09527683  0.01470805  1
  O2-  O229  1  0.90113680  0.09408081  0.51730929  1
  O2-  O230  1  0.90097830  0.42928470  0.02230519  1
  O2-  O231  1  0.90260527  0.42554914  0.52162405  1
  O2-  O232  1  0.90258020  0.76143023  0.02259233  1
  O2-  O233  1  0.90346469  0.76019282  0.52139809  1
  O2-  O234  1  0.26361418  0.26308990  0.23141274  1
  O2-  O235  1  0.25970123  0.25785658  0.72727325  1
  O2-  O236  1  0.25956775  0.59080322  0.22606324  1
  O2-  O237  1  0.26213436  0.59515025  0.72869277  1
  O2-  O238  1  0.26433117  0.92561786  0.23202028  1
  O2-  O239  1  0.26284054  0.92663090  0.72599522  1
  O2-  O240  1  0.59409531  0.26307227  0.22781719  1
  O2-  O241  1  0.59574227  0.26071549  0.73128606  1
  O2-  O242  1  0.59767338  0.59762726  0.22903026  1
  O2-  O243  1  0.59494318  0.59790432  0.72887728  1
  O2-  O244  1  0.59475705  0.92618202  0.22559031  1
  O2-  O245  1  0.59711426  0.93032578  0.72840844  1
  O2-  O246  1  0.92460242  0.26126773  0.22989551  1
  O2-  O247  1  0.92793162  0.26243677  0.72801760  1
  O2-  O248  1  0.92686094  0.59470648  0.22993123  1
  O2-  O249  1  0.92849842  0.59515068  0.73054870  1
  O2-  O250  1  0.92459828  0.92407604  0.23451140  1
  O2-  O251  1  0.92712785  0.93106684  0.72764121  1
  O2-  O252  1  0.09708392  0.24194154  0.26952230  1
  O2-  O253  1  0.09282779  0.23729995  0.76809879  1
  O2-  O254  1  0.09726510  0.57263881  0.26927108  1
  O2-  O255  1  0.09669481  0.57072693  0.77343710  1
  O2-  O256  1  0.09921778  0.90589077  0.26723793  1
  O2-  O257  1  0.09519319  0.90513576  0.77084042  1
  O2-  O258  1  0.43079808  0.23575497  0.26692925  1
  O2-  O259  1  0.43241017  0.23790711  0.76863292  1
  O2-  O260  1  0.42601256  0.57360198  0.26029032  1
  O2-  O261  1  0.42896708  0.57267792  0.77113057  1
  O2-  O262  1  0.43085633  0.90430618  0.27508218  1
  O2-  O263  1  0.43049408  0.90706430  0.77018850  1
  O2-  O264  1  0.76081198  0.23797657  0.27070012  1
  O2-  O265  1  0.76500083  0.23475641  0.76993993  1
  O2-  O266  1  0.76048541  0.57309175  0.27043220  1
  O2-  O267  1  0.76210260  0.57066353  0.77138264  1
  O2-  O268  1  0.75965224  0.90393171  0.26772203  1
  O2-  O269  1  0.76329486  0.90444625  0.76863323  1
  O2-  O270  1  0.07865577  0.07698554  0.48168159  1
  O2-  O271  1  0.07284992  0.07466375  0.97597544  1
  O2-  O272  1  0.07677091  0.40867421  0.48295759  1
  O2-  O273  1  0.06617492  0.40450257  0.98399155  1
  O2-  O274  1  0.07576259  0.74095513  0.48437837  1
  O2-  O275  1  0.07016416  0.73881595  0.97938313  1
  O2-  O276  1  0.40755608  0.07021407  0.47871088  1
  O2-  O277  1  0.40691026  0.07183862  0.98063370  1
  O2-  O278  1  0.40082403  0.40109093  0.48389920  1
  O2-  O279  1  0.40868504  0.40924249  0.97703789  1
  O2-  O280  1  0.40232545  0.73492569  0.47952114  1
  O2-  O281  1  0.40429665  0.73978841  0.97908424  1
  O2-  O282  1  0.73768794  0.07252879  0.47685703  1
  O2-  O283  1  0.73701617  0.06897501  0.98360316  1
  O2-  O284  1  0.73699578  0.40529636  0.48195314  1
  O2-  O285  1  0.73561294  0.40223800  0.97785140  1
  O2-  O286  1  0.73714238  0.74044465  0.47655688  1
  O2-  O287  1  0.73928566  0.74071985  0.97631380  1
  O2-  O288  1  0.09794268  0.24031408  0.48364770  1
  O2-  O289  1  0.09219237  0.23886071  0.97905147  1
  O2-  O290  1  0.09834457  0.57334916  0.48146768  1
  O2-  O291  1  0.09577772  0.57041155  0.97628340  1
  O2-  O292  1  0.09959322  0.90474994  0.48237700  1
  O2-  O293  1  0.09505852  0.90564262  0.97940332  1
  O2-  O294  1  0.43112208  0.23740920  0.48352623  1
  O2-  O295  1  0.43061913  0.23527807  0.98241475  1
  O2-  O296  1  0.42779870  0.57060741  0.48893360  1
  O2-  O297  1  0.42717789  0.57383459  0.97999452  1
  O2-  O298  1  0.43236717  0.90506450  0.47637033  1
  O2-  O299  1  0.42921987  0.90681607  0.97869309  1
  O2-  O300  1  0.76060561  0.23830826  0.47887237  1
  O2-  O301  1  0.76454057  0.23506449  0.97941004  1
  O2-  O302  1  0.76078268  0.57095465  0.48045534  1
  O2-  O303  1  0.76153876  0.57300563  0.97610250  1
  O2-  O304  1  0.76370714  0.90129962  0.48269357  1
  O2-  O305  1  0.75988483  0.90690891  0.97967011  1
  O2-  O306  1  0.07918448  0.07717730  0.26877604  1
  O2-  O307  1  0.07189724  0.07510181  0.77315074  1
  O2-  O308  1  0.07535598  0.40933028  0.26752989  1
  O2-  O309  1  0.06657552  0.40438904  0.76564113  1
  O2-  O310  1  0.07473839  0.74216261  0.26608030  1
  O2-  O311  1  0.07253793  0.73712851  0.77044107  1
  O2-  O312  1  0.40815866  0.07143403  0.27201771  1
  O2-  O313  1  0.40601491  0.07096697  0.76933427  1
  O2-  O314  1  0.40237906  0.40271117  0.26888906  1
  O2-  O315  1  0.40869514  0.40683467  0.77018993  1
  O2-  O316  1  0.40307816  0.73609937  0.27017377  1
  O2-  O317  1  0.40469719  0.73843935  0.77176218  1
  O2-  O318  1  0.73762250  0.06971759  0.26985070  1
  O2-  O319  1  0.73763655  0.07111575  0.76852987  1
  O2-  O320  1  0.73664492  0.40489988  0.26694717  1
  O2-  O321  1  0.73744980  0.40159767  0.77345140  1
  O2-  O322  1  0.73713928  0.74044114  0.27150089  1
  O2-  O323  1  0.73928454  0.74076706  0.77359030  1
  O2-  O324  1  0.24458981  0.09173017  0.23482096  1
  O2-  O325  1  0.23808369  0.09266220  0.72710525  1
  O2-  O326  1  0.23750517  0.43001783  0.23270526  1
  O2-  O327  1  0.24068726  0.42571128  0.72846771  1
  O2-  O328  1  0.23817948  0.75842214  0.22742891  1
  O2-  O329  1  0.23780418  0.75999379  0.72695738  1
  O2-  O330  1  0.57269642  0.09499552  0.22675752  1
  O2-  O331  1  0.57048144  0.09653015  0.73201355  1
  O2-  O332  1  0.57191354  0.42904930  0.22370700  1
  O2-  O333  1  0.57121782  0.42939921  0.73101057  1
  O2-  O334  1  0.57156400  0.76233766  0.23334064  1
  O2-  O335  1  0.56925289  0.76577985  0.73522445  1
  O2-  O336  1  0.90208004  0.09429998  0.23718971  1
  O2-  O337  1  0.90426512  0.09471453  0.72933136  1
  O2-  O338  1  0.90342665  0.42668768  0.22810931  1
  O2-  O339  1  0.90124364  0.42736530  0.72864191  1
  O2-  O340  1  0.90254503  0.75863764  0.22890719  1
  O2-  O341  1  0.90425630  0.76170002  0.72829646  1
  O2-  O342  1  0.26336081  0.26012093  0.01888268  1
  O2-  O343  1  0.25928075  0.26057736  0.52477782  1
  O2-  O344  1  0.26339556  0.59286752  0.02164497  1
  O2-  O345  1  0.26004985  0.59174362  0.52370676  1
  O2-  O346  1  0.26344809  0.92490709  0.01976763  1
  O2-  O347  1  0.26347765  0.92751772  0.52143485  1
  O2-  O348  1  0.59429411  0.26027655  0.02235728  1
  O2-  O349  1  0.59468571  0.26289204  0.51915829  1
  O2-  O350  1  0.59933543  0.59842643  0.02000172  1
  O2-  O351  1  0.59548586  0.59572896  0.52075344  1
  O2-  O352  1  0.59538335  0.92789249  0.02319875  1
  O2-  O353  1  0.59721767  0.92909134  0.52395778  1
  O2-  O354  1  0.92833582  0.26356914  0.01945702  1
  O2-  O355  1  0.92388716  0.26059117  0.52263277  1
  O2-  O356  1  0.93166975  0.59739283  0.01705344  1
  O2-  O357  1  0.92364468  0.59440932  0.52226177  1
  O2-  O358  1  0.92769236  0.92845735  0.01196927  1
  O2-  O359  1  0.92587382  0.92776427  0.52491903  1
