# generated using pymatgen
data_Sr7Ca15Pr50Mn72O216
_symmetry_space_group_name_H-M   'P 1'
_cell_length_a   16.55731567
_cell_length_b   16.60660614
_cell_length_c   15.59342336
_cell_angle_alpha   90.00704005
_cell_angle_beta   89.99235626
_cell_angle_gamma   90.00373060
_symmetry_Int_Tables_number   1
_chemical_formula_structural   Sr7Ca15Pr50Mn72O216
_chemical_formula_sum   'Sr7 Ca15 Pr50 Mn72 O216'
_cell_volume   4287.58039366
_cell_formula_units_Z   1
loop_
 _symmetry_equiv_pos_site_id
 _symmetry_equiv_pos_as_xyz
  1  'x, y, z'
loop_
 _atom_type_symbol
 _atom_type_oxidation_number
  Sr2+  2.0
  Ca2+  2.0
  Pr3+  3.0
  Mn3.30+  3.3
  O2-  -2.0
loop_
 _atom_site_type_symbol
 _atom_site_label
 _atom_site_symmetry_multiplicity
 _atom_site_fract_x
 _atom_site_fract_y
 _atom_site_fract_z
 _atom_site_occupancy
  Sr2+  Sr0  1  0.83292397  0.17448444  0.62411091  1
  Sr2+  Sr1  1  0.83276476  0.84256136  0.12723824  1
  Sr2+  Sr2  1  0.49667120  0.49112986  0.37349384  1
  Sr2+  Sr3  1  0.50223211  0.17646326  0.12552272  1
  Sr2+  Sr4  1  0.83117263  0.82376988  0.37629823  1
  Sr2+  Sr5  1  0.33531636  0.32650959  0.37594494  1
  Sr2+  Sr6  1  0.16778425  0.51246857  0.62462410  1
  Ca2+  Ca7  1  0.32927760  0.67991670  0.62146396  1
  Ca2+  Ca8  1  0.66631706  0.01118096  0.61970721  1
  Ca2+  Ca9  1  0.34100191  0.98208418  0.37614117  1
  Ca2+  Ca10  1  0.83407204  0.84547928  0.62169995  1
  Ca2+  Ca11  1  0.66962109  0.98340303  0.37791209  1
  Ca2+  Ca12  1  -0.00538295  0.68236335  0.62221318  1
  Ca2+  Ca13  1  1.00256520  0.65356300  0.37561964  1
  Ca2+  Ca14  1  0.16828154  0.51433381  0.12606488  1
  Ca2+  Ca15  1  0.66454441  0.68320265  0.62187367  1
  Ca2+  Ca16  1  0.32987903  0.01338770  0.62209506  1
  Ca2+  Ca17  1  0.49800674  0.81945400  0.37559080  1
  Ca2+  Ca18  1  0.50252883  0.51386600  0.12808142  1
  Ca2+  Ca19  1  -0.00422755  0.34901044  0.12489597  1
  Ca2+  Ca20  1  1.00309329  0.31842177  0.87447060  1
  Ca2+  Ca21  1  0.50568412  0.84682867  0.13017850  1
  Pr3+  Pr22  1  0.82738693  0.15175114  0.37707297  1
  Pr3+  Pr23  1  0.32991623  0.34609989  0.62384637  1
  Pr3+  Pr24  1  0.16276381  0.81716520  0.37545002  1
  Pr3+  Pr25  1  0.66784070  0.32294036  0.37457888  1
  Pr3+  Pr26  1  0.33688166  0.65474336  0.37738146  1
  Pr3+  Pr27  1  0.49673279  0.48750875  0.87577745  1
  Pr3+  Pr28  1  0.83289962  0.15391573  0.87309778  1
  Pr3+  Pr29  1  0.16393904  0.48998456  0.37405637  1
  Pr3+  Pr30  1  0.82996565  0.82119386  0.87327517  1
  Pr3+  Pr31  1  0.33729236  0.98618174  0.87433235  1
  Pr3+  Pr32  1  -0.00385365  0.34584622  0.62566002  1
  Pr3+  Pr33  1  0.66085049  0.68214246  0.12710382  1
  Pr3+  Pr34  1  0.50286523  0.17721291  0.62385651  1
  Pr3+  Pr35  1  0.83189149  0.48484965  0.87529351  1
  Pr3+  Pr36  1  0.16764280  0.15237609  0.37504986  1
  Pr3+  Pr37  1  0.49834223  0.82079038  0.87483048  1
  Pr3+  Pr38  1  1.00208167  0.65496070  0.87460517  1
  Pr3+  Pr39  1  0.17016509  0.84448046  0.12619645  1
  Pr3+  Pr40  1  0.50159295  0.84666935  0.62161544  1
  Pr3+  Pr41  1  0.16111509  0.48476407  0.87568831  1
  Pr3+  Pr42  1  0.49569592  0.15212755  0.37393886  1
  Pr3+  Pr43  1  0.50202373  0.51582279  0.62300375  1
  Pr3+  Pr44  1  1.00410952  0.32093952  0.37436495  1
  Pr3+  Pr45  1  0.17205161  0.84442548  0.62387262  1
  Pr3+  Pr46  1  0.66052005  0.34860538  0.12487883  1
  Pr3+  Pr47  1  0.16242161  0.15360128  0.87519801  1
  Pr3+  Pr48  1  1.00086979  0.98571689  0.37710678  1
  Pr3+  Pr49  1  0.67029266  0.65403381  0.87269255  1
  Pr3+  Pr50  1  0.83893163  0.51506865  0.62475965  1
  Pr3+  Pr51  1  0.33468495  0.01223776  0.12853716  1
  Pr3+  Pr52  1  0.16949031  0.18029539  0.12590939  1
  Pr3+  Pr53  1  -0.00239586  0.67860501  0.12665797  1
  Pr3+  Pr54  1  0.16479670  0.81948913  0.87452732  1
  Pr3+  Pr55  1  0.33110395  0.34972590  0.12576869  1
  Pr3+  Pr56  1  0.66303151  0.00934887  0.12957167  1
  Pr3+  Pr57  1  0.66609921  0.34426764  0.62525263  1
  Pr3+  Pr58  1  0.83195980  0.49164587  0.37503691  1
  Pr3+  Pr59  1  0.83714357  0.17939598  0.12644086  1
  Pr3+  Pr60  1  1.00242960  0.98619728  0.87305494  1
  Pr3+  Pr61  1  0.83585311  0.51308150  0.12534693  1
  Pr3+  Pr62  1  0.33523006  0.65410811  0.87189737  1
  Pr3+  Pr63  1  -0.00344316  0.01065055  0.62310519  1
  Pr3+  Pr64  1  0.33448405  0.67736719  0.12693785  1
  Pr3+  Pr65  1  0.33406731  0.31992889  0.87461763  1
  Pr3+  Pr66  1  0.66774326  0.65768833  0.37756454  1
  Pr3+  Pr67  1  0.17042484  0.17771154  0.62395938  1
  Pr3+  Pr68  1  -0.00443636  0.00951931  0.12643811  1
  Pr3+  Pr69  1  0.66992998  0.31873254  0.87565467  1
  Pr3+  Pr70  1  0.66874793  0.98804236  0.87241325  1
  Pr3+  Pr71  1  0.49733084  0.15131270  0.87593678  1
  Mn3.30+  Mn72  1  0.16708769  -0.00060846  0.00129384  1
  Mn3.30+  Mn73  1  0.17103432  -0.00202650  0.49815607  1
  Mn3.30+  Mn74  1  0.16286975  0.33466493  0.00282005  1
  Mn3.30+  Mn75  1  0.16683382  0.33344480  0.49859338  1
  Mn3.30+  Mn76  1  0.16755716  0.66487520  0.00081685  1
  Mn3.30+  Mn77  1  0.16485150  0.66628404  0.50209492  1
  Mn3.30+  Mn78  1  0.50122019  -0.00239018  0.00150190  1
  Mn3.30+  Mn79  1  0.49952951  -0.00162436  0.49875801  1
  Mn3.30+  Mn80  1  0.49962708  0.33394156  0.00093622  1
  Mn3.30+  Mn81  1  0.49921884  0.33440258  0.49979065  1
  Mn3.30+  Mn82  1  0.50057303  0.66663917  -0.00011799  1
  Mn3.30+  Mn83  1  0.49950546  0.66945970  0.50172011  1
  Mn3.30+  Mn84  1  0.83304576  -0.00051535  0.00017495  1
  Mn3.30+  Mn85  1  0.83055043  -0.00267190  0.50121938  1
  Mn3.30+  Mn86  1  0.83582256  0.33246283  0.00072728  1
  Mn3.30+  Mn87  1  0.83399156  0.33362010  0.49949984  1
  Mn3.30+  Mn88  1  0.83297952  0.66679256  0.00020600  1
  Mn3.30+  Mn89  1  0.83419150  0.66930849  0.50124195  1
  Mn3.30+  Mn90  1  0.00012825  0.16646443  0.25049773  1
  Mn3.30+  Mn91  1  -0.00002577  0.16711772  0.74978357  1
  Mn3.30+  Mn92  1  0.00090479  0.50018551  0.24816185  1
  Mn3.30+  Mn93  1  -0.00010875  0.50122307  0.74977290  1
  Mn3.30+  Mn94  1  -0.00039734  0.83147702  0.25206907  1
  Mn3.30+  Mn95  1  -0.00110379  0.83144037  0.74661516  1
  Mn3.30+  Mn96  1  0.33445239  0.16801965  0.25119003  1
  Mn3.30+  Mn97  1  0.33331206  0.16418157  0.74908736  1
  Mn3.30+  Mn98  1  0.33338876  0.50155982  0.24772147  1
  Mn3.30+  Mn99  1  0.33136897  0.50140213  0.74944240  1
  Mn3.30+  Mn100  1  0.33693233  0.83391197  0.25125354  1
  Mn3.30+  Mn101  1  0.33391351  0.83276914  0.74772912  1
  Mn3.30+  Mn102  1  0.66570675  0.16578815  0.25135996  1
  Mn3.30+  Mn103  1  0.66629689  0.16471469  0.74806618  1
  Mn3.30+  Mn104  1  0.66486681  0.50140661  0.25105812  1
  Mn3.30+  Mn105  1  0.66724652  0.50128201  0.74805814  1
  Mn3.30+  Mn106  1  0.66394927  0.83427311  0.25386479  1
  Mn3.30+  Mn107  1  0.66705856  0.83417766  0.74499166  1
  Mn3.30+  Mn108  1  0.16876253  -0.00125331  0.25200903  1
  Mn3.30+  Mn109  1  0.16865860  -0.00103986  0.74846662  1
  Mn3.30+  Mn110  1  0.16501922  0.33586199  0.24743023  1
  Mn3.30+  Mn111  1  0.16471769  0.33265151  0.75057954  1
  Mn3.30+  Mn112  1  0.16632216  0.66487008  0.24961365  1
  Mn3.30+  Mn113  1  0.16642495  0.66648593  0.74672380  1
  Mn3.30+  Mn114  1  0.50058978  -0.00359208  0.25427156  1
  Mn3.30+  Mn115  1  0.50025510  -0.00070392  0.74555748  1
  Mn3.30+  Mn116  1  0.49900055  0.33453776  0.24939990  1
  Mn3.30+  Mn117  1  0.49967133  0.33330717  0.75040163  1
  Mn3.30+  Mn118  1  0.49943439  0.66786478  0.25084644  1
  Mn3.30+  Mn119  1  0.50081750  0.66836195  0.74687521  1
  Mn3.30+  Mn120  1  0.83034337  -0.00164219  0.25180102  1
  Mn3.30+  Mn121  1  0.83334117  -0.00154483  0.74683471  1
  Mn3.30+  Mn122  1  0.83461334  0.33401284  0.24936074  1
  Mn3.30+  Mn123  1  0.83489621  0.33203445  0.75075237  1
  Mn3.30+  Mn124  1  0.83360566  0.66775895  0.25258055  1
  Mn3.30+  Mn125  1  0.83347459  0.66882975  0.74615594  1
  Mn3.30+  Mn126  1  0.00017062  0.16842397  0.00142470  1
  Mn3.30+  Mn127  1  -0.00021916  0.16563696  0.49883820  1
  Mn3.30+  Mn128  1  0.00106548  0.49766998  0.00176672  1
  Mn3.30+  Mn129  1  0.00008601  0.50354773  0.50003839  1
  Mn3.30+  Mn130  1  -0.00069050  0.83288284  0.00010137  1
  Mn3.30+  Mn131  1  -0.00058299  0.82979514  0.50093406  1
  Mn3.30+  Mn132  1  0.33265992  0.16710674  0.00165956  1
  Mn3.30+  Mn133  1  0.33508181  0.16419535  0.49870653  1
  Mn3.30+  Mn134  1  0.33177307  0.50133944  0.00067485  1
  Mn3.30+  Mn135  1  0.33284841  0.50175931  0.50126044  1
  Mn3.30+  Mn136  1  0.33602119  0.83282716  0.00275780  1
  Mn3.30+  Mn137  1  0.33463522  0.83401484  0.49853679  1
  Mn3.30+  Mn138  1  0.66753965  0.16551464  0.00069002  1
  Mn3.30+  Mn139  1  0.66484775  0.16486872  0.50000147  1
  Mn3.30+  Mn140  1  0.66502468  0.50104722  -0.00000179  1
  Mn3.30+  Mn141  1  0.66703934  0.50181904  0.50138977  1
  Mn3.30+  Mn142  1  0.66468783  0.83395375  0.00049938  1
  Mn3.30+  Mn143  1  0.66646566  0.83450028  0.50115985  1
  O2-  O144  1  0.02624944  0.15428266  0.12631211  1
  O2-  O145  1  0.02590083  0.15996301  0.62230162  1
  O2-  O146  1  0.02648806  0.49293340  0.12332382  1
  O2-  O147  1  0.01881579  0.49119607  0.62724748  1
  O2-  O148  1  0.02498158  0.82951214  0.12703011  1
  O2-  O149  1  0.02816246  0.82872533  0.62497160  1
  O2-  O150  1  0.35289023  0.16082203  0.12558659  1
  O2-  O151  1  0.35881020  0.15898088  0.62353741  1
  O2-  O152  1  0.36016472  0.49791822  0.12220693  1
  O2-  O153  1  0.35710161  0.49313696  0.62847985  1
  O2-  O154  1  0.36347644  0.82524509  0.12569147  1
  O2-  O155  1  0.35691083  0.82381283  0.62293630  1
  O2-  O156  1  0.69258747  0.15857353  0.12596969  1
  O2-  O157  1  0.68336729  0.16234696  0.62461510  1
  O2-  O158  1  0.69189420  0.49631042  0.12595617  1
  O2-  O159  1  0.69528484  0.49102415  0.62552530  1
  O2-  O160  1  0.68426728  0.82977314  0.12610568  1
  O2-  O161  1  0.69345030  0.82576850  0.62521090  1
  O2-  O162  1  0.13544591  0.32595348  0.12470414  1
  O2-  O163  1  0.14063670  0.32578192  0.62376278  1
  O2-  O164  1  0.14166799  0.66335338  0.12454840  1
  O2-  O165  1  0.13825186  0.66869193  0.62558959  1
  O2-  O166  1  0.13999674  0.99306168  0.12540558  1
  O2-  O167  1  0.14104732  0.99437763  0.62251507  1
  O2-  O168  1  0.47589780  0.32919755  0.12166533  1
  O2-  O169  1  0.47447495  0.32580938  0.62695950  1
  O2-  O170  1  0.47763799  0.65817826  0.12232050  1
  O2-  O171  1  0.47141487  0.66303683  0.62596546  1
  O2-  O172  1  0.47755063  0.99215373  0.12885598  1
  O2-  O173  1  0.47017923  0.99513145  0.62332760  1
  O2-  O174  1  0.80528003  0.32791930  0.12441982  1
  O2-  O175  1  0.81035829  0.33198833  0.62309148  1
  O2-  O176  1  0.80693008  0.66124768  0.12574016  1
  O2-  O177  1  0.80492623  0.65883438  0.62557742  1
  O2-  O178  1  0.80886997  1.00079739  0.12662420  1
  O2-  O179  1  0.80969303  0.99388255  0.62570893  1
  O2-  O180  1  0.31007936  0.17328424  0.37403337  1
  O2-  O181  1  0.30667758  0.17041663  0.87759283  1
  O2-  O182  1  0.30939235  0.50573707  0.37356706  1
  O2-  O183  1  0.30594301  0.50602737  0.87428114  1
  O2-  O184  1  0.30632767  0.83803734  0.37457543  1
  O2-  O185  1  0.30859586  0.83960419  0.87640602  1
  O2-  O186  1  0.64039280  0.17676855  0.37595749  1
  O2-  O187  1  0.64190248  0.17054939  0.87395634  1
  O2-  O188  1  0.64623899  0.50683893  0.37685813  1
  O2-  O189  1  0.64067263  0.50601734  0.87207090  1
  O2-  O190  1  0.63967605  0.83658175  0.37742530  1
  O2-  O191  1  0.64147209  0.84000513  0.87171204  1
  O2-  O192  1  0.97278060  0.17226779  0.37444009  1
  O2-  O193  1  0.97662976  0.17265872  0.87734361  1
  O2-  O194  1  0.97577347  0.50687895  0.37382753  1
  O2-  O195  1  0.97416043  0.50903804  0.87467759  1
  O2-  O196  1  0.98158306  0.83919470  0.37576311  1
  O2-  O197  1  0.97549456  0.83768015  0.87215859  1
  O2-  O198  1  0.19755450  0.00434419  0.37542209  1
  O2-  O199  1  0.19301250  0.00429809  0.87680202  1
  O2-  O200  1  0.18485207  0.34036867  0.37275493  1
  O2-  O201  1  0.19096301  0.33620710  0.87827002  1
  O2-  O202  1  0.19205191  0.66844981  0.37440338  1
  O2-  O203  1  0.19108518  0.67179232  0.87497243  1
  O2-  O204  1  0.52906441  0.00667774  0.37642484  1
  O2-  O205  1  0.52389043  0.00214394  0.87164515  1
  O2-  O206  1  0.52386401  0.33712930  0.37649563  1
  O2-  O207  1  0.52568225  0.33986316  0.87571107  1
  O2-  O208  1  0.52349233  0.67195688  0.37857722  1
  O2-  O209  1  0.52693602  0.67314516  0.87260139  1
  O2-  O210  1  0.85714585  0.00430627  0.37570057  1
  O2-  O211  1  0.85861501  0.00422528  0.87262912  1
  O2-  O212  1  0.85974800  0.34102454  0.37433292  1
  O2-  O213  1  0.86048604  0.33708282  0.87823558  1
  O2-  O214  1  0.85846036  0.66488817  0.37597960  1
  O2-  O215  1  0.85749938  0.67271257  0.87276877  1
  O2-  O216  1  0.23813666  0.09358994  0.02146313  1
  O2-  O217  1  0.23753925  0.09568951  0.51793725  1
  O2-  O218  1  0.23366427  0.42869905  0.02186224  1
  O2-  O219  1  0.24138899  0.42522630  0.51683886  1
  O2-  O220  1  0.24146172  0.76240329  0.02124958  1
  O2-  O221  1  0.23541053  0.76302965  0.51481130  1
  O2-  O222  1  0.57502586  0.09165747  0.01579893  1
  O2-  O223  1  0.56661229  0.09556080  0.51737004  1
  O2-  O224  1  0.57062395  0.43218413  0.02009250  1
  O2-  O225  1  0.57647213  0.42674049  0.52478060  1
  O2-  O226  1  0.56871342  0.76393094  0.01905629  1
  O2-  O227  1  0.57228346  0.76173783  0.52169021  1
  O2-  O228  1  0.90577068  0.09585535  0.01949558  1
  O2-  O229  1  0.90867229  0.09039699  0.51612380  1
  O2-  O230  1  0.90259003  0.43035175  0.01923603  1
  O2-  O231  1  0.90521384  0.42976492  0.51795080  1
  O2-  O232  1  0.90826657  0.75856014  0.01678275  1
  O2-  O233  1  0.90348035  0.76089457  0.52334253  1
  O2-  O234  1  0.25587907  0.26391665  0.22601531  1
  O2-  O235  1  0.26216574  0.25959095  0.73020097  1
  O2-  O236  1  0.26155611  0.59630933  0.23010444  1
  O2-  O237  1  0.26319947  0.60011003  0.73142614  1
  O2-  O238  1  0.26347641  0.92440443  0.22507789  1
  O2-  O239  1  0.26348716  0.92909059  0.72914596  1
  O2-  O240  1  0.59797635  0.26465122  0.23272472  1
  O2-  O241  1  0.59426393  0.26257808  0.73148265  1
  O2-  O242  1  0.59613354  0.59574142  0.23306028  1
  O2-  O243  1  0.59533957  0.59815041  0.72619079  1
  O2-  O244  1  0.59396305  0.92744111  0.23127930  1
  O2-  O245  1  0.59600421  0.93064297  0.72537688  1
  O2-  O246  1  0.93053554  0.26113682  0.22780881  1
  O2-  O247  1  0.92968461  0.26226826  0.73145669  1
  O2-  O248  1  0.92788488  0.59050911  0.22556683  1
  O2-  O249  1  0.92837427  0.59852766  0.72883418  1
  O2-  O250  1  0.92892182  0.93021638  0.23523017  1
  O2-  O251  1  0.93180992  0.92880345  0.73121892  1
  O2-  O252  1  0.09413203  0.23630367  0.27138927  1
  O2-  O253  1  0.09711209  0.23611664  0.76780331  1
  O2-  O254  1  0.09504580  0.57074771  0.26709474  1
  O2-  O255  1  0.09467126  0.57260220  0.77276510  1
  O2-  O256  1  0.09742183  0.90543740  0.27036230  1
  O2-  O257  1  0.09599634  0.90475653  0.77021467  1
  O2-  O258  1  0.43045402  0.23943512  0.26776006  1
  O2-  O259  1  0.42686920  0.23696799  0.77203134  1
  O2-  O260  1  0.42382691  0.57744356  0.26807519  1
  O2-  O261  1  0.43020153  0.57193775  0.77065446  1
  O2-  O262  1  0.43031266  0.90304639  0.27372961  1
  O2-  O263  1  0.42948395  0.90479528  0.76909151  1
  O2-  O264  1  0.76366166  0.23935223  0.27060606  1
  O2-  O265  1  0.76060793  0.24019553  0.77159851  1
  O2-  O266  1  0.76111484  0.57335769  0.26988644  1
  O2-  O267  1  0.76267414  0.57127206  0.77142896  1
  O2-  O268  1  0.75687029  0.90792516  0.26692769  1
  O2-  O269  1  0.76015242  0.90681590  0.77250500  1
  O2-  O270  1  0.07610431  0.07030701  0.47713867  1
  O2-  O271  1  0.07054623  0.07237520  0.97854029  1
  O2-  O272  1  0.07009029  0.40736158  0.48053928  1
  O2-  O273  1  0.06957142  0.40400560  0.97415764  1
  O2-  O274  1  0.07161167  0.73745801  0.47696857  1
  O2-  O275  1  0.07448343  0.73816573  0.98073071  1
  O2-  O276  1  0.40532827  0.07019981  0.47482478  1
  O2-  O277  1  0.40757398  0.07007784  0.98157357  1
  O2-  O278  1  0.40823927  0.40577481  0.48978773  1
  O2-  O279  1  0.40067278  0.40691684  0.97788800  1
  O2-  O280  1  0.40368406  0.74057478  0.47949743  1
  O2-  O281  1  0.40515798  0.73805539  0.97732891  1
  O2-  O282  1  0.73695804  0.07544299  0.47919064  1
  O2-  O283  1  0.74099324  0.07246590  0.97661734  1
  O2-  O284  1  0.74056242  0.40631944  0.47855270  1
  O2-  O285  1  0.73706059  0.40500153  0.97932827  1
  O2-  O286  1  0.73690281  0.73812795  0.48117060  1
  O2-  O287  1  0.73531156  0.74095823  0.97980351  1
  O2-  O288  1  0.09475822  0.23780321  0.47798813  1
  O2-  O289  1  0.09764325  0.23514002  0.98325491  1
  O2-  O290  1  0.09535801  0.57152533  0.47996319  1
  O2-  O291  1  0.09277151  0.57093227  0.97835752  1
  O2-  O292  1  0.09789104  0.90471654  0.47994975  1
  O2-  O293  1  0.09572145  0.90519502  0.97951378  1
  O2-  O294  1  0.43042518  0.23448091  0.48469760  1
  O2-  O295  1  0.42526047  0.23992538  0.97652067  1
  O2-  O296  1  0.42618811  0.57500232  0.48465931  1
  O2-  O297  1  0.42788832  0.57500611  0.97436142  1
  O2-  O298  1  0.43235062  0.90222987  0.47998426  1
  O2-  O299  1  0.42697687  0.90578466  0.97789111  1
  O2-  O300  1  0.75973024  0.24189470  0.47812266  1
  O2-  O301  1  0.76373120  0.23707384  0.97938591  1
  O2-  O302  1  0.76199831  0.57297746  0.48101092  1
  O2-  O303  1  0.76141027  0.57089979  0.97851606  1
  O2-  O304  1  0.75782398  0.90698549  0.48309976  1
  O2-  O305  1  0.75952482  0.90633070  0.97791613  1
  O2-  O306  1  0.07147194  0.07172706  0.27348405  1
  O2-  O307  1  0.07353384  0.07127375  0.77006155  1
  O2-  O308  1  0.07098919  0.40713290  0.27197039  1
  O2-  O309  1  0.07074117  0.40386790  0.77130440  1
  O2-  O310  1  0.07413463  0.73629882  0.26986741  1
  O2-  O311  1  0.07261332  0.73967447  0.77331467  1
  O2-  O312  1  0.40777101  0.06689822  0.27064841  1
  O2-  O313  1  0.40546482  0.07211669  0.77343178  1
  O2-  O314  1  0.40356020  0.40596005  0.26119346  1
  O2-  O315  1  0.40598072  0.40448746  0.77168892  1
  O2-  O316  1  0.40197268  0.73766771  0.26897063  1
  O2-  O317  1  0.40692890  0.74038411  0.77304071  1
  O2-  O318  1  0.73899799  0.07243749  0.27412444  1
  O2-  O319  1  0.74126847  0.07403587  0.77055292  1
  O2-  O320  1  0.73765635  0.40765475  0.26991208  1
  O2-  O321  1  0.73974043  0.40397347  0.77196336  1
  O2-  O322  1  0.73443980  0.73864027  0.26762062  1
  O2-  O323  1  0.73967892  0.74018973  0.77281921  1
  O2-  O324  1  0.23687606  0.09338351  0.23047149  1
  O2-  O325  1  0.23731985  0.09556034  0.73148555  1
  O2-  O326  1  0.23795471  0.43087353  0.22662574  1
  O2-  O327  1  0.23910645  0.42358943  0.73372367  1
  O2-  O328  1  0.23949150  0.76104330  0.22987190  1
  O2-  O329  1  0.23597418  0.76383685  0.73467051  1
  O2-  O330  1  0.57321015  0.09112787  0.23280923  1
  O2-  O331  1  0.56734573  0.09555422  0.73381856  1
  O2-  O332  1  0.57274798  0.42776080  0.22824710  1
  O2-  O333  1  0.57247545  0.42983957  0.72840552  1
  O2-  O334  1  0.57083395  0.75971447  0.23010213  1
  O2-  O335  1  0.56985269  0.76536656  0.73061659  1
  O2-  O336  1  0.90526264  0.09517407  0.23173958  1
  O2-  O337  1  0.90890258  0.09194571  0.73278551  1
  O2-  O338  1  0.90355557  0.42911183  0.23036487  1
  O2-  O339  1  0.90358733  0.42967106  0.73263745  1
  O2-  O340  1  0.90869551  0.75588130  0.23034518  1
  O2-  O341  1  0.90199401  0.76501377  0.72971499  1
  O2-  O342  1  0.25890712  0.26424506  0.02171105  1
  O2-  O343  1  0.26136706  0.25754180  0.52238812  1
  O2-  O344  1  0.26339036  0.59692998  0.01846260  1
  O2-  O345  1  0.26090165  0.59843136  0.51801582  1
  O2-  O346  1  0.26411979  0.92651820  0.02356749  1
  O2-  O347  1  0.26326651  0.92675229  0.52398035  1
  O2-  O348  1  0.60019781  0.26283561  0.01607306  1
  O2-  O349  1  0.59441829  0.26220867  0.52063068  1
  O2-  O350  1  0.59789172  0.59961324  0.01529140  1
  O2-  O351  1  0.59427601  0.59483069  0.52319789  1
  O2-  O352  1  0.59749762  0.93008463  0.01627047  1
  O2-  O353  1  0.59359236  0.92813702  0.52533061  1
  O2-  O354  1  0.92948341  0.25917073  0.02699784  1
  O2-  O355  1  0.92944975  0.26505849  0.51633026  1
  O2-  O356  1  0.92998529  0.59230136  0.02132907  1
  O2-  O357  1  0.92701495  0.59475415  0.52314646  1
  O2-  O358  1  0.92926268  0.93087524  0.01591549  1
  O2-  O359  1  0.93227853  0.92624445  0.51724446  1
