# generated using pymatgen
data_Sr7Ca15Pr50Mn72O216
_symmetry_space_group_name_H-M   'P 1'
_cell_length_a   16.55740959
_cell_length_b   16.60140314
_cell_length_c   15.59543946
_cell_angle_alpha   89.99609084
_cell_angle_beta   89.99659841
_cell_angle_gamma   89.98706308
_symmetry_Int_Tables_number   1
_chemical_formula_structural   Sr7Ca15Pr50Mn72O216
_chemical_formula_sum   'Sr7 Ca15 Pr50 Mn72 O216'
_cell_volume   4286.81549934
_cell_formula_units_Z   1
loop_
 _symmetry_equiv_pos_site_id
 _symmetry_equiv_pos_as_xyz
  1  'x, y, z'
loop_
 _atom_type_symbol
 _atom_type_oxidation_number
  Sr2+  2.0
  Ca2+  2.0
  Pr3+  3.0
  Mn3.30+  3.3
  O2-  -2.0
loop_
 _atom_site_type_symbol
 _atom_site_label
 _atom_site_symmetry_multiplicity
 _atom_site_fract_x
 _atom_site_fract_y
 _atom_site_fract_z
 _atom_site_occupancy
  Sr2+  Sr0  1  0.50489891  0.84245196  0.12277661  1
  Sr2+  Sr1  1  0.66847043  0.66044071  0.37367456  1
  Sr2+  Sr2  1  0.16728532  0.15859262  0.37642061  1
  Sr2+  Sr3  1  0.66443360  0.00816340  0.12649665  1
  Sr2+  Sr4  1  0.82961739  0.82558203  0.37450914  1
  Sr2+  Sr5  1  0.49761184  0.15575078  0.37496662  1
  Sr2+  Sr6  1  0.66462884  0.67522267  0.62419248  1
  Ca2+  Ca7  1  -0.00458596  0.01669016  0.62478552  1
  Ca2+  Ca8  1  0.82786070  0.48541266  0.87418780  1
  Ca2+  Ca9  1  0.66359448  0.01353703  0.62352465  1
  Ca2+  Ca10  1  0.82507255  0.14893682  0.37715331  1
  Ca2+  Ca11  1  0.66869484  0.98676027  0.87562096  1
  Ca2+  Ca12  1  0.16458604  0.15418189  0.87267393  1
  Ca2+  Ca13  1  0.33815091  0.31566614  0.37741620  1
  Ca2+  Ca14  1  0.33741714  0.31788348  0.87327616  1
  Ca2+  Ca15  1  0.50196382  0.51565144  0.62609224  1
  Ca2+  Ca16  1  0.50060666  0.81878113  0.87592705  1
  Ca2+  Ca17  1  0.33100464  0.34478750  0.62320312  1
  Ca2+  Ca18  1  0.66232075  0.68387192  0.12572042  1
  Ca2+  Ca19  1  0.33926370  0.65307822  0.87442389  1
  Ca2+  Ca20  1  0.66901012  0.98761949  0.37504685  1
  Ca2+  Ca21  1  0.82680603  0.14794603  0.87376979  1
  Pr3+  Pr22  1  0.66239966  0.34242118  0.12432195  1
  Pr3+  Pr23  1  0.49773132  0.48725721  0.37897869  1
  Pr3+  Pr24  1  0.66085824  0.34809830  0.62602200  1
  Pr3+  Pr25  1  0.33323078  0.01340656  0.62656250  1
  Pr3+  Pr26  1  0.50299815  0.17952803  0.62527465  1
  Pr3+  Pr27  1  0.16850843  0.17777981  0.12380815  1
  Pr3+  Pr28  1  0.82698018  0.48966025  0.37571976  1
  Pr3+  Pr29  1  0.82907101  0.82475651  0.87538247  1
  Pr3+  Pr30  1  1.00087184  0.31879706  0.37560011  1
  Pr3+  Pr31  1  1.00081065  0.65585943  0.37499012  1
  Pr3+  Pr32  1  0.66931540  0.31842361  0.37683696  1
  Pr3+  Pr33  1  1.00131273  0.65221432  0.87502110  1
  Pr3+  Pr34  1  0.16560741  0.48548448  0.37474573  1
  Pr3+  Pr35  1  0.16899557  0.18034908  0.62593502  1
  Pr3+  Pr36  1  0.33746040  0.98643643  0.87340266  1
  Pr3+  Pr37  1  0.33433922  0.01170429  0.12365362  1
  Pr3+  Pr38  1  0.50612193  0.51542742  0.12451521  1
  Pr3+  Pr39  1  0.67084615  0.31880018  0.87373884  1
  Pr3+  Pr40  1  0.17032501  0.51030552  0.62506541  1
  Pr3+  Pr41  1  0.83489424  0.17726211  0.62644984  1
  Pr3+  Pr42  1  0.33936160  0.65555650  0.37530358  1
  Pr3+  Pr43  1  1.00140373  0.99036264  0.87183796  1
  Pr3+  Pr44  1  0.17245166  0.84888284  0.12354664  1
  Pr3+  Pr45  1  -0.00229801  0.68149169  0.12371739  1
  Pr3+  Pr46  1  1.00119294  0.98977816  0.37769037  1
  Pr3+  Pr47  1  0.16324352  0.82275770  0.37595952  1
  Pr3+  Pr48  1  0.50478004  0.82649566  0.37352599  1
  Pr3+  Pr49  1  0.16943245  0.48752499  0.87472765  1
  Pr3+  Pr50  1  -0.00184917  0.34478950  0.62479968  1
  Pr3+  Pr51  1  -0.00494144  0.67969121  0.62614373  1
  Pr3+  Pr52  1  0.83407013  0.17685561  0.12395774  1
  Pr3+  Pr53  1  0.17036934  0.84829471  0.62649865  1
  Pr3+  Pr54  1  0.50406503  0.17774917  0.12508549  1
  Pr3+  Pr55  1  0.16447597  0.81946682  0.87422313  1
  Pr3+  Pr56  1  0.33475905  0.67748513  0.62741610  1
  Pr3+  Pr57  1  0.83437127  0.51362841  0.62722870  1
  Pr3+  Pr58  1  0.50858086  0.84526133  0.62652156  1
  Pr3+  Pr59  1  0.33763854  0.99072629  0.37648258  1
  Pr3+  Pr60  1  1.00172688  0.31894525  0.87402994  1
  Pr3+  Pr61  1  -0.00278161  0.34471321  0.12515278  1
  Pr3+  Pr62  1  0.83301904  0.84890557  0.62377839  1
  Pr3+  Pr63  1  0.49366517  0.48953635  0.87188004  1
  Pr3+  Pr64  1  0.49839683  0.15361864  0.87465943  1
  Pr3+  Pr65  1  0.17088566  0.51268020  0.12478689  1
  Pr3+  Pr66  1  0.33231832  0.34276493  0.12605719  1
  Pr3+  Pr67  1  0.83329380  0.51373062  0.12257463  1
  Pr3+  Pr68  1  -0.00480433  0.01363715  0.12465143  1
  Pr3+  Pr69  1  0.83022634  0.84692212  0.12636162  1
  Pr3+  Pr70  1  0.66670334  0.65444059  0.87633369  1
  Pr3+  Pr71  1  0.33265229  0.68166819  0.12266270  1
  Mn3.30+  Mn72  1  0.16632998  0.00188609  -0.00271653  1
  Mn3.30+  Mn73  1  0.16587790  0.00217065  0.50201128  1
  Mn3.30+  Mn74  1  0.16814462  0.33162307  -0.00254750  1
  Mn3.30+  Mn75  1  0.16845589  0.33254757  0.49943123  1
  Mn3.30+  Mn76  1  0.16865061  0.66620758  -0.00201354  1
  Mn3.30+  Mn77  1  0.16763763  0.66658294  0.50088476  1
  Mn3.30+  Mn78  1  0.50313057  -0.00241911  -0.00249584  1
  Mn3.30+  Mn79  1  0.50355610  0.00062091  0.50058497  1
  Mn3.30+  Mn80  1  0.49843884  0.33392098  -0.00271116  1
  Mn3.30+  Mn81  1  0.49675744  0.33391301  0.50237285  1
  Mn3.30+  Mn82  1  0.50058321  0.66746880  -0.00085255  1
  Mn3.30+  Mn83  1  0.50142003  0.66713402  0.49996583  1
  Mn3.30+  Mn84  1  0.83144822  0.00106922  -0.00142267  1
  Mn3.30+  Mn85  1  0.83119721  0.00186084  0.50140033  1
  Mn3.30+  Mn86  1  0.83236081  0.33237158  -0.00197975  1
  Mn3.30+  Mn87  1  0.83192359  0.33217990  0.50079565  1
  Mn3.30+  Mn88  1  0.83153694  0.66729806  0.00000347  1
  Mn3.30+  Mn89  1  0.83200942  0.66869067  0.50011205  1
  Mn3.30+  Mn90  1  -0.00197670  0.16635464  0.25223794  1
  Mn3.30+  Mn91  1  -0.00101795  0.16602318  0.75111069  1
  Mn3.30+  Mn92  1  -0.00122383  0.50054185  0.24907698  1
  Mn3.30+  Mn93  1  -0.00060712  0.49842975  0.75236692  1
  Mn3.30+  Mn94  1  0.00014348  0.83476046  0.24994549  1
  Mn3.30+  Mn95  1  -0.00087619  0.83556457  0.74893108  1
  Mn3.30+  Mn96  1  0.33422638  0.16634742  0.25043201  1
  Mn3.30+  Mn97  1  0.33274353  0.16897448  0.75161488  1
  Mn3.30+  Mn98  1  0.33512058  0.49861016  0.25075571  1
  Mn3.30+  Mn99  1  0.33461540  0.49812994  0.74806308  1
  Mn3.30+  Mn100  1  0.33374121  0.83494210  0.24988782  1
  Mn3.30+  Mn101  1  0.33740696  0.83155357  0.75134143  1
  Mn3.30+  Mn102  1  0.66738595  0.16438132  0.25213129  1
  Mn3.30+  Mn103  1  0.66806209  0.16323036  0.75034513  1
  Mn3.30+  Mn104  1  0.66625645  0.50064378  0.24969378  1
  Mn3.30+  Mn105  1  0.66444699  0.50071774  0.75116028  1
  Mn3.30+  Mn106  1  0.66723213  0.83443860  0.24960077  1
  Mn3.30+  Mn107  1  0.66610814  0.83452948  0.75119229  1
  Mn3.30+  Mn108  1  0.16655150  0.00193815  0.25086554  1
  Mn3.30+  Mn109  1  0.16582841  0.00233133  0.74978903  1
  Mn3.30+  Mn110  1  0.16691872  0.33208469  0.25072156  1
  Mn3.30+  Mn111  1  0.16983828  0.33221811  0.75181176  1
  Mn3.30+  Mn112  1  0.16808306  0.66728537  0.25022158  1
  Mn3.30+  Mn113  1  0.16794431  0.66555554  0.75053434  1
  Mn3.30+  Mn114  1  0.50247433  -0.00037153  0.25012083  1
  Mn3.30+  Mn115  1  0.50413234  -0.00161556  0.75140117  1
  Mn3.30+  Mn116  1  0.49827982  0.33317877  0.25188655  1
  Mn3.30+  Mn117  1  0.49701197  0.33496719  0.74912028  1
  Mn3.30+  Mn118  1  0.50262133  0.66777091  0.25005974  1
  Mn3.30+  Mn119  1  0.49976464  0.66673199  0.75087526  1
  Mn3.30+  Mn120  1  0.83110503  0.00181767  0.25169072  1
  Mn3.30+  Mn121  1  0.83115905  0.00132924  0.74905060  1
  Mn3.30+  Mn122  1  0.83158550  0.33200337  0.24995091  1
  Mn3.30+  Mn123  1  0.83228435  0.33292154  0.75145150  1
  Mn3.30+  Mn124  1  0.83142548  0.66826245  0.24777818  1
  Mn3.30+  Mn125  1  0.83203832  0.66709092  0.75225205  1
  Mn3.30+  Mn126  1  -0.00056816  0.16651628  -0.00332680  1
  Mn3.30+  Mn127  1  -0.00232260  0.16547615  0.50009224  1
  Mn3.30+  Mn128  1  -0.00104582  0.49881113  -0.00145461  1
  Mn3.30+  Mn129  1  -0.00069210  0.50021723  0.49943812  1
  Mn3.30+  Mn130  1  -0.00027668  0.83490608  -0.00062855  1
  Mn3.30+  Mn131  1  -0.00031973  0.83539394  0.50143649  1
  Mn3.30+  Mn132  1  0.33266965  0.16700299  -0.00340776  1
  Mn3.30+  Mn133  1  0.33475547  0.16792200  0.50101910  1
  Mn3.30+  Mn134  1  0.33533099  0.49901501  -0.00033971  1
  Mn3.30+  Mn135  1  0.33419372  0.49737301  0.50116507  1
  Mn3.30+  Mn136  1  0.33628063  0.83244356  -0.00315494  1
  Mn3.30+  Mn137  1  0.33500233  0.83394729  0.50166522  1
  Mn3.30+  Mn138  1  0.66801054  0.16415920  -0.00167822  1
  Mn3.30+  Mn139  1  0.66736625  0.16371846  0.50018673  1
  Mn3.30+  Mn140  1  0.66688757  0.49978959  -0.00097884  1
  Mn3.30+  Mn141  1  0.66372054  0.50165887  0.50081341  1
  Mn3.30+  Mn142  1  0.66413209  0.83403964  -0.00255903  1
  Mn3.30+  Mn143  1  0.66911460  0.83536715  0.50155507  1
  O2-  O144  1  0.02406546  0.16229853  0.12303048  1
  O2-  O145  1  0.02355400  0.16424974  0.62624922  1
  O2-  O146  1  0.02674457  0.49406113  0.12317986  1
  O2-  O147  1  0.02575288  0.49481813  0.62536124  1
  O2-  O148  1  0.02944181  0.82975649  0.12487621  1
  O2-  O149  1  0.02775719  0.82486373  0.62647313  1
  O2-  O150  1  0.35894417  0.16067418  0.12242514  1
  O2-  O151  1  0.35915784  0.15993699  0.62860401  1
  O2-  O152  1  0.36173575  0.48918412  0.12723784  1
  O2-  O153  1  0.35888729  0.49035287  0.62338041  1
  O2-  O154  1  0.35271948  0.83073683  0.12156486  1
  O2-  O155  1  0.36286082  0.82656855  0.62725120  1
  O2-  O156  1  0.69001344  0.16834658  0.12335464  1
  O2-  O157  1  0.69168833  0.16103389  0.62620580  1
  O2-  O158  1  0.69074555  0.48829630  0.12413154  1
  O2-  O159  1  0.69102095  0.49599249  0.62717764  1
  O2-  O160  1  0.68622331  0.82821223  0.12214163  1
  O2-  O161  1  0.68880986  0.82731364  0.62737688  1
  O2-  O162  1  0.14121435  0.32791141  0.12287821  1
  O2-  O163  1  0.14155566  0.33124717  0.62628822  1
  O2-  O164  1  0.14198654  0.66102412  0.12416356  1
  O2-  O165  1  0.13874529  0.65885268  0.62636695  1
  O2-  O166  1  0.14023097  0.99574737  0.12176149  1
  O2-  O167  1  0.14005819  0.99513892  0.62686179  1
  O2-  O168  1  0.47655788  0.32776965  0.12220642  1
  O2-  O169  1  0.47240042  0.32553218  0.62670636  1
  O2-  O170  1  0.47618960  0.66342786  0.12464566  1
  O2-  O171  1  0.47854325  0.66610988  0.62475591  1
  O2-  O172  1  0.47756977  0.99898762  0.12178377  1
  O2-  O173  1  0.47552953  0.99288972  0.62775436  1
  O2-  O174  1  0.80644158  0.32410723  0.12416389  1
  O2-  O175  1  0.80617849  0.32621024  0.62766191  1
  O2-  O176  1  0.80570392  0.66100781  0.12158212  1
  O2-  O177  1  0.81571072  0.66109968  0.62856285  1
  O2-  O178  1  0.81589287  0.99820769  0.12427770  1
  O2-  O179  1  0.80589507  0.99815560  0.62617330  1
  O2-  O180  1  0.31644071  0.16671673  0.37343162  1
  O2-  O181  1  0.30649380  0.17224489  0.87411775  1
  O2-  O182  1  0.30744705  0.51063730  0.37450899  1
  O2-  O183  1  0.31142974  0.51098681  0.87452801  1
  O2-  O184  1  0.30635596  0.84077617  0.37709021  1
  O2-  O185  1  0.30656243  0.83963193  0.87387132  1
  O2-  O186  1  0.64521403  0.17421157  0.37744517  1
  O2-  O187  1  0.64097057  0.17376859  0.87397308  1
  O2-  O188  1  0.64373923  0.50080842  0.37356034  1
  O2-  O189  1  0.63865137  0.50461056  0.87579883  1
  O2-  O190  1  0.64893105  0.84054381  0.37674561  1
  O2-  O191  1  0.64419281  0.84170888  0.87347912  1
  O2-  O192  1  0.96989887  0.17240204  0.37596614  1
  O2-  O193  1  0.96998647  0.17237110  0.87477727  1
  O2-  O194  1  0.97169997  0.50749075  0.37382454  1
  O2-  O195  1  0.97116812  0.50436625  0.87740550  1
  O2-  O196  1  0.98106377  0.84004327  0.37549834  1
  O2-  O197  1  0.97372173  0.84156368  0.87283973  1
  O2-  O198  1  0.19241339  0.00144663  0.37794382  1
  O2-  O199  1  0.19221858  0.00650265  0.87406335  1
  O2-  O200  1  0.19316256  0.33767954  0.37484105  1
  O2-  O201  1  0.19646137  0.34145451  0.87547649  1
  O2-  O202  1  0.19532551  0.67469957  0.37536257  1
  O2-  O203  1  0.19517958  0.67146923  0.87360125  1
  O2-  O204  1  0.52356671  -0.00082501  0.37796248  1
  O2-  O205  1  0.52742608  0.00812858  0.87324794  1
  O2-  O206  1  0.52587469  0.33952311  0.37846883  1
  O2-  O207  1  0.52686818  0.34078633  0.87308270  1
  O2-  O208  1  0.51685245  0.67321385  0.37505228  1
  O2-  O209  1  0.52131933  0.66377579  0.87581903  1
  O2-  O210  1  0.85862026  0.00403319  0.37599506  1
  O2-  O211  1  0.85833276  -0.00100800  0.87404475  1
  O2-  O212  1  0.85818381  0.34393134  0.37462773  1
  O2-  O213  1  0.85802611  0.34272698  0.87399755  1
  O2-  O214  1  0.85746792  0.66722419  0.37265857  1
  O2-  O215  1  0.85990184  0.67666171  0.87675147  1
  O2-  O216  1  0.23859598  0.09257407  0.02153678  1
  O2-  O217  1  0.23933793  0.09341531  0.52369647  1
  O2-  O218  1  0.23893022  0.42823610  0.02138467  1
  O2-  O219  1  0.23582359  0.43121158  0.51642767  1
  O2-  O220  1  0.23714457  0.76227024  0.01897024  1
  O2-  O221  1  0.23971500  0.76152021  0.52351039  1
  O2-  O222  1  0.57021330  0.09853662  0.01564467  1
  O2-  O223  1  0.57104578  0.09476020  0.52238927  1
  O2-  O224  1  0.56953818  0.42811725  0.01956529  1
  O2-  O225  1  0.56850026  0.42758596  0.52263023  1
  O2-  O226  1  0.57289970  0.75857878  0.01010143  1
  O2-  O227  1  0.57137871  0.76540428  0.51297023  1
  O2-  O228  1  0.90609135  0.09390633  0.01925830  1
  O2-  O229  1  0.90234846  0.09563280  0.52083031  1
  O2-  O230  1  0.90596360  0.42495325  0.02434504  1
  O2-  O231  1  0.90365083  0.42766243  0.52226347  1
  O2-  O232  1  0.90637695  0.76310403  0.02293257  1
  O2-  O233  1  0.90865907  0.76025486  0.52186032  1
  O2-  O234  1  0.25918103  0.25673591  0.22689258  1
  O2-  O235  1  0.26071696  0.26232023  0.72486437  1
  O2-  O236  1  0.26472360  0.59389569  0.22744775  1
  O2-  O237  1  0.26097570  0.59089262  0.72507193  1
  O2-  O238  1  0.26122699  0.92831605  0.22882657  1
  O2-  O239  1  0.26459803  0.92563006  0.72993313  1
  O2-  O240  1  0.59444665  0.26143466  0.23235676  1
  O2-  O241  1  0.59465995  0.26201952  0.72997953  1
  O2-  O242  1  0.59667752  0.59243972  0.22633981  1
  O2-  O243  1  0.59412553  0.59536196  0.73722844  1
  O2-  O244  1  0.59102019  0.92584809  0.23773136  1
  O2-  O245  1  0.59696098  0.92890858  0.72621692  1
  O2-  O246  1  0.92695679  0.26193899  0.22864149  1
  O2-  O247  1  0.93008392  0.26160687  0.72984089  1
  O2-  O248  1  0.92826911  0.59581241  0.22665358  1
  O2-  O249  1  0.92928719  0.59534869  0.73300981  1
  O2-  O250  1  0.92892021  0.92805625  0.23058769  1
  O2-  O251  1  0.92941695  0.93038170  0.72633722  1
  O2-  O252  1  0.08854273  0.23999896  0.26813421  1
  O2-  O253  1  0.09642853  0.23959244  0.77159893  1
  O2-  O254  1  0.09739107  0.57477673  0.27129529  1
  O2-  O255  1  0.09412069  0.57082894  0.77352970  1
  O2-  O256  1  0.09600086  0.90656136  0.26962920  1
  O2-  O257  1  0.09519234  0.90467043  0.77128411  1
  O2-  O258  1  0.42657810  0.24030899  0.26233895  1
  O2-  O259  1  0.42953310  0.23763640  0.77071057  1
  O2-  O260  1  0.42945764  0.57054377  0.26945995  1
  O2-  O261  1  0.42782110  0.57084395  0.76316986  1
  O2-  O262  1  0.42447233  0.90747451  0.27236291  1
  O2-  O263  1  0.43132416  0.90387143  0.77287476  1
  O2-  O264  1  0.76247845  0.23766067  0.27151878  1
  O2-  O265  1  0.76171803  0.23613606  0.77177751  1
  O2-  O266  1  0.76399659  0.56627968  0.26413842  1
  O2-  O267  1  0.76111894  0.57066152  0.77261463  1
  O2-  O268  1  0.76176120  0.90713783  0.25994650  1
  O2-  O269  1  0.76625154  0.90205691  0.76490741  1
  O2-  O270  1  0.06799274  0.07368269  0.48171465  1
  O2-  O271  1  0.06941611  0.07089342  0.98017049  1
  O2-  O272  1  0.07042777  0.40655104  0.47803457  1
  O2-  O273  1  0.07413862  0.40354247  0.97749027  1
  O2-  O274  1  0.07384046  0.73840514  0.47932409  1
  O2-  O275  1  0.06924207  0.74105762  0.97756973  1
  O2-  O276  1  0.40375620  0.06878529  0.48717036  1
  O2-  O277  1  0.40549880  0.07088534  0.97790575  1
  O2-  O278  1  0.40330339  0.40611909  0.47406801  1
  O2-  O279  1  0.40263627  0.40321062  0.97718177  1
  O2-  O280  1  0.40415497  0.74022579  0.48090737  1
  O2-  O281  1  0.40112928  0.73401033  0.98210688  1
  O2-  O282  1  0.73639438  0.07044991  0.47925949  1
  O2-  O283  1  0.73882687  0.07086868  0.97848050  1
  O2-  O284  1  0.73733326  0.40427511  0.48246812  1
  O2-  O285  1  0.73485756  0.40288965  0.98140479  1
  O2-  O286  1  0.74255410  0.74049575  0.48620082  1
  O2-  O287  1  0.73990117  0.74078670  0.97724272  1
  O2-  O288  1  0.08969789  0.24195132  0.48347564  1
  O2-  O289  1  0.09512329  0.23727484  0.97636815  1
  O2-  O290  1  0.09499684  0.57262010  0.47651840  1
  O2-  O291  1  0.09536335  0.57238118  0.97804134  1
  O2-  O292  1  0.09645244  0.90601319  0.48185636  1
  O2-  O293  1  0.09581932  0.90638161  0.97725029  1
  O2-  O294  1  0.42806889  0.23969310  0.48569169  1
  O2-  O295  1  0.42998660  0.23857156  0.97998292  1
  O2-  O296  1  0.42401492  0.57320529  0.48049380  1
  O2-  O297  1  0.43213914  0.56757734  0.98666526  1
  O2-  O298  1  0.42893546  0.90546289  0.48081565  1
  O2-  O299  1  0.42663034  0.90529242  0.97437907  1
  O2-  O300  1  0.76235735  0.23803671  0.48056406  1
  O2-  O301  1  0.76257551  0.23655491  0.97719650  1
  O2-  O302  1  0.76370997  0.57039868  0.48602072  1
  O2-  O303  1  0.76191677  0.56884475  0.97715346  1
  O2-  O304  1  0.76411202  0.90618718  0.48878386  1
  O2-  O305  1  0.76437920  0.90355764  0.98599458  1
  O2-  O306  1  0.06868576  0.07058247  0.26772931  1
  O2-  O307  1  0.06929561  0.07512718  0.77072298  1
  O2-  O308  1  0.07089993  0.40673272  0.27129338  1
  O2-  O309  1  0.07275095  0.40403203  0.77213032  1
  O2-  O310  1  0.07142169  0.74026647  0.27079194  1
  O2-  O311  1  0.07139621  0.73865021  0.77241603  1
  O2-  O312  1  0.40322263  0.06896226  0.26406645  1
  O2-  O313  1  0.40582248  0.07095565  0.77027358  1
  O2-  O314  1  0.40346889  0.40422115  0.27440462  1
  O2-  O315  1  0.40343502  0.40558544  0.77508839  1
  O2-  O316  1  0.40210386  0.74034230  0.26706423  1
  O2-  O317  1  0.40185490  0.73421798  0.76909188  1
  O2-  O318  1  0.73858043  0.07208788  0.27120805  1
  O2-  O319  1  0.73710007  0.06934579  0.77286326  1
  O2-  O320  1  0.73666958  0.40289881  0.26970056  1
  O2-  O321  1  0.73452518  0.40436286  0.76778514  1
  O2-  O322  1  0.74233171  0.74074175  0.26151848  1
  O2-  O323  1  0.73911015  0.74005685  0.77418324  1
  O2-  O324  1  0.23947987  0.09283541  0.22682018  1
  O2-  O325  1  0.24023424  0.09474327  0.72791037  1
  O2-  O326  1  0.23918327  0.42914761  0.22926982  1
  O2-  O327  1  0.23553450  0.43088725  0.73336244  1
  O2-  O328  1  0.23766295  0.76209474  0.22927981  1
  O2-  O329  1  0.23835489  0.76088408  0.72752094  1
  O2-  O330  1  0.57158260  0.09635693  0.23156334  1
  O2-  O331  1  0.56983703  0.09739353  0.73177174  1
  O2-  O332  1  0.57021961  0.42763930  0.23096941  1
  O2-  O333  1  0.56883082  0.42912175  0.72741202  1
  O2-  O334  1  0.57320354  0.76085335  0.23864091  1
  O2-  O335  1  0.56970498  0.76328305  0.73774467  1
  O2-  O336  1  0.90619820  0.09458747  0.22844901  1
  O2-  O337  1  0.90261957  0.09449478  0.73151680  1
  O2-  O338  1  0.90185604  0.42619615  0.22655822  1
  O2-  O339  1  0.90711383  0.42649596  0.72657960  1
  O2-  O340  1  0.90964547  0.76106913  0.22464605  1
  O2-  O341  1  0.90651553  0.76375499  0.72958234  1
  O2-  O342  1  0.25953476  0.26021109  0.02382248  1
  O2-  O343  1  0.25970396  0.25896991  0.52181329  1
  O2-  O344  1  0.26388488  0.59031523  0.02487969  1
  O2-  O345  1  0.26156674  0.59422918  0.52243787  1
  O2-  O346  1  0.26066494  0.92882260  0.01773098  1
  O2-  O347  1  0.26381781  0.92601991  0.52442850  1
  O2-  O348  1  0.59415961  0.26225990  0.01716362  1
  O2-  O349  1  0.59542962  0.26119168  0.52205609  1
  O2-  O350  1  0.59814122  0.59508282  0.02165030  1
  O2-  O351  1  0.58997195  0.59191570  0.51461946  1
  O2-  O352  1  0.59484865  0.92774398  0.01422250  1
  O2-  O353  1  0.59429425  0.92753225  0.52280860  1
  O2-  O354  1  0.92966447  0.26120702  0.02036175  1
  O2-  O355  1  0.92720946  0.26245077  0.52141552  1
  O2-  O356  1  0.92772132  0.59663078  0.02116156  1
  O2-  O357  1  0.92890053  0.59496412  0.51961103  1
  O2-  O358  1  0.92934680  0.92765118  0.01985689  1
  O2-  O359  1  0.92832724  0.93061211  0.52242109  1
