# generated using pymatgen
data_Sr7Ca15Pr50Mn72O216
_symmetry_space_group_name_H-M   'P 1'
_cell_length_a   16.55772402
_cell_length_b   16.60773790
_cell_length_c   15.59518322
_cell_angle_alpha   90.00630694
_cell_angle_beta   89.99990556
_cell_angle_gamma   89.99927796
_symmetry_Int_Tables_number   1
_chemical_formula_structural   Sr7Ca15Pr50Mn72O216
_chemical_formula_sum   'Sr7 Ca15 Pr50 Mn72 O216'
_cell_volume   4288.46234053
_cell_formula_units_Z   1
loop_
 _symmetry_equiv_pos_site_id
 _symmetry_equiv_pos_as_xyz
  1  'x, y, z'
loop_
 _atom_type_symbol
 _atom_type_oxidation_number
  Sr2+  2.0
  Ca2+  2.0
  Pr3+  3.0
  Mn3.30+  3.3
  O2-  -2.0
loop_
 _atom_site_type_symbol
 _atom_site_label
 _atom_site_symmetry_multiplicity
 _atom_site_fract_x
 _atom_site_fract_y
 _atom_site_fract_z
 _atom_site_occupancy
  Sr2+  Sr0  1  0.16654614  0.84101765  0.62594001  1
  Sr2+  Sr1  1  0.66367635  0.67609980  0.62652571  1
  Sr2+  Sr2  1  0.83597868  0.51096274  0.62648353  1
  Sr2+  Sr3  1  0.83789825  0.17845869  0.62405611  1
  Sr2+  Sr4  1  0.49838638  0.82396338  0.37711286  1
  Sr2+  Sr5  1  0.49841592  0.15724833  0.87463829  1
  Sr2+  Sr6  1  0.49569954  0.49287791  0.87021115  1
  Ca2+  Ca7  1  1.00692956  0.31514692  0.37870200  1
  Ca2+  Ca8  1  0.16760575  0.51419590  0.62534722  1
  Ca2+  Ca9  1  0.83022074  0.81578705  0.87475813  1
  Ca2+  Ca10  1  0.00004531  0.01721765  0.12509476  1
  Ca2+  Ca11  1  0.16410706  0.81881273  0.37702571  1
  Ca2+  Ca12  1  0.33520856  0.65093376  0.87200398  1
  Ca2+  Ca13  1  0.16298519  0.81408092  0.87321591  1
  Ca2+  Ca14  1  0.50178701  0.84320885  0.62546608  1
  Ca2+  Ca15  1  0.16813081  0.18066063  0.12783534  1
  Ca2+  Ca16  1  0.32895301  0.35227963  0.62597040  1
  Ca2+  Ca17  1  -0.00468162  0.34949647  0.62222783  1
  Ca2+  Ca18  1  0.50331077  0.51569507  0.62657839  1
  Ca2+  Ca19  1  1.00281651  0.65108763  0.87291861  1
  Ca2+  Ca20  1  0.16160191  0.15190878  0.37393947  1
  Ca2+  Ca21  1  0.17054577  0.51559420  0.12377439  1
  Pr3+  Pr22  1  0.49987372  0.84581954  0.12476625  1
  Pr3+  Pr23  1  1.00495689  0.65575048  0.37623678  1
  Pr3+  Pr24  1  0.49601428  0.15204027  0.37584623  1
  Pr3+  Pr25  1  0.16948955  0.84611351  0.12398019  1
  Pr3+  Pr26  1  0.66510856  0.01354009  0.12501244  1
  Pr3+  Pr27  1  0.83936144  0.17935613  0.12600941  1
  Pr3+  Pr28  1  0.83018036  0.15541213  0.87363125  1
  Pr3+  Pr29  1  0.16586512  0.49043820  0.87298390  1
  Pr3+  Pr30  1  0.83711905  0.51253999  0.12452122  1
  Pr3+  Pr31  1  0.84186985  0.84930976  0.12187855  1
  Pr3+  Pr32  1  0.66984683  0.98518394  0.37510674  1
  Pr3+  Pr33  1  0.33158188  0.00842267  0.62525868  1
  Pr3+  Pr34  1  0.83539938  0.15343249  0.37672018  1
  Pr3+  Pr35  1  0.66780408  0.32285512  0.87240659  1
  Pr3+  Pr36  1  0.16452818  0.15581699  0.87518477  1
  Pr3+  Pr37  1  1.00263725  0.32341521  0.87124279  1
  Pr3+  Pr38  1  0.49997266  0.51283798  0.12421103  1
  Pr3+  Pr39  1  0.17006249  0.18079569  0.62367536  1
  Pr3+  Pr40  1  1.00422563  0.98529026  0.87592245  1
  Pr3+  Pr41  1  0.50102101  0.18114424  0.12482712  1
  Pr3+  Pr42  1  0.83366565  0.48753582  0.37741911  1
  Pr3+  Pr43  1  0.67005806  0.32077830  0.37717643  1
  Pr3+  Pr44  1  0.66441303  0.34826577  0.62408076  1
  Pr3+  Pr45  1  0.33181982  0.67724191  0.62787802  1
  Pr3+  Pr46  1  0.66853323  0.65241448  0.87356930  1
  Pr3+  Pr47  1  0.00115687  0.67760093  0.12176139  1
  Pr3+  Pr48  1  0.66436214  0.00775826  0.62508028  1
  Pr3+  Pr49  1  0.83084885  0.82021617  0.37453236  1
  Pr3+  Pr50  1  -0.00223793  0.01214688  0.62539456  1
  Pr3+  Pr51  1  0.83777143  0.84157614  0.62748792  1
  Pr3+  Pr52  1  0.00246874  0.34530839  0.12742037  1
  Pr3+  Pr53  1  0.32739291  0.67749569  0.12218308  1
  Pr3+  Pr54  1  0.33140619  0.98597420  0.37513463  1
  Pr3+  Pr55  1  0.33726573  0.32311582  0.87220806  1
  Pr3+  Pr56  1  0.33270466  0.65724382  0.37747162  1
  Pr3+  Pr57  1  0.66410122  0.34542886  0.12597636  1
  Pr3+  Pr58  1  1.00700255  0.98577001  0.37388129  1
  Pr3+  Pr59  1  0.83221433  0.48833819  0.87249628  1
  Pr3+  Pr60  1  0.67143921  0.98462030  0.87516837  1
  Pr3+  Pr61  1  0.49518431  0.49034513  0.37882266  1
  Pr3+  Pr62  1  0.33322661  0.32010627  0.37822041  1
  Pr3+  Pr63  1  0.32768771  0.01685000  0.12474108  1
  Pr3+  Pr64  1  0.50265594  0.17840365  0.62552728  1
  Pr3+  Pr65  1  0.16051259  0.48568646  0.37668677  1
  Pr3+  Pr66  1  0.66363571  0.67904116  0.12308465  1
  Pr3+  Pr67  1  0.32595659  0.34860445  0.12487289  1
  Pr3+  Pr68  1  0.66835064  0.65506494  0.37642247  1
  Pr3+  Pr69  1  -0.00310872  0.67655075  0.62871781  1
  Pr3+  Pr70  1  0.33515553  0.98831838  0.87452083  1
  Pr3+  Pr71  1  0.49495878  0.81849883  0.87337765  1
  Mn3.30+  Mn72  1  0.16535122  0.00027920  0.00066721  1
  Mn3.30+  Mn73  1  0.16615425  -0.00096067  0.50022949  1
  Mn3.30+  Mn74  1  0.16709703  0.33412884  -0.00012650  1
  Mn3.30+  Mn75  1  0.16515517  0.33381622  0.50268131  1
  Mn3.30+  Mn76  1  0.16585881  0.66595389  -0.00427546  1
  Mn3.30+  Mn77  1  0.16675587  0.66650778  0.50260151  1
  Mn3.30+  Mn78  1  0.49943221  0.00094696  -0.00071525  1
  Mn3.30+  Mn79  1  0.49847951  -0.00271222  0.50066008  1
  Mn3.30+  Mn80  1  0.49822676  0.33497290  -0.00085809  1
  Mn3.30+  Mn81  1  0.49762585  0.33484713  0.50233420  1
  Mn3.30+  Mn82  1  0.49667669  0.66644810  -0.00086873  1
  Mn3.30+  Mn83  1  0.49997076  0.66802199  0.50064934  1
  Mn3.30+  Mn84  1  0.83691002  0.00006436  -0.00014776  1
  Mn3.30+  Mn85  1  0.83525442  -0.00127590  0.50005154  1
  Mn3.30+  Mn86  1  0.83448302  0.33338324  0.00089684  1
  Mn3.30+  Mn87  1  0.83835608  0.33315568  0.49946284  1
  Mn3.30+  Mn88  1  0.83478143  0.66708897  -0.00173588  1
  Mn3.30+  Mn89  1  0.83411740  0.66615792  0.50133779  1
  Mn3.30+  Mn90  1  0.00432419  0.16689254  0.24962415  1
  Mn3.30+  Mn91  1  0.00016367  0.16812228  0.74918172  1
  Mn3.30+  Mn92  1  0.00226771  0.49917156  0.24932108  1
  Mn3.30+  Mn93  1  0.00136543  0.50007138  0.74898864  1
  Mn3.30+  Mn94  1  0.00295736  0.83405486  0.24808338  1
  Mn3.30+  Mn95  1  0.00082194  0.83085815  0.75478340  1
  Mn3.30+  Mn96  1  0.32902911  0.16779071  0.25216810  1
  Mn3.30+  Mn97  1  0.33367976  0.16802447  0.74780107  1
  Mn3.30+  Mn98  1  0.32966641  0.50061051  0.25204856  1
  Mn3.30+  Mn99  1  0.33249777  0.50083425  0.74580187  1
  Mn3.30+  Mn100  1  0.33155279  0.83281541  0.25064809  1
  Mn3.30+  Mn101  1  0.33151350  0.83185663  0.75124775  1
  Mn3.30+  Mn102  1  0.66758847  0.16668573  0.25140834  1
  Mn3.30+  Mn103  1  0.66702049  0.16620209  0.74848932  1
  Mn3.30+  Mn104  1  0.66627376  0.49991421  0.25091223  1
  Mn3.30+  Mn105  1  0.66440161  0.50028016  0.74842942  1
  Mn3.30+  Mn106  1  0.66822651  0.83263111  0.24813112  1
  Mn3.30+  Mn107  1  0.66612491  0.83162295  0.75058481  1
  Mn3.30+  Mn108  1  0.16489200  0.00105504  0.24836479  1
  Mn3.30+  Mn109  1  0.16653858  -0.00203328  0.75090616  1
  Mn3.30+  Mn110  1  0.16515121  0.33158817  0.25211071  1
  Mn3.30+  Mn111  1  0.16768174  0.33617328  0.74531055  1
  Mn3.30+  Mn112  1  0.16638357  0.66681174  0.24970385  1
  Mn3.30+  Mn113  1  0.16643663  0.66571234  0.75157238  1
  Mn3.30+  Mn114  1  0.49841350  -0.00040762  0.24926510  1
  Mn3.30+  Mn115  1  0.50011584  -0.00147685  0.75102145  1
  Mn3.30+  Mn116  1  0.49821267  0.33425670  0.25220304  1
  Mn3.30+  Mn117  1  0.49740271  0.33558710  0.74629817  1
  Mn3.30+  Mn118  1  0.49828526  0.66762581  0.25062886  1
  Mn3.30+  Mn119  1  0.49807112  0.66672335  0.74896088  1
  Mn3.30+  Mn120  1  0.83716274  0.00035891  0.24855765  1
  Mn3.30+  Mn121  1  0.83444763  -0.00214881  0.75169875  1
  Mn3.30+  Mn122  1  0.83626847  0.33317337  0.25267009  1
  Mn3.30+  Mn123  1  0.83620722  0.33325591  0.74692231  1
  Mn3.30+  Mn124  1  0.83474634  0.66694818  0.24833871  1
  Mn3.30+  Mn125  1  0.83399605  0.66675231  0.75230765  1
  Mn3.30+  Mn126  1  0.00146098  0.16746469  0.00093035  1
  Mn3.30+  Mn127  1  0.00329517  0.16811797  0.49970728  1
  Mn3.30+  Mn128  1  0.00253916  0.50018788  0.00028493  1
  Mn3.30+  Mn129  1  0.00084401  0.49799598  0.50151340  1
  Mn3.30+  Mn130  1  0.00202367  0.83202291  -0.00353792  1
  Mn3.30+  Mn131  1  0.00182262  0.83282226  0.50042971  1
  Mn3.30+  Mn132  1  0.33114640  0.16889955  0.00064402  1
  Mn3.30+  Mn133  1  0.33124620  0.16703275  0.50014517  1
  Mn3.30+  Mn134  1  0.33173642  0.50132717  -0.00166683  1
  Mn3.30+  Mn135  1  0.33061835  0.49991678  0.50357490  1
  Mn3.30+  Mn136  1  0.33073233  0.83225338  -0.00321138  1
  Mn3.30+  Mn137  1  0.33261707  0.83262078  0.50171632  1
  Mn3.30+  Mn138  1  0.66733765  0.16711924  -0.00027131  1
  Mn3.30+  Mn139  1  0.66756832  0.16599988  0.50085078  1
  Mn3.30+  Mn140  1  0.66629730  0.49888639  -0.00046119  1
  Mn3.30+  Mn141  1  0.66464391  0.50118333  0.50104147  1
  Mn3.30+  Mn142  1  0.66886699  0.83258966  -0.00031850  1
  Mn3.30+  Mn143  1  0.66579708  0.83152124  0.50150002  1
  O2-  O144  1  0.02641786  0.16294938  0.12441083  1
  O2-  O145  1  0.02623461  0.15729448  0.62452673  1
  O2-  O146  1  0.02870587  0.49249916  0.12516640  1
  O2-  O147  1  0.02447712  0.49604549  0.62415212  1
  O2-  O148  1  0.02732806  0.82411506  0.12207234  1
  O2-  O149  1  0.01687794  0.82558704  0.62955947  1
  O2-  O150  1  0.35802865  0.16509134  0.12783913  1
  O2-  O151  1  0.35991126  0.15576980  0.62242185  1
  O2-  O152  1  0.35636873  0.49618265  0.12827645  1
  O2-  O153  1  0.36141163  0.49693393  0.62300733  1
  O2-  O154  1  0.35645734  0.82563353  0.12196102  1
  O2-  O155  1  0.35917333  0.82849840  0.62737773  1
  O2-  O156  1  0.69437461  0.16285122  0.12717821  1
  O2-  O157  1  0.68761946  0.15784240  0.62399296  1
  O2-  O158  1  0.69280267  0.49359822  0.12628538  1
  O2-  O159  1  0.68670894  0.49654653  0.62417436  1
  O2-  O160  1  0.69706111  0.82615860  0.12387112  1
  O2-  O161  1  0.69316142  0.83590314  0.62661002  1
  O2-  O162  1  0.14432673  0.32444964  0.12745567  1
  O2-  O163  1  0.13517532  0.32533404  0.62397746  1
  O2-  O164  1  0.14471328  0.66141950  0.12152861  1
  O2-  O165  1  0.14026609  0.66155455  0.62670381  1
  O2-  O166  1  0.13941751  0.99082701  0.12282646  1
  O2-  O167  1  0.14121886  0.99580538  0.62722843  1
  O2-  O168  1  0.47282101  0.32882574  0.12871616  1
  O2-  O169  1  0.47074772  0.32319046  0.62254351  1
  O2-  O170  1  0.47322773  0.66225585  0.12510570  1
  O2-  O171  1  0.47663741  0.66154541  0.62452509  1
  O2-  O172  1  0.47411882  0.99492498  0.12424435  1
  O2-  O173  1  0.47671314  0.99112508  0.62585528  1
  O2-  O174  1  0.80787445  0.32747743  0.12886413  1
  O2-  O175  1  0.80964577  0.33235503  0.62335012  1
  O2-  O176  1  0.80745128  0.66033993  0.12349584  1
  O2-  O177  1  0.81636949  0.67002385  0.62551979  1
  O2-  O178  1  0.80899327  0.99770226  0.12435495  1
  O2-  O179  1  0.80973578  0.99115350  0.62722446  1
  O2-  O180  1  0.30400153  0.17291146  0.37700072  1
  O2-  O181  1  0.30835352  0.17453132  0.87377244  1
  O2-  O182  1  0.30469624  0.50729071  0.37702797  1
  O2-  O183  1  0.30971210  0.50192178  0.87094907  1
  O2-  O184  1  0.30634579  0.83719612  0.37565358  1
  O2-  O185  1  0.30469263  0.84327915  0.87552346  1
  O2-  O186  1  0.64040726  0.17175571  0.37605061  1
  O2-  O187  1  0.64834286  0.17421947  0.87302148  1
  O2-  O188  1  0.64026701  0.50548887  0.37463003  1
  O2-  O189  1  0.64698384  0.50080273  0.87473408  1
  O2-  O190  1  0.64899425  0.83723675  0.37249288  1
  O2-  O191  1  0.63938158  0.83816010  0.87717032  1
  O2-  O192  1  0.97801034  0.17001003  0.37446606  1
  O2-  O193  1  0.97399275  0.17557279  0.87554282  1
  O2-  O194  1  0.97648858  0.50950440  0.37339284  1
  O2-  O195  1  0.97592836  0.50156832  0.87765311  1
  O2-  O196  1  0.97448869  0.83750804  0.37138686  1
  O2-  O197  1  0.96954840  0.84133955  0.87710246  1
  O2-  O198  1  0.18903539  0.00853127  0.37362089  1
  O2-  O199  1  0.19221731  0.00986804  0.87656709  1
  O2-  O200  1  0.19208352  0.34107725  0.37789720  1
  O2-  O201  1  0.19358012  0.34102378  0.87024417  1
  O2-  O202  1  0.18778943  0.67226950  0.37767119  1
  O2-  O203  1  0.19378721  0.66806716  0.87380381  1
  O2-  O204  1  0.52515709  0.00437033  0.37276917  1
  O2-  O205  1  0.52614490  0.00238980  0.87744996  1
  O2-  O206  1  0.52573718  0.34109061  0.37648903  1
  O2-  O207  1  0.52307887  0.33734397  0.87196037  1
  O2-  O208  1  0.52443128  0.66874139  0.37328838  1
  O2-  O209  1  0.52440088  0.67149926  0.87661496  1
  O2-  O210  1  0.86068844  0.00242731  0.37201876  1
  O2-  O211  1  0.85961723  0.00895058  0.87667602  1
  O2-  O212  1  0.86266755  0.34010019  0.37377039  1
  O2-  O213  1  0.85714678  0.33771132  0.87380011  1
  O2-  O214  1  0.85970460  0.67254374  0.37276694  1
  O2-  O215  1  0.85872710  0.66889306  0.87830901  1
  O2-  O216  1  0.23697815  0.09910855  0.02266771  1
  O2-  O217  1  0.23939032  0.09203823  0.52327865  1
  O2-  O218  1  0.23681110  0.42981870  0.02071660  1
  O2-  O219  1  0.23371572  0.43069397  0.52037319  1
  O2-  O220  1  0.23687847  0.76082854  0.02029768  1
  O2-  O221  1  0.24342639  0.75687561  0.52062594  1
  O2-  O222  1  0.57466679  0.09461030  0.02433478  1
  O2-  O223  1  0.56830308  0.09127190  0.51895129  1
  O2-  O224  1  0.57346544  0.42581383  0.02431966  1
  O2-  O225  1  0.56864723  0.42733913  0.52153644  1
  O2-  O226  1  0.57017733  0.76132949  0.02169366  1
  O2-  O227  1  0.57244580  0.76381482  0.51928757  1
  O2-  O228  1  0.90506094  0.09976250  0.01775193  1
  O2-  O229  1  0.90814670  0.09257825  0.51557682  1
  O2-  O230  1  0.90608631  0.42699339  0.02115188  1
  O2-  O231  1  0.90527240  0.43081810  0.51416241  1
  O2-  O232  1  0.90717121  0.76102786  0.02269640  1
  O2-  O233  1  0.90458478  0.76263220  0.51556495  1
  O2-  O234  1  0.26469376  0.26594086  0.23472404  1
  O2-  O235  1  0.26027399  0.26418855  0.72586628  1
  O2-  O236  1  0.26303735  0.59749010  0.23355668  1
  O2-  O237  1  0.25966453  0.59266287  0.72873584  1
  O2-  O238  1  0.26001554  0.93017526  0.22913240  1
  O2-  O239  1  0.26408107  0.93007875  0.73315940  1
  O2-  O240  1  0.59582061  0.26060357  0.23049310  1
  O2-  O241  1  0.59296336  0.26208409  0.72750587  1
  O2-  O242  1  0.59316438  0.59421755  0.22820671  1
  O2-  O243  1  0.59158736  0.59483882  0.73817208  1
  O2-  O244  1  0.59755030  0.92563951  0.22751178  1
  O2-  O245  1  0.59825980  0.93004363  0.73502628  1
  O2-  O246  1  0.93049634  0.25908932  0.22797637  1
  O2-  O247  1  0.93215095  0.26497014  0.73115320  1
  O2-  O248  1  0.92793830  0.59471885  0.22687373  1
  O2-  O249  1  0.93018993  0.59370868  0.73497672  1
  O2-  O250  1  0.93264660  0.92848051  0.22572162  1
  O2-  O251  1  0.92835532  0.92758644  0.73078748  1
  O2-  O252  1  0.09799556  0.23484108  0.27041493  1
  O2-  O253  1  0.09723078  0.23957380  0.77070326  1
  O2-  O254  1  0.09424481  0.57269161  0.27031214  1
  O2-  O255  1  0.09460321  0.57223500  0.77022035  1
  O2-  O256  1  0.09768553  0.90241721  0.27139552  1
  O2-  O257  1  0.09200843  0.90370285  0.77523401  1
  O2-  O258  1  0.42878187  0.23881419  0.27325840  1
  O2-  O259  1  0.42571312  0.23993429  0.76667292  1
  O2-  O260  1  0.42585575  0.57051812  0.27079588  1
  O2-  O261  1  0.42289644  0.57644737  0.76474485  1
  O2-  O262  1  0.42383832  0.90675389  0.26594937  1
  O2-  O263  1  0.42725186  0.90634764  0.77335643  1
  O2-  O264  1  0.76317496  0.23944031  0.27414505  1
  O2-  O265  1  0.76135532  0.24134266  0.76875921  1
  O2-  O266  1  0.76133239  0.57188622  0.27091188  1
  O2-  O267  1  0.76103494  0.57470286  0.77154196  1
  O2-  O268  1  0.76339795  0.90573453  0.26755824  1
  O2-  O269  1  0.76271632  0.90364325  0.77443817  1
  O2-  O270  1  0.07057361  0.06838910  0.48309630  1
  O2-  O271  1  0.07126734  0.07394189  0.97671022  1
  O2-  O272  1  0.07108782  0.40407755  0.47644555  1
  O2-  O273  1  0.07234870  0.40445849  0.97963470  1
  O2-  O274  1  0.07024297  0.73831947  0.48409933  1
  O2-  O275  1  0.06911581  0.73406205  0.97843370  1
  O2-  O276  1  0.40487258  0.07236755  0.47675727  1
  O2-  O277  1  0.39870433  0.07336900  0.98436953  1
  O2-  O278  1  0.40414602  0.40771537  0.47671588  1
  O2-  O279  1  0.40086651  0.40499630  0.98450845  1
  O2-  O280  1  0.40445597  0.73800345  0.48270885  1
  O2-  O281  1  0.40179004  0.73871714  0.97683570  1
  O2-  O282  1  0.74097996  0.07003126  0.47819589  1
  O2-  O283  1  0.73890115  0.07171083  0.98072041  1
  O2-  O284  1  0.73799802  0.40654693  0.47909838  1
  O2-  O285  1  0.73973953  0.40342385  0.98087509  1
  O2-  O286  1  0.74076823  0.73974897  0.47816193  1
  O2-  O287  1  0.73431371  0.73644473  0.98100520  1
  O2-  O288  1  0.10154168  0.23311184  0.48137379  1
  O2-  O289  1  0.09328013  0.24153136  0.97615983  1
  O2-  O290  1  0.09307434  0.57228037  0.47963469  1
  O2-  O291  1  0.09508057  0.57134506  0.97944276  1
  O2-  O292  1  0.09421673  0.90499519  0.47725531  1
  O2-  O293  1  0.09573470  0.90094573  0.97559218  1
  O2-  O294  1  0.42865903  0.23840461  0.47722665  1
  O2-  O295  1  0.42628385  0.24054592  0.98447392  1
  O2-  O296  1  0.42396196  0.57543286  0.47740683  1
  O2-  O297  1  0.42684058  0.57116297  0.98695360  1
  O2-  O298  1  0.42311128  0.90963530  0.48078986  1
  O2-  O299  1  0.42738329  0.90376840  0.98045530  1
  O2-  O300  1  0.76367421  0.24190028  0.47655627  1
  O2-  O301  1  0.76240214  0.23913658  0.98129306  1
  O2-  O302  1  0.76121186  0.57535801  0.47680363  1
  O2-  O303  1  0.76102321  0.57065030  0.98030378  1
  O2-  O304  1  0.76226453  0.90450214  0.47956879  1
  O2-  O305  1  0.76394784  0.90330303  0.97936309  1
  O2-  O306  1  0.06898352  0.06845062  0.26683013  1
  O2-  O307  1  0.07282007  0.07251923  0.77141468  1
  O2-  O308  1  0.07074372  0.40005135  0.27214448  1
  O2-  O309  1  0.07463499  0.40767263  0.77250485  1
  O2-  O310  1  0.06959772  0.73626579  0.26533982  1
  O2-  O311  1  0.06969410  0.73580957  0.77108087  1
  O2-  O312  1  0.40077719  0.07523262  0.27162127  1
  O2-  O313  1  0.40479959  0.06929947  0.76702025  1
  O2-  O314  1  0.40150823  0.40720433  0.27327179  1
  O2-  O315  1  0.40201631  0.40524399  0.76541201  1
  O2-  O316  1  0.40312298  0.73697278  0.26732352  1
  O2-  O317  1  0.40365884  0.73928420  0.77302339  1
  O2-  O318  1  0.73818327  0.07235582  0.27160280  1
  O2-  O319  1  0.74067140  0.06977559  0.77059434  1
  O2-  O320  1  0.73869291  0.40546813  0.27253889  1
  O2-  O321  1  0.73966189  0.40487821  0.76754215  1
  O2-  O322  1  0.73920936  0.73813325  0.26927543  1
  O2-  O323  1  0.73631714  0.73891681  0.77190768  1
  O2-  O324  1  0.23689660  0.09457936  0.22580360  1
  O2-  O325  1  0.24023430  0.09669601  0.73051512  1
  O2-  O326  1  0.23527559  0.43018088  0.23016782  1
  O2-  O327  1  0.23561750  0.43046793  0.72636184  1
  O2-  O328  1  0.23835878  0.76071389  0.22834375  1
  O2-  O329  1  0.24072515  0.75669364  0.73102910  1
  O2-  O330  1  0.57128888  0.09457400  0.22890988  1
  O2-  O331  1  0.57248061  0.09141886  0.72812812  1
  O2-  O332  1  0.57114268  0.42747603  0.22939550  1
  O2-  O333  1  0.57109240  0.42467918  0.72475700  1
  O2-  O334  1  0.57527733  0.76075845  0.22484539  1
  O2-  O335  1  0.56767976  0.76538495  0.73423410  1
  O2-  O336  1  0.90434307  0.09817497  0.23314510  1
  O2-  O337  1  0.90745582  0.09197790  0.73310328  1
  O2-  O338  1  0.90564166  0.42917692  0.22837780  1
  O2-  O339  1  0.90663416  0.42811705  0.73719386  1
  O2-  O340  1  0.90599472  0.76295613  0.22738685  1
  O2-  O341  1  0.90521227  0.76033535  0.73392962  1
  O2-  O342  1  0.26259065  0.26505402  0.01626822  1
  O2-  O343  1  0.26320529  0.26487414  0.52394662  1
  O2-  O344  1  0.26106050  0.59443394  0.01659081  1
  O2-  O345  1  0.26187916  0.59533487  0.52048693  1
  O2-  O346  1  0.26246667  0.92937769  0.02183468  1
  O2-  O347  1  0.26192244  0.92976300  0.51662351  1
  O2-  O348  1  0.59462368  0.26127270  0.02080187  1
  O2-  O349  1  0.59380253  0.26228807  0.52038725  1
  O2-  O350  1  0.59404120  0.59387293  0.02055744  1
  O2-  O351  1  0.59238231  0.59550011  0.51281984  1
  O2-  O352  1  0.59875234  0.92556963  0.02320425  1
  O2-  O353  1  0.59778321  0.92920575  0.51438314  1
  O2-  O354  1  0.92941406  0.26272533  0.02222954  1
  O2-  O355  1  0.93459587  0.26160445  0.51750403  1
  O2-  O356  1  0.92784724  0.59022547  0.02375387  1
  O2-  O357  1  0.93040582  0.59765134  0.51583909  1
  O2-  O358  1  0.93231792  0.93076652  0.02229695  1
  O2-  O359  1  0.92930329  0.92661434  0.51992694  1
