# generated using pymatgen
data_Sr7Ca15Pr50Mn72O216
_symmetry_space_group_name_H-M   'P 1'
_cell_length_a   16.56068191
_cell_length_b   16.60394980
_cell_length_c   15.59304621
_cell_angle_alpha   89.99922123
_cell_angle_beta   90.00550920
_cell_angle_gamma   89.99070024
_symmetry_Int_Tables_number   1
_chemical_formula_structural   Sr7Ca15Pr50Mn72O216
_chemical_formula_sum   'Sr7 Ca15 Pr50 Mn72 O216'
_cell_volume   4287.66242641
_cell_formula_units_Z   1
loop_
 _symmetry_equiv_pos_site_id
 _symmetry_equiv_pos_as_xyz
  1  'x, y, z'
loop_
 _atom_type_symbol
 _atom_type_oxidation_number
  Sr2+  2.0
  Ca2+  2.0
  Pr3+  3.0
  Mn3.30+  3.3
  O2-  -2.0
loop_
 _atom_site_type_symbol
 _atom_site_label
 _atom_site_symmetry_multiplicity
 _atom_site_fract_x
 _atom_site_fract_y
 _atom_site_fract_z
 _atom_site_occupancy
  Sr2+  Sr0  1  0.50344953  0.50992253  0.12674406  1
  Sr2+  Sr1  1  0.16553137  0.82300974  0.37510915  1
  Sr2+  Sr2  1  0.33509463  0.67422612  0.12689347  1
  Sr2+  Sr3  1  0.66441031  0.34508370  0.12398160  1
  Sr2+  Sr4  1  -0.00036361  0.67873237  0.62514193  1
  Sr2+  Sr5  1  0.33324582  0.65965629  0.37500916  1
  Sr2+  Sr6  1  0.33457560  0.00910345  0.12536402  1
  Ca2+  Ca7  1  0.49753176  0.15269788  0.87553397  1
  Ca2+  Ca8  1  0.33021599  0.01439059  0.62611927  1
  Ca2+  Ca9  1  0.16492199  0.15053803  0.87394737  1
  Ca2+  Ca10  1  -0.00447529  0.68130908  0.12545440  1
  Ca2+  Ca11  1  0.82936663  0.48650857  0.37409119  1
  Ca2+  Ca12  1  0.50440770  0.18130767  0.12179135  1
  Ca2+  Ca13  1  0.32584534  0.68342985  0.62309185  1
  Ca2+  Ca14  1  0.66784239  0.31694076  0.87669155  1
  Ca2+  Ca15  1  0.83585814  0.18037364  0.62525029  1
  Ca2+  Ca16  1  0.17188530  0.84844927  0.62311146  1
  Ca2+  Ca17  1  0.67215078  0.64844190  0.37408718  1
  Ca2+  Ca18  1  0.50137059  0.17962490  0.62831994  1
  Ca2+  Ca19  1  0.83615985  0.51699476  0.12690369  1
  Ca2+  Ca20  1  0.83121827  0.81822118  0.87391208  1
  Ca2+  Ca21  1  0.66872676  0.98505881  0.37580577  1
  Pr3+  Pr22  1  0.66517105  0.67963360  0.62251377  1
  Pr3+  Pr23  1  0.16962640  0.51400593  0.12442126  1
  Pr3+  Pr24  1  -0.00190259  0.01212074  0.62390254  1
  Pr3+  Pr25  1  0.33585083  0.98666396  0.37657721  1
  Pr3+  Pr26  1  0.49941472  0.48999499  0.37278768  1
  Pr3+  Pr27  1  0.49974735  0.84679904  0.62375120  1
  Pr3+  Pr28  1  0.82619624  0.15152543  0.37586902  1
  Pr3+  Pr29  1  0.83736314  0.51296448  0.62396706  1
  Pr3+  Pr30  1  0.50151363  0.51340207  0.62401117  1
  Pr3+  Pr31  1  0.83526222  0.84331460  0.12408702  1
  Pr3+  Pr32  1  0.83352946  0.17939461  0.12450227  1
  Pr3+  Pr33  1  0.33530756  0.98927781  0.87372125  1
  Pr3+  Pr34  1  1.00087189  0.32259913  0.37479045  1
  Pr3+  Pr35  1  1.00218442  0.98788213  0.87466846  1
  Pr3+  Pr36  1  0.16561258  0.15374021  0.37611536  1
  Pr3+  Pr37  1  0.16529805  0.49224910  0.37434489  1
  Pr3+  Pr38  1  0.82947646  0.81756493  0.37602954  1
  Pr3+  Pr39  1  1.00286499  0.98549183  0.37564310  1
  Pr3+  Pr40  1  0.16998188  0.51569172  0.62519650  1
  Pr3+  Pr41  1  0.66357263  0.67475830  0.12740828  1
  Pr3+  Pr42  1  1.00447379  0.65407968  0.37447057  1
  Pr3+  Pr43  1  0.16531060  0.82304235  0.87458123  1
  Pr3+  Pr44  1  1.00031603  0.65573843  0.87539929  1
  Pr3+  Pr45  1  0.67055899  0.65534848  0.87436686  1
  Pr3+  Pr46  1  0.49663546  0.82204961  0.87400321  1
  Pr3+  Pr47  1  0.49947292  0.48628839  0.87715949  1
  Pr3+  Pr48  1  0.83798686  0.84440440  0.62601995  1
  Pr3+  Pr49  1  0.33764946  0.32398336  0.37493651  1
  Pr3+  Pr50  1  0.33223217  0.34528357  0.62591450  1
  Pr3+  Pr51  1  0.66209088  0.01564125  0.62336835  1
  Pr3+  Pr52  1  0.33670255  0.65494463  0.87436419  1
  Pr3+  Pr53  1  0.49859336  0.15566342  0.37445917  1
  Pr3+  Pr54  1  0.50241851  0.84227876  0.12618613  1
  Pr3+  Pr55  1  0.16397350  0.48835145  0.87557820  1
  Pr3+  Pr56  1  0.17187624  0.17765174  0.12382751  1
  Pr3+  Pr57  1  0.66863815  0.32296726  0.37342799  1
  Pr3+  Pr58  1  0.66903013  0.98543683  0.87379045  1
  Pr3+  Pr59  1  0.17153019  0.17771781  0.62651011  1
  Pr3+  Pr60  1  0.66523148  0.34383076  0.62613581  1
  Pr3+  Pr61  1  0.33488535  0.34444203  0.12432005  1
  Pr3+  Pr62  1  1.00405171  0.31633780  0.87506174  1
  Pr3+  Pr63  1  0.82757126  0.15482555  0.87412761  1
  Pr3+  Pr64  1  0.82780252  0.48492934  0.87543842  1
  Pr3+  Pr65  1  0.65899725  0.01302613  0.12565645  1
  Pr3+  Pr66  1  -0.00421503  0.34424933  0.62588199  1
  Pr3+  Pr67  1  0.49837126  0.82130723  0.37573708  1
  Pr3+  Pr68  1  -0.00696013  0.34870792  0.12384234  1
  Pr3+  Pr69  1  0.16951695  0.84423773  0.12602822  1
  Pr3+  Pr70  1  -0.00228350  0.01087199  0.12611102  1
  Pr3+  Pr71  1  0.33768303  0.31706118  0.87540447  1
  Mn3.30+  Mn72  1  0.16743676  0.00106298  -0.00039338  1
  Mn3.30+  Mn73  1  0.16820248  -0.00099207  0.50206011  1
  Mn3.30+  Mn74  1  0.16578207  0.33159626  -0.00035502  1
  Mn3.30+  Mn75  1  0.16655174  0.33437729  0.49995065  1
  Mn3.30+  Mn76  1  0.16534712  0.66758502  0.00090086  1
  Mn3.30+  Mn77  1  0.16735141  0.66921968  0.50080193  1
  Mn3.30+  Mn78  1  0.50024690  0.00163299  -0.00069956  1
  Mn3.30+  Mn79  1  0.49987471  0.00299540  0.50139278  1
  Mn3.30+  Mn80  1  0.50315042  0.33047877  -0.00210001  1
  Mn3.30+  Mn81  1  0.50083579  0.33264358  0.50229160  1
  Mn3.30+  Mn82  1  0.50155089  0.66641437  0.00028820  1
  Mn3.30+  Mn83  1  0.49946259  0.66744747  0.50016183  1
  Mn3.30+  Mn84  1  0.83165419  -0.00157864  -0.00042782  1
  Mn3.30+  Mn85  1  0.83118385  -0.00007174  0.50068632  1
  Mn3.30+  Mn86  1  0.83118713  0.33398691  0.00000109  1
  Mn3.30+  Mn87  1  0.83277406  0.33259698  0.49964422  1
  Mn3.30+  Mn88  1  0.83420551  0.66619859  0.00117854  1
  Mn3.30+  Mn89  1  0.83354796  0.66425121  0.49795337  1
  Mn3.30+  Mn90  1  -0.00070884  0.16694656  0.25064433  1
  Mn3.30+  Mn91  1  -0.00030114  0.16502772  0.74961332  1
  Mn3.30+  Mn92  1  -0.00371359  0.50218169  0.24868374  1
  Mn3.30+  Mn93  1  -0.00078684  0.49978250  0.75088365  1
  Mn3.30+  Mn94  1  -0.00090727  0.83129051  0.24924912  1
  Mn3.30+  Mn95  1  0.00083181  0.83373110  0.74975102  1
  Mn3.30+  Mn96  1  0.33539746  0.16700941  0.24827606  1
  Mn3.30+  Mn97  1  0.33496732  0.16508162  0.75069682  1
  Mn3.30+  Mn98  1  0.33343708  0.50120735  0.24971901  1
  Mn3.30+  Mn99  1  0.33381389  0.50107009  0.74996735  1
  Mn3.30+  Mn100  1  0.33382393  0.83230181  0.25045852  1
  Mn3.30+  Mn101  1  0.33136742  0.83456826  0.74725816  1
  Mn3.30+  Mn102  1  0.66473976  0.16559926  0.25004300  1
  Mn3.30+  Mn103  1  0.66463973  0.16738899  0.74969133  1
  Mn3.30+  Mn104  1  0.67040548  0.50030675  0.24988793  1
  Mn3.30+  Mn105  1  0.66637255  0.49856094  0.74982985  1
  Mn3.30+  Mn106  1  0.66826628  0.83206990  0.25254934  1
  Mn3.30+  Mn107  1  0.66791437  0.83348191  0.74830450  1
  Mn3.30+  Mn108  1  0.16708554  -0.00030076  0.25029673  1
  Mn3.30+  Mn109  1  0.16801896  0.00022742  0.74875274  1
  Mn3.30+  Mn110  1  0.16579163  0.33375386  0.24962591  1
  Mn3.30+  Mn111  1  0.16656695  0.33190336  0.75119751  1
  Mn3.30+  Mn112  1  0.16490123  0.66725755  0.24896645  1
  Mn3.30+  Mn113  1  0.16818180  0.66985716  0.74886656  1
  Mn3.30+  Mn114  1  0.50156946  0.00113676  0.25116029  1
  Mn3.30+  Mn115  1  0.49882971  0.00304548  0.74817960  1
  Mn3.30+  Mn116  1  0.50257316  0.33288659  0.24851518  1
  Mn3.30+  Mn117  1  0.50111387  0.33007286  0.75153749  1
  Mn3.30+  Mn118  1  0.50254479  0.66625735  0.25250381  1
  Mn3.30+  Mn119  1  0.49842564  0.66739213  0.74719065  1
  Mn3.30+  Mn120  1  0.83018498  -0.00151124  0.25029686  1
  Mn3.30+  Mn121  1  0.83289431  0.00022948  0.74919667  1
  Mn3.30+  Mn122  1  0.83284755  0.33591302  0.24936533  1
  Mn3.30+  Mn123  1  0.83140984  0.33076474  0.75079796  1
  Mn3.30+  Mn124  1  0.83349600  0.66374301  0.25025061  1
  Mn3.30+  Mn125  1  0.83419180  0.66732867  0.75012756  1
  Mn3.30+  Mn126  1  0.00117772  0.16515690  -0.00010778  1
  Mn3.30+  Mn127  1  -0.00218286  0.16685293  0.50020472  1
  Mn3.30+  Mn128  1  -0.00317340  0.50201018  0.00113899  1
  Mn3.30+  Mn129  1  -0.00216127  0.50001661  0.49847870  1
  Mn3.30+  Mn130  1  -0.00156500  0.83240819  -0.00089895  1
  Mn3.30+  Mn131  1  0.00188498  0.83269243  0.50217007  1
  Mn3.30+  Mn132  1  0.33567291  0.16517812  -0.00067438  1
  Mn3.30+  Mn133  1  0.33535878  0.16669321  0.50210210  1
  Mn3.30+  Mn134  1  0.33324455  0.49979032  0.00027178  1
  Mn3.30+  Mn135  1  0.33386897  0.50239676  0.50002049  1
  Mn3.30+  Mn136  1  0.33328494  0.83318989  0.00088756  1
  Mn3.30+  Mn137  1  0.33250428  0.83356648  0.50156912  1
  Mn3.30+  Mn138  1  0.66318322  0.16655732  -0.00238715  1
  Mn3.30+  Mn139  1  0.66580331  0.16699426  0.50210327  1
  Mn3.30+  Mn140  1  0.66742240  0.49874196  0.00095034  1
  Mn3.30+  Mn141  1  0.66866734  0.49999214  0.49946293  1
  Mn3.30+  Mn142  1  0.66890748  0.83180060  -0.00110053  1
  Mn3.30+  Mn143  1  0.66726840  0.83379404  0.49883201  1
  O2-  O144  1  0.02684518  0.15995741  0.12704539  1
  O2-  O145  1  0.02702937  0.16229580  0.62557833  1
  O2-  O146  1  0.02712488  0.49309647  0.12337042  1
  O2-  O147  1  0.02503175  0.49148554  0.62630847  1
  O2-  O148  1  0.02444871  0.82873819  0.12319539  1
  O2-  O149  1  0.02668014  0.83445838  0.62668980  1
  O2-  O150  1  0.36079286  0.16604638  0.12470176  1
  O2-  O151  1  0.35929032  0.16134048  0.62534626  1
  O2-  O152  1  0.35214344  0.49406100  0.12455298  1
  O2-  O153  1  0.35783784  0.49266221  0.62633951  1
  O2-  O154  1  0.35740083  0.83158754  0.12483097  1
  O2-  O155  1  0.35830556  0.82576567  0.62541809  1
  O2-  O156  1  0.69130411  0.15860415  0.12423905  1
  O2-  O157  1  0.69484423  0.16274334  0.62486558  1
  O2-  O158  1  0.69231727  0.50341125  0.12524325  1
  O2-  O159  1  0.69325293  0.49292557  0.62580365  1
  O2-  O160  1  0.69169331  0.82505045  0.12700780  1
  O2-  O161  1  0.69351978  0.82783048  0.62419657  1
  O2-  O162  1  0.13761495  0.32434710  0.12314193  1
  O2-  O163  1  0.14025955  0.32599705  0.62599583  1
  O2-  O164  1  0.13779648  0.66125139  0.12314089  1
  O2-  O165  1  0.14666158  0.66045394  0.62610720  1
  O2-  O166  1  0.14214555  0.99585646  0.12472854  1
  O2-  O167  1  0.14244254  0.99752909  0.62453016  1
  O2-  O168  1  0.47815674  0.32710041  0.12255942  1
  O2-  O169  1  0.47497831  0.32682733  0.62651748  1
  O2-  O170  1  0.48617104  0.66780522  0.12485644  1
  O2-  O171  1  0.47057249  0.66040178  0.62532631  1
  O2-  O172  1  0.48344134  0.98946706  0.12486155  1
  O2-  O173  1  0.47156421  0.99363579  0.62489815  1
  O2-  O174  1  0.81409219  0.32524455  0.12351952  1
  O2-  O175  1  0.80963281  0.32634329  0.62566485  1
  O2-  O176  1  0.80690065  0.66321384  0.12622982  1
  O2-  O177  1  0.80956831  0.66158812  0.62338778  1
  O2-  O178  1  0.80402956  0.99201094  0.12462635  1
  O2-  O179  1  0.80573936  0.99036106  0.62560045  1
  O2-  O180  1  0.30837337  0.17568566  0.37551050  1
  O2-  O181  1  0.30542393  0.17086600  0.87490591  1
  O2-  O182  1  0.31022859  0.49737376  0.37510719  1
  O2-  O183  1  0.30900172  0.50519029  0.87416323  1
  O2-  O184  1  0.31543520  0.83861982  0.37608847  1
  O2-  O185  1  0.31041022  0.83939632  0.87404753  1
  O2-  O186  1  0.64239627  0.17434753  0.37734420  1
  O2-  O187  1  0.64054778  0.16978407  0.87339602  1
  O2-  O188  1  0.64304398  0.50166690  0.37789770  1
  O2-  O189  1  0.64197471  0.50986619  0.87185434  1
  O2-  O190  1  0.64218107  0.84136431  0.37740883  1
  O2-  O191  1  0.64093139  0.83606644  0.87075722  1
  O2-  O192  1  0.97138924  0.17297054  0.37387492  1
  O2-  O193  1  0.97227468  0.16801613  0.87354791  1
  O2-  O194  1  0.97236913  0.50615407  0.37388968  1
  O2-  O195  1  0.97295582  0.50657613  0.87653359  1
  O2-  O196  1  0.97434238  0.83840668  0.37509804  1
  O2-  O197  1  0.97265335  0.84094807  0.87520178  1
  O2-  O198  1  0.19026377  0.00565158  0.37686744  1
  O2-  O199  1  0.19013546  0.00411268  0.87476977  1
  O2-  O200  1  0.19335974  0.34212868  0.37524741  1
  O2-  O201  1  0.19274031  0.34144188  0.87585172  1
  O2-  O202  1  0.18265043  0.66307669  0.37599474  1
  O2-  O203  1  0.19296650  0.67330980  0.87398221  1
  O2-  O204  1  0.52806325  0.00863942  0.37686157  1
  O2-  O205  1  0.52572033  0.00437220  0.87318490  1
  O2-  O206  1  0.52342550  0.34018638  0.37782380  1
  O2-  O207  1  0.52707348  0.34091222  0.87358754  1
  O2-  O208  1  0.52882377  0.67258225  0.37802428  1
  O2-  O209  1  0.52606360  0.67346488  0.87157599  1
  O2-  O210  1  0.85904818  0.00523486  0.37609375  1
  O2-  O211  1  0.85856630  0.00944313  0.87353677  1
  O2-  O212  1  0.85767642  0.33925808  0.37396645  1
  O2-  O213  1  0.85995688  0.33653227  0.87658956  1
  O2-  O214  1  0.86188634  0.67241783  0.37428264  1
  O2-  O215  1  0.85620025  0.67146432  0.87583378  1
  O2-  O216  1  0.23814248  0.09578782  0.01889306  1
  O2-  O217  1  0.23752080  0.09810928  0.51670622  1
  O2-  O218  1  0.23502556  0.42444991  0.02027988  1
  O2-  O219  1  0.23739583  0.42727991  0.52227942  1
  O2-  O220  1  0.23488310  0.76144497  0.01741656  1
  O2-  O221  1  0.23891760  0.76321243  0.51929570  1
  O2-  O222  1  0.57148030  0.09322343  0.02185350  1
  O2-  O223  1  0.56941266  0.09833223  0.52405585  1
  O2-  O224  1  0.57254239  0.43036389  0.01298966  1
  O2-  O225  1  0.57163400  0.42752608  0.52190875  1
  O2-  O226  1  0.57280073  0.76286325  0.01726511  1
  O2-  O227  1  0.57219178  0.76083878  0.52327583  1
  O2-  O228  1  0.90410812  0.09333944  0.02281976  1
  O2-  O229  1  0.90094548  0.09343942  0.52185355  1
  O2-  O230  1  0.90395334  0.43177163  0.02073818  1
  O2-  O231  1  0.90662244  0.42538693  0.52265531  1
  O2-  O232  1  0.90420261  0.76146734  0.01919663  1
  O2-  O233  1  0.90363649  0.76378012  0.51724546  1
  O2-  O234  1  0.26229783  0.26121295  0.22831357  1
  O2-  O235  1  0.26392720  0.26088146  0.72942863  1
  O2-  O236  1  0.25407725  0.58987220  0.23175616  1
  O2-  O237  1  0.26270069  0.59874829  0.73111452  1
  O2-  O238  1  0.25705596  0.92491286  0.23399346  1
  O2-  O239  1  0.26507733  0.93116208  0.73145566  1
  O2-  O240  1  0.59409398  0.25994028  0.23679022  1
  O2-  O241  1  0.59543018  0.26109180  0.72842965  1
  O2-  O242  1  0.59813091  0.59440974  0.23709789  1
  O2-  O243  1  0.59456232  0.59454019  0.72621376  1
  O2-  O244  1  0.59560761  0.92528390  0.23061793  1
  O2-  O245  1  0.59452051  0.92880195  0.72837448  1
  O2-  O246  1  0.92851590  0.26170719  0.23003281  1
  O2-  O247  1  0.93177754  0.26118444  0.73326239  1
  O2-  O248  1  0.93107234  0.59875884  0.22811795  1
  O2-  O249  1  0.92567353  0.59187215  0.73243911  1
  O2-  O250  1  0.92640853  0.92699369  0.22919427  1
  O2-  O251  1  0.92880071  0.92919014  0.72872333  1
  O2-  O252  1  0.09570598  0.24087264  0.27364781  1
  O2-  O253  1  0.09465239  0.23541582  0.77253000  1
  O2-  O254  1  0.09218928  0.57049170  0.26934618  1
  O2-  O255  1  0.09564545  0.57309189  0.77055861  1
  O2-  O256  1  0.08878110  0.90782766  0.26604780  1
  O2-  O257  1  0.09282668  0.90721406  0.77305635  1
  O2-  O258  1  0.42618312  0.24208801  0.27251022  1
  O2-  O259  1  0.42756725  0.23788925  0.77427519  1
  O2-  O260  1  0.42896565  0.57453825  0.26892157  1
  O2-  O261  1  0.42949107  0.57156268  0.77198491  1
  O2-  O262  1  0.43016720  0.90969365  0.27144433  1
  O2-  O263  1  0.42890628  0.90573103  0.76956772  1
  O2-  O264  1  0.76078209  0.23638679  0.26881898  1
  O2-  O265  1  0.76092859  0.23768121  0.77070407  1
  O2-  O266  1  0.76538321  0.57029650  0.27208681  1
  O2-  O267  1  0.76080691  0.57047636  0.76845264  1
  O2-  O268  1  0.76292891  0.90104850  0.26923648  1
  O2-  O269  1  0.76342790  0.90562528  0.77212022  1
  O2-  O270  1  0.06966285  0.07446629  0.47946745  1
  O2-  O271  1  0.06918773  0.06998291  0.98267968  1
  O2-  O272  1  0.07006017  0.40798555  0.47806508  1
  O2-  O273  1  0.06987824  0.40503277  0.97867609  1
  O2-  O274  1  0.07026779  0.73806857  0.48171012  1
  O2-  O275  1  0.07236135  0.74100026  0.97541094  1
  O2-  O276  1  0.40600551  0.07465036  0.47528635  1
  O2-  O277  1  0.40413280  0.07190809  0.97864193  1
  O2-  O278  1  0.40679838  0.40575295  0.48271765  1
  O2-  O279  1  0.40647100  0.40370686  0.97983124  1
  O2-  O280  1  0.41064690  0.74380382  0.48115197  1
  O2-  O281  1  0.40871048  0.74063582  0.97786195  1
  O2-  O282  1  0.73501966  0.06991045  0.47928580  1
  O2-  O283  1  0.73560897  0.07095462  0.97880007  1
  O2-  O284  1  0.73640995  0.40210754  0.48410054  1
  O2-  O285  1  0.73775985  0.40576127  0.97506722  1
  O2-  O286  1  0.73981008  0.73292823  0.47851001  1
  O2-  O287  1  0.73735654  0.73597490  0.98229483  1
  O2-  O288  1  0.09616532  0.24173706  0.47787582  1
  O2-  O289  1  0.09727588  0.23727791  0.97662299  1
  O2-  O290  1  0.09319916  0.57044887  0.48269166  1
  O2-  O291  1  0.09370937  0.57247003  0.97711199  1
  O2-  O292  1  0.09021590  0.90959768  0.48111177  1
  O2-  O293  1  0.09258224  0.90616189  0.98035589  1
  O2-  O294  1  0.42730984  0.24142499  0.47804753  1
  O2-  O295  1  0.42701810  0.23869400  0.97525755  1
  O2-  O296  1  0.43206995  0.57084710  0.48140944  1
  O2-  O297  1  0.42863728  0.57614958  0.97773041  1
  O2-  O298  1  0.42959866  0.90760930  0.47951613  1
  O2-  O299  1  0.42966431  0.90781397  0.97928733  1
  O2-  O300  1  0.76065914  0.23874838  0.47751148  1
  O2-  O301  1  0.76192076  0.23404013  0.98280981  1
  O2-  O302  1  0.76439059  0.56639212  0.48278076  1
  O2-  O303  1  0.76201178  0.57227055  0.97763422  1
  O2-  O304  1  0.76411991  0.90394458  0.48158469  1
  O2-  O305  1  0.76224106  0.90257763  0.97667491  1
  O2-  O306  1  0.07116812  0.07327701  0.27198960  1
  O2-  O307  1  0.06805807  0.07001853  0.76666518  1
  O2-  O308  1  0.07007637  0.40706231  0.27037037  1
  O2-  O309  1  0.07091852  0.40552151  0.77255296  1
  O2-  O310  1  0.06883367  0.73787646  0.26700137  1
  O2-  O311  1  0.07299661  0.74049026  0.77451133  1
  O2-  O312  1  0.40570057  0.07475561  0.27431770  1
  O2-  O313  1  0.40429665  0.07198831  0.77165770  1
  O2-  O314  1  0.40753447  0.40565662  0.26706756  1
  O2-  O315  1  0.40645760  0.40325964  0.77064118  1
  O2-  O316  1  0.41345977  0.74365228  0.26844147  1
  O2-  O317  1  0.40506919  0.74104102  0.77213898  1
  O2-  O318  1  0.73570192  0.06988574  0.27173910  1
  O2-  O319  1  0.73624262  0.07176048  0.77002597  1
  O2-  O320  1  0.73939040  0.40528842  0.27014944  1
  O2-  O321  1  0.73628387  0.40386551  0.77188876  1
  O2-  O322  1  0.73872505  0.73571592  0.27315418  1
  O2-  O323  1  0.73743954  0.73624958  0.76530161  1
  O2-  O324  1  0.23769185  0.09823314  0.23458776  1
  O2-  O325  1  0.23860989  0.09612062  0.73069639  1
  O2-  O326  1  0.23650017  0.42509209  0.22810540  1
  O2-  O327  1  0.23868828  0.42951443  0.72956905  1
  O2-  O328  1  0.23658292  0.75812788  0.23132142  1
  O2-  O329  1  0.23509402  0.76784950  0.73219950  1
  O2-  O330  1  0.56959592  0.09595623  0.22851062  1
  O2-  O331  1  0.57262748  0.09411804  0.72505808  1
  O2-  O332  1  0.57431974  0.42730289  0.23780577  1
  O2-  O333  1  0.57112654  0.42848782  0.72834190  1
  O2-  O334  1  0.57534470  0.76219500  0.23184008  1
  O2-  O335  1  0.57045329  0.76061185  0.72617781  1
  O2-  O336  1  0.90291740  0.09275686  0.22873867  1
  O2-  O337  1  0.90369887  0.09503006  0.72583495  1
  O2-  O338  1  0.90720916  0.43018061  0.22564722  1
  O2-  O339  1  0.90315702  0.42565379  0.73082155  1
  O2-  O340  1  0.90138016  0.76299975  0.23185599  1
  O2-  O341  1  0.90627133  0.76306648  0.73266782  1
  O2-  O342  1  0.26318817  0.26120127  0.02111753  1
  O2-  O343  1  0.26353930  0.26057152  0.52174417  1
  O2-  O344  1  0.25629811  0.59292170  0.01615580  1
  O2-  O345  1  0.26007039  0.59359356  0.52091737  1
  O2-  O346  1  0.25649885  0.92562130  0.01706598  1
  O2-  O347  1  0.26568221  0.93060798  0.51892730  1
  O2-  O348  1  0.59442464  0.25890579  0.01668542  1
  O2-  O349  1  0.59688460  0.26383371  0.51837786  1
  O2-  O350  1  0.59837249  0.59774513  0.01346171  1
  O2-  O351  1  0.59434770  0.59288199  0.52357590  1
  O2-  O352  1  0.59770739  0.92634796  0.01667199  1
  O2-  O353  1  0.59082982  0.92997309  0.52355847  1
  O2-  O354  1  0.93113935  0.26009278  0.01838312  1
  O2-  O355  1  0.93042225  0.26224534  0.51776577  1
  O2-  O356  1  0.93064674  0.59922515  0.01924653  1
  O2-  O357  1  0.92708117  0.59200377  0.51934992  1
  O2-  O358  1  0.92829035  0.92759002  0.02187262  1
  O2-  O359  1  0.92759535  0.92796831  0.52016751  1
