# generated using pymatgen
data_Sr7Ca15Pr50Mn72O216
_symmetry_space_group_name_H-M   'P 1'
_cell_length_a   16.55525522
_cell_length_b   16.59681806
_cell_length_c   15.58984555
_cell_angle_alpha   90.00041365
_cell_angle_beta   90.00386468
_cell_angle_gamma   89.98759780
_symmetry_Int_Tables_number   1
_chemical_formula_structural   Sr7Ca15Pr50Mn72O216
_chemical_formula_sum   'Sr7 Ca15 Pr50 Mn72 O216'
_cell_volume   4283.53692365
_cell_formula_units_Z   1
loop_
 _symmetry_equiv_pos_site_id
 _symmetry_equiv_pos_as_xyz
  1  'x, y, z'
loop_
 _atom_type_symbol
 _atom_type_oxidation_number
  Sr2+  2.0
  Ca2+  2.0
  Pr3+  3.0
  Mn3.30+  3.3
  O2-  -2.0
loop_
 _atom_site_type_symbol
 _atom_site_label
 _atom_site_symmetry_multiplicity
 _atom_site_fract_x
 _atom_site_fract_y
 _atom_site_fract_z
 _atom_site_occupancy
  Sr2+  Sr0  1  0.66570331  0.99156009  0.87479202  1
  Sr2+  Sr1  1  0.49878827  0.83985486  0.12516682  1
  Sr2+  Sr2  1  0.17211084  0.51258984  0.12593603  1
  Sr2+  Sr3  1  0.83232833  0.50925048  0.62612402  1
  Sr2+  Sr4  1  0.49987907  0.15661295  0.87516666  1
  Sr2+  Sr5  1  0.16230101  0.81767379  0.37549614  1
  Sr2+  Sr6  1  0.83270443  0.82084628  0.37520752  1
  Ca2+  Ca7  1  0.33006700  0.67779058  0.12551870  1
  Ca2+  Ca8  1  0.82985639  0.48457021  0.87347498  1
  Ca2+  Ca9  1  0.33449179  0.65183853  0.37294143  1
  Ca2+  Ca10  1  0.49740740  0.48613170  0.87400907  1
  Ca2+  Ca11  1  0.66430377  0.35096488  0.62699481  1
  Ca2+  Ca12  1  0.32908953  0.67845172  0.62492966  1
  Ca2+  Ca13  1  0.66217838  0.68167539  0.12481170  1
  Ca2+  Ca14  1  0.82909494  0.15250230  0.37543029  1
  Ca2+  Ca15  1  0.66545890  0.67825549  0.62486099  1
  Ca2+  Ca16  1  1.00597465  0.64995688  0.37582929  1
  Ca2+  Ca17  1  0.34038991  0.64847465  0.87606922  1
  Ca2+  Ca18  1  0.33149167  0.34997020  0.62523636  1
  Ca2+  Ca19  1  0.66323022  0.35009204  0.12276886  1
  Ca2+  Ca20  1  1.00069884  0.32187580  0.87472817  1
  Ca2+  Ca21  1  0.16834517  0.49368552  0.37453642  1
  Pr3+  Pr22  1  0.50430766  0.51507448  0.62770586  1
  Pr3+  Pr23  1  0.16360823  0.15486867  0.37534490  1
  Pr3+  Pr24  1  0.50479132  0.18442905  0.62629493  1
  Pr3+  Pr25  1  0.33223725  0.01015983  0.12540390  1
  Pr3+  Pr26  1  -0.00372490  0.01155517  0.12657972  1
  Pr3+  Pr27  1  0.49761483  0.49065014  0.37560333  1
  Pr3+  Pr28  1  -0.00350059  0.01111036  0.62326092  1
  Pr3+  Pr29  1  0.83208125  0.84206149  0.62333053  1
  Pr3+  Pr30  1  0.33485488  0.98308644  0.37530693  1
  Pr3+  Pr31  1  0.49734232  0.15373310  0.37525403  1
  Pr3+  Pr32  1  0.34025750  0.32206983  0.87473498  1
  Pr3+  Pr33  1  0.16957956  0.84351578  0.62404399  1
  Pr3+  Pr34  1  0.49661602  0.81983205  0.87607953  1
  Pr3+  Pr35  1  0.66888486  0.65591169  0.37421535  1
  Pr3+  Pr36  1  1.00023152  0.65248515  0.87464019  1
  Pr3+  Pr37  1  0.16948763  0.18033010  0.12590998  1
  Pr3+  Pr38  1  0.17243600  0.51280202  0.62434498  1
  Pr3+  Pr39  1  0.16510890  0.81738315  0.87451016  1
  Pr3+  Pr40  1  1.00217939  0.32519506  0.37575969  1
  Pr3+  Pr41  1  0.66359268  0.01284530  0.62446208  1
  Pr3+  Pr42  1  0.33464197  0.32619326  0.37505116  1
  Pr3+  Pr43  1  0.83042708  0.15600310  0.87458619  1
  Pr3+  Pr44  1  0.83345503  0.49293327  0.37622078  1
  Pr3+  Pr45  1  0.66226980  0.01108184  0.12553559  1
  Pr3+  Pr46  1  0.83510421  0.18081022  0.12563563  1
  Pr3+  Pr47  1  0.83516272  0.18071485  0.62460578  1
  Pr3+  Pr48  1  0.33881575  0.98730960  0.87465916  1
  Pr3+  Pr49  1  1.00129751  0.98472671  0.37483139  1
  Pr3+  Pr50  1  0.33154956  0.34815185  0.12424228  1
  Pr3+  Pr51  1  0.33055603  0.01230254  0.62437680  1
  Pr3+  Pr52  1  0.50611468  0.18215355  0.12384971  1
  Pr3+  Pr53  1  0.16620402  0.48585533  0.87601327  1
  Pr3+  Pr54  1  0.00055802  0.67628626  0.12630340  1
  Pr3+  Pr55  1  0.83237766  0.84393000  0.12655651  1
  Pr3+  Pr56  1  0.49348442  0.81549670  0.37401116  1
  Pr3+  Pr57  1  0.66781917  0.32514262  0.87347642  1
  Pr3+  Pr58  1  0.50462715  0.51501931  0.12215498  1
  Pr3+  Pr59  1  0.16433226  0.15653987  0.87481271  1
  Pr3+  Pr60  1  0.66879769  0.65274828  0.87557919  1
  Pr3+  Pr61  1  0.17116038  0.84110421  0.12621928  1
  Pr3+  Pr62  1  0.66997266  0.98507489  0.37514493  1
  Pr3+  Pr63  1  -0.00155584  0.34863490  0.12367199  1
  Pr3+  Pr64  1  0.83408326  0.51255841  0.12316802  1
  Pr3+  Pr65  1  -0.00316227  0.34846599  0.62651683  1
  Pr3+  Pr66  1  0.50105429  0.84274235  0.62504840  1
  Pr3+  Pr67  1  1.00241253  0.98673346  0.87494513  1
  Pr3+  Pr68  1  0.67353723  0.32291380  0.37613286  1
  Pr3+  Pr69  1  0.17157187  0.18437801  0.62369831  1
  Pr3+  Pr70  1  -0.00319184  0.67562154  0.62361999  1
  Pr3+  Pr71  1  0.82622262  0.82170318  0.87470657  1
  Mn3.30+  Mn72  1  0.16686842  -0.00052885  -0.00023956  1
  Mn3.30+  Mn73  1  0.16564604  -0.00069538  0.50019912  1
  Mn3.30+  Mn74  1  0.16692849  0.33370351  -0.00087034  1
  Mn3.30+  Mn75  1  0.16824697  0.33716349  0.49966498  1
  Mn3.30+  Mn76  1  0.17052453  0.66469404  -0.00144480  1
  Mn3.30+  Mn77  1  0.16806848  0.66406705  0.49840648  1
  Mn3.30+  Mn78  1  0.49981496  -0.00079692  0.00026775  1
  Mn3.30+  Mn79  1  0.49933254  -0.00064469  0.49981227  1
  Mn3.30+  Mn80  1  0.50167744  0.33572127  -0.00003949  1
  Mn3.30+  Mn81  1  0.50154798  0.33587713  0.50115740  1
  Mn3.30+  Mn82  1  0.49938417  0.66571199  -0.00067757  1
  Mn3.30+  Mn83  1  0.49764692  0.66581880  0.50223920  1
  Mn3.30+  Mn84  1  0.83224170  0.00002121  0.00047312  1
  Mn3.30+  Mn85  1  0.83203650  0.00039496  0.49888185  1
  Mn3.30+  Mn86  1  0.83257179  0.33507808  -0.00080131  1
  Mn3.30+  Mn87  1  0.83324582  0.33462383  0.50091458  1
  Mn3.30+  Mn88  1  0.83123754  0.66581639  0.00064239  1
  Mn3.30+  Mn89  1  0.83362742  0.66564253  0.49955408  1
  Mn3.30+  Mn90  1  -0.00214179  0.16793714  0.25197795  1
  Mn3.30+  Mn91  1  0.00084695  0.16778540  0.74961403  1
  Mn3.30+  Mn92  1  0.00226208  0.50185790  0.24951666  1
  Mn3.30+  Mn93  1  -0.00071843  0.49861261  0.75303240  1
  Mn3.30+  Mn94  1  0.00082047  0.82930245  0.25089733  1
  Mn3.30+  Mn95  1  -0.00118897  0.83162380  0.75007929  1
  Mn3.30+  Mn96  1  0.33432876  0.16702639  0.25080419  1
  Mn3.30+  Mn97  1  0.33437298  0.16892590  0.74807285  1
  Mn3.30+  Mn98  1  0.33353018  0.50349363  0.25054540  1
  Mn3.30+  Mn99  1  0.33603383  0.50108746  0.74975607  1
  Mn3.30+  Mn100  1  0.33187068  0.82800669  0.25057977  1
  Mn3.30+  Mn101  1  0.33303474  0.82897872  0.74982477  1
  Mn3.30+  Mn102  1  0.66807392  0.16914399  0.25117084  1
  Mn3.30+  Mn103  1  0.66708918  0.16926735  0.74926355  1
  Mn3.30+  Mn104  1  0.66661670  0.50108370  0.24795202  1
  Mn3.30+  Mn105  1  0.66625444  0.50151175  0.75060856  1
  Mn3.30+  Mn106  1  0.66496817  0.83115330  0.24996995  1
  Mn3.30+  Mn107  1  0.66456777  0.83210180  0.74956486  1
  Mn3.30+  Mn108  1  0.16549001  -0.00138662  0.24996790  1
  Mn3.30+  Mn109  1  0.16707051  0.00039901  0.74979718  1
  Mn3.30+  Mn110  1  0.16713505  0.33647531  0.25104081  1
  Mn3.30+  Mn111  1  0.16786002  0.33417458  0.75057342  1
  Mn3.30+  Mn112  1  0.16831314  0.66423579  0.25226097  1
  Mn3.30+  Mn113  1  0.16991325  0.66445425  0.75115221  1
  Mn3.30+  Mn114  1  0.49971661  -0.00128955  0.25014390  1
  Mn3.30+  Mn115  1  0.49922927  0.00015675  0.74993291  1
  Mn3.30+  Mn116  1  0.50357474  0.33527519  0.25061834  1
  Mn3.30+  Mn117  1  0.49990122  0.33667140  0.74834636  1
  Mn3.30+  Mn118  1  0.49906402  0.66557261  0.24792540  1
  Mn3.30+  Mn119  1  0.49810948  0.66596455  0.75049406  1
  Mn3.30+  Mn120  1  0.83161222  0.00077379  0.25142732  1
  Mn3.30+  Mn121  1  0.83256614  -0.00025169  0.74907087  1
  Mn3.30+  Mn122  1  0.83218503  0.33459509  0.24913947  1
  Mn3.30+  Mn123  1  0.83370359  0.33542588  0.75098493  1
  Mn3.30+  Mn124  1  0.83327576  0.66642642  0.24998996  1
  Mn3.30+  Mn125  1  0.83139170  0.66460525  0.74899544  1
  Mn3.30+  Mn126  1  -0.00004825  0.16825327  -0.00004049  1
  Mn3.30+  Mn127  1  -0.00139448  0.16740393  0.49860666  1
  Mn3.30+  Mn128  1  -0.00059556  0.49945071  -0.00164077  1
  Mn3.30+  Mn129  1  0.00241800  0.50098578  0.49965871  1
  Mn3.30+  Mn130  1  -0.00084101  0.83184447  0.00013178  1
  Mn3.30+  Mn131  1  0.00077439  0.82916396  0.49886420  1
  Mn3.30+  Mn132  1  0.33456720  0.16669934  0.00098985  1
  Mn3.30+  Mn133  1  0.33407980  0.16914646  0.49977900  1
  Mn3.30+  Mn134  1  0.33597367  0.50285118  -0.00115434  1
  Mn3.30+  Mn135  1  0.33382586  0.50206315  0.50082428  1
  Mn3.30+  Mn136  1  0.33291375  0.82930754  -0.00000931  1
  Mn3.30+  Mn137  1  0.33208264  0.82760043  0.49962608  1
  Mn3.30+  Mn138  1  0.66764833  0.16880117  0.00024508  1
  Mn3.30+  Mn139  1  0.66746782  0.16965907  0.49961880  1
  Mn3.30+  Mn140  1  0.66727588  0.50031448  -0.00166364  1
  Mn3.30+  Mn141  1  0.66565229  0.50184568  0.50264073  1
  Mn3.30+  Mn142  1  0.66407640  0.83268187  0.00025590  1
  Mn3.30+  Mn143  1  0.66536529  0.83067981  0.50005326  1
  O2-  O144  1  0.02595361  0.16022795  0.12569452  1
  O2-  O145  1  0.02779198  0.15894293  0.62233493  1
  O2-  O146  1  0.02195731  0.49681883  0.12282709  1
  O2-  O147  1  0.02655045  0.49667213  0.62911225  1
  O2-  O148  1  0.02634654  0.82649939  0.12399754  1
  O2-  O149  1  0.02548363  0.82531659  0.62433122  1
  O2-  O150  1  0.36058027  0.15954126  0.12845235  1
  O2-  O151  1  0.36024337  0.15942693  0.62190443  1
  O2-  O152  1  0.36001289  0.49330490  0.12408820  1
  O2-  O153  1  0.36006657  0.49134651  0.62622826  1
  O2-  O154  1  0.34887686  0.82535314  0.12477815  1
  O2-  O155  1  0.35727076  0.82490018  0.62510044  1
  O2-  O156  1  0.69215647  0.15892619  0.12729571  1
  O2-  O157  1  0.69194443  0.16026754  0.62338887  1
  O2-  O158  1  0.69196736  0.49234695  0.12140656  1
  O2-  O159  1  0.68429351  0.49450793  0.62648467  1
  O2-  O160  1  0.68842025  0.82841166  0.12485173  1
  O2-  O161  1  0.68746866  0.82607687  0.62389271  1
  O2-  O162  1  0.14346320  0.32855227  0.12636604  1
  O2-  O163  1  0.14091877  0.33192754  0.62648067  1
  O2-  O164  1  0.14446771  0.66892952  0.12302401  1
  O2-  O165  1  0.14077860  0.66055559  0.62733825  1
  O2-  O166  1  0.14006287  0.99321884  0.12475441  1
  O2-  O167  1  0.14079737  0.99394784  0.62597250  1
  O2-  O168  1  0.47557664  0.32949575  0.12717133  1
  O2-  O169  1  0.47306269  0.32987229  0.62365218  1
  O2-  O170  1  0.47286018  0.66136425  0.12234192  1
  O2-  O171  1  0.47082580  0.66352336  0.62736813  1
  O2-  O172  1  0.47616871  0.99941911  0.12717605  1
  O2-  O173  1  0.47420666  0.99373873  0.62371126  1
  O2-  O174  1  0.80446055  0.32753557  0.12576428  1
  O2-  O175  1  0.80775452  0.32765522  0.62519051  1
  O2-  O176  1  0.80486742  0.65986405  0.12369186  1
  O2-  O177  1  0.80861736  0.66609211  0.62531329  1
  O2-  O178  1  0.80759383  0.99481110  0.12608192  1
  O2-  O179  1  0.80824044  0.99375957  0.62335923  1
  O2-  O180  1  0.30821801  0.17596462  0.37512889  1
  O2-  O181  1  0.30858251  0.17351602  0.87414405  1
  O2-  O182  1  0.31157149  0.50594663  0.37556908  1
  O2-  O183  1  0.30975443  0.50438321  0.87410999  1
  O2-  O184  1  0.31155071  0.83851166  0.37599181  1
  O2-  O185  1  0.30706962  0.84293977  0.87368242  1
  O2-  O186  1  0.63957411  0.17631673  0.37551002  1
  O2-  O187  1  0.64860265  0.17594517  0.87388254  1
  O2-  O188  1  0.64153540  0.50807835  0.37696743  1
  O2-  O189  1  0.63882891  0.50569720  0.87484159  1
  O2-  O190  1  0.63974513  0.83688613  0.37661837  1
  O2-  O191  1  0.64319361  0.83609481  0.87459071  1
  O2-  O192  1  0.97073077  0.17723209  0.37621126  1
  O2-  O193  1  0.97520089  0.17325041  0.87606715  1
  O2-  O194  1  0.97731017  0.50251190  0.37228786  1
  O2-  O195  1  0.97285278  0.50615659  0.87632501  1
  O2-  O196  1  0.98081735  0.83862134  0.37554357  1
  O2-  O197  1  0.97103553  0.83901587  0.87639081  1
  O2-  O198  1  0.19100264  0.00659154  0.37502148  1
  O2-  O199  1  0.19417654  0.00811625  0.87390396  1
  O2-  O200  1  0.19032227  0.33936035  0.37367907  1
  O2-  O201  1  0.19547011  0.33408888  0.87371674  1
  O2-  O202  1  0.19346434  0.66537795  0.37690706  1
  O2-  O203  1  0.19612336  0.67089291  0.87315651  1
  O2-  O204  1  0.52506414  0.00474825  0.37556970  1
  O2-  O205  1  0.51543912  -0.00080900  0.87345018  1
  O2-  O206  1  0.52973976  0.34106676  0.37471398  1
  O2-  O207  1  0.52278379  0.33756348  0.87457630  1
  O2-  O208  1  0.52453110  0.66563694  0.37594771  1
  O2-  O209  1  0.52581187  0.67289706  0.87447354  1
  O2-  O210  1  0.85751826  0.00648850  0.37574483  1
  O2-  O211  1  0.85861729  0.00502968  0.87491554  1
  O2-  O212  1  0.85845590  0.34337689  0.37408630  1
  O2-  O213  1  0.85920970  0.33628332  0.87541701  1
  O2-  O214  1  0.85974616  0.66350192  0.37412729  1
  O2-  O215  1  0.85761634  0.67691955  0.87590424  1
  O2-  O216  1  0.23821144  0.09457879  0.02233923  1
  O2-  O217  1  0.23684357  0.09443892  0.51993081  1
  O2-  O218  1  0.24186664  0.42658983  0.01482902  1
  O2-  O219  1  0.24114722  0.43051392  0.51839826  1
  O2-  O220  1  0.23377686  0.76458384  0.01314241  1
  O2-  O221  1  0.23566107  0.75996156  0.52140507  1
  O2-  O222  1  0.57581535  0.09551098  0.02082233  1
  O2-  O223  1  0.57133004  0.09832198  0.51961281  1
  O2-  O224  1  0.57234951  0.42857922  0.01864203  1
  O2-  O225  1  0.56941190  0.43109663  0.51822552  1
  O2-  O226  1  0.57049689  0.76089476  0.01340899  1
  O2-  O227  1  0.56502469  0.76197996  0.51579391  1
  O2-  O228  1  0.90685812  0.09437345  0.02125827  1
  O2-  O229  1  0.90636772  0.09368931  0.52301458  1
  O2-  O230  1  0.90395804  0.42512684  0.02327204  1
  O2-  O231  1  0.91014035  0.42584996  0.51785707  1
  O2-  O232  1  0.90378098  0.75999971  0.02280019  1
  O2-  O233  1  0.90578468  0.75898725  0.52198075  1
  O2-  O234  1  0.26172726  0.26016137  0.22934990  1
  O2-  O235  1  0.26279292  0.26359665  0.72613807  1
  O2-  O236  1  0.26564444  0.59758248  0.23067782  1
  O2-  O237  1  0.26375766  0.59238696  0.72631925  1
  O2-  O238  1  0.26036438  0.92666433  0.23067882  1
  O2-  O239  1  0.26095371  0.92731214  0.72788977  1
  O2-  O240  1  0.59845840  0.26438792  0.22772656  1
  O2-  O241  1  0.59468641  0.26413583  0.72782216  1
  O2-  O242  1  0.59588928  0.59586490  0.22694967  1
  O2-  O243  1  0.59589356  0.59893840  0.72911631  1
  O2-  O244  1  0.59493775  0.93105155  0.23422829  1
  O2-  O245  1  0.59234078  0.92703082  0.72684350  1
  O2-  O246  1  0.92770509  0.26339312  0.22684691  1
  O2-  O247  1  0.92823533  0.25821896  0.72687796  1
  O2-  O248  1  0.92595467  0.59210379  0.22637775  1
  O2-  O249  1  0.92929093  0.59804268  0.73453044  1
  O2-  O250  1  0.92610085  0.92627993  0.23064467  1
  O2-  O251  1  0.92820302  0.92737596  0.72839834  1
  O2-  O252  1  0.09370394  0.23850393  0.27128983  1
  O2-  O253  1  0.09918075  0.23663729  0.76600556  1
  O2-  O254  1  0.09734101  0.57081674  0.26832689  1
  O2-  O255  1  0.09643172  0.57160583  0.77300919  1
  O2-  O256  1  0.09173124  0.90784427  0.26673585  1
  O2-  O257  1  0.09265120  0.90494884  0.77168062  1
  O2-  O258  1  0.43171256  0.24124173  0.27125980  1
  O2-  O259  1  0.42706092  0.23955452  0.76622599  1
  O2-  O260  1  0.43207831  0.56910680  0.26585129  1
  O2-  O261  1  0.43323293  0.56852551  0.76921953  1
  O2-  O262  1  0.42363323  0.90441790  0.27033395  1
  O2-  O263  1  0.42519750  0.90211972  0.76711909  1
  O2-  O264  1  0.76385582  0.23803044  0.27329216  1
  O2-  O265  1  0.76338844  0.24066464  0.76945133  1
  O2-  O266  1  0.76120224  0.57162819  0.26940992  1
  O2-  O267  1  0.76089828  0.57291300  0.77447606  1
  O2-  O268  1  0.75767408  0.90727987  0.26772862  1
  O2-  O269  1  0.76277837  0.90355402  0.76423146  1
  O2-  O270  1  0.06838180  0.07435819  0.47612063  1
  O2-  O271  1  0.07231946  0.07117491  0.97890725  1
  O2-  O272  1  0.07107419  0.40349290  0.48401013  1
  O2-  O273  1  0.07223986  0.40356302  0.97812800  1
  O2-  O274  1  0.06941123  0.73217012  0.48357817  1
  O2-  O275  1  0.07145311  0.73795230  0.97737641  1
  O2-  O276  1  0.40509740  0.07038558  0.47783698  1
  O2-  O277  1  0.40167606  0.07056081  0.98441735  1
  O2-  O278  1  0.40706534  0.40711578  0.47599878  1
  O2-  O279  1  0.40420355  0.40371960  0.98341731  1
  O2-  O280  1  0.40383190  0.73592043  0.47592014  1
  O2-  O281  1  0.40451086  0.73811924  0.97559254  1
  O2-  O282  1  0.73426886  0.07245354  0.48116460  1
  O2-  O283  1  0.74254787  0.07614600  0.98231706  1
  O2-  O284  1  0.74020918  0.40957238  0.47928165  1
  O2-  O285  1  0.73844944  0.40571301  0.97735501  1
  O2-  O286  1  0.73768064  0.73807927  0.48101899  1
  O2-  O287  1  0.73877007  0.73996426  0.97904420  1
  O2-  O288  1  0.09472128  0.23848627  0.47993985  1
  O2-  O289  1  0.09714891  0.23627178  0.98356859  1
  O2-  O290  1  0.09995299  0.56777187  0.48338820  1
  O2-  O291  1  0.09619580  0.57461521  0.97696344  1
  O2-  O292  1  0.09084296  0.90745231  0.48420505  1
  O2-  O293  1  0.09398155  0.90589650  0.97647767  1
  O2-  O294  1  0.43225049  0.24124012  0.47798451  1
  O2-  O295  1  0.42767140  0.24124512  0.98512159  1
  O2-  O296  1  0.43128227  0.56918701  0.48496841  1
  O2-  O297  1  0.43406544  0.56744996  0.97998105  1
  O2-  O298  1  0.42635960  0.90253855  0.48067831  1
  O2-  O299  1  0.42264144  0.90361345  0.98151921  1
  O2-  O300  1  0.76334699  0.23773176  0.47787473  1
  O2-  O301  1  0.76324459  0.24017024  0.98008711  1
  O2-  O302  1  0.75931753  0.57448846  0.47846602  1
  O2-  O303  1  0.76313819  0.57049394  0.97645178  1
  O2-  O304  1  0.75787835  0.90793947  0.48263022  1
  O2-  O305  1  0.76254371  0.90330544  0.98481238  1
  O2-  O306  1  0.07078589  0.07277259  0.27226146  1
  O2-  O307  1  0.07149575  0.07244717  0.77157682  1
  O2-  O308  1  0.06875612  0.40392092  0.26553661  1
  O2-  O309  1  0.07367856  0.40260094  0.77458682  1
  O2-  O310  1  0.06945681  0.73187441  0.26702456  1
  O2-  O311  1  0.07099341  0.73805360  0.77211763  1
  O2-  O312  1  0.40471800  0.07138782  0.27333795  1
  O2-  O313  1  0.40173821  0.06972860  0.76439348  1
  O2-  O314  1  0.40774731  0.40607438  0.27106143  1
  O2-  O315  1  0.40420193  0.40522407  0.77010674  1
  O2-  O316  1  0.40559661  0.73676236  0.27215311  1
  O2-  O317  1  0.40391071  0.73729894  0.77564134  1
  O2-  O318  1  0.73538858  0.07244123  0.27088234  1
  O2-  O319  1  0.74256766  0.07560232  0.76606492  1
  O2-  O320  1  0.74032502  0.40829623  0.27240674  1
  O2-  O321  1  0.73837927  0.40683346  0.77035186  1
  O2-  O322  1  0.73924988  0.73754801  0.26826723  1
  O2-  O323  1  0.73857077  0.73908536  0.77066905  1
  O2-  O324  1  0.23726583  0.09251683  0.22977568  1
  O2-  O325  1  0.23949243  0.09774827  0.72770897  1
  O2-  O326  1  0.24669141  0.42580622  0.23204589  1
  O2-  O327  1  0.23667329  0.43051408  0.73452403  1
  O2-  O328  1  0.23537395  0.76102233  0.23331262  1
  O2-  O329  1  0.23507811  0.76335034  0.73183694  1
  O2-  O330  1  0.57219697  0.09880973  0.23231338  1
  O2-  O331  1  0.57455041  0.09504115  0.72789331  1
  O2-  O332  1  0.57176906  0.43126909  0.23102499  1
  O2-  O333  1  0.57096892  0.42914581  0.73256940  1
  O2-  O334  1  0.57003012  0.75968419  0.23763584  1
  O2-  O335  1  0.56592109  0.76298380  0.73370256  1
  O2-  O336  1  0.90598610  0.09388052  0.22803381  1
  O2-  O337  1  0.90677543  0.09364578  0.72848942  1
  O2-  O338  1  0.90470876  0.42804940  0.22828185  1
  O2-  O339  1  0.90824668  0.42326429  0.73014740  1
  O2-  O340  1  0.90534117  0.75812761  0.22560787  1
  O2-  O341  1  0.90403140  0.76132145  0.72949233  1
  O2-  O342  1  0.26202470  0.25961582  0.02235802  1
  O2-  O343  1  0.26076576  0.26469279  0.52068962  1
  O2-  O344  1  0.26661437  0.59677061  0.01805370  1
  O2-  O345  1  0.26282322  0.59420345  0.52543233  1
  O2-  O346  1  0.26031411  0.92789741  0.02090485  1
  O2-  O347  1  0.26257209  0.92502730  0.52056775  1
  O2-  O348  1  0.59566804  0.26282383  0.02140291  1
  O2-  O349  1  0.59776259  0.26490366  0.52273140  1
  O2-  O350  1  0.59798793  0.59665242  0.02110566  1
  O2-  O351  1  0.59410650  0.59746648  0.52307365  1
  O2-  O352  1  0.59514750  0.92818518  0.01885373  1
  O2-  O353  1  0.59328010  0.92870293  0.52038131  1
  O2-  O354  1  0.92591791  0.26087417  0.02418972  1
  O2-  O355  1  0.92966255  0.26072066  0.52325207  1
  O2-  O356  1  0.92736175  0.59583855  0.01985116  1
  O2-  O357  1  0.92974488  0.59306486  0.51778799  1
  O2-  O358  1  0.92789932  0.92766813  0.02209866  1
  O2-  O359  1  0.92681884  0.92539968  0.51972012  1
