# generated using pymatgen
data_Sr7Ca15Pr50Mn72O216
_symmetry_space_group_name_H-M   'P 1'
_cell_length_a   16.56051678
_cell_length_b   16.60366270
_cell_length_c   15.59168425
_cell_angle_alpha   90.00075132
_cell_angle_beta   89.99408854
_cell_angle_gamma   89.98680858
_symmetry_Int_Tables_number   1
_chemical_formula_structural   Sr7Ca15Pr50Mn72O216
_chemical_formula_sum   'Sr7 Ca15 Pr50 Mn72 O216'
_cell_volume   4287.17098245
_cell_formula_units_Z   1
loop_
 _symmetry_equiv_pos_site_id
 _symmetry_equiv_pos_as_xyz
  1  'x, y, z'
loop_
 _atom_type_symbol
 _atom_type_oxidation_number
  Sr2+  2.0
  Ca2+  2.0
  Pr3+  3.0
  Mn3.30+  3.3
  O2-  -2.0
loop_
 _atom_site_type_symbol
 _atom_site_label
 _atom_site_symmetry_multiplicity
 _atom_site_fract_x
 _atom_site_fract_y
 _atom_site_fract_z
 _atom_site_occupancy
  Sr2+  Sr0  1  0.16541388  0.15941930  0.37782944  1
  Sr2+  Sr1  1  0.17281415  0.17788220  0.62390026  1
  Sr2+  Sr2  1  0.66260879  0.67581842  0.12585480  1
  Sr2+  Sr3  1  0.50028528  0.51351802  0.12589721  1
  Sr2+  Sr4  1  0.33161532  0.67370753  0.12413136  1
  Sr2+  Sr5  1  0.33201807  0.01183101  0.62620743  1
  Sr2+  Sr6  1  0.83227779  0.82206730  0.37550155  1
  Ca2+  Ca7  1  0.33847020  0.65311304  0.87540786  1
  Ca2+  Ca8  1  1.00409424  0.98415799  0.87342477  1
  Ca2+  Ca9  1  0.65899073  0.34983377  0.62555251  1
  Ca2+  Ca10  1  0.50180832  0.18397236  0.62572572  1
  Ca2+  Ca11  1  0.49350513  0.81418836  0.87297235  1
  Ca2+  Ca12  1  0.66306354  0.68057062  0.62366923  1
  Ca2+  Ca13  1  1.00682489  0.31916315  0.37701573  1
  Ca2+  Ca14  1  0.16206828  0.48383756  0.37452005  1
  Ca2+  Ca15  1  0.33152563  0.34318674  0.62485653  1
  Ca2+  Ca16  1  0.16094797  0.81650304  0.37575304  1
  Ca2+  Ca17  1  0.17323476  0.51642346  0.12871089  1
  Ca2+  Ca18  1  0.65917155  0.01864521  0.62401867  1
  Ca2+  Ca19  1  1.00600175  0.65001974  0.37581354  1
  Ca2+  Ca20  1  0.50176458  0.51425415  0.62514196  1
  Ca2+  Ca21  1  0.33822812  0.31965997  0.87130727  1
  Pr3+  Pr22  1  0.66465073  0.65514564  0.87254746  1
  Pr3+  Pr23  1  0.33035149  0.01076511  0.12425762  1
  Pr3+  Pr24  1  0.83534669  0.51420339  0.12539297  1
  Pr3+  Pr25  1  0.66293615  0.34907038  0.12513453  1
  Pr3+  Pr26  1  0.83360171  0.17975867  0.62483872  1
  Pr3+  Pr27  1  0.66884253  0.32365893  0.37709471  1
  Pr3+  Pr28  1  0.83332751  0.15549691  0.37655936  1
  Pr3+  Pr29  1  0.82945386  0.48808520  0.87452197  1
  Pr3+  Pr30  1  -0.00257706  0.67795393  0.62354190  1
  Pr3+  Pr31  1  0.83132905  0.82130062  0.87377349  1
  Pr3+  Pr32  1  0.33189954  0.98874309  0.37821129  1
  Pr3+  Pr33  1  0.50261070  0.18103263  0.12466801  1
  Pr3+  Pr34  1  0.67096325  0.98729504  0.37800588  1
  Pr3+  Pr35  1  0.66739217  0.32263417  0.87330014  1
  Pr3+  Pr36  1  0.83457439  0.51219241  0.62426169  1
  Pr3+  Pr37  1  0.33900467  0.98458529  0.87256625  1
  Pr3+  Pr38  1  0.50180279  0.83901504  0.12287847  1
  Pr3+  Pr39  1  0.17176228  0.50657807  0.62209563  1
  Pr3+  Pr40  1  0.00021886  0.34712353  0.12743935  1
  Pr3+  Pr41  1  0.49749082  0.82105690  0.37771863  1
  Pr3+  Pr42  1  0.49710914  0.48993480  0.37576777  1
  Pr3+  Pr43  1  0.16654548  0.15231584  0.87287055  1
  Pr3+  Pr44  1  0.83023037  0.15281534  0.87345695  1
  Pr3+  Pr45  1  0.33350269  0.32240271  0.37703951  1
  Pr3+  Pr46  1  0.33153281  0.67704439  0.62525895  1
  Pr3+  Pr47  1  -0.00103610  0.01297377  0.62633579  1
  Pr3+  Pr48  1  0.17135114  0.48868642  0.87635617  1
  Pr3+  Pr49  1  0.83407207  0.49061366  0.37548405  1
  Pr3+  Pr50  1  0.16551799  0.81932918  0.87327845  1
  Pr3+  Pr51  1  0.32873861  0.35044120  0.12459094  1
  Pr3+  Pr52  1  0.83744465  0.18043408  0.12503223  1
  Pr3+  Pr53  1  0.17139610  0.84238855  0.12641285  1
  Pr3+  Pr54  1  -0.00283132  0.01111631  0.12413931  1
  Pr3+  Pr55  1  0.49279686  0.48895215  0.87400165  1
  Pr3+  Pr56  1  0.00086879  0.34333175  0.62200012  1
  Pr3+  Pr57  1  0.17064262  0.84631105  0.62345202  1
  Pr3+  Pr58  1  0.66703185  0.98739238  0.87158908  1
  Pr3+  Pr59  1  0.49539372  0.15490728  0.37710057  1
  Pr3+  Pr60  1  0.67013058  0.65491574  0.37715093  1
  Pr3+  Pr61  1  -0.00094595  0.67726164  0.12644349  1
  Pr3+  Pr62  1  1.00348823  0.65238413  0.87366611  1
  Pr3+  Pr63  1  0.66410744  0.01030741  0.12577920  1
  Pr3+  Pr64  1  0.49590980  0.15585981  0.87240831  1
  Pr3+  Pr65  1  0.33171578  0.65360982  0.37571235  1
  Pr3+  Pr66  1  0.16987126  0.17960398  0.12598739  1
  Pr3+  Pr67  1  0.83456470  0.84373031  0.12528778  1
  Pr3+  Pr68  1  1.00615778  0.98540282  0.37647760  1
  Pr3+  Pr69  1  0.83224212  0.84571399  0.62386155  1
  Pr3+  Pr70  1  1.00355451  0.32177713  0.87364309  1
  Pr3+  Pr71  1  0.50372901  0.84771125  0.62708239  1
  Mn3.30+  Mn72  1  0.16591039  -0.00202454  -0.00118024  1
  Mn3.30+  Mn73  1  0.16751989  0.00008339  0.49975746  1
  Mn3.30+  Mn74  1  0.16901716  0.33423450  -0.00125116  1
  Mn3.30+  Mn75  1  0.16706522  0.33328624  0.50011790  1
  Mn3.30+  Mn76  1  0.16872469  0.66487902  -0.00087244  1
  Mn3.30+  Mn77  1  0.16423409  0.66455052  0.49915223  1
  Mn3.30+  Mn78  1  0.49952323  -0.00216880  -0.00085589  1
  Mn3.30+  Mn79  1  0.50148298  0.00259788  0.50208804  1
  Mn3.30+  Mn80  1  0.49818956  0.33480030  -0.00112697  1
  Mn3.30+  Mn81  1  0.50036117  0.33499208  0.50372715  1
  Mn3.30+  Mn82  1  0.49809185  0.66719667  -0.00118031  1
  Mn3.30+  Mn83  1  0.50114030  0.66622228  0.50194514  1
  Mn3.30+  Mn84  1  0.83407267  -0.00083735  -0.00262669  1
  Mn3.30+  Mn85  1  0.83205427  0.00037867  0.50252330  1
  Mn3.30+  Mn86  1  0.83398239  0.33381293  0.00019024  1
  Mn3.30+  Mn87  1  0.83303389  0.33450960  0.50021553  1
  Mn3.30+  Mn88  1  0.83274886  0.66714186  -0.00035020  1
  Mn3.30+  Mn89  1  0.83356298  0.66710542  0.49977695  1
  Mn3.30+  Mn90  1  0.00168562  0.16722406  0.25059078  1
  Mn3.30+  Mn91  1  0.00066043  0.16616625  0.75019157  1
  Mn3.30+  Mn92  1  0.00424796  0.50028297  0.25091640  1
  Mn3.30+  Mn93  1  0.00136207  0.49833556  0.74964153  1
  Mn3.30+  Mn94  1  0.00208150  0.83019967  0.25200443  1
  Mn3.30+  Mn95  1  -0.00022713  0.83343565  0.74923040  1
  Mn3.30+  Mn96  1  0.33331550  0.16665482  0.25046899  1
  Mn3.30+  Mn97  1  0.33468611  0.16895946  0.74809033  1
  Mn3.30+  Mn98  1  0.32894354  0.50133335  0.25178969  1
  Mn3.30+  Mn99  1  0.33629595  0.49800776  0.74748883  1
  Mn3.30+  Mn100  1  0.33109949  0.83194167  0.25244878  1
  Mn3.30+  Mn101  1  0.33526008  0.83060821  0.75018275  1
  Mn3.30+  Mn102  1  0.66703286  0.16717603  0.25089077  1
  Mn3.30+  Mn103  1  0.66366227  0.16925246  0.74689373  1
  Mn3.30+  Mn104  1  0.66617351  0.50137813  0.25161196  1
  Mn3.30+  Mn105  1  0.66257368  0.50089860  0.74671518  1
  Mn3.30+  Mn106  1  0.66676126  0.83273436  0.25055271  1
  Mn3.30+  Mn107  1  0.66365814  0.83355767  0.74997265  1
  Mn3.30+  Mn108  1  0.16550557  -0.00145587  0.25068657  1
  Mn3.30+  Mn109  1  0.16741934  -0.00065318  0.75090479  1
  Mn3.30+  Mn110  1  0.16456498  0.33507847  0.25069421  1
  Mn3.30+  Mn111  1  0.17179029  0.33268859  0.75095267  1
  Mn3.30+  Mn112  1  0.16483961  0.66492309  0.25224306  1
  Mn3.30+  Mn113  1  0.16880549  0.66404103  0.74957269  1
  Mn3.30+  Mn114  1  0.49907520  -0.00134880  0.25097601  1
  Mn3.30+  Mn115  1  0.50173288  0.00212213  0.74785978  1
  Mn3.30+  Mn116  1  0.49974976  0.33487764  0.25102116  1
  Mn3.30+  Mn117  1  0.49875764  0.33513442  0.74636848  1
  Mn3.30+  Mn118  1  0.49931293  0.66746976  0.25117731  1
  Mn3.30+  Mn119  1  0.49956420  0.66610864  0.74776022  1
  Mn3.30+  Mn120  1  0.83404783  -0.00017518  0.25056591  1
  Mn3.30+  Mn121  1  0.83159452  0.00019234  0.74884265  1
  Mn3.30+  Mn122  1  0.83609276  0.33454896  0.25256406  1
  Mn3.30+  Mn123  1  0.83101526  0.33407203  0.74718798  1
  Mn3.30+  Mn124  1  0.83516661  0.66758132  0.25197833  1
  Mn3.30+  Mn125  1  0.83141469  0.66643676  0.74847301  1
  Mn3.30+  Mn126  1  0.00117598  0.16534873  -0.00226706  1
  Mn3.30+  Mn127  1  0.00124947  0.16777884  0.50130824  1
  Mn3.30+  Mn128  1  0.00276692  0.49939530  0.00131038  1
  Mn3.30+  Mn129  1  0.00260859  0.49932928  0.49803359  1
  Mn3.30+  Mn130  1  0.00118368  0.83266212  -0.00108831  1
  Mn3.30+  Mn131  1  0.00093200  0.83096772  0.49923094  1
  Mn3.30+  Mn132  1  0.33371787  0.16778439  -0.00085810  1
  Mn3.30+  Mn133  1  0.33448904  0.16754524  0.50267589  1
  Mn3.30+  Mn134  1  0.33198283  0.50173528  -0.00013866  1
  Mn3.30+  Mn135  1  0.33378164  0.49780653  0.50059133  1
  Mn3.30+  Mn136  1  0.33504988  0.83012558  -0.00085942  1
  Mn3.30+  Mn137  1  0.33126288  0.83286080  0.49917186  1
  Mn3.30+  Mn138  1  0.66660023  0.16645360  -0.00025938  1
  Mn3.30+  Mn139  1  0.66380750  0.16932558  0.50186075  1
  Mn3.30+  Mn140  1  0.66384009  0.50166297  -0.00158047  1
  Mn3.30+  Mn141  1  0.66461067  0.50066709  0.50349910  1
  Mn3.30+  Mn142  1  0.66426095  0.83270726  -0.00320936  1
  Mn3.30+  Mn143  1  0.66640351  0.83389448  0.50257461  1
  O2-  O144  1  0.02541180  0.15870225  0.12057623  1
  O2-  O145  1  0.02146891  0.16178348  0.62747604  1
  O2-  O146  1  0.03031969  0.49384804  0.12461822  1
  O2-  O147  1  0.02685943  0.49237207  0.62539609  1
  O2-  O148  1  0.02715420  0.82557606  0.12618478  1
  O2-  O149  1  0.02642455  0.82648913  0.62524839  1
  O2-  O150  1  0.35862262  0.15923375  0.12528070  1
  O2-  O151  1  0.35954503  0.16366923  0.62500477  1
  O2-  O152  1  0.35137777  0.49661022  0.12683129  1
  O2-  O153  1  0.35959128  0.49022080  0.62342609  1
  O2-  O154  1  0.35738458  0.83118544  0.12670740  1
  O2-  O155  1  0.35860433  0.82614276  0.62449463  1
  O2-  O156  1  0.69388730  0.15861905  0.12345070  1
  O2-  O157  1  0.69236938  0.16095404  0.62393455  1
  O2-  O158  1  0.69031060  0.49635151  0.12523891  1
  O2-  O159  1  0.69253870  0.49221433  0.62516573  1
  O2-  O160  1  0.68969611  0.83208538  0.12133273  1
  O2-  O161  1  0.68949962  0.82457283  0.62673727  1
  O2-  O162  1  0.14221560  0.32598360  0.12288150  1
  O2-  O163  1  0.14483762  0.33676392  0.62680544  1
  O2-  O164  1  0.14224034  0.66217373  0.12604802  1
  O2-  O165  1  0.14053865  0.65608430  0.62514099  1
  O2-  O166  1  0.14123714  0.99178338  0.12340044  1
  O2-  O167  1  0.14335772  0.99449193  0.62577536  1
  O2-  O168  1  0.47510635  0.32897563  0.12566305  1
  O2-  O169  1  0.47233833  0.32672085  0.62430463  1
  O2-  O170  1  0.48274854  0.67278676  0.12785659  1
  O2-  O171  1  0.47498312  0.66290835  0.62320590  1
  O2-  O172  1  0.47326050  0.98879986  0.12670643  1
  O2-  O173  1  0.47957245  0.99336745  0.62511366  1
  O2-  O174  1  0.80691078  0.32835378  0.12670752  1
  O2-  O175  1  0.80250896  0.32786417  0.62556546  1
  O2-  O176  1  0.81358909  0.66263422  0.12535699  1
  O2-  O177  1  0.80691612  0.66022587  0.62619537  1
  O2-  O178  1  0.80891928  0.99420105  0.12329154  1
  O2-  O179  1  0.80289983  0.99470825  0.62621923  1
  O2-  O180  1  0.31594242  0.17268860  0.37353469  1
  O2-  O181  1  0.31090024  0.17377327  0.87672938  1
  O2-  O182  1  0.30613859  0.50446237  0.37614215  1
  O2-  O183  1  0.31351312  0.50927596  0.87298122  1
  O2-  O184  1  0.30436165  0.84014490  0.37634363  1
  O2-  O185  1  0.30830907  0.83839144  0.87388959  1
  O2-  O186  1  0.63902893  0.17571155  0.37705543  1
  O2-  O187  1  0.64037469  0.17411619  0.87569843  1
  O2-  O188  1  0.64287808  0.50429262  0.37939047  1
  O2-  O189  1  0.63954454  0.50476169  0.87039331  1
  O2-  O190  1  0.64251834  0.84081485  0.37847944  1
  O2-  O191  1  0.63689476  0.84169274  0.87313545  1
  O2-  O192  1  0.97721176  0.17094655  0.37726353  1
  O2-  O193  1  0.97372067  0.17549538  0.87446846  1
  O2-  O194  1  0.97544832  0.50716431  0.37504613  1
  O2-  O195  1  0.97326140  0.50292066  0.87467357  1
  O2-  O196  1  0.97933887  0.84096753  0.37627537  1
  O2-  O197  1  0.97493263  0.83747404  0.87200702  1
  O2-  O198  1  0.18747574  0.00393379  0.37373518  1
  O2-  O199  1  0.19372889  0.00230856  0.87667122  1
  O2-  O200  1  0.18924198  0.33650950  0.37422602  1
  O2-  O201  1  0.19597696  0.34086215  0.87652643  1
  O2-  O202  1  0.18936676  0.67472131  0.37760858  1
  O2-  O203  1  0.19439173  0.67192324  0.87148416  1
  O2-  O204  1  0.52798390  0.00692856  0.37582312  1
  O2-  O205  1  0.52518517  0.00978099  0.87264567  1
  O2-  O206  1  0.52529666  0.34007884  0.37613038  1
  O2-  O207  1  0.52473887  0.33962524  0.87387776  1
  O2-  O208  1  0.52559463  0.67186014  0.37901446  1
  O2-  O209  1  0.52159453  0.66730644  0.87046538  1
  O2-  O210  1  0.85983290  0.00636309  0.37656348  1
  O2-  O211  1  0.86117011  0.00510768  0.87365389  1
  O2-  O212  1  0.86403068  0.34138475  0.37436682  1
  O2-  O213  1  0.85875329  0.33987936  0.87287048  1
  O2-  O214  1  0.86007420  0.66529144  0.37579654  1
  O2-  O215  1  0.85946814  0.67078566  0.87297127  1
  O2-  O216  1  0.23744651  0.09426248  0.01916277  1
  O2-  O217  1  0.24297277  0.09215006  0.51298102  1
  O2-  O218  1  0.23615601  0.43017610  0.02057005  1
  O2-  O219  1  0.23984353  0.42639571  0.51670670  1
  O2-  O220  1  0.23552116  0.76363648  0.01598738  1
  O2-  O221  1  0.23723699  0.75616523  0.52355304  1
  O2-  O222  1  0.57109669  0.09315360  0.02252608  1
  O2-  O223  1  0.56915385  0.10137673  0.51884314  1
  O2-  O224  1  0.57344223  0.42564016  0.01754981  1
  O2-  O225  1  0.56855946  0.43268566  0.51908275  1
  O2-  O226  1  0.57006935  0.76352031  0.01303593  1
  O2-  O227  1  0.56854293  0.76633589  0.51788793  1
  O2-  O228  1  0.90398123  0.09467052  0.02033335  1
  O2-  O229  1  0.90384131  0.09359622  0.52182996  1
  O2-  O230  1  0.90697730  0.42837807  0.02192231  1
  O2-  O231  1  0.90552521  0.42757740  0.52254011  1
  O2-  O232  1  0.90659407  0.76114017  0.01889527  1
  O2-  O233  1  0.90498391  0.76022118  0.52431514  1
  O2-  O234  1  0.26115021  0.26249024  0.22972474  1
  O2-  O235  1  0.26538478  0.26396539  0.73176420  1
  O2-  O236  1  0.25981619  0.59646570  0.23767289  1
  O2-  O237  1  0.26199096  0.59008014  0.72478159  1
  O2-  O238  1  0.26053190  0.92865032  0.22921840  1
  O2-  O239  1  0.25955976  0.92296428  0.73328461  1
  O2-  O240  1  0.59703866  0.25991733  0.22790402  1
  O2-  O241  1  0.59788536  0.26920636  0.73255301  1
  O2-  O242  1  0.59260869  0.59526092  0.24076220  1
  O2-  O243  1  0.59916148  0.59988554  0.73003353  1
  O2-  O244  1  0.59365339  0.92786183  0.23095905  1
  O2-  O245  1  0.59812074  0.93165072  0.72802824  1
  O2-  O246  1  0.92605238  0.26056103  0.22609494  1
  O2-  O247  1  0.92550791  0.26218847  0.72834617  1
  O2-  O248  1  0.92936223  0.59076110  0.22690320  1
  O2-  O249  1  0.92890702  0.59224882  0.72963546  1
  O2-  O250  1  0.92978566  0.92565426  0.22915802  1
  O2-  O251  1  0.92347419  0.92691333  0.72478204  1
  O2-  O252  1  0.09489445  0.23765977  0.26168840  1
  O2-  O253  1  0.09701838  0.24246960  0.77354929  1
  O2-  O254  1  0.09699282  0.56789783  0.27127984  1
  O2-  O255  1  0.09625271  0.57194786  0.77288094  1
  O2-  O256  1  0.09623416  0.90151024  0.27007075  1
  O2-  O257  1  0.09445781  0.90297539  0.76732625  1
  O2-  O258  1  0.43038737  0.24024139  0.26832612  1
  O2-  O259  1  0.43101772  0.23884386  0.76933876  1
  O2-  O260  1  0.42479141  0.57555187  0.27267565  1
  O2-  O261  1  0.43071559  0.56943861  0.76329933  1
  O2-  O262  1  0.42660951  0.90778372  0.27585102  1
  O2-  O263  1  0.42820177  0.90246813  0.76970428  1
  O2-  O264  1  0.76492379  0.24200505  0.27318185  1
  O2-  O265  1  0.76095924  0.23847712  0.77142772  1
  O2-  O266  1  0.76182325  0.57291235  0.27010809  1
  O2-  O267  1  0.76133478  0.57176558  0.77079642  1
  O2-  O268  1  0.75899409  0.90940956  0.26649367  1
  O2-  O269  1  0.76199838  0.90600935  0.77212344  1
  O2-  O270  1  0.07000642  0.06696297  0.48587582  1
  O2-  O271  1  0.06950332  0.07080102  0.97638708  1
  O2-  O272  1  0.06917195  0.40305665  0.48221095  1
  O2-  O273  1  0.07172872  0.40433933  0.97773826  1
  O2-  O274  1  0.06701606  0.73274847  0.48423993  1
  O2-  O275  1  0.07222878  0.73665070  0.97827460  1
  O2-  O276  1  0.40809973  0.07318121  0.47684483  1
  O2-  O277  1  0.40501610  0.06965753  0.98080594  1
  O2-  O278  1  0.40756728  0.40730076  0.47427775  1
  O2-  O279  1  0.40159088  0.40536464  0.98074337  1
  O2-  O280  1  0.40351642  0.73993488  0.47892908  1
  O2-  O281  1  0.40379425  0.73799786  0.97893494  1
  O2-  O282  1  0.73859398  0.07673185  0.47692352  1
  O2-  O283  1  0.73729639  0.07270586  0.97705546  1
  O2-  O284  1  0.74221165  0.40796616  0.47687127  1
  O2-  O285  1  0.73804472  0.40800098  0.97980296  1
  O2-  O286  1  0.73679590  0.73939126  0.48252531  1
  O2-  O287  1  0.73792692  0.74330719  0.97412998  1
  O2-  O288  1  0.09154422  0.24198331  0.48753739  1
  O2-  O289  1  0.09652588  0.23829071  0.97784896  1
  O2-  O290  1  0.09826788  0.56684590  0.48114497  1
  O2-  O291  1  0.09229992  0.57310532  0.97469791  1
  O2-  O292  1  0.09523788  0.90177159  0.48177152  1
  O2-  O293  1  0.09576328  0.90184546  0.97989240  1
  O2-  O294  1  0.42915612  0.24152150  0.47804736  1
  O2-  O295  1  0.43201165  0.23702785  0.98384255  1
  O2-  O296  1  0.42566391  0.57350023  0.47857383  1
  O2-  O297  1  0.42699434  0.57191077  0.98365712  1
  O2-  O298  1  0.42806482  0.90823770  0.48014894  1
  O2-  O299  1  0.42937805  0.90361586  0.97702391  1
  O2-  O300  1  0.76171364  0.24017828  0.47702020  1
  O2-  O301  1  0.76217013  0.23892500  0.97927352  1
  O2-  O302  1  0.76223130  0.57189620  0.48066053  1
  O2-  O303  1  0.76013690  0.57277023  0.97871205  1
  O2-  O304  1  0.76090679  0.90803337  0.48352061  1
  O2-  O305  1  0.76035335  0.90626256  0.97700470  1
  O2-  O306  1  0.06925435  0.06594428  0.26439555  1
  O2-  O307  1  0.07192519  0.06972215  0.77216976  1
  O2-  O308  1  0.06678525  0.40046959  0.26890169  1
  O2-  O309  1  0.07341544  0.40516202  0.77105122  1
  O2-  O310  1  0.06717366  0.73175223  0.26818957  1
  O2-  O311  1  0.07260933  0.73647176  0.76951563  1
  O2-  O312  1  0.40599901  0.07018600  0.27043189  1
  O2-  O313  1  0.40599662  0.07373999  0.77266218  1
  O2-  O314  1  0.40335771  0.40819179  0.27072955  1
  O2-  O315  1  0.40546389  0.40541872  0.77450109  1
  O2-  O316  1  0.40634863  0.74117839  0.27658720  1
  O2-  O317  1  0.40132792  0.73341667  0.76667722  1
  O2-  O318  1  0.73798913  0.07471326  0.27246333  1
  O2-  O319  1  0.73945275  0.07376475  0.77320942  1
  O2-  O320  1  0.74212998  0.40635965  0.27105948  1
  O2-  O321  1  0.73904757  0.40796747  0.77311326  1
  O2-  O322  1  0.73704167  0.74009390  0.26946127  1
  O2-  O323  1  0.73876589  0.74240303  0.77367010  1
  O2-  O324  1  0.23879087  0.09155542  0.22727648  1
  O2-  O325  1  0.24010672  0.09595667  0.73948392  1
  O2-  O326  1  0.23646791  0.42633241  0.22887322  1
  O2-  O327  1  0.23769841  0.43067377  0.73494729  1
  O2-  O328  1  0.23478954  0.76064951  0.23372452  1
  O2-  O329  1  0.23750791  0.75892754  0.72678229  1
  O2-  O330  1  0.56949149  0.09173499  0.22745184  1
  O2-  O331  1  0.57120833  0.10271323  0.73057127  1
  O2-  O332  1  0.57521842  0.42488732  0.23357376  1
  O2-  O333  1  0.56728946  0.43264451  0.72947605  1
  O2-  O334  1  0.56886483  0.76571955  0.23804121  1
  O2-  O335  1  0.56788738  0.76287862  0.73218233  1
  O2-  O336  1  0.90495076  0.09450591  0.22945699  1
  O2-  O337  1  0.90123703  0.09314127  0.72865341  1
  O2-  O338  1  0.90576778  0.42948781  0.22700087  1
  O2-  O339  1  0.90430007  0.42572652  0.72739137  1
  O2-  O340  1  0.90660886  0.76100262  0.22750657  1
  O2-  O341  1  0.90476426  0.76017016  0.72819689  1
  O2-  O342  1  0.26064214  0.26096275  0.02440186  1
  O2-  O343  1  0.26465836  0.26353916  0.51496199  1
  O2-  O344  1  0.25715457  0.59252866  0.01501146  1
  O2-  O345  1  0.26277064  0.59248737  0.52081510  1
  O2-  O346  1  0.26352302  0.92624173  0.01949746  1
  O2-  O347  1  0.25912865  0.92515303  0.51914930  1
  O2-  O348  1  0.59694282  0.26065386  0.02170149  1
  O2-  O349  1  0.59831319  0.26836364  0.51909983  1
  O2-  O350  1  0.59416368  0.59557366  0.01077109  1
  O2-  O351  1  0.59850064  0.59853660  0.51889587  1
  O2-  O352  1  0.59553347  0.92906137  0.02017091  1
  O2-  O353  1  0.59625111  0.93150751  0.52028912  1
  O2-  O354  1  0.93042376  0.26020776  0.02079048  1
  O2-  O355  1  0.92265367  0.26036867  0.52338877  1
  O2-  O356  1  0.93001797  0.59129924  0.01994571  1
  O2-  O357  1  0.92791654  0.59080278  0.52370011  1
  O2-  O358  1  0.92715226  0.92414521  0.02234990  1
  O2-  O359  1  0.92896734  0.92696748  0.52275519  1
