# generated using pymatgen
data_Sr7Ca15Pr50Mn72O216
_symmetry_space_group_name_H-M   'P 1'
_cell_length_a   16.55854087
_cell_length_b   16.60542162
_cell_length_c   15.59304866
_cell_angle_alpha   89.99744612
_cell_angle_beta   89.99635371
_cell_angle_gamma   89.99756758
_symmetry_Int_Tables_number   1
_chemical_formula_structural   Sr7Ca15Pr50Mn72O216
_chemical_formula_sum   'Sr7 Ca15 Pr50 Mn72 O216'
_cell_volume   4287.48885126
_cell_formula_units_Z   1
loop_
 _symmetry_equiv_pos_site_id
 _symmetry_equiv_pos_as_xyz
  1  'x, y, z'
loop_
 _atom_type_symbol
 _atom_type_oxidation_number
  Sr2+  2.0
  Ca2+  2.0
  Pr3+  3.0
  Mn3.30+  3.3
  O2-  -2.0
loop_
 _atom_site_type_symbol
 _atom_site_label
 _atom_site_symmetry_multiplicity
 _atom_site_fract_x
 _atom_site_fract_y
 _atom_site_fract_z
 _atom_site_occupancy
  Sr2+  Sr0  1  0.66394600  0.67416334  0.12296363  1
  Sr2+  Sr1  1  1.00269304  0.32299357  0.37297860  1
  Sr2+  Sr2  1  0.50086236  0.49584460  0.87869340  1
  Sr2+  Sr3  1  0.16659373  0.82248815  0.87710575  1
  Sr2+  Sr4  1  0.33052391  0.67644359  0.62400450  1
  Sr2+  Sr5  1  0.16323232  0.15934561  0.37437821  1
  Sr2+  Sr6  1  0.83631583  0.17840818  0.12514056  1
  Ca2+  Ca7  1  -0.00188439  0.34775815  0.12928075  1
  Ca2+  Ca8  1  0.33251089  0.65213155  0.37325836  1
  Ca2+  Ca9  1  0.16145756  0.81666673  0.37414511  1
  Ca2+  Ca10  1  0.49386368  0.15093933  0.87552559  1
  Ca2+  Ca11  1  0.16581294  0.48985280  0.87785419  1
  Ca2+  Ca12  1  1.00736956  0.64985626  0.37109451  1
  Ca2+  Ca13  1  0.66601363  0.65296992  0.87773890  1
  Ca2+  Ca14  1  0.16744128  0.51383830  0.12939068  1
  Ca2+  Ca15  1  0.67474148  0.31684768  0.37313594  1
  Ca2+  Ca16  1  0.16334420  0.48748524  0.37237150  1
  Ca2+  Ca17  1  -0.00172725  0.67880511  0.12762474  1
  Ca2+  Ca18  1  0.34012364  0.98101557  0.87511270  1
  Ca2+  Ca19  1  0.83262522  0.15624924  0.37237771  1
  Ca2+  Ca20  1  0.50395137  0.51615822  0.12361351  1
  Ca2+  Ca21  1  0.49363651  0.81793955  0.87667180  1
  Pr3+  Pr22  1  0.49707713  0.48907990  0.37170562  1
  Pr3+  Pr23  1  0.33243232  0.32327011  0.37333820  1
  Pr3+  Pr24  1  0.49744458  0.15500015  0.37394222  1
  Pr3+  Pr25  1  0.16722399  0.18148405  0.12611081  1
  Pr3+  Pr26  1  0.67099347  0.98897087  0.37449621  1
  Pr3+  Pr27  1  0.33245858  0.98726649  0.37402520  1
  Pr3+  Pr28  1  0.17196359  0.84378188  0.62520281  1
  Pr3+  Pr29  1  0.33197131  0.67557696  0.12554469  1
  Pr3+  Pr30  1  0.66406460  0.34768186  0.62316667  1
  Pr3+  Pr31  1  0.66373283  0.01271942  0.12463546  1
  Pr3+  Pr32  1  0.66984676  0.65366328  0.37291744  1
  Pr3+  Pr33  1  0.82990670  0.48928913  0.87721946  1
  Pr3+  Pr34  1  0.17070571  0.51400516  0.62196899  1
  Pr3+  Pr35  1  0.50321910  0.84422215  0.12347786  1
  Pr3+  Pr36  1  0.33129101  0.34748184  0.62375284  1
  Pr3+  Pr37  1  -0.00255808  0.01124787  0.12365927  1
  Pr3+  Pr38  1  0.33350557  0.65495254  0.87566591  1
  Pr3+  Pr39  1  0.84030819  0.51405394  0.12631698  1
  Pr3+  Pr40  1  0.83260229  0.82011568  0.37471190  1
  Pr3+  Pr41  1  0.66437239  0.34870278  0.12669686  1
  Pr3+  Pr42  1  0.16700588  0.15373524  0.87660970  1
  Pr3+  Pr43  1  0.83569987  0.84623410  0.62430209  1
  Pr3+  Pr44  1  0.83589144  0.18015482  0.62468356  1
  Pr3+  Pr45  1  0.49985959  0.51398317  0.62636018  1
  Pr3+  Pr46  1  0.33072140  0.35001374  0.12607982  1
  Pr3+  Pr47  1  0.66495576  0.98666421  0.87582194  1
  Pr3+  Pr48  1  1.00679054  0.65156876  0.87791450  1
  Pr3+  Pr49  1  1.00482701  0.32412360  0.87776238  1
  Pr3+  Pr50  1  0.66800504  0.32341816  0.87651167  1
  Pr3+  Pr51  1  0.83742253  0.51290230  0.62384668  1
  Pr3+  Pr52  1  0.83036710  0.15391085  0.87682467  1
  Pr3+  Pr53  1  0.17039676  0.18108916  0.62457784  1
  Pr3+  Pr54  1  0.33954787  0.32308791  0.87587525  1
  Pr3+  Pr55  1  0.50311881  0.18167317  0.62623199  1
  Pr3+  Pr56  1  0.32916569  0.01181004  0.62714323  1
  Pr3+  Pr57  1  0.66182257  0.01460995  0.62522691  1
  Pr3+  Pr58  1  -0.00016242  0.34750746  0.62254733  1
  Pr3+  Pr59  1  0.33017985  0.01212590  0.12234998  1
  Pr3+  Pr60  1  0.50530271  0.17970432  0.12321327  1
  Pr3+  Pr61  1  1.00398800  0.99146582  0.37346691  1
  Pr3+  Pr62  1  0.16696810  0.84261568  0.12518184  1
  Pr3+  Pr63  1  0.49850963  0.84516594  0.62666246  1
  Pr3+  Pr64  1  0.83196050  0.48501773  0.37299830  1
  Pr3+  Pr65  1  0.83517973  0.84293537  0.12588918  1
  Pr3+  Pr66  1  -0.00048288  0.01161708  0.62697531  1
  Pr3+  Pr67  1  1.00243272  0.98536843  0.87684651  1
  Pr3+  Pr68  1  0.66200320  0.67860979  0.62607570  1
  Pr3+  Pr69  1  0.82812556  0.81665416  0.87503111  1
  Pr3+  Pr70  1  -0.00067995  0.67925092  0.62225449  1
  Pr3+  Pr71  1  0.49438978  0.81785331  0.37393469  1
  Mn3.30+  Mn72  1  0.16814008  -0.00082531  -0.00111681  1
  Mn3.30+  Mn73  1  0.16606655  -0.00056900  0.49901261  1
  Mn3.30+  Mn74  1  0.16756888  0.33804998  0.00159261  1
  Mn3.30+  Mn75  1  0.16545453  0.33479820  0.49823599  1
  Mn3.30+  Mn76  1  0.16500491  0.66443955  0.00381507  1
  Mn3.30+  Mn77  1  0.16632152  0.66667556  0.49386575  1
  Mn3.30+  Mn78  1  0.49720739  -0.00041490  -0.00214238  1
  Mn3.30+  Mn79  1  0.49899148  -0.00020498  0.49981931  1
  Mn3.30+  Mn80  1  0.50014622  0.33561490  0.00068818  1
  Mn3.30+  Mn81  1  0.50213250  0.33459418  0.49672655  1
  Mn3.30+  Mn82  1  0.50011796  0.66666475  -0.00122348  1
  Mn3.30+  Mn83  1  0.49766918  0.66653371  0.49928756  1
  Mn3.30+  Mn84  1  0.83208691  -0.00144215  -0.00074805  1
  Mn3.30+  Mn85  1  0.83411149  0.00192588  0.49987886  1
  Mn3.30+  Mn86  1  0.83653396  0.33403999  0.00252580  1
  Mn3.30+  Mn87  1  0.83245903  0.33162829  0.49763886  1
  Mn3.30+  Mn88  1  0.83424003  0.66612577  0.00125840  1
  Mn3.30+  Mn89  1  0.83509205  0.66626038  0.49795728  1
  Mn3.30+  Mn90  1  -0.00147561  0.16819350  0.25006235  1
  Mn3.30+  Mn91  1  0.00098074  0.16762228  0.75152174  1
  Mn3.30+  Mn92  1  0.00387259  0.50106363  0.24927519  1
  Mn3.30+  Mn93  1  0.00196086  0.50054587  0.75070390  1
  Mn3.30+  Mn94  1  0.00175603  0.83114711  0.25134511  1
  Mn3.30+  Mn95  1  0.00054085  0.83165487  0.75037195  1
  Mn3.30+  Mn96  1  0.33356506  0.16734760  0.24914079  1
  Mn3.30+  Mn97  1  0.33549846  0.16596378  0.75188549  1
  Mn3.30+  Mn98  1  0.33142526  0.50234317  0.24950956  1
  Mn3.30+  Mn99  1  0.33192441  0.50072755  0.75195458  1
  Mn3.30+  Mn100  1  0.33061478  0.83067168  0.25110786  1
  Mn3.30+  Mn101  1  0.33416514  0.83224851  0.75184054  1
  Mn3.30+  Mn102  1  0.66892147  0.16840180  0.25006330  1
  Mn3.30+  Mn103  1  0.66442683  0.16779504  0.75238942  1
  Mn3.30+  Mn104  1  0.66594964  0.49952935  0.24981989  1
  Mn3.30+  Mn105  1  0.66733503  0.50144674  0.75097843  1
  Mn3.30+  Mn106  1  0.66633517  0.83219614  0.24962681  1
  Mn3.30+  Mn107  1  0.66396176  0.83195728  0.75213987  1
  Mn3.30+  Mn108  1  0.16640230  -0.00040567  0.24938290  1
  Mn3.30+  Mn109  1  0.16822117  -0.00105214  0.75327052  1
  Mn3.30+  Mn110  1  0.16394066  0.33680270  0.24775068  1
  Mn3.30+  Mn111  1  0.16872151  0.33578237  0.75273205  1
  Mn3.30+  Mn112  1  0.16489633  0.66543621  0.25066481  1
  Mn3.30+  Mn113  1  0.16650702  0.66615268  0.75130311  1
  Mn3.30+  Mn114  1  0.49960598  -0.00056851  0.24997265  1
  Mn3.30+  Mn115  1  0.49703259  -0.00003241  0.75192534  1
  Mn3.30+  Mn116  1  0.50215048  0.33487135  0.25034614  1
  Mn3.30+  Mn117  1  0.50032935  0.33491689  0.75176812  1
  Mn3.30+  Mn118  1  0.49874425  0.66512748  0.24985744  1
  Mn3.30+  Mn119  1  0.49927670  0.66823008  0.75192567  1
  Mn3.30+  Mn120  1  0.83447384  0.00146457  0.25061492  1
  Mn3.30+  Mn121  1  0.83166839  -0.00067202  0.75044326  1
  Mn3.30+  Mn122  1  0.83424605  0.33155655  0.24976184  1
  Mn3.30+  Mn123  1  0.83455624  0.33407610  0.75023304  1
  Mn3.30+  Mn124  1  0.83763439  0.66637755  0.25088850  1
  Mn3.30+  Mn125  1  0.83246399  0.66565266  0.75027985  1
  Mn3.30+  Mn126  1  -0.00001133  0.16862984  0.00001632  1
  Mn3.30+  Mn127  1  -0.00016858  0.16688642  0.49952314  1
  Mn3.30+  Mn128  1  0.00345991  0.50012349  0.00358431  1
  Mn3.30+  Mn129  1  0.00247671  0.50162539  0.49660691  1
  Mn3.30+  Mn130  1  -0.00091345  0.83013936  0.00078566  1
  Mn3.30+  Mn131  1  0.00265338  0.83282226  0.49794880  1
  Mn3.30+  Mn132  1  0.33552804  0.16704625  -0.00041493  1
  Mn3.30+  Mn133  1  0.33351756  0.16663442  0.49871713  1
  Mn3.30+  Mn134  1  0.33185825  0.50132611  0.00268276  1
  Mn3.30+  Mn135  1  0.33168602  0.50195768  0.49564505  1
  Mn3.30+  Mn136  1  0.33438488  0.83240536  -0.00040013  1
  Mn3.30+  Mn137  1  0.33011085  0.83066490  0.49667365  1
  Mn3.30+  Mn138  1  0.66498639  0.16763311  -0.00134534  1
  Mn3.30+  Mn139  1  0.66828089  0.16819032  0.49825991  1
  Mn3.30+  Mn140  1  0.66624396  0.50167957  0.00098219  1
  Mn3.30+  Mn141  1  0.66677450  0.49912816  0.49856665  1
  Mn3.30+  Mn142  1  0.66421177  0.83039471  -0.00239944  1
  Mn3.30+  Mn143  1  0.66578208  0.83351455  0.50010567  1
  O2-  O144  1  0.02412239  0.15772342  0.12076511  1
  O2-  O145  1  0.02650639  0.16000527  0.62939102  1
  O2-  O146  1  0.02639894  0.49078423  0.12553002  1
  O2-  O147  1  0.02550755  0.49677917  0.62365701  1
  O2-  O148  1  0.02214998  0.82768421  0.12578037  1
  O2-  O149  1  0.02686884  0.82776939  0.62308819  1
  O2-  O150  1  0.36144937  0.16119928  0.12369585  1
  O2-  O151  1  0.35916090  0.16137983  0.62405065  1
  O2-  O152  1  0.36209419  0.49798303  0.12671531  1
  O2-  O153  1  0.35624256  0.49517907  0.62124407  1
  O2-  O154  1  0.35965397  0.82624941  0.12628769  1
  O2-  O155  1  0.35463684  0.83238046  0.62251221  1
  O2-  O156  1  0.68561581  0.16058748  0.12376202  1
  O2-  O157  1  0.69133252  0.16223362  0.62703151  1
  O2-  O158  1  0.69412797  0.49664297  0.12564373  1
  O2-  O159  1  0.69319535  0.49542731  0.62287593  1
  O2-  O160  1  0.69057317  0.83133835  0.12278110  1
  O2-  O161  1  0.69189296  0.82672855  0.62552421  1
  O2-  O162  1  0.14029840  0.32646071  0.12349645  1
  O2-  O163  1  0.14435759  0.32835018  0.62780135  1
  O2-  O164  1  0.13854663  0.66019138  0.12693677  1
  O2-  O165  1  0.14242585  0.66144820  0.62203640  1
  O2-  O166  1  0.14195417  0.99316851  0.12380575  1
  O2-  O167  1  0.14357837  0.99280905  0.62820445  1
  O2-  O168  1  0.47470838  0.32447862  0.12509621  1
  O2-  O169  1  0.47586897  0.32907301  0.62299460  1
  O2-  O170  1  0.47737507  0.66367999  0.12595990  1
  O2-  O171  1  0.48040001  0.66234780  0.62403475  1
  O2-  O172  1  0.47481361  0.99366287  0.12453952  1
  O2-  O173  1  0.47328785  0.99429201  0.62501176  1
  O2-  O174  1  0.80815435  0.33326128  0.12578695  1
  O2-  O175  1  0.80769146  0.32861605  0.62313483  1
  O2-  O176  1  0.81372332  0.66395598  0.12828586  1
  O2-  O177  1  0.80681833  0.66159994  0.62470708  1
  O2-  O178  1  0.80761659  0.99189024  0.12219131  1
  O2-  O179  1  0.80598299  0.99410846  0.62628232  1
  O2-  O180  1  0.31362626  0.17303887  0.37464426  1
  O2-  O181  1  0.30871625  0.17711759  0.87694366  1
  O2-  O182  1  0.30697370  0.50327044  0.37300842  1
  O2-  O183  1  0.30828292  0.50465623  0.87885258  1
  O2-  O184  1  0.30365941  0.84272690  0.37302379  1
  O2-  O185  1  0.31431029  0.83610009  0.87805318  1
  O2-  O186  1  0.64047430  0.17049714  0.37436525  1
  O2-  O187  1  0.63788310  0.17535857  0.87500174  1
  O2-  O188  1  0.64128098  0.50746715  0.37566256  1
  O2-  O189  1  0.65181443  0.50270922  0.87597139  1
  O2-  O190  1  0.64013658  0.84085354  0.37677855  1
  O2-  O191  1  0.63651833  0.84141512  0.87403832  1
  O2-  O192  1  0.97631170  0.16391946  0.37626674  1
  O2-  O193  1  0.97439653  0.17532968  0.87492591  1
  O2-  O194  1  0.97480467  0.50604262  0.37517617  1
  O2-  O195  1  0.97370465  0.50434946  0.87601599  1
  O2-  O196  1  0.97412999  0.84507799  0.37544497  1
  O2-  O197  1  0.97336774  0.83681579  0.87581542  1
  O2-  O198  1  0.18980083  0.00682818  0.37157329  1
  O2-  O199  1  0.19604724  0.00590084  0.87644750  1
  O2-  O200  1  0.18904392  0.33797727  0.37218862  1
  O2-  O201  1  0.19554448  0.34281879  0.87663901  1
  O2-  O202  1  0.19345030  0.67586631  0.37269802  1
  O2-  O203  1  0.18888625  0.66942980  0.87863216  1
  O2-  O204  1  0.52643997  0.00587300  0.37546433  1
  O2-  O205  1  0.52395728  0.00873784  0.87407065  1
  O2-  O206  1  0.53085745  0.34177903  0.37382221  1
  O2-  O207  1  0.52434443  0.34180233  0.87741831  1
  O2-  O208  1  0.52608943  0.67075318  0.37601548  1
  O2-  O209  1  0.52398561  0.67253655  0.87376775  1
  O2-  O210  1  0.85847058  0.00742200  0.37792571  1
  O2-  O211  1  0.85758563  0.00415823  0.87416780  1
  O2-  O212  1  0.85352473  0.33866065  0.37456678  1
  O2-  O213  1  0.86019880  0.34146912  0.87646738  1
  O2-  O214  1  0.86236551  0.67227729  0.37438297  1
  O2-  O215  1  0.86171290  0.66869230  0.87348635  1
  O2-  O216  1  0.23954759  0.09752946  0.02152918  1
  O2-  O217  1  0.23921075  0.09252999  0.52304277  1
  O2-  O218  1  0.23925791  0.42919292  0.02771376  1
  O2-  O219  1  0.24177465  0.42585351  0.52007718  1
  O2-  O220  1  0.23909370  0.75780997  0.02393397  1
  O2-  O221  1  0.23390315  0.76351846  0.51707413  1
  O2-  O222  1  0.57013474  0.09197596  0.01993191  1
  O2-  O223  1  0.57225898  0.09717649  0.52080139  1
  O2-  O224  1  0.57444262  0.42711545  0.02449596  1
  O2-  O225  1  0.57125328  0.43009280  0.52213825  1
  O2-  O226  1  0.56942733  0.76289215  0.01847836  1
  O2-  O227  1  0.57049678  0.76173253  0.51963545  1
  O2-  O228  1  0.90750619  0.09132146  0.01368741  1
  O2-  O229  1  0.90702002  0.09328903  0.52664921  1
  O2-  O230  1  0.90490997  0.43166757  0.01858063  1
  O2-  O231  1  0.90602307  0.42754616  0.51877350  1
  O2-  O232  1  0.90070457  0.76327744  0.01625429  1
  O2-  O233  1  0.90552398  0.76437297  0.52052224  1
  O2-  O234  1  0.26043074  0.26233255  0.22934103  1
  O2-  O235  1  0.26357751  0.26227145  0.73005539  1
  O2-  O236  1  0.26127668  0.59552062  0.22937861  1
  O2-  O237  1  0.25732805  0.59262295  0.73274017  1
  O2-  O238  1  0.26149344  0.92688888  0.22697691  1
  O2-  O239  1  0.26060913  0.92624966  0.73065078  1
  O2-  O240  1  0.59546741  0.26066674  0.22829489  1
  O2-  O241  1  0.59598222  0.26343859  0.72904934  1
  O2-  O242  1  0.59426191  0.59391460  0.23664118  1
  O2-  O243  1  0.59300807  0.59393550  0.73017039  1
  O2-  O244  1  0.59382559  0.92857809  0.22936768  1
  O2-  O245  1  0.59340994  0.93044009  0.72854323  1
  O2-  O246  1  0.92912421  0.26225789  0.23010674  1
  O2-  O247  1  0.92770361  0.26258138  0.72819546  1
  O2-  O248  1  0.93105162  0.59309960  0.22763141  1
  O2-  O249  1  0.92839724  0.59530719  0.72797637  1
  O2-  O250  1  0.92889266  0.92694735  0.22956134  1
  O2-  O251  1  0.92661499  0.92621235  0.72958488  1
  O2-  O252  1  0.09384262  0.23728068  0.26130684  1
  O2-  O253  1  0.09993876  0.24167044  0.77303236  1
  O2-  O254  1  0.09800355  0.57161926  0.27279598  1
  O2-  O255  1  0.09502125  0.57042623  0.77043621  1
  O2-  O256  1  0.09527958  0.90389747  0.26886384  1
  O2-  O257  1  0.09241750  0.90955326  0.77020270  1
  O2-  O258  1  0.43083949  0.24165505  0.27092694  1
  O2-  O259  1  0.43110284  0.23711260  0.76973103  1
  O2-  O260  1  0.42701513  0.57301613  0.27069075  1
  O2-  O261  1  0.42485242  0.57501102  0.76644845  1
  O2-  O262  1  0.42633240  0.90481916  0.27122498  1
  O2-  O263  1  0.43217839  0.90287454  0.76743626  1
  O2-  O264  1  0.76216991  0.23704710  0.26996952  1
  O2-  O265  1  0.76299262  0.23952665  0.77185225  1
  O2-  O266  1  0.76378637  0.57304885  0.27153004  1
  O2-  O267  1  0.76575030  0.56980855  0.76552047  1
  O2-  O268  1  0.76250803  0.90734378  0.27145355  1
  O2-  O269  1  0.75959447  0.90452023  0.77086820  1
  O2-  O270  1  0.06882343  0.06860868  0.48677751  1
  O2-  O271  1  0.07364991  0.07323894  0.97731322  1
  O2-  O272  1  0.07225354  0.40649425  0.48693120  1
  O2-  O273  1  0.07280826  0.40666144  0.97784492  1
  O2-  O274  1  0.06705666  0.73413849  0.47983123  1
  O2-  O275  1  0.06975351  0.73725644  0.98406642  1
  O2-  O276  1  0.40515547  0.07181785  0.47848504  1
  O2-  O277  1  0.40126118  0.06713204  0.98104092  1
  O2-  O278  1  0.40522450  0.40627966  0.47654898  1
  O2-  O279  1  0.40253351  0.40338292  0.98544078  1
  O2-  O280  1  0.40260708  0.74028643  0.47470071  1
  O2-  O281  1  0.40345115  0.73753243  0.98251917  1
  O2-  O282  1  0.73415073  0.07043537  0.48360388  1
  O2-  O283  1  0.73729190  0.07269332  0.97788421  1
  O2-  O284  1  0.73558961  0.40404100  0.47934227  1
  O2-  O285  1  0.74001100  0.40521054  0.98145674  1
  O2-  O286  1  0.73849875  0.73904568  0.47898073  1
  O2-  O287  1  0.73660758  0.73975198  0.97477800  1
  O2-  O288  1  0.09338172  0.23783143  0.48951785  1
  O2-  O289  1  0.09807196  0.23971302  0.97800715  1
  O2-  O290  1  0.09758391  0.57036155  0.47946321  1
  O2-  O291  1  0.09468755  0.57096938  0.97739710  1
  O2-  O292  1  0.09564596  0.90370700  0.47888514  1
  O2-  O293  1  0.08825401  0.90716955  0.98297920  1
  O2-  O294  1  0.43014188  0.24054717  0.47872066  1
  O2-  O295  1  0.43012990  0.23673644  0.97892609  1
  O2-  O296  1  0.42982187  0.56960509  0.48145377  1
  O2-  O297  1  0.42194010  0.57789314  0.98172914  1
  O2-  O298  1  0.42515323  0.90395310  0.47818927  1
  O2-  O299  1  0.43156842  0.90310755  0.98310062  1
  O2-  O300  1  0.76418861  0.23285836  0.48185723  1
  O2-  O301  1  0.76191736  0.24149297  0.97715543  1
  O2-  O302  1  0.76090684  0.57027248  0.47794674  1
  O2-  O303  1  0.76598808  0.57159251  0.98544998  1
  O2-  O304  1  0.76200021  0.90589033  0.47998074  1
  O2-  O305  1  0.75811880  0.90413018  0.97660294  1
  O2-  O306  1  0.07011682  0.06954886  0.26293563  1
  O2-  O307  1  0.07339371  0.07165410  0.77400865  1
  O2-  O308  1  0.07347189  0.40858484  0.26800629  1
  O2-  O309  1  0.07100954  0.40321965  0.76695898  1
  O2-  O310  1  0.07017768  0.73781078  0.27072653  1
  O2-  O311  1  0.06863885  0.73392136  0.76561233  1
  O2-  O312  1  0.40634190  0.07113227  0.27005884  1
  O2-  O313  1  0.40072589  0.06719509  0.76870773  1
  O2-  O314  1  0.40497722  0.40563132  0.27130319  1
  O2-  O315  1  0.40349576  0.40382170  0.76470819  1
  O2-  O316  1  0.40300446  0.73790290  0.27266041  1
  O2-  O317  1  0.40522709  0.73892055  0.76910609  1
  O2-  O318  1  0.73568078  0.07079078  0.26657026  1
  O2-  O319  1  0.73580901  0.07277123  0.77244008  1
  O2-  O320  1  0.73644344  0.40461493  0.26964888  1
  O2-  O321  1  0.74031051  0.40405754  0.76899717  1
  O2-  O322  1  0.74125547  0.74065666  0.27354683  1
  O2-  O323  1  0.73783669  0.73525645  0.77273882  1
  O2-  O324  1  0.23984545  0.09160430  0.22500877  1
  O2-  O325  1  0.23717062  0.09555683  0.73006195  1
  O2-  O326  1  0.24157913  0.42760986  0.22697015  1
  O2-  O327  1  0.23959048  0.42658325  0.72674506  1
  O2-  O328  1  0.23758398  0.75877843  0.22505861  1
  O2-  O329  1  0.23625807  0.76040071  0.73332611  1
  O2-  O330  1  0.57182832  0.09534586  0.23065398  1
  O2-  O331  1  0.56948348  0.09371383  0.72738311  1
  O2-  O332  1  0.56877592  0.42852981  0.22586011  1
  O2-  O333  1  0.57431729  0.42752841  0.72725506  1
  O2-  O334  1  0.56771776  0.76239878  0.23527680  1
  O2-  O335  1  0.57233789  0.76076096  0.72587822  1
  O2-  O336  1  0.90832978  0.09037864  0.22925546  1
  O2-  O337  1  0.90252611  0.09244894  0.73109519  1
  O2-  O338  1  0.90340995  0.42988301  0.23454208  1
  O2-  O339  1  0.90662012  0.42847023  0.72792967  1
  O2-  O340  1  0.90318329  0.76518110  0.23419371  1
  O2-  O341  1  0.90170261  0.76026152  0.72822381  1
  O2-  O342  1  0.26272288  0.26340812  0.02153298  1
  O2-  O343  1  0.26190617  0.26096670  0.51889479  1
  O2-  O344  1  0.26102073  0.59552410  0.02094395  1
  O2-  O345  1  0.25794975  0.59231928  0.51687378  1
  O2-  O346  1  0.26001507  0.92393609  0.02301169  1
  O2-  O347  1  0.26169219  0.92893203  0.51921801  1
  O2-  O348  1  0.59554834  0.26352020  0.02082363  1
  O2-  O349  1  0.59637254  0.26032013  0.52174226  1
  O2-  O350  1  0.59206955  0.59194820  0.01317434  1
  O2-  O351  1  0.59698551  0.59381461  0.52011160  1
  O2-  O352  1  0.59512398  0.92933135  0.01939501  1
  O2-  O353  1  0.59354780  0.92832451  0.52221168  1
  O2-  O354  1  0.93195757  0.26649770  0.01796972  1
  O2-  O355  1  0.92801914  0.25835464  0.52445760  1
  O2-  O356  1  0.93345478  0.59442812  0.02186177  1
  O2-  O357  1  0.92708861  0.59237070  0.52294458  1
  O2-  O358  1  0.92605739  0.92487036  0.01981044  1
  O2-  O359  1  0.92950613  0.92787336  0.52273670  1
