# generated using pymatgen
data_Sr7Ca15Pr50Mn72O216
_symmetry_space_group_name_H-M   'P 1'
_cell_length_a   16.56093303
_cell_length_b   16.60404229
_cell_length_c   15.59303956
_cell_angle_alpha   90.00418779
_cell_angle_beta   90.00434532
_cell_angle_gamma   90.00051528
_symmetry_Int_Tables_number   1
_chemical_formula_structural   Sr7Ca15Pr50Mn72O216
_chemical_formula_sum   'Sr7 Ca15 Pr50 Mn72 O216'
_cell_volume   4287.74955196
_cell_formula_units_Z   1
loop_
 _symmetry_equiv_pos_site_id
 _symmetry_equiv_pos_as_xyz
  1  'x, y, z'
loop_
 _atom_type_symbol
 _atom_type_oxidation_number
  Sr2+  2.0
  Ca2+  2.0
  Pr3+  3.0
  Mn3.30+  3.3
  O2-  -2.0
loop_
 _atom_site_type_symbol
 _atom_site_label
 _atom_site_symmetry_multiplicity
 _atom_site_fract_x
 _atom_site_fract_y
 _atom_site_fract_z
 _atom_site_occupancy
  Sr2+  Sr0  1  0.16926895  0.17714667  0.12501292  1
  Sr2+  Sr1  1  0.49861425  0.82271091  0.87618400  1
  Sr2+  Sr2  1  0.16492163  0.15743741  0.37534266  1
  Sr2+  Sr3  1  0.16997228  0.50904966  0.12509976  1
  Sr2+  Sr4  1  0.50258539  0.17555273  0.62577448  1
  Sr2+  Sr5  1  0.66774619  0.34395638  0.12401197  1
  Sr2+  Sr6  1  0.83311081  0.51029733  0.62400278  1
  Ca2+  Ca7  1  0.66425735  0.67935796  0.62513548  1
  Ca2+  Ca8  1  0.66690911  0.67744102  0.12487488  1
  Ca2+  Ca9  1  1.00290285  0.65113311  0.37417574  1
  Ca2+  Ca10  1  0.17227317  0.18062333  0.62587027  1
  Ca2+  Ca11  1  0.16158235  0.15152354  0.87464761  1
  Ca2+  Ca12  1  0.33220697  0.67715318  0.12495955  1
  Ca2+  Ca13  1  0.83756763  0.51436185  0.12630514  1
  Ca2+  Ca14  1  0.83429452  0.84745376  0.12508100  1
  Ca2+  Ca15  1  0.83547944  0.17931090  0.12492591  1
  Ca2+  Ca16  1  0.66555477  0.01220362  0.12417532  1
  Ca2+  Ca17  1  0.32902925  0.34698183  0.12612139  1
  Ca2+  Ca18  1  0.83469770  0.18041681  0.62525919  1
  Ca2+  Ca19  1  0.50383684  0.51508785  0.12415491  1
  Ca2+  Ca20  1  0.66193155  0.01575322  0.62622433  1
  Ca2+  Ca21  1  0.33153342  0.68153670  0.62534338  1
  Pr3+  Pr22  1  0.82965214  0.15361352  0.87597790  1
  Pr3+  Pr23  1  0.16527821  0.48675824  0.87724927  1
  Pr3+  Pr24  1  1.00176177  0.65312787  0.87566489  1
  Pr3+  Pr25  1  1.00278285  0.32102359  0.37492186  1
  Pr3+  Pr26  1  0.33121937  0.34353049  0.62471579  1
  Pr3+  Pr27  1  1.00465982  0.31806899  0.87495880  1
  Pr3+  Pr28  1  0.33473336  0.98734770  0.87600192  1
  Pr3+  Pr29  1  0.66932736  0.32096024  0.37358210  1
  Pr3+  Pr30  1  0.66903937  0.98561141  0.87471096  1
  Pr3+  Pr31  1  0.67053729  0.98770714  0.37540193  1
  Pr3+  Pr32  1  0.33430738  0.32018943  0.87853779  1
  Pr3+  Pr33  1  -0.00172114  0.34428639  0.62421588  1
  Pr3+  Pr34  1  0.50566294  0.51455624  0.62516271  1
  Pr3+  Pr35  1  0.33892377  0.65481126  0.87701909  1
  Pr3+  Pr36  1  1.00126477  0.98839100  0.87574447  1
  Pr3+  Pr37  1  -0.00291906  0.01596835  0.62485429  1
  Pr3+  Pr38  1  0.83213034  0.84561479  0.62443225  1
  Pr3+  Pr39  1  0.50395935  0.84564955  0.62527832  1
  Pr3+  Pr40  1  0.50276273  0.17905775  0.12395771  1
  Pr3+  Pr41  1  -0.00597043  0.67993504  0.12639591  1
  Pr3+  Pr42  1  0.66916944  0.32055378  0.87650014  1
  Pr3+  Pr43  1  1.00263017  0.98975289  0.37428207  1
  Pr3+  Pr44  1  0.82812759  0.82034384  0.87602005  1
  Pr3+  Pr45  1  0.49830125  0.48846159  0.87798693  1
  Pr3+  Pr46  1  0.49783826  0.15443187  0.37430522  1
  Pr3+  Pr47  1  0.66927706  0.65318926  0.37355850  1
  Pr3+  Pr48  1  0.16168740  0.81713924  0.37442739  1
  Pr3+  Pr49  1  -0.00478768  0.67869927  0.62352035  1
  Pr3+  Pr50  1  0.83208789  0.48755523  0.37376302  1
  Pr3+  Pr51  1  0.33045935  0.00993747  0.12368401  1
  Pr3+  Pr52  1  0.82991694  0.48729416  0.87631157  1
  Pr3+  Pr53  1  0.49803282  0.81945217  0.37374631  1
  Pr3+  Pr54  1  0.33502818  0.98909926  0.37393782  1
  Pr3+  Pr55  1  0.66708678  0.65555186  0.87672213  1
  Pr3+  Pr56  1  0.50396806  0.84325136  0.12430739  1
  Pr3+  Pr57  1  0.66400978  0.34365845  0.62591194  1
  Pr3+  Pr58  1  0.16880309  0.84182858  0.12559530  1
  Pr3+  Pr59  1  0.49908123  0.15368457  0.87583024  1
  Pr3+  Pr60  1  0.16429640  0.81981287  0.87596613  1
  Pr3+  Pr61  1  0.32994081  0.01442108  0.62648358  1
  Pr3+  Pr62  1  0.17148128  0.51449041  0.62476717  1
  Pr3+  Pr63  1  0.49819589  0.48576347  0.37177900  1
  Pr3+  Pr64  1  -0.00540864  0.01586242  0.12504512  1
  Pr3+  Pr65  1  0.33704262  0.65214174  0.37299571  1
  Pr3+  Pr66  1  0.83091412  0.82050362  0.37328891  1
  Pr3+  Pr67  1  0.17025516  0.84457561  0.62469441  1
  Pr3+  Pr68  1  0.16453573  0.48781948  0.37276193  1
  Pr3+  Pr69  1  0.33457703  0.31944406  0.37166172  1
  Pr3+  Pr70  1  -0.00475913  0.34600992  0.12585230  1
  Pr3+  Pr71  1  0.83057650  0.15563539  0.37404491  1
  Mn3.30+  Mn72  1  0.16549069  -0.00009193  0.00004843  1
  Mn3.30+  Mn73  1  0.16644563  0.00122123  0.50038343  1
  Mn3.30+  Mn74  1  0.16808125  0.33112996  0.00121421  1
  Mn3.30+  Mn75  1  0.16634308  0.33249758  0.50069690  1
  Mn3.30+  Mn76  1  0.16842462  0.66497935  0.00204129  1
  Mn3.30+  Mn77  1  0.16670638  0.66594434  0.49965325  1
  Mn3.30+  Mn78  1  0.50126406  -0.00122654  0.00130298  1
  Mn3.30+  Mn79  1  0.50226217  -0.00019113  0.50029432  1
  Mn3.30+  Mn80  1  0.49940701  0.33524853  0.00273358  1
  Mn3.30+  Mn81  1  0.49960175  0.33240908  0.49993548  1
  Mn3.30+  Mn82  1  0.50124892  0.66612852  0.00339726  1
  Mn3.30+  Mn83  1  0.49979693  0.66665466  0.50082218  1
  Mn3.30+  Mn84  1  0.83168660  0.00022344  0.00292563  1
  Mn3.30+  Mn85  1  0.83244901  0.00216696  0.50224514  1
  Mn3.30+  Mn86  1  0.83410042  0.33336331  0.00161747  1
  Mn3.30+  Mn87  1  0.83344583  0.33226711  0.50116217  1
  Mn3.30+  Mn88  1  0.83214891  0.66674078  0.00329089  1
  Mn3.30+  Mn89  1  0.83341903  0.66652770  0.49889726  1
  Mn3.30+  Mn90  1  -0.00089165  0.16778499  0.24932127  1
  Mn3.30+  Mn91  1  0.00116720  0.16663345  0.74860998  1
  Mn3.30+  Mn92  1  -0.00080450  0.50193304  0.24923285  1
  Mn3.30+  Mn93  1  -0.00014222  0.49939885  0.74960625  1
  Mn3.30+  Mn94  1  -0.00223035  0.83292459  0.24997081  1
  Mn3.30+  Mn95  1  -0.00092936  0.83369812  0.74971666  1
  Mn3.30+  Mn96  1  0.33321032  0.16612571  0.24832707  1
  Mn3.30+  Mn97  1  0.33007437  0.16699806  0.75187049  1
  Mn3.30+  Mn98  1  0.33446172  0.49942293  0.24604538  1
  Mn3.30+  Mn99  1  0.33426357  0.50100405  0.74951817  1
  Mn3.30+  Mn100  1  0.33317547  0.83097173  0.24982938  1
  Mn3.30+  Mn101  1  0.33433133  0.83208330  0.74924525  1
  Mn3.30+  Mn102  1  0.66719646  0.16596254  0.24703681  1
  Mn3.30+  Mn103  1  0.66751665  0.16572035  0.74894519  1
  Mn3.30+  Mn104  1  0.66698349  0.50083432  0.24530955  1
  Mn3.30+  Mn105  1  0.66625592  0.50136359  0.75019736  1
  Mn3.30+  Mn106  1  0.66817661  0.83269354  0.24696453  1
  Mn3.30+  Mn107  1  0.66593880  0.83195970  0.74892237  1
  Mn3.30+  Mn108  1  0.16624369  -0.00041538  0.25013005  1
  Mn3.30+  Mn109  1  0.16568495  0.00144607  0.75009221  1
  Mn3.30+  Mn110  1  0.16740774  0.33279573  0.24774998  1
  Mn3.30+  Mn111  1  0.16684300  0.33084565  0.75031344  1
  Mn3.30+  Mn112  1  0.16640179  0.66469641  0.24867043  1
  Mn3.30+  Mn113  1  0.16839061  0.66646527  0.74990225  1
  Mn3.30+  Mn114  1  0.50267471  -0.00087725  0.24848673  1
  Mn3.30+  Mn115  1  0.50103719  -0.00024342  0.74980274  1
  Mn3.30+  Mn116  1  0.50016537  0.33482620  0.24566190  1
  Mn3.30+  Mn117  1  0.49895556  0.33277880  0.75148291  1
  Mn3.30+  Mn118  1  0.50149231  0.66492538  0.24639695  1
  Mn3.30+  Mn119  1  0.49978056  0.66773625  0.74890450  1
  Mn3.30+  Mn120  1  0.83220305  0.00052099  0.24780508  1
  Mn3.30+  Mn121  1  0.83196637  0.00164163  0.74718620  1
  Mn3.30+  Mn122  1  0.83319643  0.33371539  0.24786636  1
  Mn3.30+  Mn123  1  0.83427190  0.33237626  0.74986316  1
  Mn3.30+  Mn124  1  0.83354947  0.66666983  0.24940612  1
  Mn3.30+  Mn125  1  0.83183971  0.66648063  0.74805580  1
  Mn3.30+  Mn126  1  0.00001033  0.16733971  -0.00017612  1
  Mn3.30+  Mn127  1  0.00025361  0.16725460  0.50251822  1
  Mn3.30+  Mn128  1  -0.00116180  0.50003178  0.00161385  1
  Mn3.30+  Mn129  1  0.00028109  0.50131798  0.49949103  1
  Mn3.30+  Mn130  1  -0.00262314  0.83363154  0.00105835  1
  Mn3.30+  Mn131  1  -0.00032493  0.83283798  0.49929255  1
  Mn3.30+  Mn132  1  0.33095680  0.16670364  -0.00066501  1
  Mn3.30+  Mn133  1  0.33256760  0.16654876  0.50088585  1
  Mn3.30+  Mn134  1  0.33413431  0.49985412  0.00366432  1
  Mn3.30+  Mn135  1  0.33435695  0.50059092  0.50044542  1
  Mn3.30+  Mn136  1  0.33378663  0.83055412  0.00153371  1
  Mn3.30+  Mn137  1  0.33354486  0.83244281  0.49962401  1
  Mn3.30+  Mn138  1  0.66781085  0.16556374  0.00294739  1
  Mn3.30+  Mn139  1  0.66721481  0.16603344  0.50150750  1
  Mn3.30+  Mn140  1  0.66682741  0.50142529  0.00454728  1
  Mn3.30+  Mn141  1  0.66654049  0.50087543  0.49994080  1
  Mn3.30+  Mn142  1  0.66801904  0.83213124  0.00360659  1
  Mn3.30+  Mn143  1  0.66655417  0.83279406  0.50042344  1
  O2-  O144  1  0.01940429  0.16371030  0.12398455  1
  O2-  O145  1  0.02982998  0.16309843  0.62589850  1
  O2-  O146  1  0.02007109  0.49526911  0.12450590  1
  O2-  O147  1  0.02659361  0.49448922  0.62560546  1
  O2-  O148  1  0.02526550  0.82785989  0.12640256  1
  O2-  O149  1  0.02616184  0.82629301  0.62472553  1
  O2-  O150  1  0.35948730  0.15656387  0.12392851  1
  O2-  O151  1  0.35381238  0.16354679  0.62683314  1
  O2-  O152  1  0.36139649  0.48988919  0.12522251  1
  O2-  O153  1  0.36133895  0.49006127  0.62527420  1
  O2-  O154  1  0.35794933  0.82565184  0.12660624  1
  O2-  O155  1  0.35834214  0.82735672  0.62174204  1
  O2-  O156  1  0.69300758  0.15856658  0.12457126  1
  O2-  O157  1  0.69206150  0.16202436  0.62576117  1
  O2-  O158  1  0.69722425  0.49623816  0.12511099  1
  O2-  O159  1  0.68426209  0.49079709  0.62644283  1
  O2-  O160  1  0.69398839  0.82271499  0.12648924  1
  O2-  O161  1  0.69034333  0.82264662  0.62341130  1
  O2-  O162  1  0.14041261  0.33152502  0.12313760  1
  O2-  O163  1  0.14295830  0.32834069  0.62553396  1
  O2-  O164  1  0.13915056  0.66844148  0.12452832  1
  O2-  O165  1  0.13942159  0.66278728  0.62413781  1
  O2-  O166  1  0.14020022  0.99103843  0.12486498  1
  O2-  O167  1  0.14076757  0.99023990  0.62530015  1
  O2-  O168  1  0.47102964  0.32451997  0.12351026  1
  O2-  O169  1  0.47539290  0.33072043  0.62836700  1
  O2-  O170  1  0.47326739  0.66213515  0.12610795  1
  O2-  O171  1  0.47237038  0.66092916  0.62214113  1
  O2-  O172  1  0.47453530  0.99386533  0.12496864  1
  O2-  O173  1  0.47482234  0.99511323  0.62398597  1
  O2-  O174  1  0.81707156  0.32334475  0.12437544  1
  O2-  O175  1  0.80816196  0.32666806  0.62649729  1
  O2-  O176  1  0.80862609  0.65730263  0.12591626  1
  O2-  O177  1  0.80780449  0.66583058  0.62240585  1
  O2-  O178  1  0.80667496  0.99129971  0.12547414  1
  O2-  O179  1  0.80321037  0.99243780  0.62429478  1
  O2-  O180  1  0.31520639  0.16920711  0.37408363  1
  O2-  O181  1  0.30259871  0.17225554  0.87552682  1
  O2-  O182  1  0.30909152  0.50578928  0.37474643  1
  O2-  O183  1  0.30869550  0.50903455  0.87436676  1
  O2-  O184  1  0.30755987  0.84091258  0.37503177  1
  O2-  O185  1  0.30858195  0.83827452  0.87668616  1
  O2-  O186  1  0.64194367  0.17249018  0.37298124  1
  O2-  O187  1  0.64378860  0.17163779  0.87703191  1
  O2-  O188  1  0.64199345  0.50429265  0.37267125  1
  O2-  O189  1  0.64205285  0.50691332  0.87589215  1
  O2-  O190  1  0.64186957  0.83991423  0.37421832  1
  O2-  O191  1  0.64820960  0.83719266  0.87578917  1
  O2-  O192  1  0.97483488  0.17001647  0.37666378  1
  O2-  O193  1  0.97310678  0.16841495  0.87373781  1
  O2-  O194  1  0.97661543  0.50468411  0.37412481  1
  O2-  O195  1  0.97550722  0.50461002  0.87575364  1
  O2-  O196  1  0.97392600  0.84279767  0.37454975  1
  O2-  O197  1  0.97231074  0.83938454  0.87426157  1
  O2-  O198  1  0.19028638  0.00167905  0.37555502  1
  O2-  O199  1  0.18980349  0.00390243  0.87484553  1
  O2-  O200  1  0.18968803  0.33912856  0.37566755  1
  O2-  O201  1  0.19087071  0.34051805  0.87515259  1
  O2-  O202  1  0.19300248  0.66862671  0.37488347  1
  O2-  O203  1  0.19350440  0.67103132  0.87660970  1
  O2-  O204  1  0.52623546  0.00438685  0.37350682  1
  O2-  O205  1  0.52426914  0.00326105  0.87732571  1
  O2-  O206  1  0.52521320  0.33734214  0.37083523  1
  O2-  O207  1  0.52503308  0.33903003  0.87697731  1
  O2-  O208  1  0.52490266  0.67046397  0.37395517  1
  O2-  O209  1  0.52262514  0.66614241  0.87728307  1
  O2-  O210  1  0.85932810  0.00769386  0.37660135  1
  O2-  O211  1  0.85776429  0.00519195  0.87359641  1
  O2-  O212  1  0.85710241  0.33743340  0.37425882  1
  O2-  O213  1  0.85876206  0.33884505  0.87536093  1
  O2-  O214  1  0.86142025  0.67369937  0.37425328  1
  O2-  O215  1  0.85835723  0.67358068  0.87612771  1
  O2-  O216  1  0.24214597  0.08846258  0.01948208  1
  O2-  O217  1  0.23926047  0.09314763  0.52269264  1
  O2-  O218  1  0.24031153  0.42818044  0.01258820  1
  O2-  O219  1  0.23877600  0.42820479  0.52068437  1
  O2-  O220  1  0.23586698  0.76193716  0.01742681  1
  O2-  O221  1  0.23380066  0.76222637  0.51632524  1
  O2-  O222  1  0.57070827  0.09473520  0.01817011  1
  O2-  O223  1  0.57392114  0.09396902  0.51385300  1
  O2-  O224  1  0.57030811  0.43255689  0.01845493  1
  O2-  O225  1  0.56935403  0.42689502  0.51777600  1
  O2-  O226  1  0.57234674  0.76033549  0.02048633  1
  O2-  O227  1  0.56756171  0.76275724  0.51593700  1
  O2-  O228  1  0.90113248  0.09638087  0.02004520  1
  O2-  O229  1  0.90416290  0.09645986  0.52402851  1
  O2-  O230  1  0.90276559  0.42893270  0.02024708  1
  O2-  O231  1  0.90868841  0.42461371  0.51713258  1
  O2-  O232  1  0.90324578  0.76283390  0.02242986  1
  O2-  O233  1  0.90433052  0.76267936  0.52063704  1
  O2-  O234  1  0.26487650  0.26128450  0.23318644  1
  O2-  O235  1  0.26318050  0.26352249  0.73140960  1
  O2-  O236  1  0.26667085  0.59624317  0.23150800  1
  O2-  O237  1  0.26358506  0.59533941  0.72650820  1
  O2-  O238  1  0.26247147  0.92451604  0.22891837  1
  O2-  O239  1  0.26109996  0.92723759  0.73022154  1
  O2-  O240  1  0.59201009  0.25924657  0.22969578  1
  O2-  O241  1  0.59825884  0.26212999  0.73495529  1
  O2-  O242  1  0.59942316  0.59784689  0.23081144  1
  O2-  O243  1  0.59494756  0.59562678  0.72889893  1
  O2-  O244  1  0.59600764  0.92807707  0.22694979  1
  O2-  O245  1  0.59672868  0.92578114  0.72869163  1
  O2-  O246  1  0.92953150  0.26393035  0.23610353  1
  O2-  O247  1  0.93314566  0.26165265  0.73206598  1
  O2-  O248  1  0.92884197  0.59627249  0.23134001  1
  O2-  O249  1  0.93001080  0.59779687  0.73335702  1
  O2-  O250  1  0.92950934  0.93126701  0.23207191  1
  O2-  O251  1  0.92629592  0.92956051  0.72744883  1
  O2-  O252  1  0.08992487  0.24249222  0.26888517  1
  O2-  O253  1  0.09398857  0.23640443  0.77403322  1
  O2-  O254  1  0.09608417  0.57236112  0.26910053  1
  O2-  O255  1  0.09649867  0.57138904  0.77009384  1
  O2-  O256  1  0.09410678  0.90400767  0.27067208  1
  O2-  O257  1  0.09338379  0.90460121  0.77111713  1
  O2-  O258  1  0.42854619  0.23760696  0.26874438  1
  O2-  O259  1  0.42529418  0.23972623  0.77550505  1
  O2-  O260  1  0.42923177  0.57228381  0.27138548  1
  O2-  O261  1  0.42954821  0.57078263  0.76928685  1
  O2-  O262  1  0.42911200  0.90617290  0.26975990  1
  O2-  O263  1  0.42465994  0.90803655  0.76675171  1
  O2-  O264  1  0.75928471  0.24058342  0.27103742  1
  O2-  O265  1  0.76077311  0.23956900  0.77262097  1
  O2-  O266  1  0.76236128  0.57372850  0.27434381  1
  O2-  O267  1  0.76028415  0.57307749  0.77251512  1
  O2-  O268  1  0.76185614  0.90793687  0.27376599  1
  O2-  O269  1  0.76153744  0.90409812  0.76862127  1
  O2-  O270  1  0.06756197  0.06989607  0.48402748  1
  O2-  O271  1  0.06704078  0.07069874  0.98329586  1
  O2-  O272  1  0.07418421  0.40642866  0.47977100  1
  O2-  O273  1  0.07242282  0.40442484  0.98010216  1
  O2-  O274  1  0.07137617  0.73564652  0.47723844  1
  O2-  O275  1  0.07154508  0.73920989  0.97865533  1
  O2-  O276  1  0.40716028  0.07058611  0.48059492  1
  O2-  O277  1  0.40478934  0.07403130  0.97765930  1
  O2-  O278  1  0.40454302  0.40449763  0.47767372  1
  O2-  O279  1  0.40658225  0.40741018  0.97574647  1
  O2-  O280  1  0.40589225  0.73893222  0.47568891  1
  O2-  O281  1  0.40438275  0.73812589  0.98285387  1
  O2-  O282  1  0.74016559  0.07435090  0.47602718  1
  O2-  O283  1  0.73887450  0.07112813  0.97695622  1
  O2-  O284  1  0.73909779  0.40571229  0.48035784  1
  O2-  O285  1  0.73929917  0.40702883  0.97717393  1
  O2-  O286  1  0.74051031  0.74035650  0.47543066  1
  O2-  O287  1  0.73990238  0.73895875  0.97848083  1
  O2-  O288  1  0.08993741  0.24314285  0.48083307  1
  O2-  O289  1  0.09565351  0.23760682  0.97596084  1
  O2-  O290  1  0.09987912  0.56991990  0.48308856  1
  O2-  O291  1  0.09508198  0.57386546  0.97806399  1
  O2-  O292  1  0.09403594  0.90421004  0.47964542  1
  O2-  O293  1  0.09345975  0.90497704  0.97888672  1
  O2-  O294  1  0.42802820  0.24054059  0.47886091  1
  O2-  O295  1  0.42647398  0.23759018  0.97789098  1
  O2-  O296  1  0.43070669  0.57098867  0.47833134  1
  O2-  O297  1  0.42816814  0.57258148  0.98027539  1
  O2-  O298  1  0.42983316  0.90653597  0.47837348  1
  O2-  O299  1  0.42306011  0.90805082  0.98452704  1
  O2-  O300  1  0.75979388  0.23954355  0.47812842  1
  O2-  O301  1  0.76121052  0.24066747  0.97896948  1
  O2-  O302  1  0.76228703  0.57440506  0.47568345  1
  O2-  O303  1  0.76124164  0.57399849  0.97643588  1
  O2-  O304  1  0.76254092  0.90619603  0.47877021  1
  O2-  O305  1  0.76130840  0.90657341  0.97835237  1
  O2-  O306  1  0.06771494  0.07133228  0.26527506  1
  O2-  O307  1  0.06690665  0.06906768  0.76769406  1
  O2-  O308  1  0.07073175  0.40763947  0.26945734  1
  O2-  O309  1  0.07394954  0.40438087  0.77016911  1
  O2-  O310  1  0.06866163  0.73847739  0.27212457  1
  O2-  O311  1  0.07208383  0.73800067  0.77195826  1
  O2-  O312  1  0.40837628  0.07066033  0.26980100  1
  O2-  O313  1  0.40241979  0.07429221  0.77186487  1
  O2-  O314  1  0.40645168  0.40588933  0.27314571  1
  O2-  O315  1  0.40346221  0.40664065  0.77324201  1
  O2-  O316  1  0.40530262  0.74005327  0.27302317  1
  O2-  O317  1  0.40334906  0.73744846  0.76761593  1
  O2-  O318  1  0.73958661  0.07289934  0.27327668  1
  O2-  O319  1  0.73904676  0.07272056  0.77344712  1
  O2-  O320  1  0.73991264  0.40675294  0.27172311  1
  O2-  O321  1  0.73765632  0.40696807  0.77132419  1
  O2-  O322  1  0.73991510  0.73938440  0.27386123  1
  O2-  O323  1  0.73912535  0.73953443  0.77136959  1
  O2-  O324  1  0.24449003  0.08828330  0.23080470  1
  O2-  O325  1  0.23745959  0.09376436  0.72769841  1
  O2-  O326  1  0.24071328  0.42727590  0.23635441  1
  O2-  O327  1  0.24023678  0.42963035  0.73001503  1
  O2-  O328  1  0.23391650  0.76132971  0.23490232  1
  O2-  O329  1  0.23592369  0.76327817  0.73261355  1
  O2-  O330  1  0.57060138  0.09544217  0.23106309  1
  O2-  O331  1  0.57363523  0.09404829  0.73737606  1
  O2-  O332  1  0.56909554  0.43172577  0.23008804  1
  O2-  O333  1  0.57130123  0.42852002  0.73276339  1
  O2-  O334  1  0.56839748  0.76270412  0.23312695  1
  O2-  O335  1  0.57089953  0.76100845  0.72999628  1
  O2-  O336  1  0.90227937  0.09639945  0.22935932  1
  O2-  O337  1  0.90453443  0.09720217  0.72650833  1
  O2-  O338  1  0.90441579  0.42945374  0.23155538  1
  O2-  O339  1  0.90820960  0.42551588  0.73145122  1
  O2-  O340  1  0.90235991  0.76364168  0.22749956  1
  O2-  O341  1  0.90479730  0.76258546  0.72881039  1
  O2-  O342  1  0.26538290  0.26403514  0.01972937  1
  O2-  O343  1  0.26152226  0.26392077  0.51613046  1
  O2-  O344  1  0.26503321  0.59688859  0.01973833  1
  O2-  O345  1  0.26350692  0.59626108  0.52259943  1
  O2-  O346  1  0.26011316  0.92362599  0.02062072  1
  O2-  O347  1  0.26236846  0.92822525  0.52125501  1
  O2-  O348  1  0.59150072  0.25897639  0.01754920  1
  O2-  O349  1  0.59798895  0.26304479  0.51665398  1
  O2-  O350  1  0.59846706  0.59733330  0.02004514  1
  O2-  O351  1  0.59507037  0.59680608  0.52030882  1
  O2-  O352  1  0.59679616  0.92521214  0.02233652  1
  O2-  O353  1  0.59554117  0.92852366  0.52210058  1
  O2-  O354  1  0.93335898  0.26462904  0.01346316  1
  O2-  O355  1  0.92902935  0.26113563  0.51923180  1
  O2-  O356  1  0.92891124  0.59909337  0.01623565  1
  O2-  O357  1  0.92940275  0.59637821  0.51819126  1
  O2-  O358  1  0.92864818  0.93179550  0.01822604  1
  O2-  O359  1  0.92620594  0.92986745  0.52207314  1
