# generated using pymatgen
data_Sr7Ca15Pr50Mn72O216
_symmetry_space_group_name_H-M   'P 1'
_cell_length_a   16.55853425
_cell_length_b   16.60565239
_cell_length_c   15.59414545
_cell_angle_alpha   89.99953922
_cell_angle_beta   89.99741823
_cell_angle_gamma   89.99728372
_symmetry_Int_Tables_number   1
_chemical_formula_structural   Sr7Ca15Pr50Mn72O216
_chemical_formula_sum   'Sr7 Ca15 Pr50 Mn72 O216'
_cell_volume   4287.84830916
_cell_formula_units_Z   1
loop_
 _symmetry_equiv_pos_site_id
 _symmetry_equiv_pos_as_xyz
  1  'x, y, z'
loop_
 _atom_type_symbol
 _atom_type_oxidation_number
  Sr2+  2.0
  Ca2+  2.0
  Pr3+  3.0
  Mn3.30+  3.3
  O2-  -2.0
loop_
 _atom_site_type_symbol
 _atom_site_label
 _atom_site_symmetry_multiplicity
 _atom_site_fract_x
 _atom_site_fract_y
 _atom_site_fract_z
 _atom_site_occupancy
  Sr2+  Sr0  1  0.83207617  0.82369467  0.37471428  1
  Sr2+  Sr1  1  0.16886680  0.82429668  0.87360244  1
  Sr2+  Sr2  1  0.16866026  0.51025000  0.12440207  1
  Sr2+  Sr3  1  0.33326469  0.98927339  0.87525481  1
  Sr2+  Sr4  1  0.17009155  0.84193381  0.62356006  1
  Sr2+  Sr5  1  0.49596755  0.48881341  0.37685756  1
  Sr2+  Sr6  1  0.16238397  0.81980863  0.37619621  1
  Ca2+  Ca7  1  0.33952613  0.31879013  0.37361649  1
  Ca2+  Ca8  1  0.83627665  0.18180803  0.62413499  1
  Ca2+  Ca9  1  1.00483528  0.31839225  0.87520849  1
  Ca2+  Ca10  1  0.50115263  0.17967599  0.62280309  1
  Ca2+  Ca11  1  0.33061702  0.68020567  0.62475998  1
  Ca2+  Ca12  1  0.50121315  0.51553408  0.62452474  1
  Ca2+  Ca13  1  0.33312496  0.65493681  0.87304050  1
  Ca2+  Ca14  1  0.66849567  0.98474612  0.37436766  1
  Ca2+  Ca15  1  0.49699958  0.15425574  0.37735285  1
  Ca2+  Ca16  1  0.49666047  0.81835794  0.37546396  1
  Ca2+  Ca17  1  0.32730264  0.34913213  0.12650319  1
  Ca2+  Ca18  1  1.00534877  0.65390401  0.37398315  1
  Ca2+  Ca19  1  -0.00199713  0.01383368  0.12639928  1
  Ca2+  Ca20  1  0.00068870  0.68011609  0.12766950  1
  Ca2+  Ca21  1  0.33710898  0.31827881  0.87633539  1
  Pr3+  Pr22  1  0.66770041  0.65591987  0.37513915  1
  Pr3+  Pr23  1  -0.00078294  0.68131008  0.62400823  1
  Pr3+  Pr24  1  0.83528572  0.84661897  0.62305854  1
  Pr3+  Pr25  1  0.33307468  0.34425712  0.62496447  1
  Pr3+  Pr26  1  0.16813639  0.48536109  0.87518517  1
  Pr3+  Pr27  1  0.83595849  0.51346539  0.62543357  1
  Pr3+  Pr28  1  0.49770618  0.51050379  0.12661495  1
  Pr3+  Pr29  1  0.83183720  0.48551949  0.87454183  1
  Pr3+  Pr30  1  -0.00019181  0.34718459  0.12347906  1
  Pr3+  Pr31  1  0.49496281  0.15293028  0.87299357  1
  Pr3+  Pr32  1  0.49128350  0.81821532  0.87498186  1
  Pr3+  Pr33  1  0.84018192  0.51654912  0.12454860  1
  Pr3+  Pr34  1  1.00612370  0.98763876  0.87640819  1
  Pr3+  Pr35  1  0.50037020  0.17996791  0.12599797  1
  Pr3+  Pr36  1  0.50222742  0.84608207  0.12821594  1
  Pr3+  Pr37  1  1.00752279  0.65603153  0.87547623  1
  Pr3+  Pr38  1  1.00304348  0.32314822  0.37494502  1
  Pr3+  Pr39  1  0.83253525  0.15507350  0.87307047  1
  Pr3+  Pr40  1  0.16645492  0.84340382  0.12595122  1
  Pr3+  Pr41  1  0.66169382  0.01535436  0.62154468  1
  Pr3+  Pr42  1  1.00291848  0.98653745  0.37333105  1
  Pr3+  Pr43  1  0.16586600  0.15580817  0.87484951  1
  Pr3+  Pr44  1  -0.00257757  0.34571559  0.62627188  1
  Pr3+  Pr45  1  0.17113446  0.18108808  0.12552820  1
  Pr3+  Pr46  1  0.66343874  0.34608240  0.12468991  1
  Pr3+  Pr47  1  0.16602983  0.15530670  0.37529397  1
  Pr3+  Pr48  1  0.17072565  0.17692812  0.62468902  1
  Pr3+  Pr49  1  0.66051309  0.34632769  0.62483605  1
  Pr3+  Pr50  1  0.83061399  0.49179032  0.37529244  1
  Pr3+  Pr51  1  0.83163168  0.82158677  0.87524183  1
  Pr3+  Pr52  1  0.49242669  0.48499562  0.87328426  1
  Pr3+  Pr53  1  0.33138406  0.01104472  0.62437339  1
  Pr3+  Pr54  1  0.66293327  0.67943935  0.62382874  1
  Pr3+  Pr55  1  0.82692288  0.15280967  0.37640301  1
  Pr3+  Pr56  1  0.33074625  0.01174444  0.12589043  1
  Pr3+  Pr57  1  0.33512644  0.65523878  0.37801839  1
  Pr3+  Pr58  1  0.83894170  0.84883303  0.12707779  1
  Pr3+  Pr59  1  0.83734327  0.17882197  0.12574153  1
  Pr3+  Pr60  1  0.66827538  0.98791638  0.87497550  1
  Pr3+  Pr61  1  0.66424241  0.01253030  0.12829970  1
  Pr3+  Pr62  1  0.50062135  0.84381354  0.62164093  1
  Pr3+  Pr63  1  0.66727283  0.31928847  0.87435333  1
  Pr3+  Pr64  1  0.33704116  0.98408724  0.37518736  1
  Pr3+  Pr65  1  -0.00215211  0.01242083  0.62357710  1
  Pr3+  Pr66  1  0.16662151  0.49059814  0.37473946  1
  Pr3+  Pr67  1  0.66399257  0.67999318  0.12616693  1
  Pr3+  Pr68  1  0.17147342  0.51473336  0.62567343  1
  Pr3+  Pr69  1  0.66853748  0.65322037  0.87492200  1
  Pr3+  Pr70  1  0.66628858  0.32258521  0.37541436  1
  Pr3+  Pr71  1  0.32786131  0.67576930  0.12582020  1
  Mn3.30+  Mn72  1  0.16522964  -0.00012678  0.00211026  1
  Mn3.30+  Mn73  1  0.16711392  -0.00040776  0.49957261  1
  Mn3.30+  Mn74  1  0.16897018  0.33312027  -0.00169512  1
  Mn3.30+  Mn75  1  0.16908777  0.33341603  0.49927329  1
  Mn3.30+  Mn76  1  0.16745703  0.66622128  -0.00045266  1
  Mn3.30+  Mn77  1  0.16748497  0.66672106  0.50036479  1
  Mn3.30+  Mn78  1  0.49949394  -0.00055479  0.00137035  1
  Mn3.30+  Mn79  1  0.50086055  0.00100937  0.49658027  1
  Mn3.30+  Mn80  1  0.49590002  0.33344607  0.00136096  1
  Mn3.30+  Mn81  1  0.49751142  0.33227525  0.49929900  1
  Mn3.30+  Mn82  1  0.49788482  0.66515138  0.00021162  1
  Mn3.30+  Mn83  1  0.49864875  0.66626277  0.50117336  1
  Mn3.30+  Mn84  1  0.83575403  0.00130027  0.00012777  1
  Mn3.30+  Mn85  1  0.82997848  0.00132902  0.49970607  1
  Mn3.30+  Mn86  1  0.83463466  0.33303588  -0.00182238  1
  Mn3.30+  Mn87  1  0.83239302  0.33316649  0.50105396  1
  Mn3.30+  Mn88  1  0.83617611  0.66820187  0.00019924  1
  Mn3.30+  Mn89  1  0.83446661  0.66747908  0.49796410  1
  Mn3.30+  Mn90  1  -0.00016695  0.16715105  0.25038812  1
  Mn3.30+  Mn91  1  -0.00090810  0.16824921  0.74895845  1
  Mn3.30+  Mn92  1  0.00042362  0.50313160  0.24971182  1
  Mn3.30+  Mn93  1  0.00165989  0.49922349  0.75156290  1
  Mn3.30+  Mn94  1  0.00055446  0.83136688  0.25035358  1
  Mn3.30+  Mn95  1  0.00077143  0.83446897  0.74917502  1
  Mn3.30+  Mn96  1  0.33547707  0.16832174  0.25180587  1
  Mn3.30+  Mn97  1  0.33542829  0.16734261  0.74911946  1
  Mn3.30+  Mn98  1  0.33242889  0.49744913  0.25120002  1
  Mn3.30+  Mn99  1  0.33521084  0.50072124  0.74845446  1
  Mn3.30+  Mn100  1  0.33415934  0.83136889  0.25152848  1
  Mn3.30+  Mn101  1  0.33350876  0.83100311  0.74965542  1
  Mn3.30+  Mn102  1  0.66442717  0.16631684  0.25258096  1
  Mn3.30+  Mn103  1  0.66590609  0.16721105  0.74656182  1
  Mn3.30+  Mn104  1  0.66630536  0.50013245  0.24940681  1
  Mn3.30+  Mn105  1  0.66367178  0.49994159  0.74987859  1
  Mn3.30+  Mn106  1  0.66703912  0.83420002  0.25240322  1
  Mn3.30+  Mn107  1  0.66508412  0.83378419  0.75009061  1
  Mn3.30+  Mn108  1  0.16567897  -0.00020165  0.24908268  1
  Mn3.30+  Mn109  1  0.16717722  -0.00053240  0.74945864  1
  Mn3.30+  Mn110  1  0.17053817  0.33461770  0.25153088  1
  Mn3.30+  Mn111  1  0.16711846  0.33227421  0.75105096  1
  Mn3.30+  Mn112  1  0.16401829  0.66577852  0.24958746  1
  Mn3.30+  Mn113  1  0.17123888  0.66751890  0.75095958  1
  Mn3.30+  Mn114  1  0.50075914  0.00063081  0.25429252  1
  Mn3.30+  Mn115  1  0.49953475  -0.00025489  0.74772558  1
  Mn3.30+  Mn116  1  0.49602627  0.33289501  0.25070234  1
  Mn3.30+  Mn117  1  0.49784238  0.33260818  0.74870395  1
  Mn3.30+  Mn118  1  0.49858400  0.66635127  0.25120316  1
  Mn3.30+  Mn119  1  0.49746866  0.66518734  0.74845120  1
  Mn3.30+  Mn120  1  0.83267809  0.00071167  0.25086856  1
  Mn3.30+  Mn121  1  0.83293650  0.00199463  0.74866591  1
  Mn3.30+  Mn122  1  0.83335256  0.33455063  0.25017720  1
  Mn3.30+  Mn123  1  0.83359794  0.33193913  0.74986128  1
  Mn3.30+  Mn124  1  0.83645176  0.66841937  0.25117115  1
  Mn3.30+  Mn125  1  0.83405279  0.66708767  0.75057421  1
  Mn3.30+  Mn126  1  0.00088072  0.16742596  0.00042787  1
  Mn3.30+  Mn127  1  -0.00230412  0.16773814  0.49983512  1
  Mn3.30+  Mn128  1  0.00153878  0.50074589  -0.00091896  1
  Mn3.30+  Mn129  1  0.00063105  0.50162827  0.49992303  1
  Mn3.30+  Mn130  1  0.00067600  0.83284620  0.00155358  1
  Mn3.30+  Mn131  1  0.00025914  0.83277731  0.49857155  1
  Mn3.30+  Mn132  1  0.33375971  0.16873326  0.00082930  1
  Mn3.30+  Mn133  1  0.33709270  0.16742282  0.49867070  1
  Mn3.30+  Mn134  1  0.33242207  0.49900067  -0.00172542  1
  Mn3.30+  Mn135  1  0.33551898  0.49897042  0.50254465  1
  Mn3.30+  Mn136  1  0.33321861  0.83159663  -0.00004233  1
  Mn3.30+  Mn137  1  0.33437703  0.83114765  0.49904614  1
  Mn3.30+  Mn138  1  0.66642368  0.16610295  0.00024328  1
  Mn3.30+  Mn139  1  0.66373585  0.16702151  0.49938275  1
  Mn3.30+  Mn140  1  0.66596440  0.49993869  0.00003041  1
  Mn3.30+  Mn141  1  0.66360448  0.50011378  0.50059370  1
  Mn3.30+  Mn142  1  0.66610326  0.83350349  0.00043005  1
  Mn3.30+  Mn143  1  0.66620913  0.83462162  0.49705540  1
  O2-  O144  1  0.02540842  0.16153575  0.12854348  1
  O2-  O145  1  0.02636747  0.16121710  0.62425586  1
  O2-  O146  1  0.01942898  0.49243052  0.12385743  1
  O2-  O147  1  0.02618307  0.49260661  0.62832733  1
  O2-  O148  1  0.02243188  0.82479637  0.12597380  1
  O2-  O149  1  0.01809313  0.83015443  0.62331104  1
  O2-  O150  1  0.35784184  0.15801174  0.12658327  1
  O2-  O151  1  0.35901665  0.15900737  0.62257881  1
  O2-  O152  1  0.35453215  0.49429042  0.12358757  1
  O2-  O153  1  0.36122852  0.48884335  0.62569872  1
  O2-  O154  1  0.35899665  0.82507012  0.12685331  1
  O2-  O155  1  0.35759711  0.82876192  0.62299266  1
  O2-  O156  1  0.69357279  0.16153951  0.12593390  1
  O2-  O157  1  0.69491922  0.16275152  0.62286990  1
  O2-  O158  1  0.69446611  0.49429168  0.12307514  1
  O2-  O159  1  0.69215672  0.49550755  0.62640808  1
  O2-  O160  1  0.69296084  0.82823159  0.12489814  1
  O2-  O161  1  0.69132220  0.82705128  0.62416196  1
  O2-  O162  1  0.14256266  0.32918966  0.12416853  1
  O2-  O163  1  0.14067487  0.32689463  0.62489235  1
  O2-  O164  1  0.14314241  0.66484751  0.12450798  1
  O2-  O165  1  0.14210621  0.66155993  0.62576038  1
  O2-  O166  1  0.14066590  0.99529894  0.12629867  1
  O2-  O167  1  0.14394445  1.00427943  0.62373464  1
  O2-  O168  1  0.47024024  0.32676035  0.12528201  1
  O2-  O169  1  0.47552743  0.32248775  0.62436190  1
  O2-  O170  1  0.47367627  0.66003872  0.12480281  1
  O2-  O171  1  0.47545432  0.66407395  0.62534855  1
  O2-  O172  1  0.47504932  0.99422858  0.12861040  1
  O2-  O173  1  0.47444881  0.99125116  0.62109420  1
  O2-  O174  1  0.80833299  0.32778352  0.12303090  1
  O2-  O175  1  0.80658043  0.32924144  0.62457033  1
  O2-  O176  1  0.80737621  0.66344961  0.12350890  1
  O2-  O177  1  0.80738781  0.66229355  0.62562289  1
  O2-  O178  1  0.80801297  0.99875083  0.12377639  1
  O2-  O179  1  0.80533949  0.99321715  0.62379229  1
  O2-  O180  1  0.30832782  0.17315269  0.37449982  1
  O2-  O181  1  0.31043216  0.17205000  0.87669235  1
  O2-  O182  1  0.30996322  0.50774090  0.37906019  1
  O2-  O183  1  0.31163542  0.50993875  0.87211406  1
  O2-  O184  1  0.31186817  0.83616769  0.37386913  1
  O2-  O185  1  0.31859646  0.83654024  0.87681504  1
  O2-  O186  1  0.63815595  0.17714828  0.37486791  1
  O2-  O187  1  0.63972896  0.17024747  0.87475799  1
  O2-  O188  1  0.64725500  0.50694495  0.37508258  1
  O2-  O189  1  0.63877511  0.50539782  0.87557963  1
  O2-  O190  1  0.64007655  0.83687091  0.37461110  1
  O2-  O191  1  0.63800873  0.84000937  0.87615995  1
  O2-  O192  1  0.97184192  0.17589271  0.37433185  1
  O2-  O193  1  0.97559821  0.17339649  0.87243395  1
  O2-  O194  1  0.97429895  0.50578396  0.37425807  1
  O2-  O195  1  0.97418379  0.50958620  0.87425281  1
  O2-  O196  1  0.98026282  0.84094387  0.37505507  1
  O2-  O197  1  0.97484997  0.83989248  0.87513132  1
  O2-  O198  1  0.19095028  0.00616535  0.37365007  1
  O2-  O199  1  0.18340940  0.00673256  0.87609364  1
  O2-  O200  1  0.19501756  0.34009879  0.37824672  1
  O2-  O201  1  0.19514636  0.33465895  0.87362026  1
  O2-  O202  1  0.18999930  0.66219060  0.37600989  1
  O2-  O203  1  0.19109978  0.66878184  0.87433856  1
  O2-  O204  1  0.52816426  0.01110565  0.37505733  1
  O2-  O205  1  0.52482063  0.00476886  0.87483056  1
  O2-  O206  1  0.52462756  0.33790716  0.37445080  1
  O2-  O207  1  0.52502589  0.33808100  0.87555130  1
  O2-  O208  1  0.52393902  0.67069300  0.37496183  1
  O2-  O209  1  0.52593744  0.67118610  0.87562807  1
  O2-  O210  1  0.85899383  0.00649172  0.37641845  1
  O2-  O211  1  0.86133773  0.00679157  0.87534179  1
  O2-  O212  1  0.85864414  0.34152599  0.37658755  1
  O2-  O213  1  0.86095014  0.33762851  0.87522248  1
  O2-  O214  1  0.86072240  0.66369090  0.37522454  1
  O2-  O215  1  0.86169478  0.67408073  0.87560683  1
  O2-  O216  1  0.23961368  0.09469075  0.02081249  1
  O2-  O217  1  0.23996598  0.09527960  0.51695304  1
  O2-  O218  1  0.23754945  0.42883161  0.01130933  1
  O2-  O219  1  0.23807799  0.42766362  0.52341256  1
  O2-  O220  1  0.23960503  0.75961310  0.02306000  1
  O2-  O221  1  0.24143188  0.75616476  0.51454097  1
  O2-  O222  1  0.57380909  0.09376723  0.02177716  1
  O2-  O223  1  0.57133281  0.09584958  0.52472772  1
  O2-  O224  1  0.56833961  0.42491450  0.02261308  1
  O2-  O225  1  0.57022341  0.42655524  0.52347460  1
  O2-  O226  1  0.56901940  0.75908176  0.02206379  1
  O2-  O227  1  0.57440075  0.75909598  0.52069616  1
  O2-  O228  1  0.90233664  0.09785181  0.01739954  1
  O2-  O229  1  0.90139223  0.09547732  0.52119069  1
  O2-  O230  1  0.90433633  0.42993911  0.01811731  1
  O2-  O231  1  0.90613922  0.42908356  0.52135132  1
  O2-  O232  1  0.90108145  0.76678120  0.01644775  1
  O2-  O233  1  0.90420537  0.76039261  0.52165476  1
  O2-  O234  1  0.26241919  0.25950509  0.22787534  1
  O2-  O235  1  0.25974030  0.25902553  0.72659836  1
  O2-  O236  1  0.26161059  0.59546366  0.23501579  1
  O2-  O237  1  0.26327938  0.59233654  0.72522891  1
  O2-  O238  1  0.26292711  0.92557547  0.22958439  1
  O2-  O239  1  0.26253941  0.92699472  0.73176760  1
  O2-  O240  1  0.59483306  0.26175230  0.22724122  1
  O2-  O241  1  0.59667021  0.26452572  0.73326125  1
  O2-  O242  1  0.59418350  0.59326461  0.22884339  1
  O2-  O243  1  0.59741930  0.59780216  0.73213823  1
  O2-  O244  1  0.59397306  0.92705305  0.22829001  1
  O2-  O245  1  0.59543457  0.92985035  0.72846675  1
  O2-  O246  1  0.92960073  0.26240402  0.22894710  1
  O2-  O247  1  0.92946306  0.26097478  0.72798923  1
  O2-  O248  1  0.92750450  0.59533055  0.22555876  1
  O2-  O249  1  0.92874419  0.59488465  0.72863184  1
  O2-  O250  1  0.92921205  0.92912377  0.22980663  1
  O2-  O251  1  0.92484163  0.93014166  0.72873185  1
  O2-  O252  1  0.09592630  0.24125852  0.27148329  1
  O2-  O253  1  0.09701035  0.23655735  0.76769211  1
  O2-  O254  1  0.09385509  0.57099709  0.27072584  1
  O2-  O255  1  0.09781912  0.57189903  0.77018205  1
  O2-  O256  1  0.09289459  0.90605445  0.26602347  1
  O2-  O257  1  0.08911485  0.91046009  0.76684043  1
  O2-  O258  1  0.43319894  0.23275822  0.26838542  1
  O2-  O259  1  0.42896119  0.23826858  0.76981102  1
  O2-  O260  1  0.42441675  0.57105823  0.26543104  1
  O2-  O261  1  0.43237691  0.56924048  0.76715680  1
  O2-  O262  1  0.43074998  0.90432402  0.27133554  1
  O2-  O263  1  0.43149230  0.90085830  0.76341245  1
  O2-  O264  1  0.75998966  0.23892592  0.27066023  1
  O2-  O265  1  0.76039798  0.24019641  0.77268579  1
  O2-  O266  1  0.76364064  0.57430113  0.26753031  1
  O2-  O267  1  0.76266081  0.57264918  0.77196536  1
  O2-  O268  1  0.76007318  0.90712202  0.26396447  1
  O2-  O269  1  0.75983853  0.90560762  0.77158859  1
  O2-  O270  1  0.06956223  0.07532580  0.47807521  1
  O2-  O271  1  0.07127667  0.07538778  0.97976158  1
  O2-  O272  1  0.07253622  0.40606934  0.47927784  1
  O2-  O273  1  0.07253266  0.40262666  0.97766742  1
  O2-  O274  1  0.06852288  0.73505511  0.48470693  1
  O2-  O275  1  0.07168754  0.73776622  0.98190724  1
  O2-  O276  1  0.40267845  0.06847703  0.47995881  1
  O2-  O277  1  0.40795341  0.07409807  0.98427243  1
  O2-  O278  1  0.40088492  0.39869935  0.48308394  1
  O2-  O279  1  0.40421140  0.40486203  0.97601620  1
  O2-  O280  1  0.40812794  0.73996476  0.48017208  1
  O2-  O281  1  0.40483891  0.73397936  0.97976266  1
  O2-  O282  1  0.73419187  0.07220812  0.47602574  1
  O2-  O283  1  0.73983441  0.07151152  0.97803559  1
  O2-  O284  1  0.73807625  0.40697562  0.48040865  1
  O2-  O285  1  0.73795606  0.40508250  0.97729194  1
  O2-  O286  1  0.73757774  0.73636324  0.48140094  1
  O2-  O287  1  0.73819565  0.73899781  0.97820144  1
  O2-  O288  1  0.09597175  0.24082603  0.47835962  1
  O2-  O289  1  0.09893077  0.23728181  0.98280931  1
  O2-  O290  1  0.09622996  0.56944107  0.48498419  1
  O2-  O291  1  0.09527505  0.57207124  0.97596452  1
  O2-  O292  1  0.08973570  0.91101228  0.48289529  1
  O2-  O293  1  0.09131801  0.90573919  0.98372869  1
  O2-  O294  1  0.43006456  0.23559305  0.47932031  1
  O2-  O295  1  0.43160450  0.23626716  0.98131158  1
  O2-  O296  1  0.42484468  0.57491607  0.48241213  1
  O2-  O297  1  0.43238873  0.56676129  0.98488996  1
  O2-  O298  1  0.43121455  0.90527157  0.47684116  1
  O2-  O299  1  0.43140814  0.90162089  0.98740544  1
  O2-  O300  1  0.75868534  0.23998964  0.47645926  1
  O2-  O301  1  0.76094836  0.23812310  0.97826434  1
  O2-  O302  1  0.76216989  0.57340238  0.48212261  1
  O2-  O303  1  0.76510333  0.57448236  0.97781422  1
  O2-  O304  1  0.75930720  0.90654303  0.48397232  1
  O2-  O305  1  0.76391791  0.90845742  0.97858653  1
  O2-  O306  1  0.07136953  0.07632635  0.27410391  1
  O2-  O307  1  0.06996889  0.07460193  0.76906213  1
  O2-  O308  1  0.07140691  0.40680665  0.27045976  1
  O2-  O309  1  0.07237418  0.40319561  0.77349342  1
  O2-  O310  1  0.06956409  0.73578305  0.26871349  1
  O2-  O311  1  0.07047384  0.73682832  0.76494571  1
  O2-  O312  1  0.40191849  0.06861807  0.26841423  1
  O2-  O313  1  0.40849193  0.07185295  0.76733989  1
  O2-  O314  1  0.40311055  0.40182838  0.26827329  1
  O2-  O315  1  0.40247362  0.40221295  0.77143066  1
  O2-  O316  1  0.40379820  0.73659535  0.26903911  1
  O2-  O317  1  0.40714967  0.73675570  0.77156992  1
  O2-  O318  1  0.73575440  0.07329949  0.27246590  1
  O2-  O319  1  0.73890299  0.07173757  0.77136833  1
  O2-  O320  1  0.73854586  0.40661307  0.26972195  1
  O2-  O321  1  0.73704301  0.40619076  0.77196452  1
  O2-  O322  1  0.73688358  0.73652376  0.26794322  1
  O2-  O323  1  0.73772907  0.73939327  0.77215151  1
  O2-  O324  1  0.23880929  0.09489828  0.23037758  1
  O2-  O325  1  0.24068856  0.09448823  0.73181280  1
  O2-  O326  1  0.23793572  0.42913491  0.23649551  1
  O2-  O327  1  0.23752907  0.42776770  0.73037513  1
  O2-  O328  1  0.23800265  0.75853313  0.22971403  1
  O2-  O329  1  0.24199978  0.75869242  0.73195853  1
  O2-  O330  1  0.57294562  0.09394491  0.22553439  1
  O2-  O331  1  0.57253852  0.09557943  0.72709278  1
  O2-  O332  1  0.57191902  0.42398429  0.22593499  1
  O2-  O333  1  0.56791413  0.42790125  0.72868207  1
  O2-  O334  1  0.57441911  0.75953605  0.22816673  1
  O2-  O335  1  0.57109242  0.76154029  0.72987993  1
  O2-  O336  1  0.90247746  0.09756427  0.23343126  1
  O2-  O337  1  0.90498933  0.09701928  0.72698630  1
  O2-  O338  1  0.90592074  0.42992955  0.23039525  1
  O2-  O339  1  0.90329989  0.42790788  0.73006035  1
  O2-  O340  1  0.90327281  0.76324744  0.23036643  1
  O2-  O341  1  0.90341787  0.76269387  0.73099627  1
  O2-  O342  1  0.26226010  0.26076191  0.02433471  1
  O2-  O343  1  0.26083425  0.25826447  0.52341241  1
  O2-  O344  1  0.26363358  0.59499696  0.01677883  1
  O2-  O345  1  0.26182856  0.59226152  0.52339775  1
  O2-  O346  1  0.25913317  0.92491285  0.02362917  1
  O2-  O347  1  0.26548343  0.92831423  0.51563630  1
  O2-  O348  1  0.59421988  0.26197188  0.02096860  1
  O2-  O349  1  0.59719560  0.26468470  0.51799423  1
  O2-  O350  1  0.59530461  0.59527328  0.02141390  1
  O2-  O351  1  0.59530338  0.59594596  0.51881489  1
  O2-  O352  1  0.59597426  0.92857281  0.02226365  1
  O2-  O353  1  0.59286085  0.92778213  0.52164788  1
  O2-  O354  1  0.92918583  0.26029046  0.02272511  1
  O2-  O355  1  0.92988567  0.26352434  0.51923748  1
  O2-  O356  1  0.92896630  0.59906242  0.02118165  1
  O2-  O357  1  0.92639925  0.59332738  0.52513313  1
  O2-  O358  1  0.92827278  0.93155940  0.02257880  1
  O2-  O359  1  0.92512807  0.92913831  0.51954855  1
