# generated using pymatgen
data_Sr7Ca15Pr50Mn72O216
_symmetry_space_group_name_H-M   'P 1'
_cell_length_a   16.55904177
_cell_length_b   16.60589616
_cell_length_c   15.59563073
_cell_angle_alpha   89.99846680
_cell_angle_beta   90.00444988
_cell_angle_gamma   90.00112032
_symmetry_Int_Tables_number   1
_chemical_formula_structural   Sr7Ca15Pr50Mn72O216
_chemical_formula_sum   'Sr7 Ca15 Pr50 Mn72 O216'
_cell_volume   4288.45109029
_cell_formula_units_Z   1
loop_
 _symmetry_equiv_pos_site_id
 _symmetry_equiv_pos_as_xyz
  1  'x, y, z'
loop_
 _atom_type_symbol
 _atom_type_oxidation_number
  Sr2+  2.0
  Ca2+  2.0
  Pr3+  3.0
  Mn3.30+  3.3
  O2-  -2.0
loop_
 _atom_site_type_symbol
 _atom_site_label
 _atom_site_symmetry_multiplicity
 _atom_site_fract_x
 _atom_site_fract_y
 _atom_site_fract_z
 _atom_site_occupancy
  Sr2+  Sr0  1  0.83360982  0.15878887  0.37261974  1
  Sr2+  Sr1  1  0.50400198  0.50741733  0.12465085  1
  Sr2+  Sr2  1  0.50155733  0.82189578  0.37444150  1
  Sr2+  Sr3  1  0.99991727  0.32338178  0.37619144  1
  Sr2+  Sr4  1  0.50240935  0.15873527  0.87749751  1
  Sr2+  Sr5  1  0.66735657  0.33979927  0.12319916  1
  Sr2+  Sr6  1  0.49999850  0.50924919  0.62602764  1
  Ca2+  Ca7  1  0.67200905  0.31626749  0.87630707  1
  Ca2+  Ca8  1  0.33565357  0.32085842  0.37611661  1
  Ca2+  Ca9  1  -0.00740863  0.01954678  0.12657271  1
  Ca2+  Ca10  1  0.99915646  0.31813139  0.87569782  1
  Ca2+  Ca11  1  0.83223186  0.82177074  0.37257742  1
  Ca2+  Ca12  1  0.82805200  0.48050641  0.87642277  1
  Ca2+  Ca13  1  0.83760487  0.18157950  0.12261230  1
  Ca2+  Ca14  1  0.84042080  0.85123583  0.12777649  1
  Ca2+  Ca15  1  -0.00479596  0.34725502  0.62554562  1
  Ca2+  Ca16  1  0.83761210  0.84892823  0.62254265  1
  Ca2+  Ca17  1  0.33041190  0.01588916  0.12637055  1
  Ca2+  Ca18  1  0.32990304  0.34682974  0.62643315  1
  Ca2+  Ca19  1  0.99967264  0.98831103  0.37153341  1
  Ca2+  Ca20  1  0.83420566  0.51103245  0.12443141  1
  Ca2+  Ca21  1  0.83086852  0.15583285  0.87834268  1
  Pr3+  Pr22  1  0.66501324  0.67951499  0.62552396  1
  Pr3+  Pr23  1  0.83770910  0.18194861  0.62650029  1
  Pr3+  Pr24  1  0.50210018  0.17935410  0.62611605  1
  Pr3+  Pr25  1  0.33596430  0.98799935  0.37221543  1
  Pr3+  Pr26  1  0.83084948  0.48649620  0.37340346  1
  Pr3+  Pr27  1  0.33790510  0.99104201  0.87737796  1
  Pr3+  Pr28  1  0.50288285  0.17836347  0.12356877  1
  Pr3+  Pr29  1  0.49722845  0.48569598  0.37501214  1
  Pr3+  Pr30  1  0.33630187  0.65421916  0.87485599  1
  Pr3+  Pr31  1  0.33213789  0.67823080  0.12507674  1
  Pr3+  Pr32  1  0.16242860  0.82103268  0.87562360  1
  Pr3+  Pr33  1  0.16201767  0.15580249  0.87559084  1
  Pr3+  Pr34  1  0.67009437  0.32140852  0.37478022  1
  Pr3+  Pr35  1  -0.00408419  0.01280547  0.62398297  1
  Pr3+  Pr36  1  0.16836485  0.18321247  0.62496659  1
  Pr3+  Pr37  1  0.66334924  0.34477574  0.62706431  1
  Pr3+  Pr38  1  0.15875370  0.15335318  0.37419603  1
  Pr3+  Pr39  1  -0.00836832  0.34553518  0.12480382  1
  Pr3+  Pr40  1  0.49746836  0.15731061  0.37296956  1
  Pr3+  Pr41  1  -0.00707400  0.68146009  0.12551828  1
  Pr3+  Pr42  1  -0.00533088  0.68273386  0.62520066  1
  Pr3+  Pr43  1  0.33206883  0.67892053  0.62461255  1
  Pr3+  Pr44  1  1.00106591  0.65241595  0.87506941  1
  Pr3+  Pr45  1  1.00088644  0.65497655  0.37487607  1
  Pr3+  Pr46  1  0.83047184  0.82186980  0.87673128  1
  Pr3+  Pr47  1  0.66779881  0.67463228  0.12426978  1
  Pr3+  Pr48  1  0.66749877  0.01158695  0.62371979  1
  Pr3+  Pr49  1  0.50454492  0.84487141  0.12737906  1
  Pr3+  Pr50  1  0.15982136  0.48258944  0.87536125  1
  Pr3+  Pr51  1  0.67005313  0.65435879  0.37412502  1
  Pr3+  Pr52  1  0.83706384  0.51062501  0.62597885  1
  Pr3+  Pr53  1  0.16159640  0.82218713  0.37454223  1
  Pr3+  Pr54  1  0.49968713  0.48566623  0.87529968  1
  Pr3+  Pr55  1  0.33098684  0.01384414  0.62295253  1
  Pr3+  Pr56  1  0.16731395  0.51081810  0.12505658  1
  Pr3+  Pr57  1  0.16888443  0.84758055  0.62450066  1
  Pr3+  Pr58  1  0.66964576  0.01243246  0.12627334  1
  Pr3+  Pr59  1  0.67214297  0.64916097  0.87517071  1
  Pr3+  Pr60  1  0.67175944  0.99214023  0.87658747  1
  Pr3+  Pr61  1  0.67407369  0.98428083  0.37318236  1
  Pr3+  Pr62  1  0.33187766  0.34453540  0.12408704  1
  Pr3+  Pr63  1  0.16773548  0.50914747  0.62479860  1
  Pr3+  Pr64  1  0.99978689  0.99032913  0.87732265  1
  Pr3+  Pr65  1  0.16930204  0.85059092  0.12544433  1
  Pr3+  Pr66  1  0.16347244  0.48481342  0.37496106  1
  Pr3+  Pr67  1  0.16498692  0.17769734  0.12496426  1
  Pr3+  Pr68  1  0.33607610  0.31906904  0.87408454  1
  Pr3+  Pr69  1  0.50474182  0.84572680  0.62283380  1
  Pr3+  Pr70  1  0.50046371  0.82266672  0.87581693  1
  Pr3+  Pr71  1  0.33763795  0.65433050  0.37501394  1
  Mn3.30+  Mn72  1  0.16632177  0.00170774  0.00225180  1
  Mn3.30+  Mn73  1  0.16429778  0.00064551  0.49833252  1
  Mn3.30+  Mn74  1  0.16246008  0.33198105  -0.00023719  1
  Mn3.30+  Mn75  1  0.16729716  0.33320066  0.50059217  1
  Mn3.30+  Mn76  1  0.16487442  0.66642385  0.00036390  1
  Mn3.30+  Mn77  1  0.16613291  0.66664612  0.50037346  1
  Mn3.30+  Mn78  1  0.50065204  0.00018459  0.00264309  1
  Mn3.30+  Mn79  1  0.50053814  0.00061032  0.49792938  1
  Mn3.30+  Mn80  1  0.50269721  0.33275130  -0.00159686  1
  Mn3.30+  Mn81  1  0.49720509  0.33315154  0.50134948  1
  Mn3.30+  Mn82  1  0.50189153  0.66571942  0.00010462  1
  Mn3.30+  Mn83  1  0.50101512  0.66599557  0.50026384  1
  Mn3.30+  Mn84  1  0.83630589  0.00220086  0.00271011  1
  Mn3.30+  Mn85  1  0.83516223  -0.00080284  0.49715162  1
  Mn3.30+  Mn86  1  0.83287801  0.33273211  -0.00223007  1
  Mn3.30+  Mn87  1  0.83380533  0.33322383  0.50090881  1
  Mn3.30+  Mn88  1  0.83380570  0.66453087  -0.00002546  1
  Mn3.30+  Mn89  1  0.83395597  0.66895028  0.50019644  1
  Mn3.30+  Mn90  1  -0.00288865  0.16573135  0.25010132  1
  Mn3.30+  Mn91  1  -0.00218865  0.16957587  0.75102382  1
  Mn3.30+  Mn92  1  -0.00152374  0.50020255  0.24884182  1
  Mn3.30+  Mn93  1  -0.00263023  0.49615571  0.75229549  1
  Mn3.30+  Mn94  1  -0.00230285  0.83728777  0.25001161  1
  Mn3.30+  Mn95  1  -0.00204212  0.83483486  0.75001273  1
  Mn3.30+  Mn96  1  0.33077632  0.16813810  0.25053649  1
  Mn3.30+  Mn97  1  0.33331877  0.16781405  0.74929879  1
  Mn3.30+  Mn98  1  0.33329256  0.49849184  0.24980499  1
  Mn3.30+  Mn99  1  0.33187337  0.49890595  0.74992106  1
  Mn3.30+  Mn100  1  0.33369103  0.83452927  0.24882863  1
  Mn3.30+  Mn101  1  0.33373243  0.83486446  0.75050610  1
  Mn3.30+  Mn102  1  0.66832963  0.16636644  0.24865641  1
  Mn3.30+  Mn103  1  0.67000369  0.16631809  0.75183661  1
  Mn3.30+  Mn104  1  0.66723566  0.49861476  0.24752502  1
  Mn3.30+  Mn105  1  0.66891491  0.49654030  0.75180873  1
  Mn3.30+  Mn106  1  0.67271356  0.83175070  0.24846185  1
  Mn3.30+  Mn107  1  0.66934856  0.83421204  0.74958473  1
  Mn3.30+  Mn108  1  0.16429267  0.00119471  0.24810312  1
  Mn3.30+  Mn109  1  0.16637641  0.00144310  0.75079142  1
  Mn3.30+  Mn110  1  0.16587534  0.33208177  0.25064888  1
  Mn3.30+  Mn111  1  0.16329131  0.33326830  0.74919391  1
  Mn3.30+  Mn112  1  0.16575854  0.66734758  0.24940751  1
  Mn3.30+  Mn113  1  0.16557573  0.66578778  0.74997612  1
  Mn3.30+  Mn114  1  0.49988197  0.00002822  0.24871062  1
  Mn3.30+  Mn115  1  0.50100537  0.00082803  0.75061736  1
  Mn3.30+  Mn116  1  0.49942909  0.33287937  0.25042521  1
  Mn3.30+  Mn117  1  0.49996432  0.33254465  0.75039378  1
  Mn3.30+  Mn118  1  0.50128067  0.66519502  0.24921535  1
  Mn3.30+  Mn119  1  0.50166705  0.66634618  0.75027484  1
  Mn3.30+  Mn120  1  0.83770609  0.00072685  0.25028842  1
  Mn3.30+  Mn121  1  0.83400519  0.00070664  0.74974931  1
  Mn3.30+  Mn122  1  0.83223057  0.33258364  0.24768933  1
  Mn3.30+  Mn123  1  0.83412932  0.33270842  0.75368180  1
  Mn3.30+  Mn124  1  0.83418144  0.66797758  0.24926640  1
  Mn3.30+  Mn125  1  0.83362732  0.66607126  0.75050005  1
  Mn3.30+  Mn126  1  -0.00407504  0.16777515  -0.00101242  1
  Mn3.30+  Mn127  1  -0.00057456  0.16711786  0.49921519  1
  Mn3.30+  Mn128  1  -0.00497037  0.49824613  -0.00182265  1
  Mn3.30+  Mn129  1  0.00028600  0.49857967  0.50126852  1
  Mn3.30+  Mn130  1  -0.00205098  0.83594525  0.00263449  1
  Mn3.30+  Mn131  1  -0.00277588  0.83578619  0.49760391  1
  Mn3.30+  Mn132  1  0.33283490  0.16577212  0.00178621  1
  Mn3.30+  Mn133  1  0.33137592  0.17030944  0.49834916  1
  Mn3.30+  Mn134  1  0.33226321  0.49979308  -0.00064628  1
  Mn3.30+  Mn135  1  0.33311189  0.49757850  0.50102403  1
  Mn3.30+  Mn136  1  0.33328112  0.83549305  0.00144007  1
  Mn3.30+  Mn137  1  0.33404249  0.83389780  0.49891575  1
  Mn3.30+  Mn138  1  0.67091092  0.16686215  0.00033734  1
  Mn3.30+  Mn139  1  0.66750855  0.16599090  0.49981343  1
  Mn3.30+  Mn140  1  0.67027959  0.49565318  -0.00014422  1
  Mn3.30+  Mn141  1  0.66637777  0.50010476  0.50102261  1
  Mn3.30+  Mn142  1  0.67012189  0.83306810  0.00270582  1
  Mn3.30+  Mn143  1  0.67202917  0.83264419  0.49933538  1
  O2-  O144  1  0.02221208  0.16493995  0.12411934  1
  O2-  O145  1  0.02506939  0.15856866  0.62497151  1
  O2-  O146  1  0.02381687  0.49551292  0.12350245  1
  O2-  O147  1  0.02330860  0.49418971  0.62748662  1
  O2-  O148  1  0.02709330  0.82605296  0.12450244  1
  O2-  O149  1  0.02595390  0.83080592  0.62389334  1
  O2-  O150  1  0.35810905  0.16146431  0.12588587  1
  O2-  O151  1  0.35846983  0.15900919  0.62244340  1
  O2-  O152  1  0.35329971  0.49315220  0.12343352  1
  O2-  O153  1  0.35073487  0.49299308  0.62580093  1
  O2-  O154  1  0.36059554  0.82433890  0.12378240  1
  O2-  O155  1  0.35957071  0.82862160  0.62344494  1
  O2-  O156  1  0.69341799  0.16137226  0.12522544  1
  O2-  O157  1  0.69222696  0.16096499  0.62520578  1
  O2-  O158  1  0.69229213  0.49775359  0.12316609  1
  O2-  O159  1  0.69298919  0.49311989  0.62743234  1
  O2-  O160  1  0.69825935  0.82340939  0.12401038  1
  O2-  O161  1  0.69558346  0.82795230  0.62379114  1
  O2-  O162  1  0.13774828  0.32857577  0.12346049  1
  O2-  O163  1  0.13781271  0.33143809  0.62719371  1
  O2-  O164  1  0.13848839  0.65963887  0.12413889  1
  O2-  O165  1  0.13936115  0.65982980  0.62520657  1
  O2-  O166  1  0.13656014  0.99764625  0.12555833  1
  O2-  O167  1  0.14134503  0.99504690  0.62640498  1
  O2-  O168  1  0.47630266  0.32860105  0.12379061  1
  O2-  O169  1  0.47305829  0.32661877  0.62562164  1
  O2-  O170  1  0.47586115  0.66339199  0.12330124  1
  O2-  O171  1  0.47634658  0.66675946  0.62672535  1
  O2-  O172  1  0.47293761  0.99264302  0.12589153  1
  O2-  O173  1  0.47480962  0.99362160  0.62342675  1
  O2-  O174  1  0.81565652  0.32594004  0.12354608  1
  O2-  O175  1  0.80703651  0.33074803  0.62650881  1
  O2-  O176  1  0.81113926  0.65566514  0.12213493  1
  O2-  O177  1  0.80846474  0.65740727  0.62567201  1
  O2-  O178  1  0.81148224  0.99204072  0.12600648  1
  O2-  O179  1  0.81089750  0.99239652  0.62228857  1
  O2-  O180  1  0.30338039  0.17682412  0.37505186  1
  O2-  O181  1  0.30706623  0.17019188  0.87644015  1
  O2-  O182  1  0.30656402  0.50828939  0.37534393  1
  O2-  O183  1  0.30452735  0.50680545  0.87517784  1
  O2-  O184  1  0.30621627  0.83853642  0.37479495  1
  O2-  O185  1  0.30612188  0.84300822  0.87781755  1
  O2-  O186  1  0.64230888  0.17121863  0.37519064  1
  O2-  O187  1  0.65089418  0.16167236  0.87452049  1
  O2-  O188  1  0.64273557  0.50573738  0.37557105  1
  O2-  O189  1  0.64215460  0.50464582  0.87381114  1
  O2-  O190  1  0.64972078  0.83529995  0.37396746  1
  O2-  O191  1  0.64352113  0.84150062  0.87790888  1
  O2-  O192  1  0.98275005  0.17121715  0.37702560  1
  O2-  O193  1  0.97358665  0.17193981  0.87325505  1
  O2-  O194  1  0.97572221  0.50615366  0.37440984  1
  O2-  O195  1  0.96993424  0.50805225  0.87500649  1
  O2-  O196  1  0.97478549  0.83931593  0.37458477  1
  O2-  O197  1  0.97488468  0.84042885  0.87795879  1
  O2-  O198  1  0.19255165  0.00443297  0.37222757  1
  O2-  O199  1  0.19347598  0.00645438  0.87555956  1
  O2-  O200  1  0.19306402  0.33753849  0.37387576  1
  O2-  O201  1  0.19190768  0.33449956  0.87566269  1
  O2-  O202  1  0.19276467  0.67414319  0.37547219  1
  O2-  O203  1  0.19134823  0.67314871  0.87543609  1
  O2-  O204  1  0.52727984  0.00802466  0.37304850  1
  O2-  O205  1  0.52615387  -0.00065882  0.87742795  1
  O2-  O206  1  0.52475629  0.33487096  0.37686598  1
  O2-  O207  1  0.52466632  0.33675978  0.87423679  1
  O2-  O208  1  0.52432177  0.66601647  0.37474821  1
  O2-  O209  1  0.52664333  0.67490273  0.87513234  1
  O2-  O210  1  0.85934676  0.00646810  0.37371170  1
  O2-  O211  1  0.85623320  0.00745465  0.87770231  1
  O2-  O212  1  0.84994536  0.33877109  0.37544177  1
  O2-  O213  1  0.86108247  0.34013686  0.87426003  1
  O2-  O214  1  0.85822375  0.67501304  0.37693905  1
  O2-  O215  1  0.85905301  0.67663472  0.87550007  1
  O2-  O216  1  0.23641202  0.09573510  0.01974339  1
  O2-  O217  1  0.23763189  0.09604827  0.51946742  1
  O2-  O218  1  0.23411092  0.42577240  0.01898685  1
  O2-  O219  1  0.23604121  0.43002931  0.51708977  1
  O2-  O220  1  0.23979405  0.76338006  0.02118771  1
  O2-  O221  1  0.23766219  0.76043853  0.52262452  1
  O2-  O222  1  0.57456861  0.08959536  0.02392157  1
  O2-  O223  1  0.57086940  0.09408061  0.52073253  1
  O2-  O224  1  0.57198146  0.42783608  0.01219096  1
  O2-  O225  1  0.57237207  0.42412063  0.51773332  1
  O2-  O226  1  0.57333133  0.76081342  0.02114818  1
  O2-  O227  1  0.57579680  0.76094579  0.52125180  1
  O2-  O228  1  0.90306614  0.09871161  0.01928898  1
  O2-  O229  1  0.90517052  0.09374632  0.52314095  1
  O2-  O230  1  0.90307971  0.42969242  0.02339941  1
  O2-  O231  1  0.90291531  0.42921687  0.51653596  1
  O2-  O232  1  0.90415272  0.76550038  0.02171825  1
  O2-  O233  1  0.90600699  0.76193302  0.52445230  1
  O2-  O234  1  0.25904652  0.26027608  0.22367168  1
  O2-  O235  1  0.25988661  0.26428480  0.72931078  1
  O2-  O236  1  0.26043512  0.59457306  0.22867765  1
  O2-  O237  1  0.26095720  0.59490538  0.72935902  1
  O2-  O238  1  0.26095218  0.93017812  0.22727804  1
  O2-  O239  1  0.26260883  0.92840240  0.72839227  1
  O2-  O240  1  0.58859127  0.25613565  0.23255454  1
  O2-  O241  1  0.59488189  0.25637125  0.72947634  1
  O2-  O242  1  0.59812887  0.59404941  0.23168011  1
  O2-  O243  1  0.59898855  0.59564677  0.73420834  1
  O2-  O244  1  0.59973050  0.92272889  0.22879478  1
  O2-  O245  1  0.59452948  0.92692050  0.72764732  1
  O2-  O246  1  0.92761305  0.26174856  0.23323079  1
  O2-  O247  1  0.92899450  0.26247517  0.72541557  1
  O2-  O248  1  0.92956738  0.59985347  0.23490603  1
  O2-  O249  1  0.92948156  0.59660939  0.72948829  1
  O2-  O250  1  0.93400718  0.93231054  0.22940884  1
  O2-  O251  1  0.93054324  0.93203443  0.73498508  1
  O2-  O252  1  0.09665038  0.23622417  0.26491685  1
  O2-  O253  1  0.09723539  0.23594941  0.76712798  1
  O2-  O254  1  0.09522316  0.57312238  0.27045040  1
  O2-  O255  1  0.09214448  0.56922568  0.77178555  1
  O2-  O256  1  0.09859573  0.90232132  0.26721942  1
  O2-  O257  1  0.09515401  0.90556041  0.77125913  1
  O2-  O258  1  0.42619659  0.23878698  0.26708906  1
  O2-  O259  1  0.42479856  0.23945980  0.76904850  1
  O2-  O260  1  0.42621508  0.57185249  0.27124440  1
  O2-  O261  1  0.42666375  0.57503726  0.77301170  1
  O2-  O262  1  0.42620150  0.90723906  0.26937294  1
  O2-  O263  1  0.42924657  0.90552502  0.77052680  1
  O2-  O264  1  0.75380127  0.24356106  0.26854399  1
  O2-  O265  1  0.76739991  0.23482028  0.76747247  1
  O2-  O266  1  0.76158307  0.57371091  0.27197107  1
  O2-  O267  1  0.76337736  0.56765490  0.77168798  1
  O2-  O268  1  0.76565340  0.90567148  0.27026887  1
  O2-  O269  1  0.76108135  0.90636034  0.77257251  1
  O2-  O270  1  0.07147666  0.06893019  0.47919218  1
  O2-  O271  1  0.07109784  0.07624475  0.97728682  1
  O2-  O272  1  0.07712811  0.40828557  0.48103696  1
  O2-  O273  1  0.06766880  0.40416156  0.97794996  1
  O2-  O274  1  0.06989685  0.74037316  0.47975138  1
  O2-  O275  1  0.07104699  0.73952566  0.97881275  1
  O2-  O276  1  0.40143680  0.07570548  0.47654146  1
  O2-  O277  1  0.40442492  0.07294940  0.98268832  1
  O2-  O278  1  0.40545324  0.40626421  0.47591844  1
  O2-  O279  1  0.40323664  0.40705427  0.97799807  1
  O2-  O280  1  0.40315203  0.73752622  0.48273689  1
  O2-  O281  1  0.40428445  0.74113383  0.97789272  1
  O2-  O282  1  0.73695292  0.06698754  0.48336976  1
  O2-  O283  1  0.73764681  0.06778064  0.98668945  1
  O2-  O284  1  0.73735999  0.40673295  0.48129779  1
  O2-  O285  1  0.73790757  0.40113436  0.97699965  1
  O2-  O286  1  0.73703484  0.73425189  0.48365732  1
  O2-  O287  1  0.73911705  0.73680879  0.97815650  1
  O2-  O288  1  0.09957308  0.23610602  0.48566892  1
  O2-  O289  1  0.09523954  0.23694486  0.98179761  1
  O2-  O290  1  0.09517744  0.57348871  0.47880815  1
  O2-  O291  1  0.09232186  0.56898760  0.97852863  1
  O2-  O292  1  0.09704245  0.90246788  0.48241614  1
  O2-  O293  1  0.09724277  0.90563277  0.97964580  1
  O2-  O294  1  0.42888398  0.23689175  0.48035461  1
  O2-  O295  1  0.42235353  0.24226844  0.98337961  1
  O2-  O296  1  0.42507472  0.57178449  0.48030265  1
  O2-  O297  1  0.42708988  0.57541332  0.97574513  1
  O2-  O298  1  0.42654100  0.90981170  0.47995370  1
  O2-  O299  1  0.42916806  0.90494253  0.97950725  1
  O2-  O300  1  0.75755556  0.24196242  0.48411825  1
  O2-  O301  1  0.76379161  0.23850504  0.97910004  1
  O2-  O302  1  0.76395897  0.57241949  0.47926125  1
  O2-  O303  1  0.76217765  0.56974824  0.97573753  1
  O2-  O304  1  0.76414992  0.90435175  0.47611384  1
  O2-  O305  1  0.76247403  0.90710977  0.97960631  1
  O2-  O306  1  0.07125643  0.07215536  0.27109111  1
  O2-  O307  1  0.07108060  0.07379909  0.77198408  1
  O2-  O308  1  0.07592566  0.40724450  0.26705990  1
  O2-  O309  1  0.06954068  0.40389150  0.77631986  1
  O2-  O310  1  0.07063613  0.74002254  0.27104010  1
  O2-  O311  1  0.07103727  0.73934284  0.76977299  1
  O2-  O312  1  0.40276411  0.07781649  0.27372995  1
  O2-  O313  1  0.40439840  0.06885317  0.76645769  1
  O2-  O314  1  0.40437905  0.40401322  0.27132401  1
  O2-  O315  1  0.40450123  0.40824217  0.77365242  1
  O2-  O316  1  0.40337636  0.73631237  0.26647973  1
  O2-  O317  1  0.40469220  0.74115557  0.77184621  1
  O2-  O318  1  0.73615168  0.06781458  0.26612380  1
  O2-  O319  1  0.73709068  0.06767304  0.76316459  1
  O2-  O320  1  0.73901966  0.40809299  0.27115828  1
  O2-  O321  1  0.73571113  0.39809262  0.76935270  1
  O2-  O322  1  0.73824003  0.73497790  0.26646114  1
  O2-  O323  1  0.73842557  0.73726192  0.77101893  1
  O2-  O324  1  0.23543471  0.09640775  0.23181392  1
  O2-  O325  1  0.23912081  0.09582155  0.72873396  1
  O2-  O326  1  0.23797756  0.42681728  0.22839665  1
  O2-  O327  1  0.23141178  0.42909588  0.73495907  1
  O2-  O328  1  0.23791780  0.76163900  0.22754852  1
  O2-  O329  1  0.24006710  0.76272096  0.72967324  1
  O2-  O330  1  0.57285573  0.09320763  0.22726969  1
  O2-  O331  1  0.57299101  0.09144072  0.72753675  1
  O2-  O332  1  0.57156333  0.42617957  0.23950129  1
  O2-  O333  1  0.57363117  0.42540099  0.73193641  1
  O2-  O334  1  0.57567783  0.75818130  0.22764415  1
  O2-  O335  1  0.57351205  0.76315566  0.73012449  1
  O2-  O336  1  0.90286973  0.09773073  0.22781212  1
  O2-  O337  1  0.90651505  0.09460070  0.72759990  1
  O2-  O338  1  0.90412054  0.42970874  0.23069646  1
  O2-  O339  1  0.90280984  0.42875939  0.72972226  1
  O2-  O340  1  0.90582077  0.76368576  0.22717973  1
  O2-  O341  1  0.90507086  0.76453487  0.72929519  1
  O2-  O342  1  0.25969086  0.26044429  0.02121107  1
  O2-  O343  1  0.26143830  0.26290897  0.52639586  1
  O2-  O344  1  0.26019638  0.59442152  0.02066456  1
  O2-  O345  1  0.26192052  0.59409361  0.52154250  1
  O2-  O346  1  0.26377295  0.92925482  0.02456747  1
  O2-  O347  1  0.26021678  0.92847781  0.51967715  1
  O2-  O348  1  0.59152216  0.25238538  0.01667025  1
  O2-  O349  1  0.59163098  0.26005396  0.52173710  1
  O2-  O350  1  0.59956758  0.59450730  0.01419465  1
  O2-  O351  1  0.59816597  0.59472721  0.51938118  1
  O2-  O352  1  0.59620835  0.92418351  0.02554284  1
  O2-  O353  1  0.59819718  0.92483924  0.51901611  1
  O2-  O354  1  0.93030393  0.26458147  0.01648591  1
  O2-  O355  1  0.92572903  0.26143822  0.52327329  1
  O2-  O356  1  0.93198903  0.59966580  0.01596502  1
  O2-  O357  1  0.92836156  0.59667843  0.51973625  1
  O2-  O358  1  0.93313116  0.93448615  0.01809422  1
  O2-  O359  1  0.93027953  0.92952662  0.51944098  1
