# generated using pymatgen
data_Sr7Ca15Pr50Mn72O216
_symmetry_space_group_name_H-M   'P 1'
_cell_length_a   16.55519415
_cell_length_b   16.60248969
_cell_length_c   15.59068256
_cell_angle_alpha   89.99428108
_cell_angle_beta   90.00289256
_cell_angle_gamma   89.99701288
_symmetry_Int_Tables_number   1
_chemical_formula_structural   Sr7Ca15Pr50Mn72O216
_chemical_formula_sum   'Sr7 Ca15 Pr50 Mn72 O216'
_cell_volume   4285.21506711
_cell_formula_units_Z   1
loop_
 _symmetry_equiv_pos_site_id
 _symmetry_equiv_pos_as_xyz
  1  'x, y, z'
loop_
 _atom_type_symbol
 _atom_type_oxidation_number
  Sr2+  2.0
  Ca2+  2.0
  Pr3+  3.0
  Mn3.30+  3.3
  O2-  -2.0
loop_
 _atom_site_type_symbol
 _atom_site_label
 _atom_site_symmetry_multiplicity
 _atom_site_fract_x
 _atom_site_fract_y
 _atom_site_fract_z
 _atom_site_occupancy
  Sr2+  Sr0  1  0.33506945  0.32477540  0.37350856  1
  Sr2+  Sr1  1  0.49950995  0.83777717  0.12473138  1
  Sr2+  Sr2  1  0.50035337  0.84393320  0.62530292  1
  Sr2+  Sr3  1  -0.00068409  0.01143944  0.62435414  1
  Sr2+  Sr4  1  0.16687028  0.17506793  0.62417684  1
  Sr2+  Sr5  1  0.50228861  0.51123053  0.12622528  1
  Sr2+  Sr6  1  0.83238377  0.82087355  0.37515718  1
  Ca2+  Ca7  1  1.00461537  0.65191925  0.87600651  1
  Ca2+  Ca8  1  0.33833061  0.65283602  0.37279260  1
  Ca2+  Ca9  1  0.66742217  0.65530427  0.37164276  1
  Ca2+  Ca10  1  0.84109816  0.18014556  0.62344228  1
  Ca2+  Ca11  1  0.83070462  0.15133201  0.37603395  1
  Ca2+  Ca12  1  0.50185227  0.51396893  0.62307224  1
  Ca2+  Ca13  1  0.32905784  0.68339364  0.12816214  1
  Ca2+  Ca14  1  1.00281012  0.31808087  0.87627069  1
  Ca2+  Ca15  1  0.66237891  0.67902535  0.12955464  1
  Ca2+  Ca16  1  0.66340729  0.35024879  0.12556461  1
  Ca2+  Ca17  1  -0.00454196  0.34999524  0.12386708  1
  Ca2+  Ca18  1  -0.00340106  0.01164291  0.12629322  1
  Ca2+  Ca19  1  1.00196924  0.65138312  0.37383023  1
  Ca2+  Ca20  1  0.16912050  0.84797018  0.62412224  1
  Ca2+  Ca21  1  0.17013624  0.84594097  0.12588171  1
  Pr3+  Pr22  1  0.16849721  0.51093547  0.62385231  1
  Pr3+  Pr23  1  0.83743659  0.51293500  0.62484550  1
  Pr3+  Pr24  1  0.83456971  0.48762781  0.87646137  1
  Pr3+  Pr25  1  0.16531393  0.17878390  0.12572530  1
  Pr3+  Pr26  1  0.83557527  0.84613645  0.12689626  1
  Pr3+  Pr27  1  0.49781852  0.15357871  0.87609443  1
  Pr3+  Pr28  1  0.49855448  0.49035439  0.37517228  1
  Pr3+  Pr29  1  0.50205429  0.17781358  0.62382661  1
  Pr3+  Pr30  1  1.00141960  0.31963060  0.37254646  1
  Pr3+  Pr31  1  0.66677144  0.65529206  0.87679005  1
  Pr3+  Pr32  1  0.50626146  0.18205338  0.12633876  1
  Pr3+  Pr33  1  -0.00233109  0.67924720  0.62335067  1
  Pr3+  Pr34  1  0.83114187  0.49260820  0.37391416  1
  Pr3+  Pr35  1  0.32784540  0.01144534  0.62427508  1
  Pr3+  Pr36  1  1.00401258  0.98775061  0.87537502  1
  Pr3+  Pr37  1  0.16043011  0.81751237  0.37490728  1
  Pr3+  Pr38  1  0.67172336  0.98564531  0.37461604  1
  Pr3+  Pr39  1  0.17155268  0.51480197  0.12631297  1
  Pr3+  Pr40  1  0.66565045  0.01381604  0.62373153  1
  Pr3+  Pr41  1  0.16543217  0.48792467  0.37436764  1
  Pr3+  Pr42  1  0.49596052  0.81920558  0.87553476  1
  Pr3+  Pr43  1  0.66339790  0.67828944  0.62283304  1
  Pr3+  Pr44  1  0.16168424  0.15425038  0.87485910  1
  Pr3+  Pr45  1  0.33562917  0.32049150  0.87650875  1
  Pr3+  Pr46  1  0.83396806  0.15447261  0.87411975  1
  Pr3+  Pr47  1  0.33091594  0.00847541  0.12577172  1
  Pr3+  Pr48  1  0.67249421  0.32143174  0.37160452  1
  Pr3+  Pr49  1  0.16397848  0.15432760  0.37496897  1
  Pr3+  Pr50  1  0.33348941  0.98621538  0.87520875  1
  Pr3+  Pr51  1  0.49793391  0.15444235  0.37413227  1
  Pr3+  Pr52  1  -0.00221025  0.67842295  0.12581830  1
  Pr3+  Pr53  1  -0.00288502  0.34156799  0.62624663  1
  Pr3+  Pr54  1  0.16025118  0.48523703  0.87577862  1
  Pr3+  Pr55  1  0.49657505  0.48771432  0.87494898  1
  Pr3+  Pr56  1  0.33406474  0.98723837  0.37498030  1
  Pr3+  Pr57  1  0.16048093  0.81749823  0.87509272  1
  Pr3+  Pr58  1  0.32892492  0.34613038  0.62324999  1
  Pr3+  Pr59  1  0.83415201  0.82137471  0.87400141  1
  Pr3+  Pr60  1  0.32894756  0.68134546  0.62273463  1
  Pr3+  Pr61  1  0.83889600  0.18151248  0.12657982  1
  Pr3+  Pr62  1  0.83319733  0.51323143  0.12530963  1
  Pr3+  Pr63  1  0.66972725  0.98591352  0.87506189  1
  Pr3+  Pr64  1  0.66996086  0.32204186  0.87819555  1
  Pr3+  Pr65  1  0.66521162  0.34732303  0.62476898  1
  Pr3+  Pr66  1  0.83664236  0.84627129  0.62271069  1
  Pr3+  Pr67  1  0.49575665  0.81693190  0.37453930  1
  Pr3+  Pr68  1  1.00132671  0.98803536  0.37467334  1
  Pr3+  Pr69  1  0.33167173  0.34746909  0.12726287  1
  Pr3+  Pr70  1  0.33592621  0.65466431  0.87708430  1
  Pr3+  Pr71  1  0.66322014  0.01042843  0.12610490  1
  Mn3.30+  Mn72  1  0.16458222  -0.00138933  0.00334548  1
  Mn3.30+  Mn73  1  0.16639765  -0.00102625  0.49993977  1
  Mn3.30+  Mn74  1  0.16326376  0.33337434  0.00187959  1
  Mn3.30+  Mn75  1  0.16601623  0.33191029  0.49877755  1
  Mn3.30+  Mn76  1  0.16678394  0.66752821  0.00166208  1
  Mn3.30+  Mn77  1  0.16654675  0.66613356  0.49784118  1
  Mn3.30+  Mn78  1  0.49993986  -0.00182273  0.00087309  1
  Mn3.30+  Mn79  1  0.50048539  -0.00077499  0.50027793  1
  Mn3.30+  Mn80  1  0.50207385  0.33455097  0.00048479  1
  Mn3.30+  Mn81  1  0.50069980  0.33481576  0.50038790  1
  Mn3.30+  Mn82  1  0.50027990  0.66585411  0.00378403  1
  Mn3.30+  Mn83  1  0.49927037  0.66547839  0.49963830  1
  Mn3.30+  Mn84  1  0.83513609  0.00009310  0.00101031  1
  Mn3.30+  Mn85  1  0.83397913  0.00174353  0.49957216  1
  Mn3.30+  Mn86  1  0.83536085  0.33403014  0.00147686  1
  Mn3.30+  Mn87  1  0.83293802  0.33239506  0.49876841  1
  Mn3.30+  Mn88  1  0.83400816  0.66735953  0.00007508  1
  Mn3.30+  Mn89  1  0.83217024  0.66640834  0.49716368  1
  Mn3.30+  Mn90  1  -0.00241557  0.16535718  0.24937122  1
  Mn3.30+  Mn91  1  -0.00114296  0.16779572  0.74903381  1
  Mn3.30+  Mn92  1  0.00016062  0.50051265  0.24860631  1
  Mn3.30+  Mn93  1  0.00074116  0.49918353  0.75133669  1
  Mn3.30+  Mn94  1  0.00131700  0.83229548  0.24920278  1
  Mn3.30+  Mn95  1  0.00134669  0.83214514  0.74885423  1
  Mn3.30+  Mn96  1  0.33402252  0.16664152  0.24905978  1
  Mn3.30+  Mn97  1  0.33287094  0.16668081  0.75060032  1
  Mn3.30+  Mn98  1  0.33473646  0.50410034  0.24995899  1
  Mn3.30+  Mn99  1  0.33306816  0.50058218  0.74942451  1
  Mn3.30+  Mn100  1  0.33023727  0.83077711  0.24999617  1
  Mn3.30+  Mn101  1  0.33047976  0.83297357  0.74932749  1
  Mn3.30+  Mn102  1  0.67007279  0.16769379  0.24996485  1
  Mn3.30+  Mn103  1  0.66933408  0.16806170  0.74880000  1
  Mn3.30+  Mn104  1  0.66563738  0.50222480  0.24933159  1
  Mn3.30+  Mn105  1  0.66614952  0.50044239  0.75003515  1
  Mn3.30+  Mn106  1  0.66633007  0.82990147  0.25038551  1
  Mn3.30+  Mn107  1  0.66645986  0.83263542  0.74952582  1
  Mn3.30+  Mn108  1  0.16460210  -0.00178869  0.24763636  1
  Mn3.30+  Mn109  1  0.16629865  -0.00089162  0.74917136  1
  Mn3.30+  Mn110  1  0.16450843  0.33356701  0.24844940  1
  Mn3.30+  Mn111  1  0.16518022  0.33197724  0.75068162  1
  Mn3.30+  Mn112  1  0.16783002  0.66744172  0.25139924  1
  Mn3.30+  Mn113  1  0.16527997  0.66631592  0.74935559  1
  Mn3.30+  Mn114  1  0.50042220  -0.00261245  0.24977131  1
  Mn3.30+  Mn115  1  0.50003680  -0.00035771  0.74957775  1
  Mn3.30+  Mn116  1  0.50306526  0.33525552  0.25036201  1
  Mn3.30+  Mn117  1  0.50000415  0.33411566  0.74855274  1
  Mn3.30+  Mn118  1  0.50013664  0.66626498  0.24940950  1
  Mn3.30+  Mn119  1  0.49927461  0.66510732  0.74834800  1
  Mn3.30+  Mn120  1  0.83392460  0.00050589  0.24972512  1
  Mn3.30+  Mn121  1  0.83493143  0.00118340  0.74904804  1
  Mn3.30+  Mn122  1  0.83401716  0.33453607  0.24784158  1
  Mn3.30+  Mn123  1  0.83404660  0.33238410  0.75156108  1
  Mn3.30+  Mn124  1  0.83123005  0.66745960  0.25021173  1
  Mn3.30+  Mn125  1  0.83536298  0.66616376  0.75208802  1
  Mn3.30+  Mn126  1  -0.00044982  0.16739376  0.00206755  1
  Mn3.30+  Mn127  1  -0.00337504  0.16621661  0.49912932  1
  Mn3.30+  Mn128  1  0.00077149  0.49948702  0.00093011  1
  Mn3.30+  Mn129  1  -0.00004904  0.49971844  0.49862196  1
  Mn3.30+  Mn130  1  0.00183622  0.83295649  0.00295123  1
  Mn3.30+  Mn131  1  0.00082028  0.83188667  0.49898031  1
  Mn3.30+  Mn132  1  0.33294104  0.16639387  0.00229852  1
  Mn3.30+  Mn133  1  0.33363798  0.16737201  0.49844990  1
  Mn3.30+  Mn134  1  0.33217270  0.50220366  0.00163659  1
  Mn3.30+  Mn135  1  0.33544476  0.50185501  0.49979944  1
  Mn3.30+  Mn136  1  0.32992598  0.83173802  0.00207688  1
  Mn3.30+  Mn137  1  0.33070195  0.83211966  0.49897991  1
  Mn3.30+  Mn138  1  0.66846109  0.16752971  0.00094976  1
  Mn3.30+  Mn139  1  0.67088625  0.16838143  0.50012883  1
  Mn3.30+  Mn140  1  0.66594706  0.50084988  0.00087613  1
  Mn3.30+  Mn141  1  0.66577624  0.50176915  0.50039538  1
  Mn3.30+  Mn142  1  0.66670508  0.83090962  0.00063800  1
  Mn3.30+  Mn143  1  0.66601342  0.83183172  0.49943121  1
  O2-  O144  1  0.02321276  0.15593381  0.12555309  1
  O2-  O145  1  0.01784567  0.17139021  0.62406511  1
  O2-  O146  1  0.02678744  0.49558029  0.12459162  1
  O2-  O147  1  0.02408392  0.49157012  0.62520048  1
  O2-  O148  1  0.02897800  0.82342151  0.12567566  1
  O2-  O149  1  0.02651026  0.82545598  0.62281894  1
  O2-  O150  1  0.36082652  0.15930701  0.12524228  1
  O2-  O151  1  0.35788296  0.16029440  0.62454561  1
  O2-  O152  1  0.35210103  0.49288045  0.12413985  1
  O2-  O153  1  0.35880459  0.49290868  0.62505518  1
  O2-  O154  1  0.35027529  0.83183900  0.12565302  1
  O2-  O155  1  0.35197286  0.82950547  0.62445121  1
  O2-  O156  1  0.69516722  0.15695895  0.12394870  1
  O2-  O157  1  0.69809711  0.16175165  0.62327679  1
  O2-  O158  1  0.69035002  0.49266398  0.12252782  1
  O2-  O159  1  0.69420234  0.49466974  0.62645048  1
  O2-  O160  1  0.69064742  0.82643137  0.12234677  1
  O2-  O161  1  0.69161384  0.82662116  0.62532172  1
  O2-  O162  1  0.13729224  0.32823560  0.12495847  1
  O2-  O163  1  0.14267194  0.33409219  0.62320547  1
  O2-  O164  1  0.14063173  0.66007769  0.12639414  1
  O2-  O165  1  0.14064611  0.65766576  0.62319538  1
  O2-  O166  1  0.13840158  0.99156671  0.12479764  1
  O2-  O167  1  0.15011530  0.99478086  0.62417366  1
  O2-  O168  1  0.47630890  0.32893771  0.12499311  1
  O2-  O169  1  0.47253578  0.32423118  0.62615232  1
  O2-  O170  1  0.47272924  0.66660614  0.12485393  1
  O2-  O171  1  0.47338871  0.66066261  0.62540194  1
  O2-  O172  1  0.47589850  0.99635485  0.12538920  1
  O2-  O173  1  0.47319888  1.00216682  0.62598010  1
  O2-  O174  1  0.80462049  0.32797126  0.12421601  1
  O2-  O175  1  0.80892798  0.32656279  0.62385185  1
  O2-  O176  1  0.80568805  0.66241651  0.12308975  1
  O2-  O177  1  0.80830115  0.66109674  0.62666296  1
  O2-  O178  1  0.80719387  0.99517785  0.12307578  1
  O2-  O179  1  0.80869421  0.99323854  0.62491411  1
  O2-  O180  1  0.30961142  0.16764953  0.37108698  1
  O2-  O181  1  0.30736060  0.17275336  0.87902732  1
  O2-  O182  1  0.30933541  0.50719940  0.37431356  1
  O2-  O183  1  0.30542853  0.50648663  0.87718720  1
  O2-  O184  1  0.30420012  0.84021343  0.37476493  1
  O2-  O185  1  0.30521943  0.83601179  0.87517174  1
  O2-  O186  1  0.64069715  0.17375184  0.37536585  1
  O2-  O187  1  0.64035635  0.17409091  0.87705903  1
  O2-  O188  1  0.64331692  0.50733658  0.37724092  1
  O2-  O189  1  0.64052495  0.50635901  0.87469944  1
  O2-  O190  1  0.64079198  0.84015622  0.37721477  1
  O2-  O191  1  0.64131997  0.83819889  0.87415481  1
  O2-  O192  1  0.97287117  0.17145491  0.37267603  1
  O2-  O193  1  0.97788606  0.17163502  0.87709892  1
  O2-  O194  1  0.97584027  0.50500215  0.37367533  1
  O2-  O195  1  0.97770612  0.50906554  0.87613384  1
  O2-  O196  1  0.98136167  0.84070245  0.37367771  1
  O2-  O197  1  0.97709244  0.84054968  0.87755647  1
  O2-  O198  1  0.18962048  0.00624875  0.37308214  1
  O2-  O199  1  0.18888491  0.00608101  0.87743763  1
  O2-  O200  1  0.18528884  0.33670432  0.37322525  1
  O2-  O201  1  0.19252889  0.33668281  0.87825320  1
  O2-  O202  1  0.19593513  0.67085257  0.37537163  1
  O2-  O203  1  0.19230700  0.67043067  0.87573992  1
  O2-  O204  1  0.52685094  0.00582819  0.37399275  1
  O2-  O205  1  0.52549216  0.00546756  0.87498723  1
  O2-  O206  1  0.52742148  0.33967789  0.37602778  1
  O2-  O207  1  0.52484169  0.33792336  0.87258685  1
  O2-  O208  1  0.52467236  0.66978119  0.37563198  1
  O2-  O209  1  0.52130944  0.67022969  0.87456384  1
  O2-  O210  1  0.85663955  0.00508332  0.37470914  1
  O2-  O211  1  0.85923710  0.00377011  0.87655563  1
  O2-  O212  1  0.85878273  0.34487314  0.37314650  1
  O2-  O213  1  0.86097294  0.33957357  0.87883669  1
  O2-  O214  1  0.85940948  0.66222820  0.37426338  1
  O2-  O215  1  0.86384437  0.67347589  0.87579616  1
  O2-  O216  1  0.23674488  0.09270314  0.02327276  1
  O2-  O217  1  0.24201510  0.09154488  0.51473738  1
  O2-  O218  1  0.23616985  0.42705158  0.02070580  1
  O2-  O219  1  0.24121141  0.42859792  0.51750878  1
  O2-  O220  1  0.23292356  0.76482007  0.01752489  1
  O2-  O221  1  0.23454333  0.76224706  0.52160492  1
  O2-  O222  1  0.57356385  0.09628953  0.02037486  1
  O2-  O223  1  0.57566361  0.09781046  0.52050655  1
  O2-  O224  1  0.57193322  0.42802315  0.01206721  1
  O2-  O225  1  0.57326298  0.42858189  0.52324090  1
  O2-  O226  1  0.57233557  0.76048126  0.01090131  1
  O2-  O227  1  0.57083105  0.75819298  0.51835611  1
  O2-  O228  1  0.90308341  0.09805400  0.01648603  1
  O2-  O229  1  0.90312537  0.09703308  0.51773632  1
  O2-  O230  1  0.90248454  0.43008421  0.02000323  1
  O2-  O231  1  0.90403002  0.42643038  0.52104334  1
  O2-  O232  1  0.90561419  0.76273475  0.02258609  1
  O2-  O233  1  0.90477567  0.75826460  0.52174891  1
  O2-  O234  1  0.25740022  0.26079643  0.22587955  1
  O2-  O235  1  0.26445494  0.26413556  0.73369051  1
  O2-  O236  1  0.26169847  0.59652824  0.22725847  1
  O2-  O237  1  0.26141673  0.59663270  0.72876444  1
  O2-  O238  1  0.26200421  0.93048910  0.23306195  1
  O2-  O239  1  0.26402425  0.92937098  0.73508442  1
  O2-  O240  1  0.60042600  0.26188836  0.22830699  1
  O2-  O241  1  0.59607892  0.26148660  0.72801885  1
  O2-  O242  1  0.59677860  0.59609859  0.23146681  1
  O2-  O243  1  0.59772458  0.59457508  0.73178056  1
  O2-  O244  1  0.59527447  0.92941905  0.23290140  1
  O2-  O245  1  0.59554801  0.93141639  0.73226305  1
  O2-  O246  1  0.92968723  0.26422241  0.22747786  1
  O2-  O247  1  0.92801411  0.26216178  0.73401174  1
  O2-  O248  1  0.92631783  0.59338511  0.22680572  1
  O2-  O249  1  0.92780540  0.59331136  0.72747385  1
  O2-  O250  1  0.92906841  0.92695360  0.22860441  1
  O2-  O251  1  0.92538797  0.92540781  0.73267153  1
  O2-  O252  1  0.09337267  0.23605277  0.26896727  1
  O2-  O253  1  0.09510865  0.23834706  0.76955955  1
  O2-  O254  1  0.09909816  0.57094949  0.26810745  1
  O2-  O255  1  0.09874467  0.56869892  0.76629503  1
  O2-  O256  1  0.09455337  0.90590857  0.27218786  1
  O2-  O257  1  0.09332382  0.90558483  0.77083690  1
  O2-  O258  1  0.43461975  0.23917305  0.26591510  1
  O2-  O259  1  0.42881266  0.23808047  0.77157695  1
  O2-  O260  1  0.43062774  0.57327238  0.27069780  1
  O2-  O261  1  0.42536852  0.57255655  0.77241637  1
  O2-  O262  1  0.42450479  0.90524003  0.27313205  1
  O2-  O263  1  0.42486577  0.90536038  0.77266598  1
  O2-  O264  1  0.76535947  0.23763730  0.27151443  1
  O2-  O265  1  0.75994534  0.24156958  0.77588091  1
  O2-  O266  1  0.76305070  0.56990401  0.26540647  1
  O2-  O267  1  0.76431782  0.57327636  0.77291731  1
  O2-  O268  1  0.75927516  0.90633035  0.26521485  1
  O2-  O269  1  0.76081634  0.90529461  0.77008918  1
  O2-  O270  1  0.07271297  0.07390353  0.47873630  1
  O2-  O271  1  0.07228031  0.07254990  0.97910261  1
  O2-  O272  1  0.07110073  0.40542638  0.47881173  1
  O2-  O273  1  0.07149874  0.40374209  0.97629459  1
  O2-  O274  1  0.07114639  0.73386460  0.47712078  1
  O2-  O275  1  0.07026096  0.73560388  0.97839244  1
  O2-  O276  1  0.40807728  0.07247488  0.47871497  1
  O2-  O277  1  0.40543649  0.07240463  0.97891011  1
  O2-  O278  1  0.40794766  0.40850913  0.48098662  1
  O2-  O279  1  0.40347768  0.40666470  0.97976358  1
  O2-  O280  1  0.40180528  0.73802848  0.47969058  1
  O2-  O281  1  0.40519363  0.74065455  0.97885909  1
  O2-  O282  1  0.73630010  0.07088452  0.48047959  1
  O2-  O283  1  0.73776318  0.07296503  0.97725252  1
  O2-  O284  1  0.73795141  0.40535578  0.48040486  1
  O2-  O285  1  0.74105295  0.40793616  0.97671824  1
  O2-  O286  1  0.73687373  0.73319694  0.48252260  1
  O2-  O287  1  0.74277926  0.74125725  0.97351414  1
  O2-  O288  1  0.09067311  0.23808001  0.47677077  1
  O2-  O289  1  0.09797035  0.23507016  0.98408951  1
  O2-  O290  1  0.09832667  0.56943252  0.48137597  1
  O2-  O291  1  0.09952502  0.56998382  0.98412399  1
  O2-  O292  1  0.09477971  0.90731674  0.47909864  1
  O2-  O293  1  0.09420047  0.90550147  0.97708898  1
  O2-  O294  1  0.43139351  0.23639248  0.48205917  1
  O2-  O295  1  0.43023998  0.23992901  0.98081517  1
  O2-  O296  1  0.42873495  0.57251409  0.48079722  1
  O2-  O297  1  0.42797595  0.57318713  0.97747771  1
  O2-  O298  1  0.42460453  0.90443053  0.47738539  1
  O2-  O299  1  0.42339439  0.90501441  0.97689847  1
  O2-  O300  1  0.76159570  0.24071459  0.47308895  1
  O2-  O301  1  0.76355976  0.23891464  0.97846068  1
  O2-  O302  1  0.76415211  0.56891776  0.48544009  1
  O2-  O303  1  0.76183962  0.57281515  0.97683279  1
  O2-  O304  1  0.75905874  0.90757861  0.48360749  1
  O2-  O305  1  0.76229592  0.90475440  0.97915071  1
  O2-  O306  1  0.07273572  0.07244486  0.27201477  1
  O2-  O307  1  0.07246326  0.07407499  0.76986080  1
  O2-  O308  1  0.07259947  0.40660654  0.27101395  1
  O2-  O309  1  0.07092574  0.40346718  0.77217595  1
  O2-  O310  1  0.07065807  0.73500039  0.27285626  1
  O2-  O311  1  0.07102386  0.73472201  0.77148501  1
  O2-  O312  1  0.40843218  0.07004653  0.26990232  1
  O2-  O313  1  0.40722626  0.07318525  0.77294984  1
  O2-  O314  1  0.40809231  0.40981118  0.26605578  1
  O2-  O315  1  0.40346313  0.40511311  0.77264348  1
  O2-  O316  1  0.40374848  0.73960588  0.27228856  1
  O2-  O317  1  0.40250968  0.73961756  0.76935336  1
  O2-  O318  1  0.73590786  0.07152938  0.26867970  1
  O2-  O319  1  0.73877417  0.07196846  0.77212645  1
  O2-  O320  1  0.74049034  0.40795433  0.27066638  1
  O2-  O321  1  0.73792282  0.40583763  0.77112965  1
  O2-  O322  1  0.73762004  0.73664395  0.26938501  1
  O2-  O323  1  0.74194731  0.73803330  0.77198426  1
  O2-  O324  1  0.23609915  0.09114616  0.22699020  1
  O2-  O325  1  0.24273738  0.09272245  0.73492529  1
  O2-  O326  1  0.23916588  0.42787319  0.23201914  1
  O2-  O327  1  0.23818359  0.42850092  0.73122611  1
  O2-  O328  1  0.23224667  0.76473187  0.23214162  1
  O2-  O329  1  0.23477791  0.76215230  0.72908332  1
  O2-  O330  1  0.57333619  0.09624983  0.22959226  1
  O2-  O331  1  0.57481956  0.09698683  0.72964725  1
  O2-  O332  1  0.57473306  0.42806998  0.23642743  1
  O2-  O333  1  0.56905858  0.42750425  0.72779505  1
  O2-  O334  1  0.57027745  0.76077424  0.23724083  1
  O2-  O335  1  0.57441922  0.75815005  0.73350241  1
  O2-  O336  1  0.90438871  0.09488915  0.22977992  1
  O2-  O337  1  0.90297733  0.09870636  0.73487891  1
  O2-  O338  1  0.90345582  0.42931247  0.22857534  1
  O2-  O339  1  0.90390505  0.42728259  0.73083216  1
  O2-  O340  1  0.90597022  0.75980074  0.22714926  1
  O2-  O341  1  0.90531328  0.76101610  0.72855373  1
  O2-  O342  1  0.26144782  0.26190826  0.02373589  1
  O2-  O343  1  0.26187303  0.26101353  0.51785076  1
  O2-  O344  1  0.26309467  0.59883735  0.02231156  1
  O2-  O345  1  0.26057306  0.59356675  0.52352587  1
  O2-  O346  1  0.26218567  0.93097563  0.01636424  1
  O2-  O347  1  0.26378461  0.92944177  0.51525936  1
  O2-  O348  1  0.59865433  0.26154873  0.02224629  1
  O2-  O349  1  0.59740262  0.26164308  0.52182855  1
  O2-  O350  1  0.59857772  0.59844159  0.01716383  1
  O2-  O351  1  0.59488880  0.59282688  0.52252605  1
  O2-  O352  1  0.59804260  0.92903139  0.01576070  1
  O2-  O353  1  0.59436442  0.93116636  0.51982464  1
  O2-  O354  1  0.92858826  0.26150984  0.02486987  1
  O2-  O355  1  0.92942983  0.26546938  0.51447020  1
  O2-  O356  1  0.92597017  0.59401154  0.02296664  1
  O2-  O357  1  0.92748391  0.59246072  0.52224916  1
  O2-  O358  1  0.93039713  0.92764637  0.02303837  1
  O2-  O359  1  0.92467611  0.92594382  0.51706567  1
