# generated using pymatgen
data_Sr7Ca15Pr50Mn72O216
_symmetry_space_group_name_H-M   'P 1'
_cell_length_a   16.55837392
_cell_length_b   16.60475480
_cell_length_c   15.59240404
_cell_angle_alpha   90.00245256
_cell_angle_beta   89.99931570
_cell_angle_gamma   90.00368943
_symmetry_Int_Tables_number   1
_chemical_formula_structural   Sr7Ca15Pr50Mn72O216
_chemical_formula_sum   'Sr7 Ca15 Pr50 Mn72 O216'
_cell_volume   4287.09622000
_cell_formula_units_Z   1
loop_
 _symmetry_equiv_pos_site_id
 _symmetry_equiv_pos_as_xyz
  1  'x, y, z'
loop_
 _atom_type_symbol
 _atom_type_oxidation_number
  Sr2+  2.0
  Ca2+  2.0
  Pr3+  3.0
  Mn3.30+  3.3
  O2-  -2.0
loop_
 _atom_site_type_symbol
 _atom_site_label
 _atom_site_symmetry_multiplicity
 _atom_site_fract_x
 _atom_site_fract_y
 _atom_site_fract_z
 _atom_site_occupancy
  Sr2+  Sr0  1  0.66782776  0.32310324  0.37411098  1
  Sr2+  Sr1  1  0.33619037  0.32406084  0.37404078  1
  Sr2+  Sr2  1  0.33353528  0.32265487  0.87603172  1
  Sr2+  Sr3  1  0.16675958  0.15723542  0.87901095  1
  Sr2+  Sr4  1  0.33168503  0.65928242  0.87265364  1
  Sr2+  Sr5  1  0.83209845  0.82328638  0.37514159  1
  Sr2+  Sr6  1  0.16601074  0.82553355  0.37413405  1
  Ca2+  Ca7  1  -0.00261005  0.68383719  0.62506786  1
  Ca2+  Ca8  1  -0.00499695  0.35052693  0.62664137  1
  Ca2+  Ca9  1  0.32684408  0.68597762  0.62611383  1
  Ca2+  Ca10  1  0.16848001  0.84459528  0.62556461  1
  Ca2+  Ca11  1  0.17369213  0.18445763  0.12418387  1
  Ca2+  Ca12  1  0.16390257  0.81975175  0.87421127  1
  Ca2+  Ca13  1  0.65872899  0.01684356  0.12636172  1
  Ca2+  Ca14  1  0.33200007  0.34519804  0.12451138  1
  Ca2+  Ca15  1  0.83199795  0.81826208  0.87467008  1
  Ca2+  Ca16  1  0.84169972  0.51830758  0.62478725  1
  Ca2+  Ca17  1  0.50059606  0.18188193  0.12634529  1
  Ca2+  Ca18  1  0.33680532  0.97973662  0.37345115  1
  Ca2+  Ca19  1  0.17194869  0.84654108  0.12368065  1
  Ca2+  Ca20  1  0.49408890  0.81973349  0.37405314  1
  Ca2+  Ca21  1  0.66293435  0.68035404  0.12551516  1
  Pr3+  Pr22  1  0.49524133  0.81914857  0.87517507  1
  Pr3+  Pr23  1  0.49566549  0.48718897  0.87434131  1
  Pr3+  Pr24  1  0.16929664  0.51616524  0.62549457  1
  Pr3+  Pr25  1  0.16568768  0.48808657  0.37618595  1
  Pr3+  Pr26  1  0.32985056  0.34633040  0.62542067  1
  Pr3+  Pr27  1  0.83919957  0.18041757  0.62423775  1
  Pr3+  Pr28  1  0.00036965  0.68011980  0.12528428  1
  Pr3+  Pr29  1  0.50091346  0.51249660  0.62479773  1
  Pr3+  Pr30  1  0.82781529  0.15489111  0.37338597  1
  Pr3+  Pr31  1  1.00581170  0.32130551  0.37615632  1
  Pr3+  Pr32  1  0.50105848  0.51088016  0.12553511  1
  Pr3+  Pr33  1  0.49299310  0.15104857  0.37228223  1
  Pr3+  Pr34  1  0.50055914  0.17796378  0.62387563  1
  Pr3+  Pr35  1  0.49833825  0.48738852  0.37587569  1
  Pr3+  Pr36  1  0.33254913  0.98808008  0.87646614  1
  Pr3+  Pr37  1  0.83301342  0.17864390  0.12563182  1
  Pr3+  Pr38  1  0.83164867  0.15363138  0.87662648  1
  Pr3+  Pr39  1  1.00470022  0.65633913  0.87243591  1
  Pr3+  Pr40  1  0.67050964  0.65562585  0.87521319  1
  Pr3+  Pr41  1  0.66761061  0.98607100  0.37201777  1
  Pr3+  Pr42  1  0.00197366  0.00597750  0.62252298  1
  Pr3+  Pr43  1  1.00606636  0.31838409  0.87416050  1
  Pr3+  Pr44  1  0.67095684  0.98452601  0.87823839  1
  Pr3+  Pr45  1  0.16803387  0.17817613  0.62589835  1
  Pr3+  Pr46  1  1.00056913  0.98558948  0.37340067  1
  Pr3+  Pr47  1  0.66833639  0.31934282  0.87500876  1
  Pr3+  Pr48  1  0.66704919  0.67942359  0.62525888  1
  Pr3+  Pr49  1  0.66197853  0.34469422  0.12568370  1
  Pr3+  Pr50  1  0.00226817  0.00971611  0.12736538  1
  Pr3+  Pr51  1  1.00428628  0.65588213  0.37791198  1
  Pr3+  Pr52  1  1.00593282  0.98417569  0.87622666  1
  Pr3+  Pr53  1  0.33633221  0.65978627  0.37741008  1
  Pr3+  Pr54  1  0.32812607  0.01349235  0.12787957  1
  Pr3+  Pr55  1  0.83269080  0.84458800  0.12463420  1
  Pr3+  Pr56  1  0.32670296  0.00752757  0.62245135  1
  Pr3+  Pr57  1  0.66394090  0.01010494  0.62388497  1
  Pr3+  Pr58  1  0.49806590  0.84325206  0.62488909  1
  Pr3+  Pr59  1  0.17315739  0.50917827  0.12473599  1
  Pr3+  Pr60  1  0.50443932  0.84593689  0.12508729  1
  Pr3+  Pr61  1  0.83116177  0.48900316  0.37735705  1
  Pr3+  Pr62  1  0.16653620  0.15353643  0.37140653  1
  Pr3+  Pr63  1  0.49311587  0.15400361  0.87799312  1
  Pr3+  Pr64  1  0.83196598  0.48761441  0.87294037  1
  Pr3+  Pr65  1  0.83555935  0.51337524  0.12560390  1
  Pr3+  Pr66  1  0.16530395  0.48726034  0.87400545  1
  Pr3+  Pr67  1  0.66880033  0.65800030  0.37426301  1
  Pr3+  Pr68  1  0.66620712  0.34715531  0.62346676  1
  Pr3+  Pr69  1  0.32912439  0.68078848  0.12378642  1
  Pr3+  Pr70  1  0.83784271  0.84510858  0.62543789  1
  Pr3+  Pr71  1  0.00066221  0.34490043  0.12388207  1
  Mn3.30+  Mn72  1  0.16719755  -0.00089966  0.00155139  1
  Mn3.30+  Mn73  1  0.16741491  -0.00186820  0.49663343  1
  Mn3.30+  Mn74  1  0.16883742  0.33245057  0.00089359  1
  Mn3.30+  Mn75  1  0.16526954  0.33305555  0.50171182  1
  Mn3.30+  Mn76  1  0.16675136  0.66823915  -0.00111885  1
  Mn3.30+  Mn77  1  0.16745289  0.67014408  0.50299939  1
  Mn3.30+  Mn78  1  0.50102349  0.00092269  0.00197839  1
  Mn3.30+  Mn79  1  0.49634313  -0.00300303  0.49821522  1
  Mn3.30+  Mn80  1  0.49811387  0.33237047  0.00198312  1
  Mn3.30+  Mn81  1  0.49952216  0.33228115  0.49906718  1
  Mn3.30+  Mn82  1  0.50059700  0.66608112  0.00014607  1
  Mn3.30+  Mn83  1  0.49953036  0.66841261  0.50209327  1
  Mn3.30+  Mn84  1  0.83266634  -0.00143465  0.00197623  1
  Mn3.30+  Mn85  1  0.83161100  -0.00006355  0.49906181  1
  Mn3.30+  Mn86  1  0.83334682  0.33309501  -0.00024679  1
  Mn3.30+  Mn87  1  0.83622578  0.33497262  0.50115859  1
  Mn3.30+  Mn88  1  0.83310090  0.66819362  0.00044445  1
  Mn3.30+  Mn89  1  0.83610708  0.66741656  0.50089576  1
  Mn3.30+  Mn90  1  0.00056993  0.16690913  0.24843458  1
  Mn3.30+  Mn91  1  0.00037449  0.16490540  0.74960891  1
  Mn3.30+  Mn92  1  0.00140869  0.50035699  0.25000627  1
  Mn3.30+  Mn93  1  -0.00117281  0.50135930  0.74740969  1
  Mn3.30+  Mn94  1  0.00180480  0.83271446  0.24862398  1
  Mn3.30+  Mn95  1  0.00150424  0.83254035  0.75048381  1
  Mn3.30+  Mn96  1  0.33294614  0.16729218  0.24842298  1
  Mn3.30+  Mn97  1  0.33262174  0.16524830  0.75085877  1
  Mn3.30+  Mn98  1  0.33482269  0.50047024  0.25061591  1
  Mn3.30+  Mn99  1  0.33304888  0.50269238  0.74955654  1
  Mn3.30+  Mn100  1  0.33442317  0.83323061  0.25010931  1
  Mn3.30+  Mn101  1  0.32936482  0.83329655  0.75047006  1
  Mn3.30+  Mn102  1  0.66206820  0.16639947  0.24899404  1
  Mn3.30+  Mn103  1  0.66684998  0.16527413  0.74993274  1
  Mn3.30+  Mn104  1  0.66739402  0.50178359  0.24963783  1
  Mn3.30+  Mn105  1  0.66923621  0.50064169  0.74831503  1
  Mn3.30+  Mn106  1  0.66432522  0.83286434  0.24928483  1
  Mn3.30+  Mn107  1  0.66818293  0.83284343  0.75086891  1
  Mn3.30+  Mn108  1  0.16842664  -0.00062728  0.24961312  1
  Mn3.30+  Mn109  1  0.16568568  -0.00196735  0.75131632  1
  Mn3.30+  Mn110  1  0.17018227  0.33272199  0.24978397  1
  Mn3.30+  Mn111  1  0.16410851  0.33262317  0.74831782  1
  Mn3.30+  Mn112  1  0.16811191  0.66809848  0.25033786  1
  Mn3.30+  Mn113  1  0.16613949  0.67006342  0.74778934  1
  Mn3.30+  Mn114  1  0.49788117  -0.00133599  0.24927246  1
  Mn3.30+  Mn115  1  0.49936779  -0.00072206  0.75029260  1
  Mn3.30+  Mn116  1  0.49804183  0.33201851  0.24932378  1
  Mn3.30+  Mn117  1  0.49987205  0.33265461  0.74911814  1
  Mn3.30+  Mn118  1  0.50100914  0.66780792  0.24978038  1
  Mn3.30+  Mn119  1  0.49829569  0.66660127  0.74820170  1
  Mn3.30+  Mn120  1  0.82940640  -0.00034970  0.24632689  1
  Mn3.30+  Mn121  1  0.83424918  -0.00114652  0.75227585  1
  Mn3.30+  Mn122  1  0.83362206  0.33407585  0.24999004  1
  Mn3.30+  Mn123  1  0.83577699  0.33452289  0.74931570  1
  Mn3.30+  Mn124  1  0.83245363  0.66812332  0.24926752  1
  Mn3.30+  Mn125  1  0.83665761  0.66758078  0.74981605  1
  Mn3.30+  Mn126  1  0.00171875  0.16515625  0.00380100  1
  Mn3.30+  Mn127  1  0.00002541  0.16651030  0.49890637  1
  Mn3.30+  Mn128  1  0.00072220  0.50093166  -0.00026629  1
  Mn3.30+  Mn129  1  -0.00049237  0.50079376  0.50300350  1
  Mn3.30+  Mn130  1  0.00154240  0.83298558  0.00066344  1
  Mn3.30+  Mn131  1  0.00189800  0.83193274  0.50030248  1
  Mn3.30+  Mn132  1  0.33284962  0.16768600  0.00339051  1
  Mn3.30+  Mn133  1  0.33245917  0.16434229  0.49799097  1
  Mn3.30+  Mn134  1  0.33456558  0.50000355  -0.00112245  1
  Mn3.30+  Mn135  1  0.33323810  0.50314198  0.50172337  1
  Mn3.30+  Mn136  1  0.33184829  0.83345467  -0.00039997  1
  Mn3.30+  Mn137  1  0.33245501  0.83279976  0.49934690  1
  Mn3.30+  Mn138  1  0.66302506  0.16502085  0.00106175  1
  Mn3.30+  Mn139  1  0.66609009  0.16680341  0.49923682  1
  Mn3.30+  Mn140  1  0.66648645  0.50116613  -0.00049221  1
  Mn3.30+  Mn141  1  0.66990992  0.50143888  0.50206894  1
  Mn3.30+  Mn142  1  0.66768875  0.83222768  0.00053837  1
  Mn3.30+  Mn143  1  0.66477634  0.83333282  0.49879018  1
  O2-  O144  1  0.02908734  0.15928271  0.12662571  1
  O2-  O145  1  0.02454980  0.15398993  0.62053429  1
  O2-  O146  1  0.02833956  0.49390868  0.12308642  1
  O2-  O147  1  0.02678607  0.49155491  0.62510346  1
  O2-  O148  1  0.02862761  0.82853757  0.12535217  1
  O2-  O149  1  0.02423081  0.83592144  0.62544194  1
  O2-  O150  1  0.36124341  0.15784955  0.12646369  1
  O2-  O151  1  0.35693210  0.15581415  0.62322614  1
  O2-  O152  1  0.35547701  0.49569747  0.12329926  1
  O2-  O153  1  0.35694805  0.49405942  0.62499113  1
  O2-  O154  1  0.35975965  0.82903342  0.12396066  1
  O2-  O155  1  0.35464039  0.83784304  0.62547855  1
  O2-  O156  1  0.69029172  0.16339694  0.12386912  1
  O2-  O157  1  0.69419707  0.15812129  0.62628050  1
  O2-  O158  1  0.69268024  0.49164658  0.12227824  1
  O2-  O159  1  0.69805858  0.49521698  0.62515325  1
  O2-  O160  1  0.69008003  0.82381872  0.12211495  1
  O2-  O161  1  0.69323706  0.83016934  0.62592864  1
  O2-  O162  1  0.14391203  0.33641355  0.12609406  1
  O2-  O163  1  0.13812361  0.32657080  0.62447014  1
  O2-  O164  1  0.14329994  0.65497795  0.12468202  1
  O2-  O165  1  0.13765644  0.66083870  0.62519705  1
  O2-  O166  1  0.14540062  0.98991370  0.12516363  1
  O2-  O167  1  0.14600524  0.99306252  0.62287066  1
  O2-  O168  1  0.47554873  0.33175426  0.12566508  1
  O2-  O169  1  0.47518311  0.32732764  0.62395345  1
  O2-  O170  1  0.47396754  0.65934931  0.12543763  1
  O2-  O171  1  0.47179766  0.66030229  0.62604699  1
  O2-  O172  1  0.47186573  0.99051760  0.12517625  1
  O2-  O173  1  0.47134736  0.99176589  0.62338271  1
  O2-  O174  1  0.80663095  0.32878314  0.12287633  1
  O2-  O175  1  0.80801290  0.32512092  0.62603555  1
  O2-  O176  1  0.80555023  0.65984285  0.12278069  1
  O2-  O177  1  0.80961081  0.66332442  0.62377920  1
  O2-  O178  1  0.80192496  0.99299226  0.12340577  1
  O2-  O179  1  0.80863182  0.99433380  0.62732128  1
  O2-  O180  1  0.30850127  0.17262245  0.37375417  1
  O2-  O181  1  0.31637708  0.16631881  0.87666699  1
  O2-  O182  1  0.30995060  0.50992414  0.37910240  1
  O2-  O183  1  0.31043999  0.50353945  0.87296635  1
  O2-  O184  1  0.31518328  0.82749383  0.37435868  1
  O2-  O185  1  0.30763835  0.83908573  0.87577422  1
  O2-  O186  1  0.63946046  0.16829194  0.37418896  1
  O2-  O187  1  0.63815304  0.17168987  0.87428470  1
  O2-  O188  1  0.64260909  0.50886790  0.37724155  1
  O2-  O189  1  0.64006806  0.50670051  0.87453366  1
  O2-  O190  1  0.63724896  0.83794535  0.37668163  1
  O2-  O191  1  0.63943436  0.83737663  0.87559164  1
  O2-  O192  1  0.97191320  0.17421801  0.37376683  1
  O2-  O193  1  0.97566574  0.17049832  0.88002987  1
  O2-  O194  1  0.97538367  0.50683206  0.37760308  1
  O2-  O195  1  0.97469627  0.50815496  0.87532150  1
  O2-  O196  1  0.98091980  0.83558170  0.37240162  1
  O2-  O197  1  0.97302314  0.83756901  0.87685354  1
  O2-  O198  1  0.19305648  0.00720018  0.37224807  1
  O2-  O199  1  0.18893584  0.00567377  0.87859897  1
  O2-  O200  1  0.18628237  0.33851084  0.37646947  1
  O2-  O201  1  0.18359064  0.33755981  0.87364622  1
  O2-  O202  1  0.19173230  0.66829849  0.37630869  1
  O2-  O203  1  0.18297046  0.67302292  0.87397365  1
  O2-  O204  1  0.52556907  0.00570598  0.37377455  1
  O2-  O205  1  0.52732112  0.00739309  0.87715955  1
  O2-  O206  1  0.51877846  0.33840801  0.37604106  1
  O2-  O207  1  0.52511569  0.33859579  0.87364491  1
  O2-  O208  1  0.52451284  0.67368091  0.37662853  1
  O2-  O209  1  0.52560769  0.67088512  0.87220780  1
  O2-  O210  1  0.85543962  0.00656989  0.37051000  1
  O2-  O211  1  0.86103384  0.00785544  0.87867114  1
  O2-  O212  1  0.86208648  0.34015207  0.37562150  1
  O2-  O213  1  0.86127596  0.33787696  0.87580054  1
  O2-  O214  1  0.85956455  0.66800183  0.37646068  1
  O2-  O215  1  0.86055476  0.67209869  0.87742918  1
  O2-  O216  1  0.23982526  0.09498324  0.02441633  1
  O2-  O217  1  0.23610557  0.09528957  0.51876870  1
  O2-  O218  1  0.23843996  0.42976446  0.01409724  1
  O2-  O219  1  0.23879252  0.42900644  0.52126098  1
  O2-  O220  1  0.23760387  0.75932298  0.02266352  1
  O2-  O221  1  0.23771441  0.76327570  0.52277343  1
  O2-  O222  1  0.56822787  0.09857423  0.02104535  1
  O2-  O223  1  0.56810021  0.09010654  0.52135518  1
  O2-  O224  1  0.57223859  0.42762169  0.02004885  1
  O2-  O225  1  0.57736466  0.42930123  0.52141112  1
  O2-  O226  1  0.57017588  0.76199029  0.01643016  1
  O2-  O227  1  0.57330139  0.75881537  0.52643250  1
  O2-  O228  1  0.90433182  0.09337640  0.02490905  1
  O2-  O229  1  0.90550038  0.09488406  0.51771876  1
  O2-  O230  1  0.90762757  0.42959209  0.02105013  1
  O2-  O231  1  0.90354701  0.43205892  0.52020063  1
  O2-  O232  1  0.90612111  0.76015903  0.02513706  1
  O2-  O233  1  0.90514386  0.76149241  0.52079533  1
  O2-  O234  1  0.26240689  0.26352894  0.22760405  1
  O2-  O235  1  0.26032357  0.25870051  0.72703678  1
  O2-  O236  1  0.26249150  0.59537207  0.23076318  1
  O2-  O237  1  0.25757166  0.59794832  0.72720669  1
  O2-  O238  1  0.26467344  0.92614312  0.23388926  1
  O2-  O239  1  0.26299608  0.93138461  0.73564337  1
  O2-  O240  1  0.59441167  0.26138426  0.22928927  1
  O2-  O241  1  0.59678627  0.26160737  0.72812991  1
  O2-  O242  1  0.59454934  0.59521487  0.22920175  1
  O2-  O243  1  0.59607297  0.59314271  0.72710177  1
  O2-  O244  1  0.59460884  0.92997276  0.22752163  1
  O2-  O245  1  0.59410975  0.92705904  0.73030769  1
  O2-  O246  1  0.92867494  0.26052918  0.22698689  1
  O2-  O247  1  0.92793405  0.26337342  0.72982135  1
  O2-  O248  1  0.92858139  0.59277044  0.22809022  1
  O2-  O249  1  0.93292903  0.59846719  0.73078332  1
  O2-  O250  1  0.92321034  0.92663217  0.22823813  1
  O2-  O251  1  0.92988402  0.92854902  0.73024437  1
  O2-  O252  1  0.09484157  0.24186782  0.27031069  1
  O2-  O253  1  0.09165689  0.23672903  0.76711163  1
  O2-  O254  1  0.09572811  0.57119279  0.27132747  1
  O2-  O255  1  0.09579852  0.57065789  0.76911457  1
  O2-  O256  1  0.08880965  0.91207555  0.26796262  1
  O2-  O257  1  0.09466760  0.90414764  0.77362030  1
  O2-  O258  1  0.42841701  0.23497279  0.26778964  1
  O2-  O259  1  0.43228315  0.23572311  0.76374525  1
  O2-  O260  1  0.43072814  0.57341323  0.27130152  1
  O2-  O261  1  0.43231494  0.57019640  0.76685651  1
  O2-  O262  1  0.43207475  0.90057474  0.26818694  1
  O2-  O263  1  0.42822471  0.90680752  0.77219783  1
  O2-  O264  1  0.76342682  0.23797165  0.26641254  1
  O2-  O265  1  0.76242844  0.23795063  0.77189138  1
  O2-  O266  1  0.76264200  0.57347271  0.27022348  1
  O2-  O267  1  0.76234510  0.57469222  0.77323512  1
  O2-  O268  1  0.75636925  0.90660787  0.26805124  1
  O2-  O269  1  0.76329559  0.90532933  0.77343061  1
  O2-  O270  1  0.07078952  0.07219194  0.47565484  1
  O2-  O271  1  0.06798154  0.06743622  0.98607832  1
  O2-  O272  1  0.07216831  0.40752304  0.47860180  1
  O2-  O273  1  0.07051274  0.40700441  0.97901353  1
  O2-  O274  1  0.07171686  0.73714265  0.48251600  1
  O2-  O275  1  0.06722967  0.73536393  0.98490454  1
  O2-  O276  1  0.40238418  0.06687184  0.47644499  1
  O2-  O277  1  0.40488225  0.07048178  0.98125387  1
  O2-  O278  1  0.40779052  0.41063798  0.48540683  1
  O2-  O279  1  0.40963415  0.40878565  0.98018425  1
  O2-  O280  1  0.40437987  0.73818762  0.48664346  1
  O2-  O281  1  0.40658683  0.74099633  0.98218420  1
  O2-  O282  1  0.73697493  0.07308559  0.47868061  1
  O2-  O283  1  0.73765270  0.07408981  0.97742687  1
  O2-  O284  1  0.74228079  0.40726750  0.48079838  1
  O2-  O285  1  0.73794202  0.40713546  0.97599500  1
  O2-  O286  1  0.73557355  0.73843596  0.48323572  1
  O2-  O287  1  0.73860637  0.73869999  0.97799503  1
  O2-  O288  1  0.09417157  0.23571031  0.47776364  1
  O2-  O289  1  0.09004740  0.24264296  0.98595135  1
  O2-  O290  1  0.09651440  0.57132553  0.48102497  1
  O2-  O291  1  0.09495850  0.57152385  0.97856878  1
  O2-  O292  1  0.08980579  0.91152358  0.47977304  1
  O2-  O293  1  0.09422811  0.90335593  0.97761271  1
  O2-  O294  1  0.42772305  0.23136271  0.48488469  1
  O2-  O295  1  0.43078991  0.23747229  0.98343906  1
  O2-  O296  1  0.43089831  0.57373963  0.47948708  1
  O2-  O297  1  0.43183891  0.57010595  0.98310544  1
  O2-  O298  1  0.43076546  0.90039944  0.48057076  1
  O2-  O299  1  0.43039749  0.90632686  0.97799757  1
  O2-  O300  1  0.76822300  0.23875314  0.48288182  1
  O2-  O301  1  0.75843357  0.23689370  0.97884001  1
  O2-  O302  1  0.76072711  0.57563455  0.47817541  1
  O2-  O303  1  0.76280275  0.57192936  0.97735341  1
  O2-  O304  1  0.75476614  0.90852444  0.48173078  1
  O2-  O305  1  0.76335186  0.90322044  0.97724411  1
  O2-  O306  1  0.06902264  0.07377299  0.27167879  1
  O2-  O307  1  0.06952912  0.06524606  0.76446218  1
  O2-  O308  1  0.07202679  0.40599770  0.26989892  1
  O2-  O309  1  0.06975636  0.40764644  0.77160306  1
  O2-  O310  1  0.07142914  0.73343323  0.26572119  1
  O2-  O311  1  0.06910042  0.73865934  0.76769457  1
  O2-  O312  1  0.40163944  0.06701005  0.27179709  1
  O2-  O313  1  0.40619225  0.07075277  0.77030736  1
  O2-  O314  1  0.41024700  0.41126381  0.26873475  1
  O2-  O315  1  0.40956555  0.40548148  0.76498719  1
  O2-  O316  1  0.40317215  0.73454686  0.26448929  1
  O2-  O317  1  0.40760273  0.74476246  0.76620952  1
  O2-  O318  1  0.73666066  0.07438135  0.26936187  1
  O2-  O319  1  0.73846767  0.07077946  0.77333858  1
  O2-  O320  1  0.74364212  0.40982399  0.26814887  1
  O2-  O321  1  0.73906139  0.40404117  0.77188174  1
  O2-  O322  1  0.73679270  0.73905975  0.26883048  1
  O2-  O323  1  0.73738244  0.73725569  0.76757268  1
  O2-  O324  1  0.23615518  0.09804478  0.22793749  1
  O2-  O325  1  0.23778653  0.09188997  0.72891458  1
  O2-  O326  1  0.23772848  0.43053281  0.23667151  1
  O2-  O327  1  0.23808078  0.42744605  0.72914590  1
  O2-  O328  1  0.23943922  0.76024877  0.22560543  1
  O2-  O329  1  0.23606819  0.76378973  0.72927281  1
  O2-  O330  1  0.56495130  0.09540939  0.23047932  1
  O2-  O331  1  0.57157397  0.09173519  0.72632756  1
  O2-  O332  1  0.57500090  0.42783192  0.23111457  1
  O2-  O333  1  0.57378665  0.42680826  0.72741722  1
  O2-  O334  1  0.57042409  0.76111764  0.22926052  1
  O2-  O335  1  0.57229088  0.75935049  0.72860086  1
  O2-  O336  1  0.90351662  0.09307483  0.22714180  1
  O2-  O337  1  0.90419378  0.09552271  0.73163549  1
  O2-  O338  1  0.90814604  0.42753250  0.22779111  1
  O2-  O339  1  0.90232741  0.43394284  0.73174005  1
  O2-  O340  1  0.90599605  0.75861605  0.22608248  1
  O2-  O341  1  0.90477963  0.76386003  0.73042247  1
  O2-  O342  1  0.26357375  0.26087461  0.02179891  1
  O2-  O343  1  0.25918375  0.25972456  0.52397263  1
  O2-  O344  1  0.26079419  0.59285535  0.01910218  1
  O2-  O345  1  0.26195416  0.59791104  0.52349323  1
  O2-  O346  1  0.26494836  0.93016123  0.01801394  1
  O2-  O347  1  0.26288645  0.92829035  0.51210680  1
  O2-  O348  1  0.59715911  0.26475836  0.01659742  1
  O2-  O349  1  0.59567508  0.25812659  0.52371405  1
  O2-  O350  1  0.59685917  0.59435426  0.02154591  1
  O2-  O351  1  0.59428433  0.59460632  0.52297724  1
  O2-  O352  1  0.59703189  0.93006535  0.02111828  1
  O2-  O353  1  0.59249263  0.92665474  0.52258015  1
  O2-  O354  1  0.92740398  0.25812012  0.02340120  1
  O2-  O355  1  0.93166388  0.26333828  0.52275868  1
  O2-  O356  1  0.92813036  0.59365954  0.02299894  1
  O2-  O357  1  0.93255833  0.59692009  0.52053377  1
  O2-  O358  1  0.92995232  0.92630594  0.02459151  1
  O2-  O359  1  0.92500364  0.92664538  0.51673247  1
