# generated using pymatgen
data_Sr7Ca15Pr50Mn72O216
_symmetry_space_group_name_H-M   'P 1'
_cell_length_a   16.55780961
_cell_length_b   16.60318066
_cell_length_c   15.59457741
_cell_angle_alpha   89.99652396
_cell_angle_beta   90.00003683
_cell_angle_gamma   89.99995522
_symmetry_Int_Tables_number   1
_chemical_formula_structural   Sr7Ca15Pr50Mn72O216
_chemical_formula_sum   'Sr7 Ca15 Pr50 Mn72 O216'
_cell_volume   4287.14120449
_cell_formula_units_Z   1
loop_
 _symmetry_equiv_pos_site_id
 _symmetry_equiv_pos_as_xyz
  1  'x, y, z'
loop_
 _atom_type_symbol
 _atom_type_oxidation_number
  Sr2+  2.0
  Ca2+  2.0
  Pr3+  3.0
  Mn3.30+  3.3
  O2-  -2.0
loop_
 _atom_site_type_symbol
 _atom_site_label
 _atom_site_symmetry_multiplicity
 _atom_site_fract_x
 _atom_site_fract_y
 _atom_site_fract_z
 _atom_site_occupancy
  Sr2+  Sr0  1  0.16514826  0.51209634  0.12253021  1
  Sr2+  Sr1  1  0.50193931  0.17454364  0.62541510  1
  Sr2+  Sr2  1  0.50037898  0.15859452  0.87148471  1
  Sr2+  Sr3  1  0.66022985  0.34392552  0.62365352  1
  Sr2+  Sr4  1  0.99871591  0.32876125  0.87498437  1
  Sr2+  Sr5  1  0.16191499  0.49269971  0.87620952  1
  Sr2+  Sr6  1  -0.00219096  0.67820169  0.12154367  1
  Ca2+  Ca7  1  0.66862140  0.98488430  0.37906034  1
  Ca2+  Ca8  1  0.50086673  0.82051407  0.87242559  1
  Ca2+  Ca9  1  0.16199973  0.81705195  0.87425484  1
  Ca2+  Ca10  1  0.83665579  0.84518587  0.12309489  1
  Ca2+  Ca11  1  0.50709617  0.51251927  0.62448076  1
  Ca2+  Ca12  1  0.83231328  0.48865622  0.87482805  1
  Ca2+  Ca13  1  0.50774625  0.85103091  0.62821157  1
  Ca2+  Ca14  1  0.66664541  0.32057940  0.37814680  1
  Ca2+  Ca15  1  1.00394221  0.65359950  0.87610646  1
  Ca2+  Ca16  1  0.82600817  0.48243345  0.37489968  1
  Ca2+  Ca17  1  0.67058022  0.64858763  0.87370284  1
  Ca2+  Ca18  1  0.33679213  0.01496999  0.62738555  1
  Ca2+  Ca19  1  0.66022492  0.01428524  0.62570529  1
  Ca2+  Ca20  1  0.66716532  0.98600529  0.87043912  1
  Ca2+  Ca21  1  0.49829149  0.48558592  0.37874865  1
  Pr3+  Pr22  1  0.32864859  0.67894937  0.12249728  1
  Pr3+  Pr23  1  0.33414349  0.65603573  0.87466260  1
  Pr3+  Pr24  1  0.16288480  0.15863601  0.87410452  1
  Pr3+  Pr25  1  0.66450779  0.34684717  0.12608883  1
  Pr3+  Pr26  1  0.33702407  0.67842658  0.62755822  1
  Pr3+  Pr27  1  0.33074869  0.01246561  0.12425415  1
  Pr3+  Pr28  1  0.82821101  0.81699236  0.87566695  1
  Pr3+  Pr29  1  0.65918922  0.67738327  0.62796322  1
  Pr3+  Pr30  1  0.83235475  0.84579611  0.62722800  1
  Pr3+  Pr31  1  -0.00400166  0.34923410  0.12437342  1
  Pr3+  Pr32  1  0.33053502  0.34786750  0.12431224  1
  Pr3+  Pr33  1  0.49896265  0.48969394  0.87276179  1
  Pr3+  Pr34  1  0.16818865  0.51267195  0.62758939  1
  Pr3+  Pr35  1  0.66635545  0.68108855  0.12172603  1
  Pr3+  Pr36  1  0.83114768  0.18009612  0.62481335  1
  Pr3+  Pr37  1  0.50178943  0.84577847  0.12196000  1
  Pr3+  Pr38  1  0.50121578  0.82244557  0.37672595  1
  Pr3+  Pr39  1  0.50364464  0.17932164  0.12466587  1
  Pr3+  Pr40  1  0.99985327  0.32060962  0.37464482  1
  Pr3+  Pr41  1  0.83760524  0.51349811  0.12482862  1
  Pr3+  Pr42  1  0.82733172  0.15308536  0.87432866  1
  Pr3+  Pr43  1  0.50361861  0.51487107  0.12528614  1
  Pr3+  Pr44  1  0.66718165  0.00877043  0.12429847  1
  Pr3+  Pr45  1  0.17378129  0.84878823  0.62897061  1
  Pr3+  Pr46  1  0.16806733  0.17988132  0.12484640  1
  Pr3+  Pr47  1  -0.00320566  0.01375530  0.62626808  1
  Pr3+  Pr48  1  0.33875733  0.98730568  0.37869349  1
  Pr3+  Pr49  1  0.50219738  0.15437008  0.37799499  1
  Pr3+  Pr50  1  1.00011330  0.65483098  0.37503885  1
  Pr3+  Pr51  1  -0.00476591  0.00834384  0.12382351  1
  Pr3+  Pr52  1  -0.00501383  0.34660732  0.62574760  1
  Pr3+  Pr53  1  0.33862357  0.32206626  0.37469490  1
  Pr3+  Pr54  1  0.16547507  0.82047493  0.37682505  1
  Pr3+  Pr55  1  0.33472809  0.32300258  0.87531553  1
  Pr3+  Pr56  1  0.83652107  0.17967595  0.12499258  1
  Pr3+  Pr57  1  0.17122042  0.17960040  0.62515653  1
  Pr3+  Pr58  1  0.33535143  0.34437540  0.62559348  1
  Pr3+  Pr59  1  0.83204386  0.50976600  0.62564275  1
  Pr3+  Pr60  1  0.82540827  0.15065416  0.37573308  1
  Pr3+  Pr61  1  -0.00333884  0.67833579  0.62884841  1
  Pr3+  Pr62  1  0.16381937  0.15201003  0.37562552  1
  Pr3+  Pr63  1  0.82822924  0.82171508  0.37413400  1
  Pr3+  Pr64  1  1.00415751  0.98629242  0.87400289  1
  Pr3+  Pr65  1  1.00169512  0.98525713  0.37659942  1
  Pr3+  Pr66  1  0.67025616  0.65150983  0.37528936  1
  Pr3+  Pr67  1  0.67033259  0.32247819  0.87280832  1
  Pr3+  Pr68  1  0.33991788  0.65198188  0.37529785  1
  Pr3+  Pr69  1  0.34067481  0.98705261  0.87168316  1
  Pr3+  Pr70  1  0.16841519  0.84190980  0.12134256  1
  Pr3+  Pr71  1  0.16436368  0.48897875  0.37456004  1
  Mn3.30+  Mn72  1  0.16709607  -0.00119683  -0.00226644  1
  Mn3.30+  Mn73  1  0.16943799  -0.00000688  0.50233079  1
  Mn3.30+  Mn74  1  0.16476158  0.33531573  -0.00016440  1
  Mn3.30+  Mn75  1  0.16686514  0.33444643  0.49950243  1
  Mn3.30+  Mn76  1  0.16375393  0.66842204  -0.00151298  1
  Mn3.30+  Mn77  1  0.16839679  0.66732767  0.50165713  1
  Mn3.30+  Mn78  1  0.50161681  -0.00011422  -0.00339689  1
  Mn3.30+  Mn79  1  0.50347810  -0.00141590  0.50268812  1
  Mn3.30+  Mn80  1  0.50052075  0.33417082  0.00025317  1
  Mn3.30+  Mn81  1  0.50276544  0.33474303  0.49908309  1
  Mn3.30+  Mn82  1  0.50161340  0.66875700  -0.00330291  1
  Mn3.30+  Mn83  1  0.50159377  0.66605433  0.50092235  1
  Mn3.30+  Mn84  1  0.83215333  -0.00279744  -0.00256339  1
  Mn3.30+  Mn85  1  0.82948664  -0.00095008  0.50258356  1
  Mn3.30+  Mn86  1  0.83253398  0.33439610  -0.00100818  1
  Mn3.30+  Mn87  1  0.82976454  0.33414361  0.49873740  1
  Mn3.30+  Mn88  1  0.83312970  0.66553364  -0.00311214  1
  Mn3.30+  Mn89  1  0.83101671  0.66499285  0.50125046  1
  Mn3.30+  Mn90  1  -0.00131966  0.16537448  0.25077453  1
  Mn3.30+  Mn91  1  -0.00150842  0.16817741  0.75047318  1
  Mn3.30+  Mn92  1  -0.00346180  0.50134671  0.25247003  1
  Mn3.30+  Mn93  1  -0.00103006  0.50186913  0.75122977  1
  Mn3.30+  Mn94  1  -0.00197312  0.83238536  0.24898447  1
  Mn3.30+  Mn95  1  0.00082841  0.83231704  0.75106964  1
  Mn3.30+  Mn96  1  0.33420435  0.16652389  0.25074850  1
  Mn3.30+  Mn97  1  0.33381334  0.16651141  0.74920712  1
  Mn3.30+  Mn98  1  0.33481255  0.50062519  0.25052901  1
  Mn3.30+  Mn99  1  0.33534836  0.50070124  0.74886153  1
  Mn3.30+  Mn100  1  0.33400099  0.83370376  0.25070583  1
  Mn3.30+  Mn101  1  0.33796130  0.83501683  0.74961981  1
  Mn3.30+  Mn102  1  0.66754524  0.16553598  0.25031442  1
  Mn3.30+  Mn103  1  0.66467848  0.16351937  0.75012153  1
  Mn3.30+  Mn104  1  0.66723740  0.49857006  0.25251823  1
  Mn3.30+  Mn105  1  0.66638348  0.49996807  0.75023425  1
  Mn3.30+  Mn106  1  0.66816136  0.83403711  0.24795813  1
  Mn3.30+  Mn107  1  0.66403766  0.83311075  0.75233479  1
  Mn3.30+  Mn108  1  0.16639309  -0.00204465  0.24983757  1
  Mn3.30+  Mn109  1  0.17001987  0.00062023  0.75108595  1
  Mn3.30+  Mn110  1  0.16697614  0.33445622  0.25086697  1
  Mn3.30+  Mn111  1  0.16509873  0.33526197  0.74972679  1
  Mn3.30+  Mn112  1  0.16705557  0.66723304  0.25017145  1
  Mn3.30+  Mn113  1  0.16542309  0.66869885  0.75047691  1
  Mn3.30+  Mn114  1  0.50158377  -0.00036668  0.25069975  1
  Mn3.30+  Mn115  1  0.50354231  -0.00132838  0.75012560  1
  Mn3.30+  Mn116  1  0.50168905  0.33500353  0.25166175  1
  Mn3.30+  Mn117  1  0.50136017  0.33369578  0.74865080  1
  Mn3.30+  Mn118  1  0.50126172  0.66669803  0.24960955  1
  Mn3.30+  Mn119  1  0.50204258  0.66817975  0.75252736  1
  Mn3.30+  Mn120  1  0.83173848  -0.00269927  0.25028361  1
  Mn3.30+  Mn121  1  0.83004965  -0.00085200  0.74980573  1
  Mn3.30+  Mn122  1  0.83032336  0.33330683  0.25233128  1
  Mn3.30+  Mn123  1  0.83145015  0.33474941  0.74958803  1
  Mn3.30+  Mn124  1  0.83342570  0.66678297  0.24987599  1
  Mn3.30+  Mn125  1  0.83085513  0.66382455  0.75261707  1
  Mn3.30+  Mn126  1  -0.00110398  0.16720065  -0.00103213  1
  Mn3.30+  Mn127  1  -0.00137371  0.16650857  0.50006239  1
  Mn3.30+  Mn128  1  -0.00170077  0.50329951  -0.00167777  1
  Mn3.30+  Mn129  1  -0.00260464  0.50016485  0.49843014  1
  Mn3.30+  Mn130  1  -0.00113669  0.83201942  -0.00229129  1
  Mn3.30+  Mn131  1  -0.00015406  0.83274147  0.50282176  1
  Mn3.30+  Mn132  1  0.33368585  0.16664144  -0.00037184  1
  Mn3.30+  Mn133  1  0.33420973  0.16641633  0.50062598  1
  Mn3.30+  Mn134  1  0.33281873  0.50120970  -0.00179592  1
  Mn3.30+  Mn135  1  0.33700423  0.50016638  0.50214845  1
  Mn3.30+  Mn136  1  0.33406451  0.83390295  -0.00513056  1
  Mn3.30+  Mn137  1  0.33718248  0.83479365  0.50487765  1
  Mn3.30+  Mn138  1  0.66721297  0.16415814  -0.00035424  1
  Mn3.30+  Mn139  1  0.66539625  0.16531264  0.49961402  1
  Mn3.30+  Mn140  1  0.66903066  0.50089518  -0.00059129  1
  Mn3.30+  Mn141  1  0.66478292  0.49793978  0.49755670  1
  Mn3.30+  Mn142  1  0.66715618  0.83325018  -0.00333487  1
  Mn3.30+  Mn143  1  0.66499578  0.83420974  0.50238562  1
  O2-  O144  1  0.02405099  0.15752855  0.12737100  1
  O2-  O145  1  0.02614621  0.16136595  0.62460454  1
  O2-  O146  1  0.01473667  0.49625222  0.12841607  1
  O2-  O147  1  0.02379552  0.49501134  0.62141166  1
  O2-  O148  1  0.02464380  0.83702447  0.12209487  1
  O2-  O149  1  0.02817164  0.82745793  0.62659443  1
  O2-  O150  1  0.35931769  0.16031532  0.12730315  1
  O2-  O151  1  0.35088642  0.16432021  0.62427471  1
  O2-  O152  1  0.35932454  0.49717738  0.12281008  1
  O2-  O153  1  0.36366865  0.49387983  0.62529305  1
  O2-  O154  1  0.35726379  0.82761428  0.12103447  1
  O2-  O155  1  0.36616225  0.82415815  0.62636842  1
  O2-  O156  1  0.69278645  0.15763669  0.12511278  1
  O2-  O157  1  0.68835248  0.15956252  0.62453706  1
  O2-  O158  1  0.69340787  0.49503657  0.12681362  1
  O2-  O159  1  0.68847210  0.50179564  0.62281937  1
  O2-  O160  1  0.69458149  0.82835832  0.12056199  1
  O2-  O161  1  0.69147900  0.82233399  0.62732302  1
  O2-  O162  1  0.14095514  0.32761025  0.12847065  1
  O2-  O163  1  0.13954593  0.32783714  0.62270116  1
  O2-  O164  1  0.14997155  0.67201430  0.12531971  1
  O2-  O165  1  0.14181676  0.66252641  0.62423598  1
  O2-  O166  1  0.13991436  0.99150661  0.12230469  1
  O2-  O167  1  0.14070831  0.99651380  0.62513485  1
  O2-  O168  1  0.47468817  0.32844307  0.12574978  1
  O2-  O169  1  0.47827246  0.32893435  0.62412728  1
  O2-  O170  1  0.47347852  0.66302081  0.12346186  1
  O2-  O171  1  0.47988848  0.65603623  0.62728863  1
  O2-  O172  1  0.47359671  0.99434494  0.12485785  1
  O2-  O173  1  0.47674541  0.99428641  0.62482101  1
  O2-  O174  1  0.80889460  0.32837938  0.12672485  1
  O2-  O175  1  0.81200417  0.33015405  0.62253312  1
  O2-  O176  1  0.80822111  0.65898527  0.12240412  1
  O2-  O177  1  0.80382709  0.65807955  0.62491081  1
  O2-  O178  1  0.81173369  0.99300854  0.12183916  1
  O2-  O179  1  0.80441779  0.99418945  0.62631380  1
  O2-  O180  1  0.30712666  0.17240214  0.37378281  1
  O2-  O181  1  0.30712979  0.17343181  0.87441704  1
  O2-  O182  1  0.30784832  0.50439162  0.37833799  1
  O2-  O183  1  0.31223483  0.50515036  0.87318736  1
  O2-  O184  1  0.30908804  0.84046885  0.38035561  1
  O2-  O185  1  0.30496133  0.84097608  0.87264496  1
  O2-  O186  1  0.64567148  0.17366120  0.37212920  1
  O2-  O187  1  0.64997518  0.17539818  0.87770357  1
  O2-  O188  1  0.63775858  0.50749346  0.37291836  1
  O2-  O189  1  0.64232020  0.50036905  0.87710326  1
  O2-  O190  1  0.64466494  0.83848504  0.37630174  1
  O2-  O191  1  0.64080968  0.84265482  0.87484390  1
  O2-  O192  1  0.97171695  0.17109049  0.37446340  1
  O2-  O193  1  0.97264655  0.17091614  0.87323512  1
  O2-  O194  1  0.97015913  0.50661052  0.37651682  1
  O2-  O195  1  0.97570406  0.50516009  0.87390901  1
  O2-  O196  1  0.97352052  0.83836747  0.37898440  1
  O2-  O197  1  0.97257025  0.84137979  0.87300141  1
  O2-  O198  1  0.19354950  0.00304603  0.37746233  1
  O2-  O199  1  0.19579255  0.01219930  0.87621522  1
  O2-  O200  1  0.19353526  0.34068330  0.37491833  1
  O2-  O201  1  0.18903307  0.33225618  0.87306364  1
  O2-  O202  1  0.19454048  0.67245688  0.37846451  1
  O2-  O203  1  0.19009068  0.67129540  0.87228162  1
  O2-  O204  1  0.52622265  0.00309537  0.37392620  1
  O2-  O205  1  0.52594569  0.00621482  0.87620389  1
  O2-  O206  1  0.52469479  0.34117082  0.37273202  1
  O2-  O207  1  0.52520878  0.34065603  0.87656546  1
  O2-  O208  1  0.52650113  0.67698080  0.37281967  1
  O2-  O209  1  0.52832599  0.67339705  0.87666612  1
  O2-  O210  1  0.85868911  0.00207205  0.37904422  1
  O2-  O211  1  0.86021983  0.00579284  0.87273803  1
  O2-  O212  1  0.85718289  0.33585225  0.37515200  1
  O2-  O213  1  0.84822071  0.33717560  0.87557049  1
  O2-  O214  1  0.85741101  0.67678056  0.37812811  1
  O2-  O215  1  0.86208677  0.67226077  0.87442072  1
  O2-  O216  1  0.23764904  0.09433415  0.02340936  1
  O2-  O217  1  0.23527068  0.09734366  0.51528836  1
  O2-  O218  1  0.24371091  0.42385305  0.01847564  1
  O2-  O219  1  0.23840842  0.42937783  0.52201720  1
  O2-  O220  1  0.24039471  0.76151617  0.01684088  1
  O2-  O221  1  0.24276305  0.76490561  0.52371842  1
  O2-  O222  1  0.57358510  0.09266310  0.02462908  1
  O2-  O223  1  0.57137492  0.09443584  0.51237453  1
  O2-  O224  1  0.57251465  0.42905264  0.02197281  1
  O2-  O225  1  0.56785707  0.43245560  0.51740437  1
  O2-  O226  1  0.57324464  0.76067872  0.02310445  1
  O2-  O227  1  0.57020776  0.76424655  0.52034069  1
  O2-  O228  1  0.90500157  0.09421189  0.01904944  1
  O2-  O229  1  0.90235194  0.09258579  0.52259142  1
  O2-  O230  1  0.90459129  0.42616308  0.01954206  1
  O2-  O231  1  0.90629382  0.42690624  0.52069132  1
  O2-  O232  1  0.90000476  0.76501751  0.01664035  1
  O2-  O233  1  0.90461900  0.75917347  0.52525916  1
  O2-  O234  1  0.26217633  0.26019432  0.22839105  1
  O2-  O235  1  0.25813165  0.26213898  0.72910903  1
  O2-  O236  1  0.26545529  0.59751959  0.23504489  1
  O2-  O237  1  0.26170788  0.59332236  0.72810402  1
  O2-  O238  1  0.26139032  0.92789450  0.22975191  1
  O2-  O239  1  0.26845013  0.92876422  0.72611813  1
  O2-  O240  1  0.59274203  0.25981205  0.22651820  1
  O2-  O241  1  0.59254892  0.26071856  0.73931645  1
  O2-  O242  1  0.59604310  0.59667973  0.22709539  1
  O2-  O243  1  0.59638999  0.59523758  0.73691154  1
  O2-  O244  1  0.59334822  0.92610384  0.22627864  1
  O2-  O245  1  0.59832968  0.92876757  0.72900702  1
  O2-  O246  1  0.92854377  0.26225180  0.22992737  1
  O2-  O247  1  0.92585914  0.25927609  0.72688154  1
  O2-  O248  1  0.92572437  0.59666817  0.23432973  1
  O2-  O249  1  0.92453138  0.59224953  0.72520023  1
  O2-  O250  1  0.93136398  0.93105116  0.23558129  1
  O2-  O251  1  0.92949514  0.92760480  0.72853120  1
  O2-  O252  1  0.09462834  0.23873447  0.27224691  1
  O2-  O253  1  0.09444532  0.23735286  0.76546491  1
  O2-  O254  1  0.09324060  0.57503108  0.27376067  1
  O2-  O255  1  0.09161520  0.57351082  0.76168818  1
  O2-  O256  1  0.09479356  0.90406518  0.27216867  1
  O2-  O257  1  0.10029757  0.90755707  0.77132889  1
  O2-  O258  1  0.43055440  0.23992536  0.27180920  1
  O2-  O259  1  0.42012077  0.24535334  0.76902376  1
  O2-  O260  1  0.43071960  0.57064715  0.27137013  1
  O2-  O261  1  0.42708299  0.57677270  0.77367385  1
  O2-  O262  1  0.42825124  0.90552736  0.27024807  1
  O2-  O263  1  0.43121365  0.90586695  0.77469560  1
  O2-  O264  1  0.76628799  0.23378309  0.26509757  1
  O2-  O265  1  0.76057299  0.23664569  0.76550312  1
  O2-  O266  1  0.76124128  0.56840337  0.27180537  1
  O2-  O267  1  0.76413192  0.56740092  0.76976770  1
  O2-  O268  1  0.76249914  0.90337779  0.26757174  1
  O2-  O269  1  0.76392444  0.89961040  0.76751906  1
  O2-  O270  1  0.06975443  0.07278933  0.47912785  1
  O2-  O271  1  0.07260916  0.07186579  0.97860747  1
  O2-  O272  1  0.07119179  0.40577895  0.47697433  1
  O2-  O273  1  0.07156307  0.40782593  0.98921265  1
  O2-  O274  1  0.07176876  0.73980653  0.47931146  1
  O2-  O275  1  0.06957936  0.74213487  0.97820878  1
  O2-  O276  1  0.40829076  0.07273221  0.47893092  1
  O2-  O277  1  0.40294485  0.06989345  0.98327596  1
  O2-  O278  1  0.40201747  0.40300667  0.48210654  1
  O2-  O279  1  0.40593019  0.40846223  0.97953249  1
  O2-  O280  1  0.40610005  0.73788742  0.47994437  1
  O2-  O281  1  0.40323593  0.73894812  0.97936262  1
  O2-  O282  1  0.73875214  0.07058870  0.47688009  1
  O2-  O283  1  0.73862625  0.06898905  0.97880765  1
  O2-  O284  1  0.73470402  0.40582510  0.47783973  1
  O2-  O285  1  0.73424586  0.40074706  0.98638331  1
  O2-  O286  1  0.73705056  0.73784071  0.48043865  1
  O2-  O287  1  0.73682255  0.73364316  0.97621623  1
  O2-  O288  1  0.09542857  0.23957652  0.47673148  1
  O2-  O289  1  0.09457382  0.23650488  0.98572686  1
  O2-  O290  1  0.09211511  0.57053156  0.47910530  1
  O2-  O291  1  0.08977478  0.57706007  0.98506572  1
  O2-  O292  1  0.09712978  0.90608653  0.48134905  1
  O2-  O293  1  0.09756876  0.90580960  0.97504130  1
  O2-  O294  1  0.42616871  0.24124278  0.47600139  1
  O2-  O295  1  0.42443265  0.24250343  0.98287303  1
  O2-  O296  1  0.42827056  0.57312850  0.47622872  1
  O2-  O297  1  0.42918455  0.57431428  0.97885456  1
  O2-  O298  1  0.42990688  0.90643452  0.47729759  1
  O2-  O299  1  0.42923524  0.90462449  0.97748208  1
  O2-  O300  1  0.76300990  0.23422462  0.48424958  1
  O2-  O301  1  0.76341956  0.23607025  0.98482969  1
  O2-  O302  1  0.76221635  0.56922467  0.47644695  1
  O2-  O303  1  0.76332751  0.56709859  0.98026439  1
  O2-  O304  1  0.76457204  0.90095646  0.48469816  1
  O2-  O305  1  0.76230423  0.90421089  0.97797697  1
  O2-  O306  1  0.07254325  0.07027092  0.27265334  1
  O2-  O307  1  0.06983217  0.07418317  0.77048740  1
  O2-  O308  1  0.07025308  0.40732942  0.27213719  1
  O2-  O309  1  0.07299916  0.40717844  0.76130396  1
  O2-  O310  1  0.07270774  0.74134179  0.27396747  1
  O2-  O311  1  0.06845451  0.73875616  0.76893793  1
  O2-  O312  1  0.40570168  0.07190921  0.27217519  1
  O2-  O313  1  0.40490311  0.07166179  0.76613887  1
  O2-  O314  1  0.40375360  0.40362117  0.26612944  1
  O2-  O315  1  0.40604085  0.40662920  0.77147498  1
  O2-  O316  1  0.40585284  0.73904483  0.27003850  1
  O2-  O317  1  0.40397079  0.73744171  0.76998207  1
  O2-  O318  1  0.73782931  0.06695414  0.27076840  1
  O2-  O319  1  0.74052594  0.07202620  0.77342899  1
  O2-  O320  1  0.73372894  0.39892481  0.26945877  1
  O2-  O321  1  0.73588038  0.40541535  0.76571440  1
  O2-  O322  1  0.73813400  0.73604214  0.26861879  1
  O2-  O323  1  0.73649661  0.73507597  0.77308564  1
  O2-  O324  1  0.23661189  0.09284034  0.22951598  1
  O2-  O325  1  0.23592268  0.09727739  0.73243975  1
  O2-  O326  1  0.24074606  0.42771512  0.23176892  1
  O2-  O327  1  0.24220072  0.42573926  0.72566254  1
  O2-  O328  1  0.23933374  0.76397413  0.23285063  1
  O2-  O329  1  0.24243430  0.76098288  0.72755559  1
  O2-  O330  1  0.57049586  0.09403757  0.22948702  1
  O2-  O331  1  0.57423122  0.09117803  0.73302848  1
  O2-  O332  1  0.57265700  0.42813419  0.22510195  1
  O2-  O333  1  0.56880669  0.43229899  0.73414452  1
  O2-  O334  1  0.57302428  0.76293826  0.22775705  1
  O2-  O335  1  0.57093065  0.76197715  0.72817467  1
  O2-  O336  1  0.90295876  0.09258597  0.23076926  1
  O2-  O337  1  0.90530255  0.09467937  0.72732481  1
  O2-  O338  1  0.90255561  0.42529973  0.23131327  1
  O2-  O339  1  0.90734931  0.42691510  0.72913387  1
  O2-  O340  1  0.90343370  0.76627562  0.23244423  1
  O2-  O341  1  0.90173716  0.75875425  0.72791866  1
  O2-  O342  1  0.25979363  0.25988556  0.02148549  1
  O2-  O343  1  0.26055146  0.26359450  0.51970013  1
  O2-  O344  1  0.26353597  0.59608027  0.01478815  1
  O2-  O345  1  0.26401503  0.59339271  0.52346600  1
  O2-  O346  1  0.26259879  0.92839857  0.02071904  1
  O2-  O347  1  0.26680916  0.92959879  0.52550915  1
  O2-  O348  1  0.59537527  0.25946012  0.02174941  1
  O2-  O349  1  0.59241412  0.26009384  0.51042739  1
  O2-  O350  1  0.59489677  0.59277840  0.02255635  1
  O2-  O351  1  0.59883552  0.59904322  0.51424125  1
  O2-  O352  1  0.59283945  0.92665599  0.02402248  1
  O2-  O353  1  0.59818998  0.92916951  0.52047822  1
  O2-  O354  1  0.92614091  0.26097664  0.02349398  1
  O2-  O355  1  0.92947363  0.26006225  0.51895936  1
  O2-  O356  1  0.92264267  0.59236604  0.01913380  1
  O2-  O357  1  0.92738866  0.59506099  0.52233104  1
  O2-  O358  1  0.93142777  0.93084022  0.01395436  1
  O2-  O359  1  0.92861276  0.92806750  0.52346571  1
