# generated using pymatgen
data_Sr7Ca15Pr50Mn72O216
_symmetry_space_group_name_H-M   'P 1'
_cell_length_a   16.55923019
_cell_length_b   16.60589968
_cell_length_c   15.59179492
_cell_angle_alpha   89.99739676
_cell_angle_beta   89.99628615
_cell_angle_gamma   90.00157327
_symmetry_Int_Tables_number   1
_chemical_formula_structural   Sr7Ca15Pr50Mn72O216
_chemical_formula_sum   'Sr7 Ca15 Pr50 Mn72 O216'
_cell_volume   4287.44602183
_cell_formula_units_Z   1
loop_
 _symmetry_equiv_pos_site_id
 _symmetry_equiv_pos_as_xyz
  1  'x, y, z'
loop_
 _atom_type_symbol
 _atom_type_oxidation_number
  Sr2+  2.0
  Ca2+  2.0
  Pr3+  3.0
  Mn3.30+  3.3
  O2-  -2.0
loop_
 _atom_site_type_symbol
 _atom_site_label
 _atom_site_symmetry_multiplicity
 _atom_site_fract_x
 _atom_site_fract_y
 _atom_site_fract_z
 _atom_site_occupancy
  Sr2+  Sr0  1  0.83349200  0.17599997  0.12430542  1
  Sr2+  Sr1  1  0.33025364  0.67527410  0.12490987  1
  Sr2+  Sr2  1  0.16744803  0.50953909  0.62597193  1
  Sr2+  Sr3  1  0.16553744  0.82426560  0.87903527  1
  Sr2+  Sr4  1  0.66803100  0.99056500  0.37170554  1
  Sr2+  Sr5  1  0.66314242  0.33856305  0.12139951  1
  Sr2+  Sr6  1  0.16432791  0.15630803  0.87513121  1
  Ca2+  Ca7  1  0.50545386  0.51626047  0.62678663  1
  Ca2+  Ca8  1  0.66376241  0.68097286  0.62575888  1
  Ca2+  Ca9  1  0.49748319  0.48494506  0.87630119  1
  Ca2+  Ca10  1  0.17462038  0.84986605  0.12367903  1
  Ca2+  Ca11  1  -0.00550689  0.01716536  0.62761887  1
  Ca2+  Ca12  1  0.33062558  0.01452386  0.12428068  1
  Ca2+  Ca13  1  0.66132227  0.01892815  0.12482474  1
  Ca2+  Ca14  1  0.50561005  0.18086384  0.12411821  1
  Ca2+  Ca15  1  0.82967132  0.15454674  0.87729525  1
  Ca2+  Ca16  1  -0.00559769  0.34522218  0.12310015  1
  Ca2+  Ca17  1  0.33754817  0.31879918  0.37451432  1
  Ca2+  Ca18  1  0.67034955  0.31609957  0.87747085  1
  Ca2+  Ca19  1  0.66154690  0.67897020  0.12428052  1
  Ca2+  Ca20  1  0.16956406  0.51154246  0.12402970  1
  Ca2+  Ca21  1  0.83724285  0.17926140  0.62649180  1
  Pr3+  Pr22  1  1.00346148  0.65496408  0.87581414  1
  Pr3+  Pr23  1  0.49574849  0.82045651  0.87491116  1
  Pr3+  Pr24  1  0.16673861  0.48753178  0.37319983  1
  Pr3+  Pr25  1  0.33113823  0.34702897  0.62521648  1
  Pr3+  Pr26  1  0.66908814  0.32028560  0.37330329  1
  Pr3+  Pr27  1  0.50345011  0.18007109  0.62592920  1
  Pr3+  Pr28  1  0.00001529  0.01064023  0.12369567  1
  Pr3+  Pr29  1  0.50644764  0.51392306  0.12318944  1
  Pr3+  Pr30  1  1.00173709  0.31976872  0.37362531  1
  Pr3+  Pr31  1  0.00062863  0.67756537  0.12442276  1
  Pr3+  Pr32  1  0.49832313  0.15583817  0.37156995  1
  Pr3+  Pr33  1  0.82918960  0.48574288  0.37493739  1
  Pr3+  Pr34  1  0.49872192  0.81980699  0.37502331  1
  Pr3+  Pr35  1  0.83225771  0.50681033  0.12384315  1
  Pr3+  Pr36  1  0.33029686  0.01270445  0.62532496  1
  Pr3+  Pr37  1  0.82874260  0.15262085  0.37391814  1
  Pr3+  Pr38  1  0.16909344  0.17741831  0.12336447  1
  Pr3+  Pr39  1  0.66392074  0.34617559  0.62773664  1
  Pr3+  Pr40  1  0.49485619  0.48450402  0.37526529  1
  Pr3+  Pr41  1  0.16472111  0.48958004  0.87705335  1
  Pr3+  Pr42  1  0.16436226  0.82028295  0.37146426  1
  Pr3+  Pr43  1  1.00155879  0.98960017  0.37263394  1
  Pr3+  Pr44  1  0.33074019  0.67663483  0.62540450  1
  Pr3+  Pr45  1  0.16802130  0.17909396  0.62607862  1
  Pr3+  Pr46  1  0.33897919  0.98702478  0.37230513  1
  Pr3+  Pr47  1  0.16780268  0.84599004  0.62590871  1
  Pr3+  Pr48  1  0.83152365  0.82188417  0.87662979  1
  Pr3+  Pr49  1  0.66809401  0.65285238  0.87563653  1
  Pr3+  Pr50  1  1.00299989  0.99109054  0.87657523  1
  Pr3+  Pr51  1  0.67057108  0.99122827  0.87759079  1
  Pr3+  Pr52  1  0.83695356  0.84792376  0.62587945  1
  Pr3+  Pr53  1  0.50407106  0.84662848  0.12463979  1
  Pr3+  Pr54  1  0.33481158  0.98751095  0.87788063  1
  Pr3+  Pr55  1  1.00122438  0.65330083  0.37396034  1
  Pr3+  Pr56  1  0.33745387  0.65082171  0.87640830  1
  Pr3+  Pr57  1  1.00249313  0.31827434  0.87599249  1
  Pr3+  Pr58  1  0.83129205  0.84481800  0.12437648  1
  Pr3+  Pr59  1  0.33669513  0.65252633  0.37376764  1
  Pr3+  Pr60  1  0.66660115  0.01472410  0.62478180  1
  Pr3+  Pr61  1  0.33330192  0.34447795  0.12459409  1
  Pr3+  Pr62  1  -0.00332862  0.34429840  0.62606417  1
  Pr3+  Pr63  1  0.66874216  0.65340549  0.37478400  1
  Pr3+  Pr64  1  -0.00239788  0.68016463  0.62538471  1
  Pr3+  Pr65  1  0.82862243  0.48316027  0.87485116  1
  Pr3+  Pr66  1  0.82814278  0.82130979  0.37366564  1
  Pr3+  Pr67  1  0.49928717  0.15649047  0.87870500  1
  Pr3+  Pr68  1  0.16676892  0.15463083  0.37374906  1
  Pr3+  Pr69  1  0.33468562  0.32216893  0.87541725  1
  Pr3+  Pr70  1  0.50436154  0.84569794  0.62543843  1
  Pr3+  Pr71  1  0.83578107  0.51369788  0.62596539  1
  Mn3.30+  Mn72  1  0.16877841  0.00014841  0.00109227  1
  Mn3.30+  Mn73  1  0.16511808  0.00012771  0.50033888  1
  Mn3.30+  Mn74  1  0.16435118  0.33437157  0.00365386  1
  Mn3.30+  Mn75  1  0.16863170  0.33321126  0.49738100  1
  Mn3.30+  Mn76  1  0.16847172  0.66690467  0.00145792  1
  Mn3.30+  Mn77  1  0.16660339  0.66609330  0.49990803  1
  Mn3.30+  Mn78  1  0.50066255  0.00141815  0.00337561  1
  Mn3.30+  Mn79  1  0.50069210  0.00059742  0.49913031  1
  Mn3.30+  Mn80  1  0.50170150  0.33358215  -0.00247459  1
  Mn3.30+  Mn81  1  0.49932174  0.33446538  0.50162686  1
  Mn3.30+  Mn82  1  0.50104092  0.66602314  -0.00023282  1
  Mn3.30+  Mn83  1  0.50189542  0.66494903  0.50230826  1
  Mn3.30+  Mn84  1  0.83231644  0.00176963  0.00169935  1
  Mn3.30+  Mn85  1  0.83485488  0.00076920  0.50071035  1
  Mn3.30+  Mn86  1  0.83242621  0.33064702  -0.00011403  1
  Mn3.30+  Mn87  1  0.83238756  0.33168139  0.50122377  1
  Mn3.30+  Mn88  1  0.83164884  0.66513767  0.00190046  1
  Mn3.30+  Mn89  1  0.83133693  0.66755454  0.50088713  1
  Mn3.30+  Mn90  1  -0.00020357  0.16748777  0.24845372  1
  Mn3.30+  Mn91  1  -0.00309185  0.16565470  0.75000428  1
  Mn3.30+  Mn92  1  0.00075715  0.49813976  0.24758757  1
  Mn3.30+  Mn93  1  -0.00123307  0.50028835  0.75048400  1
  Mn3.30+  Mn94  1  0.00064467  0.83302118  0.24763953  1
  Mn3.30+  Mn95  1  0.00053637  0.83559381  0.75067435  1
  Mn3.30+  Mn96  1  0.33500036  0.16735440  0.24712858  1
  Mn3.30+  Mn97  1  0.33402440  0.16642871  0.75193202  1
  Mn3.30+  Mn98  1  0.33279650  0.49787005  0.24866117  1
  Mn3.30+  Mn99  1  0.33683634  0.49937857  0.74968991  1
  Mn3.30+  Mn100  1  0.33261038  0.83313023  0.24695500  1
  Mn3.30+  Mn101  1  0.33321237  0.83231708  0.75071777  1
  Mn3.30+  Mn102  1  0.66484522  0.16674013  0.24705562  1
  Mn3.30+  Mn103  1  0.67039922  0.16765824  0.75117760  1
  Mn3.30+  Mn104  1  0.66517443  0.49925173  0.24858390  1
  Mn3.30+  Mn105  1  0.66367481  0.49939352  0.75088113  1
  Mn3.30+  Mn106  1  0.66555501  0.83356185  0.24838009  1
  Mn3.30+  Mn107  1  0.66719680  0.83342055  0.75038102  1
  Mn3.30+  Mn108  1  0.17042735  -0.00054191  0.24903987  1
  Mn3.30+  Mn109  1  0.16374089  0.00043566  0.74907785  1
  Mn3.30+  Mn110  1  0.16695190  0.33382155  0.24821683  1
  Mn3.30+  Mn111  1  0.16626686  0.33383455  0.75042989  1
  Mn3.30+  Mn112  1  0.16790990  0.66562041  0.24789990  1
  Mn3.30+  Mn113  1  0.16710557  0.66688595  0.75071863  1
  Mn3.30+  Mn114  1  0.50029404  0.00116184  0.24677350  1
  Mn3.30+  Mn115  1  0.50112796  0.00104125  0.75083929  1
  Mn3.30+  Mn116  1  0.49891595  0.33222503  0.24901259  1
  Mn3.30+  Mn117  1  0.50192636  0.33589578  0.75211116  1
  Mn3.30+  Mn118  1  0.50105213  0.66665721  0.24884378  1
  Mn3.30+  Mn119  1  0.50186918  0.66401609  0.74917243  1
  Mn3.30+  Mn120  1  0.83149599  -0.00003106  0.24682527  1
  Mn3.30+  Mn121  1  0.83532534  0.00312028  0.75085117  1
  Mn3.30+  Mn122  1  0.83450142  0.33264655  0.24689382  1
  Mn3.30+  Mn123  1  0.83042706  0.32938542  0.75156757  1
  Mn3.30+  Mn124  1  0.83134177  0.66542279  0.24690466  1
  Mn3.30+  Mn125  1  0.83161351  0.66706985  0.75069456  1
  Mn3.30+  Mn126  1  -0.00164383  0.16761808  0.00031497  1
  Mn3.30+  Mn127  1  -0.00148997  0.16551314  0.50040204  1
  Mn3.30+  Mn128  1  -0.00004626  0.49878222  0.00211739  1
  Mn3.30+  Mn129  1  -0.00054974  0.49956209  0.49938688  1
  Mn3.30+  Mn130  1  0.00202487  0.83350230  0.00297554  1
  Mn3.30+  Mn131  1  -0.00063251  0.83566559  0.49877973  1
  Mn3.30+  Mn132  1  0.33489621  0.16581330  0.00182192  1
  Mn3.30+  Mn133  1  0.33407038  0.16797511  0.49911426  1
  Mn3.30+  Mn134  1  0.33387510  0.49886373  0.00081911  1
  Mn3.30+  Mn135  1  0.33518806  0.49871005  0.50140965  1
  Mn3.30+  Mn136  1  0.33243058  0.83257987  0.00240322  1
  Mn3.30+  Mn137  1  0.33334668  0.83250690  0.49983700  1
  Mn3.30+  Mn138  1  0.66633586  0.16720121  0.00024908  1
  Mn3.30+  Mn139  1  0.66885110  0.16735124  0.50157750  1
  Mn3.30+  Mn140  1  0.66472895  0.49739670  -0.00252359  1
  Mn3.30+  Mn141  1  0.66416615  0.50089803  0.50251785  1
  Mn3.30+  Mn142  1  0.66520598  0.83383920  0.00056123  1
  Mn3.30+  Mn143  1  0.66751088  0.83331297  0.50088312  1
  O2-  O144  1  0.02548227  0.15880524  0.12652343  1
  O2-  O145  1  0.02517907  0.16246982  0.62217796  1
  O2-  O146  1  0.02672253  0.49151977  0.12642778  1
  O2-  O147  1  0.01740922  0.49382007  0.62521247  1
  O2-  O148  1  0.03040533  0.82638701  0.12534925  1
  O2-  O149  1  0.02456347  0.82607039  0.62253894  1
  O2-  O150  1  0.36199492  0.16264564  0.12390377  1
  O2-  O151  1  0.35925892  0.16067722  0.62723278  1
  O2-  O152  1  0.36155154  0.49334711  0.12594512  1
  O2-  O153  1  0.36251606  0.49441075  0.62563595  1
  O2-  O154  1  0.36087372  0.82768486  0.12488750  1
  O2-  O155  1  0.35960645  0.82635660  0.62419161  1
  O2-  O156  1  0.68375936  0.16607471  0.12425436  1
  O2-  O157  1  0.69393252  0.16331467  0.62702029  1
  O2-  O158  1  0.68825984  0.49330618  0.12286715  1
  O2-  O159  1  0.69403631  0.49174524  0.62684367  1
  O2-  O160  1  0.68881783  0.82176030  0.12388628  1
  O2-  O161  1  0.69264588  0.82719876  0.62744120  1
  O2-  O162  1  0.13625804  0.32398496  0.12631479  1
  O2-  O163  1  0.14200048  0.32813200  0.62265080  1
  O2-  O164  1  0.14345432  0.65579113  0.12560611  1
  O2-  O165  1  0.14183360  0.66490991  0.62352970  1
  O2-  O166  1  0.14406490  0.99699964  0.12649031  1
  O2-  O167  1  0.13808317  0.99312623  0.62197662  1
  O2-  O168  1  0.47788550  0.32806587  0.12272252  1
  O2-  O169  1  0.47433352  0.32510076  0.62613246  1
  O2-  O170  1  0.48058464  0.66197676  0.12462313  1
  O2-  O171  1  0.47363888  0.66141434  0.62595221  1
  O2-  O172  1  0.47069476  0.99190461  0.12499993  1
  O2-  O173  1  0.47465199  0.99590213  0.62522534  1
  O2-  O174  1  0.81310017  0.33685661  0.12419599  1
  O2-  O175  1  0.80783445  0.32544269  0.62801504  1
  O2-  O176  1  0.80300464  0.65684656  0.12426882  1
  O2-  O177  1  0.80646814  0.66219585  0.62836569  1
  O2-  O178  1  0.80509640  0.99255993  0.12439229  1
  O2-  O179  1  0.80891565  0.99292821  0.62655358  1
  O2-  O180  1  0.30984316  0.17314620  0.37323366  1
  O2-  O181  1  0.31293162  0.17262968  0.87570166  1
  O2-  O182  1  0.31152706  0.50492866  0.37473407  1
  O2-  O183  1  0.30911486  0.50142020  0.87471080  1
  O2-  O184  1  0.30826604  0.83913549  0.37496941  1
  O2-  O185  1  0.31534610  0.83919453  0.87638295  1
  O2-  O186  1  0.64402303  0.17100336  0.37501062  1
  O2-  O187  1  0.64286249  0.16357752  0.87408397  1
  O2-  O188  1  0.63961642  0.50609716  0.37716276  1
  O2-  O189  1  0.63815539  0.50870280  0.87290595  1
  O2-  O190  1  0.64359579  0.83563710  0.37415310  1
  O2-  O191  1  0.64038995  0.84298896  0.87505873  1
  O2-  O192  1  0.97351888  0.17119236  0.37410537  1
  O2-  O193  1  0.97342844  0.17036246  0.87603040  1
  O2-  O194  1  0.97253286  0.50526655  0.37381618  1
  O2-  O195  1  0.97328915  0.50778104  0.87453714  1
  O2-  O196  1  0.97231783  0.84031509  0.37375016  1
  O2-  O197  1  0.97543736  0.84018547  0.87858843  1
  O2-  O198  1  0.19502048  0.00586921  0.37501888  1
  O2-  O199  1  0.19047107  0.00209437  0.87605059  1
  O2-  O200  1  0.19579645  0.33873067  0.37282475  1
  O2-  O201  1  0.18997598  0.33993256  0.87813759  1
  O2-  O202  1  0.19168068  0.67279164  0.37490484  1
  O2-  O203  1  0.19122234  0.66824749  0.87589289  1
  O2-  O204  1  0.51869693  0.00581784  0.37338819  1
  O2-  O205  1  0.52642184  0.00602386  0.87621986  1
  O2-  O206  1  0.52516155  0.33831995  0.37859637  1
  O2-  O207  1  0.52695825  0.34061912  0.87226666  1
  O2-  O208  1  0.52468296  0.67084043  0.37571990  1
  O2-  O209  1  0.52508593  0.67435529  0.87364525  1
  O2-  O210  1  0.85670617  0.00239920  0.37278741  1
  O2-  O211  1  0.85828299  0.00526603  0.87642197  1
  O2-  O212  1  0.85698092  0.33865215  0.37344567  1
  O2-  O213  1  0.85982303  0.33825507  0.87451433  1
  O2-  O214  1  0.85779182  0.67232949  0.37181763  1
  O2-  O215  1  0.85927568  0.67193765  0.87614549  1
  O2-  O216  1  0.24070544  0.09399398  0.02040509  1
  O2-  O217  1  0.23809324  0.09400292  0.52148058  1
  O2-  O218  1  0.23652806  0.42600407  0.02319598  1
  O2-  O219  1  0.24211918  0.42685954  0.51864113  1
  O2-  O220  1  0.23667142  0.76266872  0.02050942  1
  O2-  O221  1  0.23825981  0.76223017  0.51951712  1
  O2-  O222  1  0.56832268  0.09613731  0.01906556  1
  O2-  O223  1  0.57493626  0.09664929  0.52082143  1
  O2-  O224  1  0.56861277  0.43049274  0.01673396  1
  O2-  O225  1  0.56915730  0.43086742  0.52245402  1
  O2-  O226  1  0.56908261  0.76510903  0.01428723  1
  O2-  O227  1  0.56951832  0.76297376  0.51829771  1
  O2-  O228  1  0.91003279  0.08903109  0.02123442  1
  O2-  O229  1  0.90288209  0.09861105  0.51656180  1
  O2-  O230  1  0.90314187  0.42966269  0.01543931  1
  O2-  O231  1  0.90233345  0.42643159  0.51995671  1
  O2-  O232  1  0.90569094  0.75934919  0.02303180  1
  O2-  O233  1  0.90515968  0.76344143  0.51995367  1
  O2-  O234  1  0.25977747  0.25928872  0.22462637  1
  O2-  O235  1  0.26099834  0.25931365  0.73000689  1
  O2-  O236  1  0.26139138  0.59203306  0.23806138  1
  O2-  O237  1  0.26617612  0.59503681  0.73388280  1
  O2-  O238  1  0.26622659  0.93145660  0.23138616  1
  O2-  O239  1  0.26081360  0.92649413  0.72852172  1
  O2-  O240  1  0.59310824  0.26235732  0.23912078  1
  O2-  O241  1  0.59455450  0.26006761  0.72971643  1
  O2-  O242  1  0.59798143  0.59521661  0.23019718  1
  O2-  O243  1  0.59882009  0.59925475  0.72952625  1
  O2-  O244  1  0.59399213  0.92865856  0.22548918  1
  O2-  O245  1  0.59551317  0.92869899  0.72812206  1
  O2-  O246  1  0.93205873  0.26418393  0.23319577  1
  O2-  O247  1  0.92971957  0.26296731  0.73123439  1
  O2-  O248  1  0.92680003  0.59314915  0.22723298  1
  O2-  O249  1  0.92687428  0.59557533  0.72921747  1
  O2-  O250  1  0.92834229  0.92489912  0.22666484  1
  O2-  O251  1  0.92852609  0.92976036  0.73046999  1
  O2-  O252  1  0.09602411  0.23916295  0.27309363  1
  O2-  O253  1  0.09007193  0.24041314  0.76569620  1
  O2-  O254  1  0.09061419  0.57318558  0.27318969  1
  O2-  O255  1  0.09427813  0.57474372  0.77147221  1
  O2-  O256  1  0.09500289  0.90928818  0.27267972  1
  O2-  O257  1  0.09304104  0.90631232  0.76803696  1
  O2-  O258  1  0.42738379  0.23912443  0.26958081  1
  O2-  O259  1  0.43095802  0.24045000  0.77068748  1
  O2-  O260  1  0.42917527  0.57108000  0.26952579  1
  O2-  O261  1  0.42977413  0.57126130  0.77414483  1
  O2-  O262  1  0.42932251  0.90417699  0.27101231  1
  O2-  O263  1  0.42835503  0.90665008  0.76877549  1
  O2-  O264  1  0.76103398  0.24198542  0.27032397  1
  O2-  O265  1  0.76256495  0.23591010  0.77438773  1
  O2-  O266  1  0.76150822  0.57123245  0.27188436  1
  O2-  O267  1  0.76037690  0.56892492  0.77158118  1
  O2-  O268  1  0.76273185  0.90085153  0.26499994  1
  O2-  O269  1  0.76409931  0.90662583  0.77129373  1
  O2-  O270  1  0.07175300  0.07467064  0.47460861  1
  O2-  O271  1  0.07158463  0.07292788  0.98448749  1
  O2-  O272  1  0.07430234  0.40513443  0.47775006  1
  O2-  O273  1  0.07134674  0.40872400  0.97577303  1
  O2-  O274  1  0.06921971  0.74063289  0.47741875  1
  O2-  O275  1  0.06870058  0.73575025  0.98373492  1
  O2-  O276  1  0.40370921  0.07335000  0.48057575  1
  O2-  O277  1  0.40758415  0.07242200  0.97655293  1
  O2-  O278  1  0.40405275  0.40251002  0.47927616  1
  O2-  O279  1  0.40260379  0.40277305  0.98227278  1
  O2-  O280  1  0.40404285  0.73865691  0.47954124  1
  O2-  O281  1  0.40645402  0.73862633  0.97805755  1
  O2-  O282  1  0.74201548  0.07098058  0.48285466  1
  O2-  O283  1  0.73833028  0.07236605  0.98304318  1
  O2-  O284  1  0.73528248  0.40586369  0.48100968  1
  O2-  O285  1  0.73882929  0.40512037  0.97515953  1
  O2-  O286  1  0.73936357  0.73886482  0.47809129  1
  O2-  O287  1  0.73899460  0.74155328  0.97701624  1
  O2-  O288  1  0.09512292  0.23805393  0.47795078  1
  O2-  O289  1  0.09210413  0.24144545  0.98158532  1
  O2-  O290  1  0.09346673  0.57383664  0.47664068  1
  O2-  O291  1  0.09197953  0.57368845  0.97915942  1
  O2-  O292  1  0.09506083  0.90500547  0.47566510  1
  O2-  O293  1  0.09001402  0.91144052  0.98373724  1
  O2-  O294  1  0.43192869  0.23686839  0.48288132  1
  O2-  O295  1  0.42582952  0.24246204  0.97724938  1
  O2-  O296  1  0.42832840  0.57197834  0.47846321  1
  O2-  O297  1  0.43055027  0.57163348  0.97953826  1
  O2-  O298  1  0.42636144  0.90378696  0.48026544  1
  O2-  O299  1  0.43067552  0.90606361  0.98003114  1
  O2-  O300  1  0.76076036  0.24009328  0.47720885  1
  O2-  O301  1  0.76200904  0.23807206  0.98046330  1
  O2-  O302  1  0.76099973  0.57024922  0.47982198  1
  O2-  O303  1  0.76034834  0.56977135  0.97763154  1
  O2-  O304  1  0.76634238  0.90219153  0.48520059  1
  O2-  O305  1  0.76122516  0.90508679  0.97968748  1
  O2-  O306  1  0.07529819  0.07312415  0.27056730  1
  O2-  O307  1  0.06789836  0.07222305  0.76759673  1
  O2-  O308  1  0.07444289  0.40720573  0.27625851  1
  O2-  O309  1  0.07138249  0.40765694  0.77038509  1
  O2-  O310  1  0.06958448  0.73859774  0.27109898  1
  O2-  O311  1  0.06817912  0.73796133  0.76682330  1
  O2-  O312  1  0.40531037  0.07351254  0.27150982  1
  O2-  O313  1  0.40576212  0.07226204  0.77145719  1
  O2-  O314  1  0.40311506  0.40250388  0.27029755  1
  O2-  O315  1  0.40375192  0.40227714  0.76868124  1
  O2-  O316  1  0.40557290  0.74012436  0.27286730  1
  O2-  O317  1  0.40510746  0.73695583  0.76937404  1
  O2-  O318  1  0.74227243  0.07737564  0.26642903  1
  O2-  O319  1  0.73621148  0.06822643  0.76683949  1
  O2-  O320  1  0.73817128  0.40856657  0.27263848  1
  O2-  O321  1  0.73570788  0.40203468  0.77177015  1
  O2-  O322  1  0.73910111  0.73850140  0.27100740  1
  O2-  O323  1  0.74017909  0.74074428  0.77550968  1
  O2-  O324  1  0.23870362  0.09725922  0.23173763  1
  O2-  O325  1  0.23804879  0.09073191  0.72648880  1
  O2-  O326  1  0.23704123  0.42730161  0.22577107  1
  O2-  O327  1  0.24323543  0.42604572  0.73283045  1
  O2-  O328  1  0.23547599  0.76656248  0.23265192  1
  O2-  O329  1  0.23908888  0.75941158  0.72745509  1
  O2-  O330  1  0.56813990  0.09633922  0.23144953  1
  O2-  O331  1  0.57337535  0.09525532  0.72907137  1
  O2-  O332  1  0.56630672  0.43088386  0.23542956  1
  O2-  O333  1  0.57155355  0.42910754  0.72401700  1
  O2-  O334  1  0.57005665  0.76460212  0.23454393  1
  O2-  O335  1  0.56859214  0.76282263  0.73216617  1
  O2-  O336  1  0.91038764  0.08980869  0.23274130  1
  O2-  O337  1  0.90293474  0.09634810  0.72844549  1
  O2-  O338  1  0.90371973  0.42971866  0.23284742  1
  O2-  O339  1  0.90168189  0.42660325  0.73100989  1
  O2-  O340  1  0.90327621  0.75820994  0.22576647  1
  O2-  O341  1  0.90650730  0.76373387  0.73106197  1
  O2-  O342  1  0.26008926  0.26036670  0.02182528  1
  O2-  O343  1  0.26104835  0.25863995  0.52273750  1
  O2-  O344  1  0.26136423  0.59242704  0.01284992  1
  O2-  O345  1  0.26584088  0.59510648  0.51639855  1
  O2-  O346  1  0.26498571  0.92958800  0.01830919  1
  O2-  O347  1  0.26218364  0.92610552  0.52204027  1
  O2-  O348  1  0.59138599  0.25893124  0.00919789  1
  O2-  O349  1  0.59484636  0.26392022  0.52092889  1
  O2-  O350  1  0.59712162  0.59733101  0.01890178  1
  O2-  O351  1  0.59962062  0.59772657  0.52087110  1
  O2-  O352  1  0.59587041  0.93058370  0.02318496  1
  O2-  O353  1  0.59506700  0.92615119  0.52283047  1
  O2-  O354  1  0.93068955  0.26394444  0.01758767  1
  O2-  O355  1  0.93246822  0.26306515  0.51695431  1
  O2-  O356  1  0.92838178  0.59184257  0.02324942  1
  O2-  O357  1  0.92535010  0.59712366  0.51963752  1
  O2-  O358  1  0.92552853  0.92455823  0.02320886  1
  O2-  O359  1  0.93106041  0.93171455  0.52090487  1
