# generated using pymatgen
data_Sr7Ca15Pr50Mn72O216
_symmetry_space_group_name_H-M   'P 1'
_cell_length_a   16.55943240
_cell_length_b   16.60586974
_cell_length_c   15.59255631
_cell_angle_alpha   90.00091144
_cell_angle_beta   89.99897118
_cell_angle_gamma   90.00252015
_symmetry_Int_Tables_number   1
_chemical_formula_structural   Sr7Ca15Pr50Mn72O216
_chemical_formula_sum   'Sr7 Ca15 Pr50 Mn72 O216'
_cell_volume   4287.70002780
_cell_formula_units_Z   1
loop_
 _symmetry_equiv_pos_site_id
 _symmetry_equiv_pos_as_xyz
  1  'x, y, z'
loop_
 _atom_type_symbol
 _atom_type_oxidation_number
  Sr2+  2.0
  Ca2+  2.0
  Pr3+  3.0
  Mn3.30+  3.3
  O2-  -2.0
loop_
 _atom_site_type_symbol
 _atom_site_label
 _atom_site_symmetry_multiplicity
 _atom_site_fract_x
 _atom_site_fract_y
 _atom_site_fract_z
 _atom_site_occupancy
  Sr2+  Sr0  1  0.66453613  0.00860892  0.62456034  1
  Sr2+  Sr1  1  0.66728053  0.65521623  0.37545319  1
  Sr2+  Sr2  1  -0.00043226  0.67472643  0.62545932  1
  Sr2+  Sr3  1  1.00049789  0.99086825  0.37742027  1
  Sr2+  Sr4  1  0.32987079  0.67771017  0.62651077  1
  Sr2+  Sr5  1  0.16559979  0.84035546  0.62507852  1
  Sr2+  Sr6  1  0.83420502  0.17375453  0.62531004  1
  Ca2+  Ca7  1  0.33755951  0.31955584  0.87448582  1
  Ca2+  Ca8  1  0.49364666  0.81677172  0.87129798  1
  Ca2+  Ca9  1  0.16132671  0.48779451  0.37836567  1
  Ca2+  Ca10  1  0.83610430  0.84739715  0.12577010  1
  Ca2+  Ca11  1  1.00346256  0.65259838  0.87350918  1
  Ca2+  Ca12  1  0.84042843  0.18609891  0.12506175  1
  Ca2+  Ca13  1  -0.00286807  0.34892943  0.12606655  1
  Ca2+  Ca14  1  1.00412814  0.65205111  0.37677204  1
  Ca2+  Ca15  1  0.33825203  0.65173992  0.87181066  1
  Ca2+  Ca16  1  0.49282452  0.48410637  0.87383348  1
  Ca2+  Ca17  1  0.49750550  0.48651890  0.37638342  1
  Ca2+  Ca18  1  0.50209032  0.84631131  0.62672458  1
  Ca2+  Ca19  1  -0.00369965  0.01262455  0.62400940  1
  Ca2+  Ca20  1  0.16859155  0.17736880  0.62448415  1
  Ca2+  Ca21  1  0.66268530  0.34771225  0.62519783  1
  Pr3+  Pr22  1  0.33539562  0.32251820  0.37554932  1
  Pr3+  Pr23  1  0.66953169  0.32480003  0.37668585  1
  Pr3+  Pr24  1  0.50265208  0.84464528  0.12340430  1
  Pr3+  Pr25  1  -0.00063719  0.34433597  0.62490073  1
  Pr3+  Pr26  1  0.83082048  0.81924923  0.87547561  1
  Pr3+  Pr27  1  0.49864669  0.82081176  0.37722030  1
  Pr3+  Pr28  1  0.16822299  0.18144951  0.12611736  1
  Pr3+  Pr29  1  0.67212559  0.98724100  0.37668442  1
  Pr3+  Pr30  1  0.16250702  0.15387276  0.37727807  1
  Pr3+  Pr31  1  0.66093214  0.68066995  0.62451214  1
  Pr3+  Pr32  1  1.00415033  0.32316616  0.37520043  1
  Pr3+  Pr33  1  0.32995633  0.00903276  0.62575718  1
  Pr3+  Pr34  1  0.66831663  0.98591491  0.87296198  1
  Pr3+  Pr35  1  0.49709022  0.15469636  0.87429373  1
  Pr3+  Pr36  1  0.83278031  0.51133963  0.62514620  1
  Pr3+  Pr37  1  0.50768461  0.18149534  0.62540110  1
  Pr3+  Pr38  1  0.33733324  0.98409598  0.87474033  1
  Pr3+  Pr39  1  0.66686946  0.34603862  0.12466222  1
  Pr3+  Pr40  1  0.66741659  0.01393737  0.12465403  1
  Pr3+  Pr41  1  0.16687794  0.48993056  0.87313156  1
  Pr3+  Pr42  1  0.83253897  0.15451997  0.37477173  1
  Pr3+  Pr43  1  0.16339413  0.81724649  0.87377138  1
  Pr3+  Pr44  1  0.16013972  0.81901003  0.37622198  1
  Pr3+  Pr45  1  0.83804371  0.51117994  0.12532188  1
  Pr3+  Pr46  1  0.83224479  0.49059558  0.37674581  1
  Pr3+  Pr47  1  0.66471392  0.65275713  0.87462534  1
  Pr3+  Pr48  1  0.33095060  0.34742398  0.12265158  1
  Pr3+  Pr49  1  0.17112946  0.51391235  0.62431006  1
  Pr3+  Pr50  1  0.33367336  0.98627685  0.37552464  1
  Pr3+  Pr51  1  1.00292378  0.32228911  0.87498195  1
  Pr3+  Pr52  1  0.32966962  0.01316553  0.12438429  1
  Pr3+  Pr53  1  0.66579047  0.67921165  0.12573943  1
  Pr3+  Pr54  1  1.00205721  0.98848480  0.87235830  1
  Pr3+  Pr55  1  0.16617053  0.15536842  0.87323291  1
  Pr3+  Pr56  1  0.83294951  0.48935851  0.87330465  1
  Pr3+  Pr57  1  0.16839315  0.84676865  0.12461220  1
  Pr3+  Pr58  1  -0.00519398  0.68170594  0.12424247  1
  Pr3+  Pr59  1  0.66955906  0.32251362  0.87321462  1
  Pr3+  Pr60  1  0.83094227  0.15401083  0.87525591  1
  Pr3+  Pr61  1  0.50330789  0.51305382  0.12444257  1
  Pr3+  Pr62  1  0.83885258  0.84683800  0.62531346  1
  Pr3+  Pr63  1  0.49834606  0.15344292  0.37560450  1
  Pr3+  Pr64  1  0.33016648  0.34444109  0.62741942  1
  Pr3+  Pr65  1  0.50334703  0.18095969  0.12419339  1
  Pr3+  Pr66  1  0.33594986  0.65089433  0.37697874  1
  Pr3+  Pr67  1  -0.00545752  0.01510545  0.12517340  1
  Pr3+  Pr68  1  0.32957076  0.67798702  0.12333139  1
  Pr3+  Pr69  1  0.16713784  0.51184721  0.12556915  1
  Pr3+  Pr70  1  0.83113767  0.81961845  0.37494120  1
  Pr3+  Pr71  1  0.50248238  0.51163680  0.62548672  1
  Mn3.30+  Mn72  1  0.16604495  0.00045399  -0.00135540  1
  Mn3.30+  Mn73  1  0.16434793  -0.00054459  0.50366037  1
  Mn3.30+  Mn74  1  0.16720398  0.33439351  -0.00069903  1
  Mn3.30+  Mn75  1  0.16757329  0.33301433  0.50097362  1
  Mn3.30+  Mn76  1  0.16578184  0.66555157  -0.00174268  1
  Mn3.30+  Mn77  1  0.16632486  0.66612138  0.49926103  1
  Mn3.30+  Mn78  1  0.50037031  -0.00161574  -0.00021592  1
  Mn3.30+  Mn79  1  0.50012588  -0.00168526  0.50052219  1
  Mn3.30+  Mn80  1  0.49908455  0.33494290  -0.00167184  1
  Mn3.30+  Mn81  1  0.50117850  0.33483404  0.49951851  1
  Mn3.30+  Mn82  1  0.49755815  0.66603089  -0.00226919  1
  Mn3.30+  Mn83  1  0.49873351  0.66597804  0.50035467  1
  Mn3.30+  Mn84  1  0.83342292  -0.00032483  0.00084845  1
  Mn3.30+  Mn85  1  0.83551286  0.00046623  0.50088803  1
  Mn3.30+  Mn86  1  0.83602516  0.33400743  0.00008741  1
  Mn3.30+  Mn87  1  0.83318468  0.33284106  0.50266123  1
  Mn3.30+  Mn88  1  0.83382966  0.66689718  -0.00138931  1
  Mn3.30+  Mn89  1  0.83337941  0.66662638  0.49987024  1
  Mn3.30+  Mn90  1  -0.00081004  0.16956629  0.24868919  1
  Mn3.30+  Mn91  1  0.00100539  0.16623160  0.74818073  1
  Mn3.30+  Mn92  1  0.00188336  0.50113712  0.25125830  1
  Mn3.30+  Mn93  1  0.00045374  0.50111605  0.74995391  1
  Mn3.30+  Mn94  1  -0.00174965  0.83353016  0.25061806  1
  Mn3.30+  Mn95  1  0.00004273  0.83197219  0.74956783  1
  Mn3.30+  Mn96  1  0.33326471  0.16732912  0.25026441  1
  Mn3.30+  Mn97  1  0.33351280  0.16624840  0.74904898  1
  Mn3.30+  Mn98  1  0.33272581  0.49921645  0.25165117  1
  Mn3.30+  Mn99  1  0.33575488  0.49952622  0.75206788  1
  Mn3.30+  Mn100  1  0.33217311  0.83225132  0.24995547  1
  Mn3.30+  Mn101  1  0.33449122  0.83107306  0.74937421  1
  Mn3.30+  Mn102  1  0.66939678  0.16818856  0.24859842  1
  Mn3.30+  Mn103  1  0.66631486  0.16729944  0.74871840  1
  Mn3.30+  Mn104  1  0.66701842  0.50042100  0.25150343  1
  Mn3.30+  Mn105  1  0.66339423  0.49899351  0.75120253  1
  Mn3.30+  Mn106  1  0.66870664  0.83322609  0.24774198  1
  Mn3.30+  Mn107  1  0.66277603  0.83248331  0.75125674  1
  Mn3.30+  Mn108  1  0.16439745  0.00024295  0.25034394  1
  Mn3.30+  Mn109  1  0.16614108  -0.00022267  0.74754655  1
  Mn3.30+  Mn110  1  0.16597945  0.33615779  0.24970148  1
  Mn3.30+  Mn111  1  0.16895938  0.33170047  0.75098318  1
  Mn3.30+  Mn112  1  0.16378262  0.66506163  0.25064773  1
  Mn3.30+  Mn113  1  0.16841207  0.66647682  0.75141607  1
  Mn3.30+  Mn114  1  0.50073537  -0.00043616  0.24909494  1
  Mn3.30+  Mn115  1  0.49978856  -0.00283041  0.74980356  1
  Mn3.30+  Mn116  1  0.50054628  0.33502754  0.25033430  1
  Mn3.30+  Mn117  1  0.49957810  0.33443239  0.75123920  1
  Mn3.30+  Mn118  1  0.49920825  0.66527721  0.25161786  1
  Mn3.30+  Mn119  1  0.49705263  0.66735735  0.75026119  1
  Mn3.30+  Mn120  1  0.83422429  0.00012242  0.24812440  1
  Mn3.30+  Mn121  1  0.83475645  0.00022993  0.74946677  1
  Mn3.30+  Mn122  1  0.83637690  0.33418042  0.25033737  1
  Mn3.30+  Mn123  1  0.83273837  0.33238541  0.74712848  1
  Mn3.30+  Mn124  1  0.83495014  0.66739456  0.25060156  1
  Mn3.30+  Mn125  1  0.83287346  0.66656532  0.75105851  1
  Mn3.30+  Mn126  1  -0.00124611  0.16963319  0.00052716  1
  Mn3.30+  Mn127  1  0.00112695  0.16611456  0.50295311  1
  Mn3.30+  Mn128  1  0.00100524  0.50057783  -0.00098847  1
  Mn3.30+  Mn129  1  0.00090936  0.50165827  0.50012195  1
  Mn3.30+  Mn130  1  -0.00161517  0.83335706  -0.00072004  1
  Mn3.30+  Mn131  1  -0.00053466  0.83287345  0.50071106  1
  Mn3.30+  Mn132  1  0.33351570  0.16752681  -0.00076300  1
  Mn3.30+  Mn133  1  0.33307111  0.16563232  0.50147199  1
  Mn3.30+  Mn134  1  0.33544049  0.50053962  -0.00181857  1
  Mn3.30+  Mn135  1  0.33319656  0.49844548  0.49840828  1
  Mn3.30+  Mn136  1  0.33441645  0.83032691  -0.00194284  1
  Mn3.30+  Mn137  1  0.33214070  0.83228640  0.50171135  1
  Mn3.30+  Mn138  1  0.66905869  0.16789375  0.00113360  1
  Mn3.30+  Mn139  1  0.66716458  0.16793394  0.50128920  1
  Mn3.30+  Mn140  1  0.66556462  0.49974870  -0.00159036  1
  Mn3.30+  Mn141  1  0.66499504  0.49955034  0.49954838  1
  Mn3.30+  Mn142  1  0.66553679  0.83237751  -0.00122706  1
  Mn3.30+  Mn143  1  0.66583878  0.83314410  0.50136929  1
  O2-  O144  1  0.02602785  0.16163217  0.12338048  1
  O2-  O145  1  0.02648860  0.16255722  0.62689585  1
  O2-  O146  1  0.02311791  0.49464966  0.12400430  1
  O2-  O147  1  0.02581907  0.49420568  0.62589169  1
  O2-  O148  1  0.02595934  0.82803396  0.12349059  1
  O2-  O149  1  0.01647557  0.82694019  0.62707961  1
  O2-  O150  1  0.35913028  0.16109173  0.12438214  1
  O2-  O151  1  0.36326616  0.15896551  0.62282416  1
  O2-  O152  1  0.35989089  0.49523029  0.12460579  1
  O2-  O153  1  0.35864558  0.49200318  0.62561095  1
  O2-  O154  1  0.35819023  0.82654288  0.12436220  1
  O2-  O155  1  0.35853381  0.83530099  0.62501964  1
  O2-  O156  1  0.69708048  0.16273679  0.12403619  1
  O2-  O157  1  0.68389390  0.16244238  0.62464692  1
  O2-  O158  1  0.69340147  0.49511368  0.12418023  1
  O2-  O159  1  0.68835748  0.49503637  0.62629629  1
  O2-  O160  1  0.69354784  0.82705091  0.12318639  1
  O2-  O161  1  0.69289553  0.82828200  0.62783686  1
  O2-  O162  1  0.13902475  0.32872961  0.12434328  1
  O2-  O163  1  0.14303202  0.32565022  0.62741261  1
  O2-  O164  1  0.13909471  0.66048194  0.12510339  1
  O2-  O165  1  0.14972955  0.66136273  0.62663757  1
  O2-  O166  1  0.14057601  0.99526015  0.12281926  1
  O2-  O167  1  0.13883079  0.99358722  0.62649573  1
  O2-  O168  1  0.47543929  0.32831225  0.12550387  1
  O2-  O169  1  0.47431265  0.32866454  0.62637023  1
  O2-  O170  1  0.47402281  0.66082981  0.12483741  1
  O2-  O171  1  0.47863611  0.65765378  0.62432335  1
  O2-  O172  1  0.47335504  0.99325274  0.12544309  1
  O2-  O173  1  0.47486887  0.99355065  0.62629353  1
  O2-  O174  1  0.81030404  0.33225026  0.12623608  1
  O2-  O175  1  0.80566576  0.33108012  0.62536604  1
  O2-  O176  1  0.80914898  0.65810751  0.12386493  1
  O2-  O177  1  0.80586440  0.66178584  0.62822141  1
  O2-  O178  1  0.80901217  0.99132136  0.12339505  1
  O2-  O179  1  0.81371287  0.99534174  0.62723501  1
  O2-  O180  1  0.30777699  0.17249980  0.37629383  1
  O2-  O181  1  0.31042668  0.17132644  0.87682230  1
  O2-  O182  1  0.30402128  0.50179847  0.37282344  1
  O2-  O183  1  0.30941559  0.50754298  0.87686725  1
  O2-  O184  1  0.30595455  0.83947218  0.37295613  1
  O2-  O185  1  0.30711218  0.83923174  0.87720485  1
  O2-  O186  1  0.64204130  0.17414830  0.37436685  1
  O2-  O187  1  0.64156446  0.17364063  0.87647022  1
  O2-  O188  1  0.64120415  0.49777853  0.37382615  1
  O2-  O189  1  0.63635002  0.50421398  0.87580280  1
  O2-  O190  1  0.64326746  0.83907214  0.37253106  1
  O2-  O191  1  0.63641826  0.83783039  0.87589783  1
  O2-  O192  1  0.97700491  0.17497383  0.37405525  1
  O2-  O193  1  0.97459837  0.17432685  0.87659520  1
  O2-  O194  1  0.97557610  0.50453976  0.37678026  1
  O2-  O195  1  0.97679590  0.50370445  0.87343260  1
  O2-  O196  1  0.97410367  0.83817943  0.37378135  1
  O2-  O197  1  0.97373354  0.84209383  0.87555088  1
  O2-  O198  1  0.19013664  0.00577633  0.37616018  1
  O2-  O199  1  0.19313268  0.00736099  0.87508370  1
  O2-  O200  1  0.19221359  0.34000779  0.37385244  1
  O2-  O201  1  0.19576498  0.34010209  0.87498973  1
  O2-  O202  1  0.19209482  0.67278434  0.37173777  1
  O2-  O203  1  0.19403758  0.66897242  0.87657474  1
  O2-  O204  1  0.52701044  0.00545758  0.37091021  1
  O2-  O205  1  0.52449304  0.00815547  0.87695220  1
  O2-  O206  1  0.52496212  0.33861919  0.37191989  1
  O2-  O207  1  0.52579926  0.33671017  0.87573082  1
  O2-  O208  1  0.51939813  0.67446223  0.37620359  1
  O2-  O209  1  0.52396052  0.67497636  0.87525311  1
  O2-  O210  1  0.85054123  0.00524803  0.37260017  1
  O2-  O211  1  0.85739603  0.00501715  0.87646774  1
  O2-  O212  1  0.85988482  0.34147150  0.37636031  1
  O2-  O213  1  0.85838912  0.34013064  0.87224353  1
  O2-  O214  1  0.85975681  0.67117799  0.37212697  1
  O2-  O215  1  0.85993386  0.67113314  0.87587091  1
  O2-  O216  1  0.23841642  0.09489155  0.02138066  1
  O2-  O217  1  0.23953937  0.09392771  0.52232789  1
  O2-  O218  1  0.23830716  0.42812372  0.02170231  1
  O2-  O219  1  0.23990632  0.42464956  0.52355907  1
  O2-  O220  1  0.23607020  0.76118687  0.02119785  1
  O2-  O221  1  0.23941422  0.76145761  0.51184866  1
  O2-  O222  1  0.57495242  0.09659194  0.02263463  1
  O2-  O223  1  0.56839685  0.09742076  0.51395978  1
  O2-  O224  1  0.57429766  0.42683162  0.02339833  1
  O2-  O225  1  0.57137551  0.42789125  0.51910401  1
  O2-  O226  1  0.57240575  0.75915213  0.02377585  1
  O2-  O227  1  0.57232184  0.76284202  0.52061951  1
  O2-  O228  1  0.90539560  0.10080752  0.02135978  1
  O2-  O229  1  0.90852462  0.09507904  0.51253551  1
  O2-  O230  1  0.90405518  0.43104727  0.01513463  1
  O2-  O231  1  0.90544017  0.42692403  0.52236108  1
  O2-  O232  1  0.90299282  0.76570851  0.02102755  1
  O2-  O233  1  0.90167472  0.76410444  0.51556987  1
  O2-  O234  1  0.26118161  0.26240925  0.22870314  1
  O2-  O235  1  0.26265960  0.25887044  0.73060974  1
  O2-  O236  1  0.26203847  0.59387724  0.22834787  1
  O2-  O237  1  0.25951728  0.58780176  0.73266498  1
  O2-  O238  1  0.26193570  0.92795442  0.22878044  1
  O2-  O239  1  0.26376172  0.93019394  0.73515656  1
  O2-  O240  1  0.59654651  0.26036161  0.22777528  1
  O2-  O241  1  0.59494939  0.26499917  0.73077269  1
  O2-  O242  1  0.59480357  0.59256473  0.22688377  1
  O2-  O243  1  0.59514991  0.59611524  0.73124519  1
  O2-  O244  1  0.59556857  0.92823285  0.22691895  1
  O2-  O245  1  0.59407933  0.92826254  0.73572282  1
  O2-  O246  1  0.93168841  0.26636857  0.23126505  1
  O2-  O247  1  0.93128306  0.26240896  0.73229946  1
  O2-  O248  1  0.92866248  0.59480267  0.22796883  1
  O2-  O249  1  0.92006758  0.59019045  0.73136726  1
  O2-  O250  1  0.92814166  0.93011690  0.22878694  1
  O2-  O251  1  0.92897059  0.92896680  0.73184039  1
  O2-  O252  1  0.09842164  0.24043710  0.27068776  1
  O2-  O253  1  0.09439677  0.24128893  0.77473887  1
  O2-  O254  1  0.09811142  0.56837296  0.26894016  1
  O2-  O255  1  0.09550691  0.57260723  0.76821044  1
  O2-  O256  1  0.09568549  0.90103948  0.26532192  1
  O2-  O257  1  0.09430017  0.90730795  0.77502330  1
  O2-  O258  1  0.42806534  0.23810813  0.27027804  1
  O2-  O259  1  0.43219311  0.23680946  0.76736206  1
  O2-  O260  1  0.42632873  0.56860647  0.27203599  1
  O2-  O261  1  0.43182503  0.56846068  0.76849793  1
  O2-  O262  1  0.42983024  0.90528692  0.27019502  1
  O2-  O263  1  0.42692581  0.90507445  0.77404070  1
  O2-  O264  1  0.76374183  0.24282799  0.27255258  1
  O2-  O265  1  0.76107094  0.24079354  0.77342028  1
  O2-  O266  1  0.76330427  0.56982370  0.26768894  1
  O2-  O267  1  0.75741197  0.57234300  0.77202788  1
  O2-  O268  1  0.75979329  0.90701064  0.27064193  1
  O2-  O269  1  0.76019924  0.90471839  0.77205052  1
  O2-  O270  1  0.07670411  0.07690421  0.48098277  1
  O2-  O271  1  0.07026476  0.07414458  0.97860407  1
  O2-  O272  1  0.07005716  0.40569465  0.48387463  1
  O2-  O273  1  0.07553912  0.40727863  0.97602588  1
  O2-  O274  1  0.07141060  0.73950189  0.47779792  1
  O2-  O275  1  0.06827665  0.73835793  0.97825943  1
  O2-  O276  1  0.40426206  0.07209398  0.47701517  1
  O2-  O277  1  0.40548008  0.07003437  0.98128319  1
  O2-  O278  1  0.40318735  0.40377545  0.48048418  1
  O2-  O279  1  0.40150644  0.40203080  0.98150726  1
  O2-  O280  1  0.40508471  0.74036457  0.47763552  1
  O2-  O281  1  0.39994783  0.73165598  0.98271973  1
  O2-  O282  1  0.73965517  0.07580187  0.47894074  1
  O2-  O283  1  0.73677324  0.07258990  0.97852485  1
  O2-  O284  1  0.74068426  0.40800818  0.47942180  1
  O2-  O285  1  0.73858782  0.40629948  0.97906010  1
  O2-  O286  1  0.73992604  0.74070412  0.48242377  1
  O2-  O287  1  0.73627075  0.73775427  0.97757312  1
  O2-  O288  1  0.09508973  0.24166785  0.47859759  1
  O2-  O289  1  0.09678635  0.23909613  0.97767329  1
  O2-  O290  1  0.09535206  0.57080309  0.48325508  1
  O2-  O291  1  0.09675161  0.57035303  0.98117184  1
  O2-  O292  1  0.09495549  0.90388598  0.48071489  1
  O2-  O293  1  0.09598438  0.90490126  0.97889160  1
  O2-  O294  1  0.43007431  0.23845159  0.47915103  1
  O2-  O295  1  0.43044623  0.23613691  0.98332995  1
  O2-  O296  1  0.42653625  0.56928277  0.47770918  1
  O2-  O297  1  0.43343168  0.56692654  0.98249748  1
  O2-  O298  1  0.42498138  0.90661289  0.47518403  1
  O2-  O299  1  0.42828204  0.89912993  0.97988236  1
  O2-  O300  1  0.76167620  0.24131073  0.47568735  1
  O2-  O301  1  0.76205194  0.24122905  0.97846130  1
  O2-  O302  1  0.76060684  0.57041205  0.48400609  1
  O2-  O303  1  0.75924075  0.57081556  0.97709257  1
  O2-  O304  1  0.75994913  0.90529401  0.48112747  1
  O2-  O305  1  0.75625625  0.90471437  0.97541078  1
  O2-  O306  1  0.07363002  0.07620173  0.26620822  1
  O2-  O307  1  0.07507041  0.07512775  0.77455499  1
  O2-  O308  1  0.07241778  0.40612584  0.26989346  1
  O2-  O309  1  0.07507604  0.40532232  0.77007130  1
  O2-  O310  1  0.06893115  0.73575026  0.26999746  1
  O2-  O311  1  0.07190519  0.73986201  0.77416890  1
  O2-  O312  1  0.40586474  0.07127068  0.27052721  1
  O2-  O313  1  0.40423736  0.07071981  0.77099285  1
  O2-  O314  1  0.40247154  0.40420636  0.26763717  1
  O2-  O315  1  0.40259188  0.40110346  0.77016517  1
  O2-  O316  1  0.40251668  0.73874273  0.26987141  1
  O2-  O317  1  0.40391059  0.73639469  0.77077446  1
  O2-  O318  1  0.73696585  0.07258206  0.26868943  1
  O2-  O319  1  0.74079794  0.07331035  0.77269686  1
  O2-  O320  1  0.74038820  0.40560512  0.26969001  1
  O2-  O321  1  0.73951778  0.40894440  0.77253523  1
  O2-  O322  1  0.74143142  0.73992048  0.26761542  1
  O2-  O323  1  0.73575287  0.73812958  0.77325855  1
  O2-  O324  1  0.24004453  0.09519951  0.22954333  1
  O2-  O325  1  0.23811305  0.09373379  0.72767167  1
  O2-  O326  1  0.24034955  0.42583418  0.22386127  1
  O2-  O327  1  0.23869508  0.42620717  0.72904363  1
  O2-  O328  1  0.23516885  0.75951370  0.22749472  1
  O2-  O329  1  0.23830649  0.76232416  0.73802065  1
  O2-  O330  1  0.57149251  0.09413108  0.22730503  1
  O2-  O331  1  0.56781719  0.09651967  0.73538366  1
  O2-  O332  1  0.57564873  0.42642353  0.22578727  1
  O2-  O333  1  0.56952732  0.42832200  0.73093231  1
  O2-  O334  1  0.57360957  0.76224366  0.22923787  1
  O2-  O335  1  0.57080409  0.76013129  0.72620909  1
  O2-  O336  1  0.90265510  0.09678641  0.22852733  1
  O2-  O337  1  0.90825243  0.09431103  0.73841332  1
  O2-  O338  1  0.90438606  0.43161934  0.23402066  1
  O2-  O339  1  0.90570095  0.42567644  0.72841601  1
  O2-  O340  1  0.90468407  0.76396358  0.22674853  1
  O2-  O341  1  0.89924738  0.76420866  0.73585890  1
  O2-  O342  1  0.25885283  0.26066965  0.02327206  1
  O2-  O343  1  0.26561757  0.25987295  0.51813628  1
  O2-  O344  1  0.26078296  0.59135062  0.02381992  1
  O2-  O345  1  0.26154727  0.59050622  0.51555127  1
  O2-  O346  1  0.26306813  0.92745500  0.02060216  1
  O2-  O347  1  0.26311170  0.93067016  0.51588162  1
  O2-  O348  1  0.59674759  0.26127056  0.02141323  1
  O2-  O349  1  0.59672912  0.26326496  0.51941453  1
  O2-  O350  1  0.59605890  0.59558373  0.02118174  1
  O2-  O351  1  0.59344324  0.59290991  0.52103277  1
  O2-  O352  1  0.59543528  0.92793701  0.02281027  1
  O2-  O353  1  0.59321119  0.92702463  0.51256765  1
  O2-  O354  1  0.93323167  0.26697692  0.01839284  1
  O2-  O355  1  0.93100113  0.26302046  0.51803962  1
  O2-  O356  1  0.92786360  0.59425976  0.02063731  1
  O2-  O357  1  0.92288625  0.58994551  0.51959757  1
  O2-  O358  1  0.93226200  0.93114865  0.01724744  1
  O2-  O359  1  0.92754670  0.92639259  0.52162782  1
