# generated using pymatgen
data_Sr7Ca15Pr50Mn72O216
_symmetry_space_group_name_H-M   'P 1'
_cell_length_a   16.55726063
_cell_length_b   16.60496729
_cell_length_c   15.59470475
_cell_angle_alpha   90.00026883
_cell_angle_beta   90.00318907
_cell_angle_gamma   89.99858068
_symmetry_Int_Tables_number   1
_chemical_formula_structural   Sr7Ca15Pr50Mn72O216
_chemical_formula_sum   'Sr7 Ca15 Pr50 Mn72 O216'
_cell_volume   4287.49538430
_cell_formula_units_Z   1
loop_
 _symmetry_equiv_pos_site_id
 _symmetry_equiv_pos_as_xyz
  1  'x, y, z'
loop_
 _atom_type_symbol
 _atom_type_oxidation_number
  Sr2+  2.0
  Ca2+  2.0
  Pr3+  3.0
  Mn3.30+  3.3
  O2-  -2.0
loop_
 _atom_site_type_symbol
 _atom_site_label
 _atom_site_symmetry_multiplicity
 _atom_site_fract_x
 _atom_site_fract_y
 _atom_site_fract_z
 _atom_site_occupancy
  Sr2+  Sr0  1  0.49787806  0.15707612  0.87157923  1
  Sr2+  Sr1  1  0.33279788  0.99231416  0.37550051  1
  Sr2+  Sr2  1  0.49742093  0.15669912  0.37865792  1
  Sr2+  Sr3  1  0.66975309  0.65731981  0.87238402  1
  Sr2+  Sr4  1  -0.00152315  0.00761776  0.12595928  1
  Sr2+  Sr5  1  0.83448576  0.84112174  0.62618373  1
  Sr2+  Sr6  1  0.33587247  0.34155924  0.62395578  1
  Ca2+  Ca7  1  0.16866175  0.84577943  0.62479530  1
  Ca2+  Ca8  1  0.16161911  0.81653093  0.87467797  1
  Ca2+  Ca9  1  0.50064344  0.17814110  0.62282944  1
  Ca2+  Ca10  1  0.83954250  0.84554723  0.12444191  1
  Ca2+  Ca11  1  -0.00117354  0.68152726  0.12735606  1
  Ca2+  Ca12  1  -0.00104638  0.01018921  0.62435775  1
  Ca2+  Ca13  1  0.50447038  0.51761166  0.62345096  1
  Ca2+  Ca14  1  0.16472099  0.48831231  0.37677557  1
  Ca2+  Ca15  1  -0.00354188  0.34925028  0.62317941  1
  Ca2+  Ca16  1  0.66399113  0.67964318  0.62471476  1
  Ca2+  Ca17  1  1.00655759  0.65007935  0.37594492  1
  Ca2+  Ca18  1  0.16895877  0.51621730  0.12861205  1
  Ca2+  Ca19  1  0.16373000  0.15011432  0.37795636  1
  Ca2+  Ca20  1  -0.00219918  0.68108643  0.62256479  1
  Ca2+  Ca21  1  0.33303716  0.65224101  0.37642370  1
  Pr3+  Pr22  1  0.66851600  0.32110896  0.87470599  1
  Pr3+  Pr23  1  0.33153042  0.32189023  0.37798711  1
  Pr3+  Pr24  1  0.66325447  0.01390165  0.62524465  1
  Pr3+  Pr25  1  0.33135382  0.01152793  0.62323341  1
  Pr3+  Pr26  1  0.82982801  0.49058071  0.87378328  1
  Pr3+  Pr27  1  0.83119894  0.15201679  0.37579368  1
  Pr3+  Pr28  1  0.32678368  0.67863019  0.12699755  1
  Pr3+  Pr29  1  1.00510247  0.98692182  0.37700089  1
  Pr3+  Pr30  1  -0.00050019  0.34726331  0.12599669  1
  Pr3+  Pr31  1  0.33600080  0.32071618  0.87233282  1
  Pr3+  Pr32  1  0.49724316  0.48907112  0.87327801  1
  Pr3+  Pr33  1  0.65875369  0.34683289  0.62423250  1
  Pr3+  Pr34  1  0.49411474  0.48952301  0.37711604  1
  Pr3+  Pr35  1  0.32927380  0.01369932  0.12636378  1
  Pr3+  Pr36  1  0.50437075  0.84296814  0.62446871  1
  Pr3+  Pr37  1  0.16458053  0.15360755  0.87200125  1
  Pr3+  Pr38  1  0.32967774  0.67878187  0.62209423  1
  Pr3+  Pr39  1  0.66597273  0.68098591  0.12532139  1
  Pr3+  Pr40  1  0.84054705  0.17956945  0.12553542  1
  Pr3+  Pr41  1  0.16709034  0.17832786  0.62225994  1
  Pr3+  Pr42  1  0.82954895  0.15258404  0.87461926  1
  Pr3+  Pr43  1  1.00301339  0.65676750  0.87304218  1
  Pr3+  Pr44  1  0.83927236  0.18144934  0.62486755  1
  Pr3+  Pr45  1  0.50062831  0.17750557  0.12683759  1
  Pr3+  Pr46  1  1.00212971  0.32106571  0.87192809  1
  Pr3+  Pr47  1  0.50066959  0.51335660  0.12632401  1
  Pr3+  Pr48  1  0.83361423  0.48879937  0.37567257  1
  Pr3+  Pr49  1  0.16238541  0.81846951  0.37588362  1
  Pr3+  Pr50  1  0.83530939  0.82141090  0.37471362  1
  Pr3+  Pr51  1  1.00561738  0.98190958  0.87367332  1
  Pr3+  Pr52  1  0.33374606  0.65453020  0.87392514  1
  Pr3+  Pr53  1  0.49814345  0.81867021  0.87386381  1
  Pr3+  Pr54  1  0.50067766  0.84589793  0.12509961  1
  Pr3+  Pr55  1  0.66414998  0.34614194  0.12576786  1
  Pr3+  Pr56  1  0.66975118  0.98680134  0.87395077  1
  Pr3+  Pr57  1  0.66892061  0.31904918  0.37571690  1
  Pr3+  Pr58  1  0.66954926  0.65523355  0.37729347  1
  Pr3+  Pr59  1  0.16695430  0.51100546  0.62222386  1
  Pr3+  Pr60  1  0.66884647  0.98772770  0.37639083  1
  Pr3+  Pr61  1  0.49261094  0.81935800  0.37623486  1
  Pr3+  Pr62  1  0.66766812  0.00973837  0.12473317  1
  Pr3+  Pr63  1  0.16850533  0.17725727  0.12787569  1
  Pr3+  Pr64  1  0.83950659  0.51635005  0.12554210  1
  Pr3+  Pr65  1  0.83295665  0.81969273  0.87501604  1
  Pr3+  Pr66  1  0.32625599  0.34829108  0.12594395  1
  Pr3+  Pr67  1  0.83771136  0.51633216  0.62373914  1
  Pr3+  Pr68  1  0.16425479  0.48829588  0.87382548  1
  Pr3+  Pr69  1  0.16700661  0.84596664  0.12471251  1
  Pr3+  Pr70  1  1.00704039  0.31896832  0.37818889  1
  Pr3+  Pr71  1  0.33626429  0.98519191  0.87371688  1
  Mn3.30+  Mn72  1  0.16689471  -0.00116348  -0.00121628  1
  Mn3.30+  Mn73  1  0.16531278  -0.00226663  0.50216982  1
  Mn3.30+  Mn74  1  0.16577075  0.33411264  -0.00045860  1
  Mn3.30+  Mn75  1  0.16520768  0.33415676  0.50126337  1
  Mn3.30+  Mn76  1  0.16446944  0.66650902  0.00161265  1
  Mn3.30+  Mn77  1  0.16430481  0.66612738  0.49938555  1
  Mn3.30+  Mn78  1  0.49975904  0.00031664  -0.00075702  1
  Mn3.30+  Mn79  1  0.49887675  0.00050192  0.50013036  1
  Mn3.30+  Mn80  1  0.49804030  0.33357498  0.00095488  1
  Mn3.30+  Mn81  1  0.49927959  0.33396144  0.50077242  1
  Mn3.30+  Mn82  1  0.49927701  0.66599991  0.00017745  1
  Mn3.30+  Mn83  1  0.49929432  0.66591738  0.50039649  1
  Mn3.30+  Mn84  1  0.83611369  -0.00213534  -0.00017589  1
  Mn3.30+  Mn85  1  0.83620204  -0.00165474  0.50299430  1
  Mn3.30+  Mn86  1  0.83406062  0.33508370  -0.00003144  1
  Mn3.30+  Mn87  1  0.83467562  0.33450151  0.50067619  1
  Mn3.30+  Mn88  1  0.83574256  0.66827374  0.00206847  1
  Mn3.30+  Mn89  1  0.83680793  0.66799080  0.49935638  1
  Mn3.30+  Mn90  1  0.00226460  0.16580321  0.25134559  1
  Mn3.30+  Mn91  1  -0.00081248  0.16528021  0.74855091  1
  Mn3.30+  Mn92  1  0.00413085  0.50259780  0.25017532  1
  Mn3.30+  Mn93  1  -0.00085055  0.50126595  0.74804258  1
  Mn3.30+  Mn94  1  -0.00098648  0.83018493  0.25030268  1
  Mn3.30+  Mn95  1  0.00323962  0.83210329  0.74624240  1
  Mn3.30+  Mn96  1  0.33315615  0.16758442  0.25307037  1
  Mn3.30+  Mn97  1  0.33336762  0.16625442  0.74718099  1
  Mn3.30+  Mn98  1  0.32891715  0.50157254  0.25299933  1
  Mn3.30+  Mn99  1  0.33377002  0.49995732  0.74545979  1
  Mn3.30+  Mn100  1  0.33171059  0.83248064  0.25202004  1
  Mn3.30+  Mn101  1  0.33017645  0.83186515  0.74918897  1
  Mn3.30+  Mn102  1  0.66822666  0.16526721  0.24940763  1
  Mn3.30+  Mn103  1  0.66598293  0.16710143  0.74938778  1
  Mn3.30+  Mn104  1  0.66698031  0.50083803  0.25094795  1
  Mn3.30+  Mn105  1  0.66538668  0.50224659  0.74778369  1
  Mn3.30+  Mn106  1  0.66732903  0.83348951  0.25038748  1
  Mn3.30+  Mn107  1  0.66835259  0.83190114  0.74866481  1
  Mn3.30+  Mn108  1  0.16638535  0.00017508  0.25179041  1
  Mn3.30+  Mn109  1  0.16594223  -0.00387677  0.74788316  1
  Mn3.30+  Mn110  1  0.16532416  0.33494817  0.25203216  1
  Mn3.30+  Mn111  1  0.16559406  0.33364514  0.74665670  1
  Mn3.30+  Mn112  1  0.16422350  0.66385256  0.25207346  1
  Mn3.30+  Mn113  1  0.16540905  0.66869631  0.74688772  1
  Mn3.30+  Mn114  1  0.49936464  0.00015854  0.25100753  1
  Mn3.30+  Mn115  1  0.49978133  0.00025352  0.74982584  1
  Mn3.30+  Mn116  1  0.49743258  0.33384259  0.25074140  1
  Mn3.30+  Mn117  1  0.49994114  0.33394370  0.74769489  1
  Mn3.30+  Mn118  1  0.49747739  0.66666262  0.25086830  1
  Mn3.30+  Mn119  1  0.50082233  0.66511315  0.74836473  1
  Mn3.30+  Mn120  1  0.83560962  -0.00234488  0.25012038  1
  Mn3.30+  Mn121  1  0.83644823  -0.00131570  0.74805764  1
  Mn3.30+  Mn122  1  0.83514142  0.33433641  0.25117224  1
  Mn3.30+  Mn123  1  0.83346356  0.33509175  0.74795306  1
  Mn3.30+  Mn124  1  0.83781236  0.66798217  0.25144006  1
  Mn3.30+  Mn125  1  0.83462551  0.66819489  0.74673874  1
  Mn3.30+  Mn126  1  0.00040904  0.16570009  -0.00091213  1
  Mn3.30+  Mn127  1  0.00091051  0.16557260  0.50190463  1
  Mn3.30+  Mn128  1  0.00174697  0.50281425  0.00167267  1
  Mn3.30+  Mn129  1  0.00165235  0.50133231  0.49931176  1
  Mn3.30+  Mn130  1  0.00019157  0.83081474  0.00059576  1
  Mn3.30+  Mn131  1  0.00126907  0.83138960  0.50322887  1
  Mn3.30+  Mn132  1  0.33343214  0.16730005  -0.00084526  1
  Mn3.30+  Mn133  1  0.33277381  0.16679259  0.50036259  1
  Mn3.30+  Mn134  1  0.33034025  0.50060431  0.00052556  1
  Mn3.30+  Mn135  1  0.33242354  0.50099134  0.50081788  1
  Mn3.30+  Mn136  1  0.33085517  0.83220087  -0.00137711  1
  Mn3.30+  Mn137  1  0.33079383  0.83269895  0.50000568  1
  Mn3.30+  Mn138  1  0.66738815  0.16605556  0.00073118  1
  Mn3.30+  Mn139  1  0.66651744  0.16624503  0.50064682  1
  Mn3.30+  Mn140  1  0.66722753  0.50159712  0.00045830  1
  Mn3.30+  Mn141  1  0.66532348  0.50170967  0.50067148  1
  Mn3.30+  Mn142  1  0.66904396  0.83296544  0.00136755  1
  Mn3.30+  Mn143  1  0.66693955  0.83235991  0.49978121  1
  O2-  O144  1  0.02426925  0.16568916  0.12413459  1
  O2-  O145  1  0.02376557  0.15645261  0.62621753  1
  O2-  O146  1  0.02847835  0.49161097  0.12540913  1
  O2-  O147  1  0.02312330  0.49196574  0.62476812  1
  O2-  O148  1  0.02400372  0.82771270  0.12528982  1
  O2-  O149  1  0.02821807  0.82353858  0.62444238  1
  O2-  O150  1  0.35601530  0.16407553  0.12676888  1
  O2-  O151  1  0.35760744  0.16066903  0.62544951  1
  O2-  O152  1  0.35744143  0.49571596  0.12668352  1
  O2-  O153  1  0.36116953  0.49950479  0.62479725  1
  O2-  O154  1  0.35704772  0.82602968  0.12586589  1
  O2-  O155  1  0.36043237  0.82724590  0.62512081  1
  O2-  O156  1  0.69677772  0.16031382  0.12556103  1
  O2-  O157  1  0.69452474  0.16382795  0.62605368  1
  O2-  O158  1  0.69376754  0.49357429  0.12779779  1
  O2-  O159  1  0.69389857  0.49146008  0.62348860  1
  O2-  O160  1  0.69478012  0.82911711  0.12705451  1
  O2-  O161  1  0.68320608  0.82658911  0.62295368  1
  O2-  O162  1  0.14163671  0.32303166  0.12675818  1
  O2-  O163  1  0.13736976  0.32735997  0.62563379  1
  O2-  O164  1  0.14081767  0.65977726  0.12743431  1
  O2-  O165  1  0.13842706  0.65618000  0.62303795  1
  O2-  O166  1  0.14881912  0.99707570  0.12428334  1
  O2-  O167  1  0.13984642  0.99150760  0.62695476  1
  O2-  O168  1  0.47193960  0.32739041  0.12604700  1
  O2-  O169  1  0.48576121  0.32299321  0.62456925  1
  O2-  O170  1  0.47221381  0.66251689  0.12579481  1
  O2-  O171  1  0.47457022  0.66535137  0.62520660  1
  O2-  O172  1  0.47398449  0.99381471  0.12359627  1
  O2-  O173  1  0.47614155  0.98948702  0.62573304  1
  O2-  O174  1  0.80895071  0.32842430  0.12736953  1
  O2-  O175  1  0.80442635  0.32907071  0.62489590  1
  O2-  O176  1  0.80821152  0.66123936  0.12783679  1
  O2-  O177  1  0.80678124  0.66263584  0.62072459  1
  O2-  O178  1  0.81164286  0.99315730  0.12308816  1
  O2-  O179  1  0.80789503  0.99745064  0.62516090  1
  O2-  O180  1  0.30730540  0.17248254  0.37604004  1
  O2-  O181  1  0.30897206  0.17153009  0.87155251  1
  O2-  O182  1  0.30704824  0.50693947  0.37572005  1
  O2-  O183  1  0.30818737  0.50593805  0.87253950  1
  O2-  O184  1  0.30720057  0.83832994  0.37553839  1
  O2-  O185  1  0.30445826  0.83690537  0.87298283  1
  O2-  O186  1  0.64828638  0.16930770  0.37297304  1
  O2-  O187  1  0.64783261  0.17164124  0.87544613  1
  O2-  O188  1  0.63930358  0.50748331  0.37475973  1
  O2-  O189  1  0.64193939  0.50244828  0.87380187  1
  O2-  O190  1  0.63789710  0.83906677  0.37374313  1
  O2-  O191  1  0.64271468  0.83856306  0.87585272  1
  O2-  O192  1  0.97408357  0.17190127  0.37719298  1
  O2-  O193  1  0.97335307  0.17395866  0.87326085  1
  O2-  O194  1  0.97553523  0.50494745  0.37464563  1
  O2-  O195  1  0.97381746  0.50787563  0.87401467  1
  O2-  O196  1  0.97852469  0.84035662  0.37667908  1
  O2-  O197  1  0.97718456  0.83394338  0.87422783  1
  O2-  O198  1  0.18331429  0.00295282  0.37637268  1
  O2-  O199  1  0.19387931  0.00712867  0.87367942  1
  O2-  O200  1  0.18826492  0.34292008  0.37551868  1
  O2-  O201  1  0.19163418  0.33909907  0.87215579  1
  O2-  O202  1  0.19348731  0.67400020  0.37618378  1
  O2-  O203  1  0.19102866  0.67200003  0.87291558  1
  O2-  O204  1  0.52481124  0.00121625  0.37517915  1
  O2-  O205  1  0.52514398  0.00176076  0.87550624  1
  O2-  O206  1  0.52519162  0.34155152  0.37466838  1
  O2-  O207  1  0.52401025  0.34098312  0.87531230  1
  O2-  O208  1  0.52530966  0.67071437  0.37356954  1
  O2-  O209  1  0.51941458  0.66942022  0.87523132  1
  O2-  O210  1  0.85945260  0.00501757  0.37849295  1
  O2-  O211  1  0.85998356  0.00573473  0.87375622  1
  O2-  O212  1  0.86122402  0.33938280  0.37414325  1
  O2-  O213  1  0.85827997  0.34152063  0.87302699  1
  O2-  O214  1  0.86305766  0.67230022  0.37420215  1
  O2-  O215  1  0.85787586  0.66921269  0.87638121  1
  O2-  O216  1  0.23929111  0.09684719  0.01926382  1
  O2-  O217  1  0.23753501  0.09014203  0.52244960  1
  O2-  O218  1  0.23590594  0.42971078  0.02092515  1
  O2-  O219  1  0.23836358  0.42770705  0.51965884  1
  O2-  O220  1  0.23659618  0.75896555  0.02325383  1
  O2-  O221  1  0.23596934  0.76092396  0.52237031  1
  O2-  O222  1  0.57448070  0.09286831  0.02452201  1
  O2-  O223  1  0.57332964  0.09311370  0.52351185  1
  O2-  O224  1  0.57056917  0.42640595  0.02234642  1
  O2-  O225  1  0.57069531  0.43020018  0.52073170  1
  O2-  O226  1  0.57170255  0.76014392  0.02131501  1
  O2-  O227  1  0.56769854  0.76152422  0.51410941  1
  O2-  O228  1  0.90263564  0.09703055  0.01650989  1
  O2-  O229  1  0.90207016  0.09795206  0.51744991  1
  O2-  O230  1  0.90606292  0.43022615  0.02029155  1
  O2-  O231  1  0.90194731  0.43071320  0.51664925  1
  O2-  O232  1  0.90232032  0.76456696  0.01744992  1
  O2-  O233  1  0.90600663  0.76311304  0.51545502  1
  O2-  O234  1  0.26006994  0.26304523  0.23117864  1
  O2-  O235  1  0.25565231  0.25791995  0.73048719  1
  O2-  O236  1  0.26172674  0.59614894  0.23047200  1
  O2-  O237  1  0.26077831  0.59481039  0.72889644  1
  O2-  O238  1  0.26056234  0.92545583  0.22840572  1
  O2-  O239  1  0.26503287  0.92932566  0.73080456  1
  O2-  O240  1  0.59596125  0.25870607  0.22859147  1
  O2-  O241  1  0.59946675  0.26424834  0.73673200  1
  O2-  O242  1  0.59516107  0.59458246  0.22825424  1
  O2-  O243  1  0.59588866  0.59496251  0.72657483  1
  O2-  O244  1  0.59506329  0.92720863  0.22788286  1
  O2-  O245  1  0.59551292  0.92814181  0.73143114  1
  O2-  O246  1  0.93080193  0.26147721  0.23032015  1
  O2-  O247  1  0.92731164  0.26555226  0.72734108  1
  O2-  O248  1  0.93133590  0.59374713  0.22651356  1
  O2-  O249  1  0.92903266  0.59645953  0.72714123  1
  O2-  O250  1  0.92663444  0.92683994  0.23776042  1
  O2-  O251  1  0.93570957  0.93008828  0.73345439  1
  O2-  O252  1  0.09631131  0.23634270  0.27319478  1
  O2-  O253  1  0.09244102  0.23808238  0.77038992  1
  O2-  O254  1  0.09846051  0.56812224  0.27324714  1
  O2-  O255  1  0.09587793  0.57281056  0.77024371  1
  O2-  O256  1  0.09330149  0.90238197  0.26704385  1
  O2-  O257  1  0.09760659  0.90309856  0.77465628  1
  O2-  O258  1  0.42475702  0.24179289  0.27004659  1
  O2-  O259  1  0.42373859  0.24449220  0.76759430  1
  O2-  O260  1  0.42896911  0.56901246  0.26728333  1
  O2-  O261  1  0.42667866  0.57394013  0.77128609  1
  O2-  O262  1  0.42910116  0.90095408  0.26532317  1
  O2-  O263  1  0.42681158  0.90226682  0.77155027  1
  O2-  O264  1  0.76218231  0.23886731  0.27013386  1
  O2-  O265  1  0.76351352  0.23959520  0.77075777  1
  O2-  O266  1  0.76398943  0.57435783  0.27176212  1
  O2-  O267  1  0.76371748  0.56935631  0.76528318  1
  O2-  O268  1  0.75752537  0.90668794  0.27484583  1
  O2-  O269  1  0.76238355  0.90855847  0.77196607  1
  O2-  O270  1  0.07082278  0.07116545  0.48352097  1
  O2-  O271  1  0.07408591  0.07234588  0.97609706  1
  O2-  O272  1  0.06957684  0.40415866  0.48290570  1
  O2-  O273  1  0.07092923  0.40442332  0.97761783  1
  O2-  O274  1  0.07253482  0.73639222  0.47591396  1
  O2-  O275  1  0.07063088  0.73652498  0.98184377  1
  O2-  O276  1  0.40657473  0.07107673  0.48706105  1
  O2-  O277  1  0.40257417  0.07004984  0.98357278  1
  O2-  O278  1  0.40468501  0.40930845  0.47699899  1
  O2-  O279  1  0.40242678  0.40611241  0.97995293  1
  O2-  O280  1  0.40210984  0.73740486  0.47919624  1
  O2-  O281  1  0.40315155  0.73959496  0.97895123  1
  O2-  O282  1  0.73876146  0.07153026  0.48154564  1
  O2-  O283  1  0.74018176  0.07065706  0.97998004  1
  O2-  O284  1  0.73589780  0.40666092  0.47688719  1
  O2-  O285  1  0.73846931  0.40585096  0.98074592  1
  O2-  O286  1  0.74168554  0.74113419  0.47464370  1
  O2-  O287  1  0.74072812  0.73964789  0.98346383  1
  O2-  O288  1  0.09512337  0.23593913  0.47979415  1
  O2-  O289  1  0.09480393  0.23874132  0.97761934  1
  O2-  O290  1  0.09787593  0.56776016  0.48062006  1
  O2-  O291  1  0.09489846  0.57333314  0.97574763  1
  O2-  O292  1  0.09467729  0.90393309  0.47948588  1
  O2-  O293  1  0.09574697  0.90217236  0.98035936  1
  O2-  O294  1  0.42302955  0.24558512  0.48165121  1
  O2-  O295  1  0.42560488  0.24036144  0.98157351  1
  O2-  O296  1  0.42906247  0.57337576  0.48099636  1
  O2-  O297  1  0.42753155  0.57106393  0.98137535  1
  O2-  O298  1  0.42987512  0.90220611  0.48385253  1
  O2-  O299  1  0.42815181  0.90389845  0.97902752  1
  O2-  O300  1  0.76449590  0.24005208  0.47919318  1
  O2-  O301  1  0.76189678  0.24010751  0.98058817  1
  O2-  O302  1  0.76285881  0.57258138  0.47738355  1
  O2-  O303  1  0.76671808  0.57165887  0.98542607  1
  O2-  O304  1  0.76107624  0.90765235  0.47747286  1
  O2-  O305  1  0.76123929  0.90853800  0.97649358  1
  O2-  O306  1  0.07116870  0.07292030  0.26932193  1
  O2-  O307  1  0.07446966  0.07103950  0.77304305  1
  O2-  O308  1  0.06728751  0.40098747  0.26729814  1
  O2-  O309  1  0.07202418  0.40765049  0.77209719  1
  O2-  O310  1  0.07183330  0.73626311  0.27240347  1
  O2-  O311  1  0.07271801  0.73780793  0.76989581  1
  O2-  O312  1  0.40781322  0.07341569  0.26219509  1
  O2-  O313  1  0.40284285  0.06827044  0.76661773  1
  O2-  O314  1  0.39993989  0.40767602  0.27160649  1
  O2-  O315  1  0.40588567  0.40819786  0.77232316  1
  O2-  O316  1  0.40235396  0.73748212  0.27231306  1
  O2-  O317  1  0.40323646  0.73883181  0.77021765  1
  O2-  O318  1  0.74048759  0.07035736  0.26928312  1
  O2-  O319  1  0.73755429  0.07254840  0.76966621  1
  O2-  O320  1  0.73798441  0.40629144  0.27255906  1
  O2-  O321  1  0.73642961  0.40493007  0.77060726  1
  O2-  O322  1  0.73703179  0.73931322  0.27234726  1
  O2-  O323  1  0.74420685  0.74331838  0.76802565  1
  O2-  O324  1  0.24193120  0.09486690  0.23087603  1
  O2-  O325  1  0.23690824  0.09286067  0.72735029  1
  O2-  O326  1  0.23737430  0.42802143  0.22679669  1
  O2-  O327  1  0.23711540  0.42974344  0.73098588  1
  O2-  O328  1  0.23602860  0.76119582  0.22906122  1
  O2-  O329  1  0.23925948  0.75941909  0.72296573  1
  O2-  O330  1  0.57708820  0.09268136  0.22546151  1
  O2-  O331  1  0.57375171  0.09589870  0.72608098  1
  O2-  O332  1  0.57034282  0.42614533  0.22834834  1
  O2-  O333  1  0.57071179  0.43049157  0.72869020  1
  O2-  O334  1  0.57230157  0.76169025  0.22821393  1
  O2-  O335  1  0.56848834  0.76131485  0.73577944  1
  O2-  O336  1  0.90409734  0.09836802  0.23432091  1
  O2-  O337  1  0.90198695  0.09801132  0.73301169  1
  O2-  O338  1  0.90610519  0.43037985  0.22981572  1
  O2-  O339  1  0.90056446  0.43105606  0.73155741  1
  O2-  O340  1  0.90213665  0.76515865  0.23157843  1
  O2-  O341  1  0.90834365  0.76176043  0.73621919  1
  O2-  O342  1  0.26035126  0.26259441  0.01859104  1
  O2-  O343  1  0.25588619  0.25974456  0.51865994  1
  O2-  O344  1  0.26204834  0.59732069  0.01664036  1
  O2-  O345  1  0.25980023  0.59381184  0.52273921  1
  O2-  O346  1  0.26334444  0.92771317  0.01987663  1
  O2-  O347  1  0.26098310  0.92642128  0.52145479  1
  O2-  O348  1  0.59412581  0.26053397  0.02258855  1
  O2-  O349  1  0.59871092  0.26244636  0.51278607  1
  O2-  O350  1  0.59388056  0.59241786  0.02495647  1
  O2-  O351  1  0.59866825  0.59765300  0.51869494  1
  O2-  O352  1  0.59504180  0.92661128  0.02123154  1
  O2-  O353  1  0.59519417  0.92880564  0.51935846  1
  O2-  O354  1  0.92796671  0.26327144  0.01927982  1
  O2-  O355  1  0.93084087  0.26197203  0.52264964  1
  O2-  O356  1  0.93031380  0.59779827  0.02355940  1
  O2-  O357  1  0.92884580  0.59393961  0.52175518  1
  O2-  O358  1  0.92973091  0.92715360  0.01174255  1
  O2-  O359  1  0.93222383  0.93091273  0.51847440  1
