# generated using pymatgen
data_Sr7Ca15Pr50Mn72O216
_symmetry_space_group_name_H-M   'P 1'
_cell_length_a   16.55917092
_cell_length_b   16.60368441
_cell_length_c   15.59287907
_cell_angle_alpha   89.99749327
_cell_angle_beta   90.00826588
_cell_angle_gamma   90.00069399
_symmetry_Int_Tables_number   1
_chemical_formula_structural   Sr7Ca15Pr50Mn72O216
_chemical_formula_sum   'Sr7 Ca15 Pr50 Mn72 O216'
_cell_volume   4287.15677102
_cell_formula_units_Z   1
loop_
 _symmetry_equiv_pos_site_id
 _symmetry_equiv_pos_as_xyz
  1  'x, y, z'
loop_
 _atom_type_symbol
 _atom_type_oxidation_number
  Sr2+  2.0
  Ca2+  2.0
  Pr3+  3.0
  Mn3.30+  3.3
  O2-  -2.0
loop_
 _atom_site_type_symbol
 _atom_site_label
 _atom_site_symmetry_multiplicity
 _atom_site_fract_x
 _atom_site_fract_y
 _atom_site_fract_z
 _atom_site_occupancy
  Sr2+  Sr0  1  0.17106215  0.84386480  0.12359332  1
  Sr2+  Sr1  1  1.00485396  0.98788627  0.87574371  1
  Sr2+  Sr2  1  0.66539096  0.67470210  0.12533886  1
  Sr2+  Sr3  1  0.33277311  0.67501612  0.12263318  1
  Sr2+  Sr4  1  0.16765834  0.15390009  0.37392331  1
  Sr2+  Sr5  1  0.83360734  0.82560749  0.37325933  1
  Sr2+  Sr6  1  0.83505176  0.84066276  0.12705391  1
  Ca2+  Ca7  1  0.49548091  0.48463963  0.36791389  1
  Ca2+  Ca8  1  0.66189644  0.68224798  0.62392960  1
  Ca2+  Ca9  1  1.00221713  0.98824251  0.37141632  1
  Ca2+  Ca10  1  0.33511356  0.98463529  0.87905369  1
  Ca2+  Ca11  1  0.33564311  0.31979336  0.36961783  1
  Ca2+  Ca12  1  0.33412309  0.65374482  0.87952112  1
  Ca2+  Ca13  1  0.83101527  0.15174152  0.37264923  1
  Ca2+  Ca14  1  0.66156507  0.35216318  0.12706624  1
  Ca2+  Ca15  1  0.33471573  0.98475487  0.37053107  1
  Ca2+  Ca16  1  0.16655022  0.82041202  0.87866749  1
  Ca2+  Ca17  1  0.50177482  0.51500533  0.12711242  1
  Ca2+  Ca18  1  0.33079822  0.34743918  0.12850772  1
  Ca2+  Ca19  1  0.83421442  0.51495626  0.12676494  1
  Ca2+  Ca20  1  -0.00402085  0.35024520  0.12738354  1
  Ca2+  Ca21  1  0.32782085  0.01006568  0.12758757  1
  Pr3+  Pr22  1  0.50142732  0.84287443  0.12451108  1
  Pr3+  Pr23  1  0.66912174  0.31949930  0.37061305  1
  Pr3+  Pr24  1  1.00114147  0.65691959  0.37267870  1
  Pr3+  Pr25  1  0.66899016  0.65266038  0.87613089  1
  Pr3+  Pr26  1  0.50465998  0.51422734  0.62338440  1
  Pr3+  Pr27  1  0.32985545  0.67974246  0.62679722  1
  Pr3+  Pr28  1  0.50249081  0.18063459  0.12637621  1
  Pr3+  Pr29  1  0.33753002  0.65333982  0.37188698  1
  Pr3+  Pr30  1  0.17084247  0.51262434  0.62406784  1
  Pr3+  Pr31  1  1.00300397  0.31956232  0.37137727  1
  Pr3+  Pr32  1  0.33652472  0.32169867  0.87950469  1
  Pr3+  Pr33  1  0.66857315  0.65508710  0.37359988  1
  Pr3+  Pr34  1  0.17016865  0.51235748  0.12555773  1
  Pr3+  Pr35  1  0.49318048  0.15228860  0.37347832  1
  Pr3+  Pr36  1  0.66320345  0.34532597  0.62331441  1
  Pr3+  Pr37  1  0.16868666  0.17832845  0.62410669  1
  Pr3+  Pr38  1  -0.00198098  0.68084572  0.62465050  1
  Pr3+  Pr39  1  0.33025342  0.01346155  0.62430505  1
  Pr3+  Pr40  1  0.50246411  0.84674947  0.62529337  1
  Pr3+  Pr41  1  -0.00036093  0.00878208  0.12711581  1
  Pr3+  Pr42  1  -0.00380205  0.68017028  0.12491595  1
  Pr3+  Pr43  1  -0.00096910  0.01302067  0.62353458  1
  Pr3+  Pr44  1  0.66920014  0.32183907  0.87907423  1
  Pr3+  Pr45  1  0.67017468  0.98796187  0.37444526  1
  Pr3+  Pr46  1  0.16511220  0.48688251  0.37186126  1
  Pr3+  Pr47  1  1.00379285  0.32219264  0.87915269  1
  Pr3+  Pr48  1  0.49665407  0.82113204  0.37446788  1
  Pr3+  Pr49  1  0.50270812  0.18071082  0.62336484  1
  Pr3+  Pr50  1  0.83159653  0.82063913  0.87682236  1
  Pr3+  Pr51  1  0.83507382  0.84651970  0.62390872  1
  Pr3+  Pr52  1  1.00254468  0.65667869  0.87708776  1
  Pr3+  Pr53  1  0.83404571  0.51357806  0.62337367  1
  Pr3+  Pr54  1  0.83635862  0.17956701  0.62305307  1
  Pr3+  Pr55  1  0.17069386  0.17693299  0.12632172  1
  Pr3+  Pr56  1  0.66547285  0.00793514  0.12610348  1
  Pr3+  Pr57  1  0.49713182  0.49052451  0.88039435  1
  Pr3+  Pr58  1  -0.00223344  0.34538474  0.62304502  1
  Pr3+  Pr59  1  0.33131040  0.34556750  0.62207858  1
  Pr3+  Pr60  1  0.16549721  0.15286183  0.87672270  1
  Pr3+  Pr61  1  0.49421363  0.81691219  0.87486572  1
  Pr3+  Pr62  1  0.49528344  0.15192161  0.87642306  1
  Pr3+  Pr63  1  0.83194166  0.15348563  0.87739906  1
  Pr3+  Pr64  1  0.66982912  0.98683264  0.87585469  1
  Pr3+  Pr65  1  0.16492582  0.82650185  0.37263063  1
  Pr3+  Pr66  1  0.66400791  0.01448427  0.62356274  1
  Pr3+  Pr67  1  0.82955449  0.48766871  0.87916822  1
  Pr3+  Pr68  1  0.82920599  0.48995703  0.37055474  1
  Pr3+  Pr69  1  0.16956967  0.84806206  0.62710131  1
  Pr3+  Pr70  1  0.83752624  0.18014277  0.12728333  1
  Pr3+  Pr71  1  0.16682999  0.49056210  0.87825390  1
  Mn3.30+  Mn72  1  0.16986289  -0.00214429  -0.00014722  1
  Mn3.30+  Mn73  1  0.16639261  0.00029382  0.49721884  1
  Mn3.30+  Mn74  1  0.16778714  0.33313556  0.00422185  1
  Mn3.30+  Mn75  1  0.16750660  0.33254383  0.49666252  1
  Mn3.30+  Mn76  1  0.16848116  0.66835053  -0.00098440  1
  Mn3.30+  Mn77  1  0.16767462  0.66734811  0.49926268  1
  Mn3.30+  Mn78  1  0.49596735  -0.00069870  0.00106472  1
  Mn3.30+  Mn79  1  0.49807654  -0.00015279  0.49870647  1
  Mn3.30+  Mn80  1  0.50095944  0.33514744  0.00495269  1
  Mn3.30+  Mn81  1  0.49805592  0.33455454  0.49551750  1
  Mn3.30+  Mn82  1  0.49876132  0.66561928  0.00102829  1
  Mn3.30+  Mn83  1  0.50052773  0.66566012  0.49982195  1
  Mn3.30+  Mn84  1  0.83466755  -0.00122367  0.00116862  1
  Mn3.30+  Mn85  1  0.83422081  0.00141410  0.49751755  1
  Mn3.30+  Mn86  1  0.83393133  0.33517998  0.00535003  1
  Mn3.30+  Mn87  1  0.83248159  0.33285654  0.49648087  1
  Mn3.30+  Mn88  1  0.83360314  0.66585176  0.00145019  1
  Mn3.30+  Mn89  1  0.83090503  0.66792748  0.50046127  1
  Mn3.30+  Mn90  1  0.00071666  0.16570902  0.25115225  1
  Mn3.30+  Mn91  1  0.00097929  0.16725344  0.75042914  1
  Mn3.30+  Mn92  1  -0.00207718  0.49942745  0.24846227  1
  Mn3.30+  Mn93  1  -0.00015019  0.50039629  0.75022705  1
  Mn3.30+  Mn94  1  0.00082634  0.83509028  0.25037926  1
  Mn3.30+  Mn95  1  0.00222813  0.83377832  0.75143592  1
  Mn3.30+  Mn96  1  0.33389964  0.16538890  0.24910124  1
  Mn3.30+  Mn97  1  0.33390594  0.16611424  0.75100107  1
  Mn3.30+  Mn98  1  0.33551386  0.49709704  0.24885083  1
  Mn3.30+  Mn99  1  0.33476396  0.50046062  0.75096865  1
  Mn3.30+  Mn100  1  0.33263466  0.83403933  0.24812954  1
  Mn3.30+  Mn101  1  0.33243387  0.83292789  0.75367343  1
  Mn3.30+  Mn102  1  0.66762331  0.16750617  0.24888785  1
  Mn3.30+  Mn103  1  0.66646349  0.16788374  0.75117392  1
  Mn3.30+  Mn104  1  0.66265568  0.49953448  0.24861509  1
  Mn3.30+  Mn105  1  0.66637475  0.50057835  0.74912029  1
  Mn3.30+  Mn106  1  0.66633165  0.83302028  0.24924444  1
  Mn3.30+  Mn107  1  0.66570953  0.83215113  0.74961218  1
  Mn3.30+  Mn108  1  0.16808308  -0.00039358  0.25039488  1
  Mn3.30+  Mn109  1  0.16856990  -0.00125385  0.75299651  1
  Mn3.30+  Mn110  1  0.16758321  0.33170792  0.24806443  1
  Mn3.30+  Mn111  1  0.16733845  0.33406366  0.75076461  1
  Mn3.30+  Mn112  1  0.16858838  0.66758055  0.24972582  1
  Mn3.30+  Mn113  1  0.16748415  0.66745796  0.75232930  1
  Mn3.30+  Mn114  1  0.49608933  -0.00050806  0.24812550  1
  Mn3.30+  Mn115  1  0.49850269  -0.00012590  0.75138279  1
  Mn3.30+  Mn116  1  0.49875454  0.33529796  0.24795298  1
  Mn3.30+  Mn117  1  0.49991025  0.33437440  0.75125969  1
  Mn3.30+  Mn118  1  0.50039301  0.66498732  0.24890800  1
  Mn3.30+  Mn119  1  0.49913888  0.66553070  0.74988393  1
  Mn3.30+  Mn120  1  0.83418454  0.00063308  0.25100291  1
  Mn3.30+  Mn121  1  0.83405719  0.00007596  0.75070662  1
  Mn3.30+  Mn122  1  0.83320331  0.33432110  0.24712432  1
  Mn3.30+  Mn123  1  0.83334450  0.33386077  0.75063758  1
  Mn3.30+  Mn124  1  0.83310383  0.66700162  0.24999989  1
  Mn3.30+  Mn125  1  0.83156506  0.66678253  0.74824892  1
  Mn3.30+  Mn126  1  0.00143980  0.16725714  0.00279776  1
  Mn3.30+  Mn127  1  -0.00032142  0.16507412  0.49560632  1
  Mn3.30+  Mn128  1  -0.00210919  0.49960516  0.00232552  1
  Mn3.30+  Mn129  1  -0.00019297  0.50047792  0.49875022  1
  Mn3.30+  Mn130  1  0.00259566  0.83436440  -0.00076851  1
  Mn3.30+  Mn131  1  0.00045990  0.83537642  0.49890338  1
  Mn3.30+  Mn132  1  0.33393046  0.16456507  0.00282480  1
  Mn3.30+  Mn133  1  0.33371385  0.16657094  0.49655567  1
  Mn3.30+  Mn134  1  0.33400678  0.49962058  0.00326162  1
  Mn3.30+  Mn135  1  0.33639719  0.49831844  0.49683753  1
  Mn3.30+  Mn136  1  0.33174984  0.83355697  -0.00145304  1
  Mn3.30+  Mn137  1  0.33314120  0.83393978  0.49989617  1
  Mn3.30+  Mn138  1  0.66621028  0.16759024  0.00301839  1
  Mn3.30+  Mn139  1  0.66759192  0.16761401  0.49674541  1
  Mn3.30+  Mn140  1  0.66499012  0.49948585  0.00505765  1
  Mn3.30+  Mn141  1  0.66414677  0.50027408  0.49717413  1
  Mn3.30+  Mn142  1  0.66518206  0.83257676  0.00040631  1
  Mn3.30+  Mn143  1  0.66671160  0.83255458  0.50065216  1
  O2-  O144  1  0.02566080  0.15722966  0.12562805  1
  O2-  O145  1  0.02378500  0.16297330  0.62178387  1
  O2-  O146  1  0.02644024  0.49664043  0.12502382  1
  O2-  O147  1  0.02683523  0.49342325  0.62275997  1
  O2-  O148  1  0.01993804  0.82875770  0.12411993  1
  O2-  O149  1  0.02501281  0.82862210  0.62606356  1
  O2-  O150  1  0.36016016  0.15272635  0.12447385  1
  O2-  O151  1  0.35954493  0.16106138  0.62360705  1
  O2-  O152  1  0.35862915  0.49392852  0.12666707  1
  O2-  O153  1  0.35998593  0.49304021  0.62126542  1
  O2-  O154  1  0.35828649  0.82743263  0.12281345  1
  O2-  O155  1  0.35892588  0.82625662  0.62640603  1
  O2-  O156  1  0.69288366  0.15606860  0.12549855  1
  O2-  O157  1  0.69158329  0.16434840  0.62297236  1
  O2-  O158  1  0.69267522  0.49599327  0.12563064  1
  O2-  O159  1  0.69188983  0.49000278  0.62218808  1
  O2-  O160  1  0.68312609  0.83531975  0.12483520  1
  O2-  O161  1  0.69051601  0.82783801  0.62694274  1
  O2-  O162  1  0.13821501  0.32678479  0.12529816  1
  O2-  O163  1  0.14185051  0.32884583  0.62361578  1
  O2-  O164  1  0.14143312  0.66098058  0.12559788  1
  O2-  O165  1  0.14231729  0.65960146  0.62521409  1
  O2-  O166  1  0.14369820  1.00063742  0.12471427  1
  O2-  O167  1  0.14323277  0.99765777  0.62529399  1
  O2-  O168  1  0.47112452  0.32531708  0.12546549  1
  O2-  O169  1  0.47565710  0.32830095  0.62154212  1
  O2-  O170  1  0.48226764  0.66524829  0.12433541  1
  O2-  O171  1  0.47261624  0.66066391  0.62377819  1
  O2-  O172  1  0.47051979  0.99111060  0.12375046  1
  O2-  O173  1  0.47485517  0.99685529  0.62523493  1
  O2-  O174  1  0.80239560  0.32436048  0.12599407  1
  O2-  O175  1  0.80627600  0.32644767  0.62020168  1
  O2-  O176  1  0.81652374  0.66322777  0.12462396  1
  O2-  O177  1  0.80443950  0.66056019  0.62535563  1
  O2-  O178  1  0.81043483  0.99873273  0.12476856  1
  O2-  O179  1  0.80819615  0.99705835  0.62526148  1
  O2-  O180  1  0.31623230  0.17703261  0.37420384  1
  O2-  O181  1  0.30876014  0.17687927  0.87747839  1
  O2-  O182  1  0.30781914  0.50685660  0.37437295  1
  O2-  O183  1  0.31108047  0.50289776  0.87758755  1
  O2-  O184  1  0.31012181  0.83781964  0.37732763  1
  O2-  O185  1  0.30703298  0.84258660  0.87393203  1
  O2-  O186  1  0.63835817  0.17101047  0.37209253  1
  O2-  O187  1  0.64014357  0.17399294  0.87907866  1
  O2-  O188  1  0.63829913  0.50639203  0.37573183  1
  O2-  O189  1  0.64280451  0.50257320  0.87633634  1
  O2-  O190  1  0.64150382  0.83993655  0.37540675  1
  O2-  O191  1  0.64021322  0.83923327  0.87306883  1
  O2-  O192  1  0.97124000  0.17472760  0.37420257  1
  O2-  O193  1  0.97555941  0.17506137  0.87871153  1
  O2-  O194  1  0.97357290  0.50731405  0.37512969  1
  O2-  O195  1  0.97292304  0.50607202  0.87674089  1
  O2-  O196  1  0.98371120  0.83945342  0.37737984  1
  O2-  O197  1  0.97563792  0.83132944  0.87316165  1
  O2-  O198  1  0.19263957  -0.00476776  0.37635892  1
  O2-  O199  1  0.19448940  0.00896715  0.87449827  1
  O2-  O200  1  0.19228092  0.33951566  0.37364522  1
  O2-  O201  1  0.19242859  0.34017686  0.87743973  1
  O2-  O202  1  0.19262737  0.67397685  0.37606888  1
  O2-  O203  1  0.19089036  0.66830184  0.87312970  1
  O2-  O204  1  0.52596285  0.00353401  0.37517892  1
  O2-  O205  1  0.52688046  0.00524414  0.87505900  1
  O2-  O206  1  0.52583073  0.33779410  0.37252606  1
  O2-  O207  1  0.52584263  0.34067332  0.88060626  1
  O2-  O208  1  0.52478125  0.67441921  0.37746051  1
  O2-  O209  1  0.52529454  0.66735106  0.87380391  1
  O2-  O210  1  0.85809310  0.00668869  0.37577411  1
  O2-  O211  1  0.85385717  0.00573542  0.87529973  1
  O2-  O212  1  0.86025530  0.34425811  0.37323618  1
  O2-  O213  1  0.86022639  0.34062395  0.88112512  1
  O2-  O214  1  0.85629069  0.66564889  0.37744395  1
  O2-  O215  1  0.85777055  0.66948615  0.87242002  1
  O2-  O216  1  0.23679683  0.09829310  0.01657486  1
  O2-  O217  1  0.23831363  0.09359037  0.52136563  1
  O2-  O218  1  0.23765672  0.42755422  0.01996820  1
  O2-  O219  1  0.23884619  0.42917625  0.51991396  1
  O2-  O220  1  0.23997280  0.76044725  0.01251446  1
  O2-  O221  1  0.23901352  0.76138294  0.52235527  1
  O2-  O222  1  0.56935974  0.09317114  0.02136654  1
  O2-  O223  1  0.57142731  0.09542404  0.52007875  1
  O2-  O224  1  0.56881027  0.43128161  0.02235779  1
  O2-  O225  1  0.57187845  0.42668784  0.52104185  1
  O2-  O226  1  0.56921945  0.76294417  0.01310702  1
  O2-  O227  1  0.56803163  0.76274286  0.51924540  1
  O2-  O228  1  0.90647456  0.09679547  0.01950284  1
  O2-  O229  1  0.90521305  0.09453880  0.52299872  1
  O2-  O230  1  0.90136695  0.43192987  0.02263995  1
  O2-  O231  1  0.90386293  0.42712290  0.52153639  1
  O2-  O232  1  0.90764455  0.75862559  0.01372457  1
  O2-  O233  1  0.90743575  0.76086234  0.52277118  1
  O2-  O234  1  0.26334775  0.25707427  0.22498644  1
  O2-  O235  1  0.26164209  0.26145479  0.72924114  1
  O2-  O236  1  0.25803642  0.59071215  0.23317783  1
  O2-  O237  1  0.25993663  0.59254825  0.72820643  1
  O2-  O238  1  0.26416804  0.92875101  0.23298990  1
  O2-  O239  1  0.26258100  0.92782357  0.72610352  1
  O2-  O240  1  0.59758066  0.26290358  0.22788914  1
  O2-  O241  1  0.59490310  0.26279155  0.73074465  1
  O2-  O242  1  0.59381320  0.59455892  0.23581693  1
  O2-  O243  1  0.59815284  0.59507886  0.72808023  1
  O2-  O244  1  0.59093989  0.92853495  0.23044321  1
  O2-  O245  1  0.59486134  0.92972777  0.72850981  1
  O2-  O246  1  0.92863724  0.26417051  0.22760453  1
  O2-  O247  1  0.92706093  0.26306486  0.72953311  1
  O2-  O248  1  0.93019659  0.59431577  0.23299923  1
  O2-  O249  1  0.92717762  0.59516946  0.72686061  1
  O2-  O250  1  0.92831472  0.92872564  0.23389609  1
  O2-  O251  1  0.92769631  0.92655031  0.72749180  1
  O2-  O252  1  0.09237063  0.23948808  0.26943134  1
  O2-  O253  1  0.09534165  0.24051494  0.77047287  1
  O2-  O254  1  0.09353360  0.57378984  0.27137479  1
  O2-  O255  1  0.09465442  0.57165857  0.77078135  1
  O2-  O256  1  0.09570211  0.90622333  0.26613582  1
  O2-  O257  1  0.10138541  0.90306177  0.76767204  1
  O2-  O258  1  0.43352861  0.23525548  0.26450146  1
  O2-  O259  1  0.42895709  0.23803865  0.77015396  1
  O2-  O260  1  0.42597244  0.57277775  0.27097100  1
  O2-  O261  1  0.43217438  0.56817826  0.76609124  1
  O2-  O262  1  0.42917290  0.90296660  0.26881211  1
  O2-  O263  1  0.43003937  0.90117637  0.76685225  1
  O2-  O264  1  0.76474170  0.23896212  0.27252569  1
  O2-  O265  1  0.76151591  0.23829731  0.77202069  1
  O2-  O266  1  0.75700817  0.57346859  0.27040021  1
  O2-  O267  1  0.76253645  0.57045116  0.77069881  1
  O2-  O268  1  0.75568642  0.91136704  0.26852169  1
  O2-  O269  1  0.76199757  0.90575426  0.76974312  1
  O2-  O270  1  0.06748381  0.06775158  0.48185001  1
  O2-  O271  1  0.07622059  0.07417572  0.98224567  1
  O2-  O272  1  0.07116973  0.40624486  0.47745270  1
  O2-  O273  1  0.07169643  0.40918724  0.97859452  1
  O2-  O274  1  0.07090002  0.73919552  0.48122313  1
  O2-  O275  1  0.07150332  0.73730628  0.98248355  1
  O2-  O276  1  0.40297849  0.06997340  0.47806167  1
  O2-  O277  1  0.40628107  0.07234062  0.97381554  1
  O2-  O278  1  0.40076042  0.39898764  0.47935172  1
  O2-  O279  1  0.40691601  0.40607990  0.97883885  1
  O2-  O280  1  0.40334494  0.73622551  0.48056162  1
  O2-  O281  1  0.40601508  0.73926867  0.97551432  1
  O2-  O282  1  0.73635928  0.07169804  0.48181075  1
  O2-  O283  1  0.73824721  0.07290364  0.97991612  1
  O2-  O284  1  0.73753685  0.40423224  0.47630815  1
  O2-  O285  1  0.73835962  0.40612364  0.97941963  1
  O2-  O286  1  0.73622180  0.73876513  0.48161318  1
  O2-  O287  1  0.74134224  0.73951971  0.97727184  1
  O2-  O288  1  0.09063194  0.23963702  0.48084251  1
  O2-  O289  1  0.09587158  0.23962610  0.97927052  1
  O2-  O290  1  0.09604249  0.57334726  0.47800584  1
  O2-  O291  1  0.09253917  0.57316041  0.97939716  1
  O2-  O292  1  0.09827419  0.90324845  0.48698027  1
  O2-  O293  1  0.09825551  0.90464469  0.98006596  1
  O2-  O294  1  0.43325072  0.23541700  0.48398116  1
  O2-  O295  1  0.43049851  0.23772725  0.98093315  1
  O2-  O296  1  0.43097226  0.56801244  0.47713348  1
  O2-  O297  1  0.42643964  0.57325518  0.98273456  1
  O2-  O298  1  0.42967692  0.90176737  0.48469908  1
  O2-  O299  1  0.43028756  0.90248634  0.97907583  1
  O2-  O300  1  0.76300191  0.23785362  0.47454581  1
  O2-  O301  1  0.76448761  0.23936955  0.97931365  1
  O2-  O302  1  0.75955269  0.56971652  0.47930258  1
  O2-  O303  1  0.75972776  0.57342126  0.97915789  1
  O2-  O304  1  0.76065541  0.90943500  0.48416925  1
  O2-  O305  1  0.75777168  0.90627171  0.97815113  1
  O2-  O306  1  0.06993517  0.06909418  0.26832772  1
  O2-  O307  1  0.07642170  0.07428410  0.76640604  1
  O2-  O308  1  0.07018101  0.40856598  0.27119808  1
  O2-  O309  1  0.07205964  0.40559459  0.77121053  1
  O2-  O310  1  0.07492402  0.73963542  0.27038619  1
  O2-  O311  1  0.06997312  0.73480286  0.76591955  1
  O2-  O312  1  0.40553793  0.07137967  0.27392294  1
  O2-  O313  1  0.40472951  0.07059957  0.77186743  1
  O2-  O314  1  0.40267422  0.40247707  0.27105597  1
  O2-  O315  1  0.40498550  0.40346230  0.77012305  1
  O2-  O316  1  0.40764504  0.73974490  0.27165420  1
  O2-  O317  1  0.40067488  0.73584396  0.77236126  1
  O2-  O318  1  0.73700536  0.07269047  0.26909836  1
  O2-  O319  1  0.73726178  0.07332758  0.77004751  1
  O2-  O320  1  0.73667561  0.40691353  0.27230511  1
  O2-  O321  1  0.73887682  0.40429215  0.77047190  1
  O2-  O322  1  0.73848235  0.74026873  0.26842480  1
  O2-  O323  1  0.73989870  0.73937133  0.77383844  1
  O2-  O324  1  0.23786600  0.09438656  0.23231623  1
  O2-  O325  1  0.23959260  0.09579152  0.72893781  1
  O2-  O326  1  0.23632705  0.42853287  0.23099039  1
  O2-  O327  1  0.23915875  0.42796211  0.72961881  1
  O2-  O328  1  0.24080822  0.76126411  0.23741954  1
  O2-  O329  1  0.23849310  0.76001414  0.72778313  1
  O2-  O330  1  0.57013012  0.09241596  0.22815266  1
  O2-  O331  1  0.57248097  0.09654525  0.72981419  1
  O2-  O332  1  0.56799973  0.42937834  0.22838388  1
  O2-  O333  1  0.57193692  0.42872495  0.72971926  1
  O2-  O334  1  0.57004324  0.76333227  0.23598954  1
  O2-  O335  1  0.56739223  0.76153547  0.73196141  1
  O2-  O336  1  0.90673180  0.09473051  0.22814291  1
  O2-  O337  1  0.90556023  0.09561897  0.73030800  1
  O2-  O338  1  0.90059931  0.43098442  0.22980547  1
  O2-  O339  1  0.90521877  0.42871536  0.72796197  1
  O2-  O340  1  0.91272862  0.75719065  0.23618425  1
  O2-  O341  1  0.90263655  0.75982562  0.72812931  1
  O2-  O342  1  0.26514200  0.26055584  0.02348327  1
  O2-  O343  1  0.26041674  0.25814910  0.52278741  1
  O2-  O344  1  0.25540831  0.58903964  0.01846211  1
  O2-  O345  1  0.26408380  0.59361815  0.51985583  1
  O2-  O346  1  0.26591605  0.93201991  0.01864797  1
  O2-  O347  1  0.26161380  0.92598131  0.52414272  1
  O2-  O348  1  0.59654317  0.26415166  0.02430633  1
  O2-  O349  1  0.59562347  0.26260449  0.51792429  1
  O2-  O350  1  0.59472091  0.59374702  0.01246957  1
  O2-  O351  1  0.59557051  0.59667976  0.52345970  1
  O2-  O352  1  0.59184219  0.93014003  0.01877480  1
  O2-  O353  1  0.59501151  0.92844587  0.52134761  1
  O2-  O354  1  0.92930306  0.26445216  0.02454631  1
  O2-  O355  1  0.92714498  0.26193980  0.52027868  1
  O2-  O356  1  0.93019909  0.59584712  0.01722899  1
  O2-  O357  1  0.92729703  0.59398789  0.52198349  1
  O2-  O358  1  0.92994973  0.92756181  0.01688965  1
  O2-  O359  1  0.92664810  0.92699357  0.52337532  1
