# generated using pymatgen
data_Sr7Ca15Pr50Mn72O216
_symmetry_space_group_name_H-M   'P 1'
_cell_length_a   16.55914343
_cell_length_b   16.60587439
_cell_length_c   15.59555349
_cell_angle_alpha   89.98960564
_cell_angle_beta   90.01054865
_cell_angle_gamma   89.99839182
_symmetry_Int_Tables_number   1
_chemical_formula_structural   Sr7Ca15Pr50Mn72O216
_chemical_formula_sum   'Sr7 Ca15 Pr50 Mn72 O216'
_cell_volume   4288.45042681
_cell_formula_units_Z   1
loop_
 _symmetry_equiv_pos_site_id
 _symmetry_equiv_pos_as_xyz
  1  'x, y, z'
loop_
 _atom_type_symbol
 _atom_type_oxidation_number
  Sr2+  2.0
  Ca2+  2.0
  Pr3+  3.0
  Mn3.30+  3.3
  O2-  -2.0
loop_
 _atom_site_type_symbol
 _atom_site_label
 _atom_site_symmetry_multiplicity
 _atom_site_fract_x
 _atom_site_fract_y
 _atom_site_fract_z
 _atom_site_occupancy
  Sr2+  Sr0  1  1.00107827  0.99030993  0.37488216  1
  Sr2+  Sr1  1  0.66363579  0.67862883  0.62604482  1
  Sr2+  Sr2  1  0.16599882  0.50808116  0.12467795  1
  Sr2+  Sr3  1  0.66482475  0.99072474  0.37440749  1
  Sr2+  Sr4  1  1.00115908  0.32532168  0.87601788  1
  Sr2+  Sr5  1  0.83178481  0.51086178  0.62433134  1
  Sr2+  Sr6  1  0.83078328  0.82655464  0.37451519  1
  Ca2+  Ca7  1  0.66990058  0.65008124  0.87361751  1
  Ca2+  Ca8  1  0.49987568  0.15469001  0.37547943  1
  Ca2+  Ca9  1  0.50656075  0.84740009  0.62358269  1
  Ca2+  Ca10  1  0.34105338  0.31507709  0.37516393  1
  Ca2+  Ca11  1  0.49574377  0.48105445  0.37607999  1
  Ca2+  Ca12  1  0.50370535  0.18229929  0.62131801  1
  Ca2+  Ca13  1  0.66732527  0.98675473  0.87396165  1
  Ca2+  Ca14  1  0.49873679  0.82110270  0.37806137  1
  Ca2+  Ca15  1  0.66702695  0.31922921  0.37548851  1
  Ca2+  Ca16  1  -0.00108825  0.34653653  0.12494646  1
  Ca2+  Ca17  1  0.33458757  0.34413052  0.62125366  1
  Ca2+  Ca18  1  0.33077469  0.01643692  0.12397444  1
  Ca2+  Ca19  1  0.66097391  0.34833313  0.12724173  1
  Ca2+  Ca20  1  0.33907615  0.98604505  0.87569914  1
  Ca2+  Ca21  1  0.33794554  0.32049285  0.87434240  1
  Pr3+  Pr22  1  0.16581336  0.82138138  0.87493012  1
  Pr3+  Pr23  1  0.50273892  0.18143221  0.12712875  1
  Pr3+  Pr24  1  0.16469662  0.48443407  0.87623162  1
  Pr3+  Pr25  1  0.82688041  0.48693934  0.37616434  1
  Pr3+  Pr26  1  0.17249786  0.84964469  0.12462204  1
  Pr3+  Pr27  1  0.16570788  0.48696690  0.37356580  1
  Pr3+  Pr28  1  0.66148409  0.34589279  0.62268424  1
  Pr3+  Pr29  1  0.33678015  0.01380046  0.62759899  1
  Pr3+  Pr30  1  0.82551250  0.81843762  0.87570279  1
  Pr3+  Pr31  1  -0.00336646  0.01311870  0.62410467  1
  Pr3+  Pr32  1  0.66221098  0.67933314  0.12404611  1
  Pr3+  Pr33  1  -0.00274950  0.34703107  0.62435642  1
  Pr3+  Pr34  1  1.00200277  0.65262965  0.87531149  1
  Pr3+  Pr35  1  0.33634476  0.65225196  0.87441890  1
  Pr3+  Pr36  1  0.50012810  0.82126772  0.87358738  1
  Pr3+  Pr37  1  0.16338128  0.82275241  0.37559020  1
  Pr3+  Pr38  1  0.83316849  0.17750857  0.62313992  1
  Pr3+  Pr39  1  1.00065314  0.65717729  0.37519933  1
  Pr3+  Pr40  1  0.83420053  0.50918821  0.12550786  1
  Pr3+  Pr41  1  0.50018623  0.84778858  0.12604869  1
  Pr3+  Pr42  1  0.49526500  0.15323630  0.87404538  1
  Pr3+  Pr43  1  0.66992144  0.32093157  0.87495013  1
  Pr3+  Pr44  1  0.17023223  0.84755821  0.62621278  1
  Pr3+  Pr45  1  0.33089460  0.34521227  0.12668486  1
  Pr3+  Pr46  1  0.82769437  0.15386079  0.37547040  1
  Pr3+  Pr47  1  0.34108732  0.98677472  0.37415148  1
  Pr3+  Pr48  1  0.83423112  0.84719147  0.12657553  1
  Pr3+  Pr49  1  0.83149081  0.84296673  0.62301125  1
  Pr3+  Pr50  1  0.83620044  0.18261592  0.12691784  1
  Pr3+  Pr51  1  -0.00239820  0.01411825  0.12616316  1
  Pr3+  Pr52  1  0.50362528  0.51022247  0.12675519  1
  Pr3+  Pr53  1  -0.00236878  0.67883870  0.12480885  1
  Pr3+  Pr54  1  0.33335309  0.67989906  0.62555481  1
  Pr3+  Pr55  1  0.50321076  0.51149074  0.62286669  1
  Pr3+  Pr56  1  0.66534905  0.65923362  0.37634472  1
  Pr3+  Pr57  1  0.17020330  0.17831987  0.12609224  1
  Pr3+  Pr58  1  0.66363302  0.01259848  0.12555153  1
  Pr3+  Pr59  1  -0.00572720  0.67822138  0.62500063  1
  Pr3+  Pr60  1  0.17081192  0.51051272  0.62483760  1
  Pr3+  Pr61  1  0.16795510  0.15387780  0.37546194  1
  Pr3+  Pr62  1  0.17234586  0.18247444  0.62431725  1
  Pr3+  Pr63  1  1.00313863  0.98952626  0.87509009  1
  Pr3+  Pr64  1  0.16799482  0.15801665  0.87466844  1
  Pr3+  Pr65  1  1.00227103  0.32176787  0.37393065  1
  Pr3+  Pr66  1  0.34065554  0.65170381  0.37526901  1
  Pr3+  Pr67  1  0.65891681  0.01197289  0.62409896  1
  Pr3+  Pr68  1  0.32963004  0.67770199  0.12459092  1
  Pr3+  Pr69  1  0.82802592  0.15228402  0.87428574  1
  Pr3+  Pr70  1  0.49837008  0.48468109  0.87351016  1
  Pr3+  Pr71  1  0.82979699  0.48654264  0.87435013  1
  Mn3.30+  Mn72  1  0.17053627  0.00169895  -0.00202646  1
  Mn3.30+  Mn73  1  0.16901374  0.00117699  0.50168722  1
  Mn3.30+  Mn74  1  0.16785710  0.33232331  0.00090126  1
  Mn3.30+  Mn75  1  0.17116975  0.33377041  0.49810423  1
  Mn3.30+  Mn76  1  0.16689066  0.66620366  0.00026157  1
  Mn3.30+  Mn77  1  0.16827077  0.66666090  0.50048060  1
  Mn3.30+  Mn78  1  0.49840643  0.00093190  -0.00019006  1
  Mn3.30+  Mn79  1  0.49972125  -0.00020785  0.49902776  1
  Mn3.30+  Mn80  1  0.50062054  0.33271903  0.00054208  1
  Mn3.30+  Mn81  1  0.49831648  0.33106617  0.49754219  1
  Mn3.30+  Mn82  1  0.50066519  0.66552544  -0.00175862  1
  Mn3.30+  Mn83  1  0.50016349  0.66818851  0.50025049  1
  Mn3.30+  Mn84  1  0.83193648  0.00032451  -0.00104517  1
  Mn3.30+  Mn85  1  0.82993126  -0.00086473  0.49984147  1
  Mn3.30+  Mn86  1  0.83244381  0.33302502  0.00206862  1
  Mn3.30+  Mn87  1  0.83117185  0.33323585  0.49864766  1
  Mn3.30+  Mn88  1  0.83068592  0.66553548  0.00007704  1
  Mn3.30+  Mn89  1  0.83155586  0.66786390  0.49965701  1
  Mn3.30+  Mn90  1  0.00090590  0.16876767  0.25001001  1
  Mn3.30+  Mn91  1  0.00017237  0.16812506  0.75064195  1
  Mn3.30+  Mn92  1  -0.00154033  0.49956670  0.24985787  1
  Mn3.30+  Mn93  1  0.00042857  0.49952257  0.74973568  1
  Mn3.30+  Mn94  1  0.00122254  0.83410692  0.24997104  1
  Mn3.30+  Mn95  1  -0.00139178  0.83380341  0.75128132  1
  Mn3.30+  Mn96  1  0.33668561  0.16593528  0.25077223  1
  Mn3.30+  Mn97  1  0.33593802  0.16977900  0.74861920  1
  Mn3.30+  Mn98  1  0.33553930  0.49711855  0.25202882  1
  Mn3.30+  Mn99  1  0.33458185  0.49609398  0.74908381  1
  Mn3.30+  Mn100  1  0.33450872  0.83355889  0.25042140  1
  Mn3.30+  Mn101  1  0.33662179  0.83506845  0.74974413  1
  Mn3.30+  Mn102  1  0.66546794  0.16981863  0.25025242  1
  Mn3.30+  Mn103  1  0.66310256  0.16519484  0.74974953  1
  Mn3.30+  Mn104  1  0.66401581  0.49776513  0.25294341  1
  Mn3.30+  Mn105  1  0.66540493  0.50093440  0.74924802  1
  Mn3.30+  Mn106  1  0.66429550  0.83387404  0.25102525  1
  Mn3.30+  Mn107  1  0.66458629  0.83383723  0.75061247  1
  Mn3.30+  Mn108  1  0.16965329  0.00081053  0.24974644  1
  Mn3.30+  Mn109  1  0.16946309  0.00188436  0.75147295  1
  Mn3.30+  Mn110  1  0.16868538  0.33316161  0.25100793  1
  Mn3.30+  Mn111  1  0.17080847  0.33339115  0.74978742  1
  Mn3.30+  Mn112  1  0.16827236  0.66651351  0.25012631  1
  Mn3.30+  Mn113  1  0.16669351  0.66598830  0.74964893  1
  Mn3.30+  Mn114  1  0.49814311  0.00130806  0.24948260  1
  Mn3.30+  Mn115  1  0.50038899  -0.00003796  0.75184897  1
  Mn3.30+  Mn116  1  0.50101006  0.33248363  0.25409524  1
  Mn3.30+  Mn117  1  0.49781619  0.33111768  0.74753581  1
  Mn3.30+  Mn118  1  0.49891275  0.66621647  0.25078678  1
  Mn3.30+  Mn119  1  0.50204367  0.66716971  0.75081630  1
  Mn3.30+  Mn120  1  0.83139515  0.00098238  0.25044247  1
  Mn3.30+  Mn121  1  0.83031830  -0.00124021  0.74987107  1
  Mn3.30+  Mn122  1  0.83047031  0.33439645  0.24970466  1
  Mn3.30+  Mn123  1  0.83305490  0.33217915  0.74945398  1
  Mn3.30+  Mn124  1  0.83152754  0.66668805  0.25049055  1
  Mn3.30+  Mn125  1  0.83086008  0.66629930  0.74998876  1
  Mn3.30+  Mn126  1  -0.00037068  0.16923743  -0.00063396  1
  Mn3.30+  Mn127  1  0.00126136  0.16711930  0.49979582  1
  Mn3.30+  Mn128  1  -0.00041064  0.49830451  0.00216279  1
  Mn3.30+  Mn129  1  -0.00064963  0.50069878  0.49828113  1
  Mn3.30+  Mn130  1  -0.00059953  0.83437114  -0.00019791  1
  Mn3.30+  Mn131  1  0.00059058  0.83412986  0.49996243  1
  Mn3.30+  Mn132  1  0.33471313  0.16633846  -0.00088097  1
  Mn3.30+  Mn133  1  0.33836343  0.16812181  0.50100581  1
  Mn3.30+  Mn134  1  0.33408115  0.49752260  -0.00047491  1
  Mn3.30+  Mn135  1  0.33607209  0.49600313  0.49921210  1
  Mn3.30+  Mn136  1  0.33460025  0.83534546  -0.00173170  1
  Mn3.30+  Mn137  1  0.33658607  0.83391136  0.50187888  1
  Mn3.30+  Mn138  1  0.66589978  0.16675204  0.00074802  1
  Mn3.30+  Mn139  1  0.66279384  0.16745765  0.49836535  1
  Mn3.30+  Mn140  1  0.66620923  0.49883805  0.00069824  1
  Mn3.30+  Mn141  1  0.66260579  0.50035107  0.49709444  1
  Mn3.30+  Mn142  1  0.66563249  0.83402642  -0.00057637  1
  Mn3.30+  Mn143  1  0.66331549  0.83388531  0.49914951  1
  O2-  O144  1  0.02533435  0.16031045  0.12404623  1
  O2-  O145  1  0.02614308  0.16100266  0.62413493  1
  O2-  O146  1  0.01636909  0.49429786  0.12625237  1
  O2-  O147  1  0.02551516  0.49636848  0.62188427  1
  O2-  O148  1  0.02665651  0.82824177  0.12488070  1
  O2-  O149  1  0.02601586  0.82619052  0.62826395  1
  O2-  O150  1  0.35822862  0.16086280  0.12452298  1
  O2-  O151  1  0.36318748  0.15960924  0.62539893  1
  O2-  O152  1  0.35973384  0.49429952  0.12551082  1
  O2-  O153  1  0.35931566  0.49155293  0.62386316  1
  O2-  O154  1  0.35720455  0.82393053  0.12173875  1
  O2-  O155  1  0.36322185  0.82729264  0.62684307  1
  O2-  O156  1  0.69256885  0.15916174  0.12298979  1
  O2-  O157  1  0.69000523  0.16098240  0.62562182  1
  O2-  O158  1  0.68980750  0.49412210  0.12817053  1
  O2-  O159  1  0.68220821  0.49361210  0.62297102  1
  O2-  O160  1  0.68995194  0.82726798  0.12321744  1
  O2-  O161  1  0.68796114  0.83410887  0.62678431  1
  O2-  O162  1  0.14175486  0.32554701  0.12781801  1
  O2-  O163  1  0.14122485  0.33112422  0.62153739  1
  O2-  O164  1  0.14259958  0.66510607  0.12399369  1
  O2-  O165  1  0.13920318  0.65925994  0.62587538  1
  O2-  O166  1  0.14169265  0.99766287  0.12214846  1
  O2-  O167  1  0.14160505  0.99635237  0.62779268  1
  O2-  O168  1  0.47425207  0.33026687  0.12619409  1
  O2-  O169  1  0.47515676  0.32748630  0.62331925  1
  O2-  O170  1  0.47321062  0.65814798  0.12304542  1
  O2-  O171  1  0.47533379  0.65865374  0.62577079  1
  O2-  O172  1  0.47124570  0.99501128  0.12379418  1
  O2-  O173  1  0.47860631  0.99022228  0.62628714  1
  O2-  O174  1  0.80314939  0.33044004  0.12612848  1
  O2-  O175  1  0.80725931  0.32690242  0.62387600  1
  O2-  O176  1  0.80612840  0.65788348  0.12493062  1
  O2-  O177  1  0.81537782  0.66936218  0.62657502  1
  O2-  O178  1  0.80926663  0.99674267  0.12237765  1
  O2-  O179  1  0.80533647  0.99446854  0.62502531  1
  O2-  O180  1  0.31077720  0.16915354  0.37638481  1
  O2-  O181  1  0.31005559  0.17827700  0.87379555  1
  O2-  O182  1  0.30801107  0.50729007  0.37649304  1
  O2-  O183  1  0.30790416  0.50574786  0.87373364  1
  O2-  O184  1  0.30624814  0.83881665  0.37773780  1
  O2-  O185  1  0.30870919  0.83879500  0.87434632  1
  O2-  O186  1  0.64235954  0.17397016  0.37393781  1
  O2-  O187  1  0.64026296  0.17490495  0.87689019  1
  O2-  O188  1  0.63716770  0.51183503  0.37457364  1
  O2-  O189  1  0.64331573  0.50218424  0.87395978  1
  O2-  O190  1  0.64094202  0.83170910  0.37226016  1
  O2-  O191  1  0.64388656  0.84269615  0.87751788  1
  O2-  O192  1  0.97369414  0.17386473  0.37552715  1
  O2-  O193  1  0.97265260  0.16989867  0.87599790  1
  O2-  O194  1  0.97262734  0.50742619  0.37446945  1
  O2-  O195  1  0.97533678  0.50416195  0.87744506  1
  O2-  O196  1  0.98332324  0.83281049  0.37252889  1
  O2-  O197  1  0.97107480  0.84140089  0.87462085  1
  O2-  O198  1  0.19501753  0.00382119  0.37737324  1
  O2-  O199  1  0.19586835  0.00848737  0.87340628  1
  O2-  O200  1  0.19610807  0.33870865  0.37537796  1
  O2-  O201  1  0.19449707  0.33717249  0.87471520  1
  O2-  O202  1  0.19541351  0.67503843  0.37583606  1
  O2-  O203  1  0.19188939  0.67301960  0.87462512  1
  O2-  O204  1  0.51624527  0.00930164  0.37381818  1
  O2-  O205  1  0.52745321  0.00755611  0.87669107  1
  O2-  O206  1  0.52774368  0.33891975  0.37475038  1
  O2-  O207  1  0.52660396  0.33655689  0.87528116  1
  O2-  O208  1  0.52080030  0.67675426  0.37521363  1
  O2-  O209  1  0.52755885  0.67249478  0.87577341  1
  O2-  O210  1  0.85174758  0.00562010  0.37668471  1
  O2-  O211  1  0.85975788  0.00489873  0.87563313  1
  O2-  O212  1  0.85856328  0.33689362  0.37504927  1
  O2-  O213  1  0.85070264  0.33694424  0.87478815  1
  O2-  O214  1  0.85639615  0.66958184  0.37286979  1
  O2-  O215  1  0.85872621  0.67126253  0.87615992  1
  O2-  O216  1  0.23669167  0.09786845  0.01734663  1
  O2-  O217  1  0.24127228  0.09611247  0.52145901  1
  O2-  O218  1  0.24144574  0.42396251  0.01926959  1
  O2-  O219  1  0.23635965  0.43133573  0.51721149  1
  O2-  O220  1  0.23758754  0.76177207  0.01800140  1
  O2-  O221  1  0.23990549  0.76323978  0.52427973  1
  O2-  O222  1  0.57051063  0.09488542  0.02270348  1
  O2-  O223  1  0.57160179  0.09392983  0.52132411  1
  O2-  O224  1  0.56875951  0.42967094  0.01670598  1
  O2-  O225  1  0.56912977  0.42579084  0.51959848  1
  O2-  O226  1  0.56849131  0.76059372  0.02160702  1
  O2-  O227  1  0.56865519  0.76367454  0.51823045  1
  O2-  O228  1  0.90423988  0.09466690  0.02056596  1
  O2-  O229  1  0.90548631  0.09224701  0.52102581  1
  O2-  O230  1  0.90073916  0.42816117  0.01659273  1
  O2-  O231  1  0.90766899  0.42525551  0.51709306  1
  O2-  O232  1  0.90098484  0.75894802  0.02202131  1
  O2-  O233  1  0.90926535  0.76048047  0.51996492  1
  O2-  O234  1  0.26358387  0.25738320  0.22954163  1
  O2-  O235  1  0.26361479  0.26303947  0.72333645  1
  O2-  O236  1  0.26276102  0.59764460  0.23337440  1
  O2-  O237  1  0.26364524  0.59181041  0.72850348  1
  O2-  O238  1  0.26436272  0.93008930  0.22785443  1
  O2-  O239  1  0.26215107  0.92507035  0.72738326  1
  O2-  O240  1  0.59567178  0.26212574  0.22577970  1
  O2-  O241  1  0.59683297  0.26360149  0.73169687  1
  O2-  O242  1  0.59411527  0.59559413  0.22889180  1
  O2-  O243  1  0.58990188  0.59118195  0.73250225  1
  O2-  O244  1  0.59050615  0.92802031  0.22664341  1
  O2-  O245  1  0.59752687  0.93169089  0.73541374  1
  O2-  O246  1  0.92871439  0.26524465  0.22841289  1
  O2-  O247  1  0.92636127  0.25841260  0.72594501  1
  O2-  O248  1  0.92686576  0.59506700  0.22921098  1
  O2-  O249  1  0.93109668  0.59704362  0.73504868  1
  O2-  O250  1  0.92669510  0.92689641  0.22828639  1
  O2-  O251  1  0.92944035  0.92756736  0.72763108  1
  O2-  O252  1  0.09583071  0.23994862  0.27369947  1
  O2-  O253  1  0.10169105  0.23993610  0.76534146  1
  O2-  O254  1  0.09411596  0.57645120  0.27306315  1
  O2-  O255  1  0.09498979  0.57199268  0.77204895  1
  O2-  O256  1  0.10112253  0.90524782  0.26493784  1
  O2-  O257  1  0.09271928  0.90495231  0.77245338  1
  O2-  O258  1  0.43375868  0.23385280  0.26734294  1
  O2-  O259  1  0.43005244  0.23791767  0.77051720  1
  O2-  O260  1  0.43000087  0.56852503  0.27167472  1
  O2-  O261  1  0.42582548  0.57046101  0.77060922  1
  O2-  O262  1  0.42827754  0.90004924  0.27039799  1
  O2-  O263  1  0.43008176  0.90696717  0.77325342  1
  O2-  O264  1  0.76515807  0.23734093  0.26744523  1
  O2-  O265  1  0.75953229  0.23575965  0.76865617  1
  O2-  O266  1  0.75964336  0.57123895  0.27094705  1
  O2-  O267  1  0.76248640  0.57290784  0.76959228  1
  O2-  O268  1  0.75767288  0.90522602  0.26004962  1
  O2-  O269  1  0.76461482  0.90194019  0.76768940  1
  O2-  O270  1  0.07580683  0.07589676  0.48140723  1
  O2-  O271  1  0.07306932  0.07228946  0.97869857  1
  O2-  O272  1  0.07179411  0.40725206  0.47721978  1
  O2-  O273  1  0.07763441  0.40892086  0.98270681  1
  O2-  O274  1  0.07434421  0.73800493  0.48086784  1
  O2-  O275  1  0.07046326  0.74104559  0.97820035  1
  O2-  O276  1  0.40168029  0.06679043  0.48655428  1
  O2-  O277  1  0.40484728  0.07272197  0.97547764  1
  O2-  O278  1  0.40333622  0.40018939  0.47821051  1
  O2-  O279  1  0.40632177  0.40289553  0.97859172  1
  O2-  O280  1  0.40103510  0.73447908  0.48442224  1
  O2-  O281  1  0.40571304  0.73691848  0.97763449  1
  O2-  O282  1  0.73902485  0.07674997  0.48334144  1
  O2-  O283  1  0.73827376  0.06925032  0.97716153  1
  O2-  O284  1  0.73621695  0.40694075  0.47805521  1
  O2-  O285  1  0.73830121  0.40552351  0.97926427  1
  O2-  O286  1  0.73679765  0.74057151  0.48275506  1
  O2-  O287  1  0.73663473  0.73478813  0.97931422  1
  O2-  O288  1  0.09717185  0.24182123  0.47818774  1
  O2-  O289  1  0.09788704  0.23789742  0.98117208  1
  O2-  O290  1  0.09473363  0.57219611  0.47688084  1
  O2-  O291  1  0.09379208  0.57562723  0.97813713  1
  O2-  O292  1  0.09734550  0.90372283  0.48632785  1
  O2-  O293  1  0.09870855  0.90895716  0.97703801  1
  O2-  O294  1  0.43229186  0.23484765  0.47731343  1
  O2-  O295  1  0.43162466  0.23614011  0.98472686  1
  O2-  O296  1  0.42786485  0.56883161  0.48015582  1
  O2-  O297  1  0.42944570  0.57119728  0.97709892  1
  O2-  O298  1  0.42735355  0.90437712  0.47669004  1
  O2-  O299  1  0.43117136  0.90353990  0.98038320  1
  O2-  O300  1  0.76253120  0.23728868  0.48282041  1
  O2-  O301  1  0.76287453  0.23705541  0.98002239  1
  O2-  O302  1  0.75706533  0.57433224  0.47896115  1
  O2-  O303  1  0.76379081  0.56887310  0.98194346  1
  O2-  O304  1  0.75952779  0.90502652  0.48692589  1
  O2-  O305  1  0.76622171  0.90299687  0.98465529  1
  O2-  O306  1  0.07668287  0.07416612  0.26777761  1
  O2-  O307  1  0.07122268  0.07443852  0.77121942  1
  O2-  O308  1  0.07273830  0.40843876  0.27326605  1
  O2-  O309  1  0.07684666  0.40760793  0.76632455  1
  O2-  O310  1  0.07454183  0.73829434  0.26915761  1
  O2-  O311  1  0.06945359  0.74084657  0.77263985  1
  O2-  O312  1  0.40268512  0.06979723  0.26625649  1
  O2-  O313  1  0.40377760  0.07044986  0.77163103  1
  O2-  O314  1  0.40413649  0.39836823  0.26958905  1
  O2-  O315  1  0.40642267  0.40489691  0.77359486  1
  O2-  O316  1  0.40155599  0.73390542  0.26482398  1
  O2-  O317  1  0.40496681  0.73781960  0.77187728  1
  O2-  O318  1  0.74008801  0.07693802  0.26635558  1
  O2-  O319  1  0.73503666  0.07128439  0.77180446  1
  O2-  O320  1  0.73620131  0.40622398  0.27689351  1
  O2-  O321  1  0.73891522  0.40571055  0.76743600  1
  O2-  O322  1  0.73573875  0.73565651  0.26429882  1
  O2-  O323  1  0.73748554  0.73958025  0.77386635  1
  O2-  O324  1  0.23769738  0.09648812  0.23373999  1
  O2-  O325  1  0.24205647  0.09951260  0.72821170  1
  O2-  O326  1  0.24056116  0.42612773  0.23181165  1
  O2-  O327  1  0.23721713  0.43034770  0.73161116  1
  O2-  O328  1  0.23800701  0.76372675  0.22954456  1
  O2-  O329  1  0.23912877  0.76009165  0.72937613  1
  O2-  O330  1  0.57458093  0.09430020  0.22703794  1
  O2-  O331  1  0.56840269  0.09727579  0.72862196  1
  O2-  O332  1  0.56944467  0.42855981  0.23130529  1
  O2-  O333  1  0.56878038  0.42514819  0.73058930  1
  O2-  O334  1  0.57121037  0.75954663  0.22583843  1
  O2-  O335  1  0.56930490  0.76816074  0.73412034  1
  O2-  O336  1  0.90780910  0.09602365  0.23050374  1
  O2-  O337  1  0.90164319  0.09122627  0.72872510  1
  O2-  O338  1  0.89817818  0.42916222  0.23543171  1
  O2-  O339  1  0.91008208  0.42570994  0.73177027  1
  O2-  O340  1  0.90644391  0.75792586  0.22553993  1
  O2-  O341  1  0.90471035  0.76262312  0.73212510  1
  O2-  O342  1  0.26137628  0.25846125  0.02372578  1
  O2-  O343  1  0.26401662  0.25928367  0.52248348  1
  O2-  O344  1  0.26427376  0.59538398  0.01578437  1
  O2-  O345  1  0.26185240  0.59477466  0.52219985  1
  O2-  O346  1  0.26108080  0.92952381  0.02243968  1
  O2-  O347  1  0.26396407  0.92765319  0.52469874  1
  O2-  O348  1  0.59505560  0.26444509  0.02261037  1
  O2-  O349  1  0.59540439  0.26257886  0.52004775  1
  O2-  O350  1  0.59394599  0.59287320  0.02147937  1
  O2-  O351  1  0.59069734  0.59474814  0.51743234  1
  O2-  O352  1  0.59203982  0.92856255  0.02337096  1
  O2-  O353  1  0.59397602  0.92957643  0.51675245  1
  O2-  O354  1  0.92589669  0.26253573  0.02539760  1
  O2-  O355  1  0.92935543  0.26001839  0.52072514  1
  O2-  O356  1  0.92699691  0.59611241  0.01996649  1
  O2-  O357  1  0.93030857  0.59597467  0.51555064  1
  O2-  O358  1  0.92991568  0.92931799  0.02156520  1
  O2-  O359  1  0.92624244  0.92596388  0.52287179  1
