# generated using pymatgen
data_Sr7Ca15Pr50Mn72O216
_symmetry_space_group_name_H-M   'P 1'
_cell_length_a   16.55882032
_cell_length_b   16.60340957
_cell_length_c   15.59502725
_cell_angle_alpha   89.99934619
_cell_angle_beta   90.00053478
_cell_angle_gamma   89.99494390
_symmetry_Int_Tables_number   1
_chemical_formula_structural   Sr7Ca15Pr50Mn72O216
_chemical_formula_sum   'Sr7 Ca15 Pr50 Mn72 O216'
_cell_volume   4287.58567047
_cell_formula_units_Z   1
loop_
 _symmetry_equiv_pos_site_id
 _symmetry_equiv_pos_as_xyz
  1  'x, y, z'
loop_
 _atom_type_symbol
 _atom_type_oxidation_number
  Sr2+  2.0
  Ca2+  2.0
  Pr3+  3.0
  Mn3.30+  3.3
  O2-  -2.0
loop_
 _atom_site_type_symbol
 _atom_site_label
 _atom_site_symmetry_multiplicity
 _atom_site_fract_x
 _atom_site_fract_y
 _atom_site_fract_z
 _atom_site_occupancy
  Sr2+  Sr0  1  0.00102602  0.34285199  0.62730708  1
  Sr2+  Sr1  1  0.83346225  0.48891194  0.37338746  1
  Sr2+  Sr2  1  0.83522344  0.17577232  0.12432898  1
  Sr2+  Sr3  1  0.50529773  0.84568489  0.12454294  1
  Sr2+  Sr4  1  0.00150725  0.67587777  0.12460882  1
  Sr2+  Sr5  1  0.50063923  0.15527771  0.37534302  1
  Sr2+  Sr6  1  0.16536658  0.50771556  0.62593245  1
  Ca2+  Ca7  1  -0.00617535  0.34627963  0.12315826  1
  Ca2+  Ca8  1  0.83337152  0.48423139  0.87677062  1
  Ca2+  Ca9  1  0.66458221  0.68335994  0.12399712  1
  Ca2+  Ca10  1  1.00253075  0.98506769  0.87609404  1
  Ca2+  Ca11  1  0.67298907  0.98280557  0.87793898  1
  Ca2+  Ca12  1  0.83330031  0.82133399  0.87790547  1
  Ca2+  Ca13  1  0.16135678  0.15240645  0.37738846  1
  Ca2+  Ca14  1  1.00043349  0.32049824  0.87484557  1
  Ca2+  Ca15  1  -0.00450374  0.01547289  0.62647105  1
  Ca2+  Ca16  1  0.16526047  0.51206936  0.12446428  1
  Ca2+  Ca17  1  0.17034373  0.84940535  0.12401788  1
  Ca2+  Ca18  1  0.66985388  0.98737140  0.37045548  1
  Ca2+  Ca19  1  0.16464874  0.18020887  0.62432257  1
  Ca2+  Ca20  1  0.50310919  0.51416617  0.62513919  1
  Ca2+  Ca21  1  0.66356571  0.01118519  0.12455158  1
  Pr3+  Pr22  1  0.67168669  0.32022077  0.37417787  1
  Pr3+  Pr23  1  0.32822835  0.34823465  0.12567613  1
  Pr3+  Pr24  1  1.00128214  0.65312417  0.37247501  1
  Pr3+  Pr25  1  0.33506290  0.98778416  0.87449267  1
  Pr3+  Pr26  1  0.99886868  0.65482024  0.87797224  1
  Pr3+  Pr27  1  0.32725112  0.68357429  0.12465292  1
  Pr3+  Pr28  1  0.67321871  0.65303600  0.87837706  1
  Pr3+  Pr29  1  0.16705226  0.17852761  0.12609088  1
  Pr3+  Pr30  1  1.00197626  0.98929515  0.37395241  1
  Pr3+  Pr31  1  -0.00196063  0.01082970  0.12253109  1
  Pr3+  Pr32  1  0.33225069  0.01101751  0.12496520  1
  Pr3+  Pr33  1  0.49979016  0.82090370  0.87544531  1
  Pr3+  Pr34  1  0.67026038  0.65459336  0.37113038  1
  Pr3+  Pr35  1  0.33537791  0.99052194  0.37521956  1
  Pr3+  Pr36  1  0.50166428  0.18023330  0.62410928  1
  Pr3+  Pr37  1  0.84069955  0.84816174  0.62738688  1
  Pr3+  Pr38  1  0.33342504  0.31876561  0.37494235  1
  Pr3+  Pr39  1  0.32793375  0.01682117  0.62506660  1
  Pr3+  Pr40  1  0.32765988  0.34547538  0.62454045  1
  Pr3+  Pr41  1  0.66622652  0.01244753  0.62697513  1
  Pr3+  Pr42  1  0.66543240  0.67750135  0.62484058  1
  Pr3+  Pr43  1  0.33627941  0.65343469  0.87556623  1
  Pr3+  Pr44  1  1.00260255  0.31805724  0.37519158  1
  Pr3+  Pr45  1  0.83728656  0.51153024  0.12397637  1
  Pr3+  Pr46  1  0.33638508  0.65419075  0.37466576  1
  Pr3+  Pr47  1  0.16156627  0.82110090  0.87738880  1
  Pr3+  Pr48  1  0.83005612  0.82292727  0.37274504  1
  Pr3+  Pr49  1  -0.00264736  0.67566515  0.62579218  1
  Pr3+  Pr50  1  0.67202239  0.32097243  0.87562730  1
  Pr3+  Pr51  1  0.50497572  0.17398226  0.12607734  1
  Pr3+  Pr52  1  0.83838798  0.51146928  0.62629643  1
  Pr3+  Pr53  1  0.66638407  0.34312266  0.12512884  1
  Pr3+  Pr54  1  0.83295295  0.84443069  0.12170694  1
  Pr3+  Pr55  1  0.83926045  0.17986634  0.62554561  1
  Pr3+  Pr56  1  0.33324094  0.32099011  0.87511877  1
  Pr3+  Pr57  1  0.49688354  0.48689899  0.37505775  1
  Pr3+  Pr58  1  0.82854759  0.15187485  0.37467612  1
  Pr3+  Pr59  1  0.49868654  0.15272895  0.87476437  1
  Pr3+  Pr60  1  0.15826032  0.15319883  0.87349781  1
  Pr3+  Pr61  1  0.50567199  0.51687646  0.12479732  1
  Pr3+  Pr62  1  0.83443058  0.15308953  0.87541488  1
  Pr3+  Pr63  1  0.16298657  0.82092360  0.37286059  1
  Pr3+  Pr64  1  0.50072589  0.82474252  0.37448550  1
  Pr3+  Pr65  1  0.50339784  0.84582563  0.62569647  1
  Pr3+  Pr66  1  0.49689973  0.48734669  0.87524255  1
  Pr3+  Pr67  1  0.16185070  0.48774475  0.37444658  1
  Pr3+  Pr68  1  0.66380007  0.34914516  0.62484018  1
  Pr3+  Pr69  1  0.33028007  0.67788089  0.62528853  1
  Pr3+  Pr70  1  0.16641724  0.84606499  0.62582982  1
  Pr3+  Pr71  1  0.16119610  0.48524258  0.87623050  1
  Mn3.30+  Mn72  1  0.16526216  -0.00033770  -0.00048501  1
  Mn3.30+  Mn73  1  0.16412001  0.00291488  0.50183844  1
  Mn3.30+  Mn74  1  0.16204389  0.33389349  0.00261477  1
  Mn3.30+  Mn75  1  0.16638487  0.33122912  0.49997346  1
  Mn3.30+  Mn76  1  0.16688732  0.66646420  0.00160576  1
  Mn3.30+  Mn77  1  0.16636913  0.66628288  0.50039940  1
  Mn3.30+  Mn78  1  0.50380677  -0.00120576  -0.00149642  1
  Mn3.30+  Mn79  1  0.50121582  0.00047681  0.49977360  1
  Mn3.30+  Mn80  1  0.49984156  0.33255577  0.00053080  1
  Mn3.30+  Mn81  1  0.49933757  0.33423410  0.50022475  1
  Mn3.30+  Mn82  1  0.50268220  0.66831862  0.00035740  1
  Mn3.30+  Mn83  1  0.50060082  0.66599577  0.50026663  1
  Mn3.30+  Mn84  1  0.83252033  -0.00128087  -0.00200275  1
  Mn3.30+  Mn85  1  0.83367781  -0.00068800  0.50057167  1
  Mn3.30+  Mn86  1  0.83637674  0.33231889  -0.00043479  1
  Mn3.30+  Mn87  1  0.83426533  0.33352980  0.50012304  1
  Mn3.30+  Mn88  1  0.83320572  0.66686995  0.00093980  1
  Mn3.30+  Mn89  1  0.83223942  0.66716599  0.49904580  1
  Mn3.30+  Mn90  1  0.00023511  0.16679159  0.24989384  1
  Mn3.30+  Mn91  1  0.00002099  0.16573766  0.74977827  1
  Mn3.30+  Mn92  1  0.00040981  0.49772332  0.24708656  1
  Mn3.30+  Mn93  1  -0.00172958  0.49866217  0.75283035  1
  Mn3.30+  Mn94  1  0.00046154  0.83325101  0.24608074  1
  Mn3.30+  Mn95  1  -0.00116581  0.83508843  0.75285284  1
  Mn3.30+  Mn96  1  0.33278818  0.16607777  0.25086065  1
  Mn3.30+  Mn97  1  0.33012909  0.16771999  0.75008799  1
  Mn3.30+  Mn98  1  0.33180788  0.50104507  0.24885162  1
  Mn3.30+  Mn99  1  0.33371199  0.49963705  0.74907726  1
  Mn3.30+  Mn100  1  0.33266580  0.83519361  0.24927945  1
  Mn3.30+  Mn101  1  0.33266761  0.83387797  0.74989004  1
  Mn3.30+  Mn102  1  0.66765482  0.16350540  0.24903229  1
  Mn3.30+  Mn103  1  0.66812578  0.16547796  0.75107816  1
  Mn3.30+  Mn104  1  0.66731552  0.50038372  0.24849602  1
  Mn3.30+  Mn105  1  0.66740449  0.50024730  0.75113067  1
  Mn3.30+  Mn106  1  0.66614624  0.83564568  0.24854855  1
  Mn3.30+  Mn107  1  0.67094113  0.83342229  0.75127089  1
  Mn3.30+  Mn108  1  0.16677665  0.00111782  0.25067361  1
  Mn3.30+  Mn109  1  0.16219623  0.00155165  0.74803457  1
  Mn3.30+  Mn110  1  0.16368411  0.33342284  0.24811414  1
  Mn3.30+  Mn111  1  0.16509103  0.33196843  0.75033816  1
  Mn3.30+  Mn112  1  0.16737779  0.66680703  0.24750033  1
  Mn3.30+  Mn113  1  0.16571610  0.66590230  0.75089415  1
  Mn3.30+  Mn114  1  0.50305513  -0.00049091  0.25123608  1
  Mn3.30+  Mn115  1  0.50159171  -0.00015417  0.75050895  1
  Mn3.30+  Mn116  1  0.49900186  0.33228895  0.24932152  1
  Mn3.30+  Mn117  1  0.50028035  0.33470768  0.74960022  1
  Mn3.30+  Mn118  1  0.50154657  0.66902745  0.24922709  1
  Mn3.30+  Mn119  1  0.50134066  0.66526682  0.74935113  1
  Mn3.30+  Mn120  1  0.83171208  -0.00026811  0.24692336  1
  Mn3.30+  Mn121  1  0.83527828  -0.00170644  0.75376112  1
  Mn3.30+  Mn122  1  0.83564319  0.33189374  0.24833043  1
  Mn3.30+  Mn123  1  0.83497802  0.33397623  0.75218517  1
  Mn3.30+  Mn124  1  0.83277673  0.66691196  0.24653336  1
  Mn3.30+  Mn125  1  0.83239092  0.66699778  0.75305439  1
  Mn3.30+  Mn126  1  -0.00063622  0.16785447  -0.00024703  1
  Mn3.30+  Mn127  1  0.00097139  0.16515222  0.50119704  1
  Mn3.30+  Mn128  1  -0.00093368  0.49749061  0.00032311  1
  Mn3.30+  Mn129  1  -0.00049536  0.49885934  0.50037472  1
  Mn3.30+  Mn130  1  -0.00002002  0.83355408  0.00100531  1
  Mn3.30+  Mn131  1  -0.00031343  0.83440645  0.49995821  1
  Mn3.30+  Mn132  1  0.33226813  0.16670142  -0.00011672  1
  Mn3.30+  Mn133  1  0.33029804  0.16689266  0.49894235  1
  Mn3.30+  Mn134  1  0.33200785  0.50074051  0.00153451  1
  Mn3.30+  Mn135  1  0.33349705  0.49975476  0.50073467  1
  Mn3.30+  Mn136  1  0.33259558  0.83496663  0.00032564  1
  Mn3.30+  Mn137  1  0.33278325  0.83449388  0.50031087  1
  Mn3.30+  Mn138  1  0.66821950  0.16330793  -0.00042436  1
  Mn3.30+  Mn139  1  0.66764734  0.16492034  0.50022251  1
  Mn3.30+  Mn140  1  0.66888909  0.49992151  0.00042839  1
  Mn3.30+  Mn141  1  0.66584626  0.50071875  0.49979699  1
  Mn3.30+  Mn142  1  0.66796716  0.83425151  -0.00133829  1
  Mn3.30+  Mn143  1  0.66867877  0.83514791  0.50107437  1
  O2-  O144  1  0.02452683  0.15728559  0.12498012  1
  O2-  O145  1  0.02243448  0.15848449  0.62485735  1
  O2-  O146  1  0.02474094  0.49140423  0.12396313  1
  O2-  O147  1  0.01566821  0.50378656  0.62716041  1
  O2-  O148  1  0.02860957  0.83294185  0.12535577  1
  O2-  O149  1  0.02388497  0.82298682  0.62662419  1
  O2-  O150  1  0.35977466  0.16044211  0.12351909  1
  O2-  O151  1  0.35788086  0.16454827  0.62461333  1
  O2-  O152  1  0.36113079  0.49541199  0.12462457  1
  O2-  O153  1  0.36086325  0.49313108  0.62394423  1
  O2-  O154  1  0.35490503  0.83193602  0.12474022  1
  O2-  O155  1  0.35835692  0.82711436  0.62570880  1
  O2-  O156  1  0.68464302  0.15875128  0.12290558  1
  O2-  O157  1  0.69435782  0.16029928  0.62705818  1
  O2-  O158  1  0.69242383  0.49058915  0.12409321  1
  O2-  O159  1  0.69414080  0.49753388  0.62628855  1
  O2-  O160  1  0.68908756  0.82655021  0.12216212  1
  O2-  O161  1  0.69618651  0.82488046  0.62639302  1
  O2-  O162  1  0.13569218  0.32427738  0.12545144  1
  O2-  O163  1  0.15080957  0.32765201  0.62347196  1
  O2-  O164  1  0.15051204  0.65696075  0.12430196  1
  O2-  O165  1  0.14190324  0.66571968  0.62725626  1
  O2-  O166  1  0.14308892  0.99597533  0.12652655  1
  O2-  O167  1  0.13616465  0.99100022  0.62494296  1
  O2-  O168  1  0.47286077  0.32404248  0.12524760  1
  O2-  O169  1  0.47220539  0.32686745  0.62632741  1
  O2-  O170  1  0.47282192  0.66388660  0.12630978  1
  O2-  O171  1  0.47415491  0.66070769  0.62586889  1
  O2-  O172  1  0.47672581  1.00246645  0.12278996  1
  O2-  O173  1  0.47406816  0.99482401  0.62607248  1
  O2-  O174  1  0.80933225  0.33084266  0.12384863  1
  O2-  O175  1  0.80837401  0.32841449  0.62689634  1
  O2-  O176  1  0.80628867  0.65991808  0.12370903  1
  O2-  O177  1  0.80949355  0.65969058  0.62740704  1
  O2-  O178  1  0.80592206  0.99367008  0.12185305  1
  O2-  O179  1  0.80916283  0.99556521  0.62861365  1
  O2-  O180  1  0.30436039  0.16998214  0.37528179  1
  O2-  O181  1  0.30403044  0.17219146  0.87639722  1
  O2-  O182  1  0.30682215  0.50603711  0.37393691  1
  O2-  O183  1  0.30818398  0.50468698  0.87754071  1
  O2-  O184  1  0.30744512  0.84031269  0.37566695  1
  O2-  O185  1  0.30667621  0.83920955  0.87355566  1
  O2-  O186  1  0.64956149  0.17391512  0.37561851  1
  O2-  O187  1  0.64089161  0.17576364  0.87355921  1
  O2-  O188  1  0.64021224  0.50563212  0.37266327  1
  O2-  O189  1  0.63936361  0.50440651  0.87669940  1
  O2-  O190  1  0.64495262  0.84129050  0.37816577  1
  O2-  O191  1  0.64250531  0.83767114  0.87347488  1
  O2-  O192  1  0.97328146  0.16911689  0.37462938  1
  O2-  O193  1  0.97868593  0.17552750  0.87523488  1
  O2-  O194  1  0.98299861  0.50493196  0.37340311  1
  O2-  O195  1  0.97399131  0.50773645  0.87610129  1
  O2-  O196  1  0.97436727  0.83993497  0.37207028  1
  O2-  O197  1  0.97582168  0.83923526  0.87588990  1
  O2-  O198  1  0.19166810  0.00662336  0.37658447  1
  O2-  O199  1  0.19228818  0.00604235  0.87197247  1
  O2-  O200  1  0.19105455  0.34163329  0.37290649  1
  O2-  O201  1  0.19058314  0.33694275  0.87884253  1
  O2-  O202  1  0.19196789  0.67250889  0.37330883  1
  O2-  O203  1  0.19237801  0.67266778  0.87566145  1
  O2-  O204  1  0.52637567  -0.00216699  0.37888703  1
  O2-  O205  1  0.52755639  0.00528340  0.87224013  1
  O2-  O206  1  0.52679685  0.34001368  0.37383055  1
  O2-  O207  1  0.52737737  0.34029289  0.87441386  1
  O2-  O208  1  0.52576339  0.67331578  0.37455096  1
  O2-  O209  1  0.52715207  0.67130047  0.87275623  1
  O2-  O210  1  0.85775683  0.00148257  0.37375119  1
  O2-  O211  1  0.86277136  0.00606745  0.87508539  1
  O2-  O212  1  0.85621767  0.33236749  0.37380511  1
  O2-  O213  1  0.85695872  0.33804553  0.87576094  1
  O2-  O214  1  0.85715690  0.67445516  0.37130586  1
  O2-  O215  1  0.85572911  0.67596669  0.87687628  1
  O2-  O216  1  0.23848243  0.09459194  0.02072296  1
  O2-  O217  1  0.23596876  0.09525459  0.52540673  1
  O2-  O218  1  0.23431073  0.42847407  0.02270517  1
  O2-  O219  1  0.24259120  0.42709918  0.51674095  1
  O2-  O220  1  0.23729012  0.76340318  0.02027279  1
  O2-  O221  1  0.23817934  0.76154972  0.51970309  1
  O2-  O222  1  0.56849426  0.09750012  0.01346128  1
  O2-  O223  1  0.57339691  0.09386587  0.52421099  1
  O2-  O224  1  0.57094332  0.42807496  0.02171063  1
  O2-  O225  1  0.57074285  0.43061551  0.52197852  1
  O2-  O226  1  0.57181988  0.76249898  0.01203794  1
  O2-  O227  1  0.57408999  0.76244446  0.52128646  1
  O2-  O228  1  0.90747993  0.09233401  0.01634106  1
  O2-  O229  1  0.90083743  0.09548415  0.51614118  1
  O2-  O230  1  0.90342677  0.42837313  0.01932673  1
  O2-  O231  1  0.90333350  0.42788717  0.51756751  1
  O2-  O232  1  0.90624271  0.76100677  0.01955661  1
  O2-  O233  1  0.90488687  0.76155421  0.51933849  1
  O2-  O234  1  0.25895670  0.26353602  0.22781373  1
  O2-  O235  1  0.26505026  0.26356112  0.73510519  1
  O2-  O236  1  0.26745612  0.59874570  0.23387535  1
  O2-  O237  1  0.26488495  0.59636784  0.73319498  1
  O2-  O238  1  0.26225042  0.93118660  0.23321484  1
  O2-  O239  1  0.25978927  0.93036835  0.72814462  1
  O2-  O240  1  0.59471438  0.25892000  0.23015404  1
  O2-  O241  1  0.59317296  0.26331829  0.72764029  1
  O2-  O242  1  0.59439778  0.59704391  0.22720150  1
  O2-  O243  1  0.59710951  0.59596515  0.73121832  1
  O2-  O244  1  0.59818547  0.93077130  0.23183555  1
  O2-  O245  1  0.59753254  0.92354977  0.72689501  1
  O2-  O246  1  0.93331477  0.26320204  0.23317790  1
  O2-  O247  1  0.92512585  0.25728214  0.73152496  1
  O2-  O248  1  0.92630580  0.59056264  0.23213033  1
  O2-  O249  1  0.92623547  0.59694474  0.73318632  1
  O2-  O250  1  0.92675813  0.92710481  0.22705579  1
  O2-  O251  1  0.93035339  0.92846247  0.72669385  1
  O2-  O252  1  0.09628965  0.23621167  0.27312847  1
  O2-  O253  1  0.09523765  0.23699040  0.76598961  1
  O2-  O254  1  0.09542527  0.57427019  0.26875522  1
  O2-  O255  1  0.09179851  0.57327307  0.77377870  1
  O2-  O256  1  0.09383268  0.90857138  0.27299586  1
  O2-  O257  1  0.09800288  0.90203696  0.76830624  1
  O2-  O258  1  0.42337760  0.24074857  0.27000746  1
  O2-  O259  1  0.42957611  0.24011622  0.77198396  1
  O2-  O260  1  0.43113618  0.57317163  0.27094102  1
  O2-  O261  1  0.42827801  0.57311719  0.77291295  1
  O2-  O262  1  0.42822854  0.90748042  0.27195457  1
  O2-  O263  1  0.42701774  0.90529611  0.77058258  1
  O2-  O264  1  0.76106237  0.23871485  0.26786316  1
  O2-  O265  1  0.76160915  0.23795273  0.77122726  1
  O2-  O266  1  0.75841160  0.57466676  0.26788673  1
  O2-  O267  1  0.76240773  0.56989306  0.77407664  1
  O2-  O268  1  0.76362265  0.90329568  0.26591258  1
  O2-  O269  1  0.76857575  0.90076939  0.76895027  1
  O2-  O270  1  0.06939868  0.07075867  0.47869556  1
  O2-  O271  1  0.07183809  0.07099138  0.97961491  1
  O2-  O272  1  0.07511168  0.40562892  0.48076907  1
  O2-  O273  1  0.07051937  0.40461258  0.97465519  1
  O2-  O274  1  0.07089724  0.73923152  0.47822820  1
  O2-  O275  1  0.07261036  0.73982511  0.97810152  1
  O2-  O276  1  0.40004905  0.07228915  0.48419163  1
  O2-  O277  1  0.40649594  0.07136821  0.97689269  1
  O2-  O278  1  0.40508365  0.40577079  0.47625460  1
  O2-  O279  1  0.40377409  0.40598832  0.98030661  1
  O2-  O280  1  0.40794192  0.73871291  0.47972780  1
  O2-  O281  1  0.40414470  0.74043524  0.97872424  1
  O2-  O282  1  0.73816451  0.06762075  0.48032859  1
  O2-  O283  1  0.74037910  0.07239090  0.97368763  1
  O2-  O284  1  0.73363780  0.40329669  0.48391732  1
  O2-  O285  1  0.73613295  0.40259236  0.98266805  1
  O2-  O286  1  0.73785673  0.73902979  0.47845714  1
  O2-  O287  1  0.73765642  0.73826914  0.98271314  1
  O2-  O288  1  0.09313890  0.23823807  0.47735515  1
  O2-  O289  1  0.09842811  0.23439040  0.98406464  1
  O2-  O290  1  0.09401390  0.57478115  0.47974171  1
  O2-  O291  1  0.09320494  0.57235099  0.97913131  1
  O2-  O292  1  0.09562064  0.90465540  0.47848982  1
  O2-  O293  1  0.09533583  0.90612661  0.98094271  1
  O2-  O294  1  0.42481471  0.24055084  0.48158930  1
  O2-  O295  1  0.42628067  0.23925376  0.97594443  1
  O2-  O296  1  0.42590931  0.57189523  0.47627214  1
  O2-  O297  1  0.43192616  0.57326277  0.98029926  1
  O2-  O298  1  0.42737429  0.90606141  0.48126754  1
  O2-  O299  1  0.42890270  0.90766779  0.97605257  1
  O2-  O300  1  0.76197878  0.23776851  0.48250746  1
  O2-  O301  1  0.76053466  0.23906926  0.97861395  1
  O2-  O302  1  0.75758851  0.57478306  0.48092619  1
  O2-  O303  1  0.76259575  0.56920622  0.97777070  1
  O2-  O304  1  0.76653455  0.90238513  0.48559094  1
  O2-  O305  1  0.76479980  0.90155498  0.97930845  1
  O2-  O306  1  0.07198248  0.07146804  0.26815394  1
  O2-  O307  1  0.06947270  0.07047580  0.77438698  1
  O2-  O308  1  0.07255446  0.40484673  0.27342144  1
  O2-  O309  1  0.07306469  0.40675633  0.77157675  1
  O2-  O310  1  0.07259565  0.74001804  0.27246162  1
  O2-  O311  1  0.07069729  0.73944693  0.77303176  1
  O2-  O312  1  0.40560414  0.06898748  0.26822906  1
  O2-  O313  1  0.40136786  0.07474041  0.76963691  1
  O2-  O314  1  0.40291089  0.40676546  0.27044303  1
  O2-  O315  1  0.40623825  0.40510538  0.77323567  1
  O2-  O316  1  0.40519822  0.73979994  0.27099210  1
  O2-  O317  1  0.40762302  0.73825434  0.77079622  1
  O2-  O318  1  0.74074603  0.07198422  0.27206606  1
  O2-  O319  1  0.73922490  0.06695236  0.77296707  1
  O2-  O320  1  0.73635526  0.40141158  0.26617303  1
  O2-  O321  1  0.73424202  0.40292513  0.76684520  1
  O2-  O322  1  0.73844922  0.74225691  0.26987949  1
  O2-  O323  1  0.73535733  0.73436206  0.76797536  1
  O2-  O324  1  0.24113248  0.09324822  0.22686174  1
  O2-  O325  1  0.23343541  0.09533402  0.72660144  1
  O2-  O326  1  0.23503498  0.42898433  0.22671179  1
  O2-  O327  1  0.24151722  0.42576913  0.73548893  1
  O2-  O328  1  0.23648236  0.76314378  0.22958041  1
  O2-  O329  1  0.23939579  0.76191979  0.72982697  1
  O2-  O330  1  0.57134534  0.09455780  0.23325028  1
  O2-  O331  1  0.57180473  0.09636999  0.72843238  1
  O2-  O332  1  0.57041105  0.42768336  0.22790015  1
  O2-  O333  1  0.57066656  0.43005846  0.72778874  1
  O2-  O334  1  0.57215086  0.76340634  0.23816935  1
  O2-  O335  1  0.57142733  0.76031089  0.72829699  1
  O2-  O336  1  0.90794038  0.09088958  0.23256113  1
  O2-  O337  1  0.90191465  0.09654699  0.73382406  1
  O2-  O338  1  0.90409818  0.42648494  0.23007316  1
  O2-  O339  1  0.90236968  0.42963225  0.73345276  1
  O2-  O340  1  0.90345241  0.76216063  0.22967735  1
  O2-  O341  1  0.90686354  0.75956381  0.72975528  1
  O2-  O342  1  0.26013043  0.26362793  0.02304993  1
  O2-  O343  1  0.26375426  0.26366040  0.51509012  1
  O2-  O344  1  0.26705670  0.59820734  0.01576600  1
  O2-  O345  1  0.26468424  0.59682065  0.51742296  1
  O2-  O346  1  0.26347213  0.93131776  0.01575742  1
  O2-  O347  1  0.25860041  0.93067514  0.52200639  1
  O2-  O348  1  0.59442012  0.25996115  0.01996656  1
  O2-  O349  1  0.59360901  0.26158682  0.52139057  1
  O2-  O350  1  0.59811083  0.59489207  0.02276589  1
  O2-  O351  1  0.59505424  0.59640011  0.51753613  1
  O2-  O352  1  0.59877814  0.93124566  0.01639139  1
  O2-  O353  1  0.59611737  0.92415853  0.52716640  1
  O2-  O354  1  0.93046692  0.26228644  0.01797910  1
  O2-  O355  1  0.92836338  0.25782471  0.51806678  1
  O2-  O356  1  0.92655399  0.59191360  0.01856211  1
  O2-  O357  1  0.92601791  0.59621572  0.51637871  1
  O2-  O358  1  0.92654517  0.92591996  0.02333063  1
  O2-  O359  1  0.93006111  0.92963642  0.52129549  1
