# generated using pymatgen
data_Sr7Ca15Pr50Mn72O216
_symmetry_space_group_name_H-M   'P 1'
_cell_length_a   16.55821111
_cell_length_b   16.60576887
_cell_length_c   15.59144829
_cell_angle_alpha   89.99320876
_cell_angle_beta   90.00069504
_cell_angle_gamma   89.99404701
_symmetry_Int_Tables_number   1
_chemical_formula_structural   Sr7Ca15Pr50Mn72O216
_chemical_formula_sum   'Sr7 Ca15 Pr50 Mn72 O216'
_cell_volume   4287.05304617
_cell_formula_units_Z   1
loop_
 _symmetry_equiv_pos_site_id
 _symmetry_equiv_pos_as_xyz
  1  'x, y, z'
loop_
 _atom_type_symbol
 _atom_type_oxidation_number
  Sr2+  2.0
  Ca2+  2.0
  Pr3+  3.0
  Mn3.30+  3.3
  O2-  -2.0
loop_
 _atom_site_type_symbol
 _atom_site_label
 _atom_site_symmetry_multiplicity
 _atom_site_fract_x
 _atom_site_fract_y
 _atom_site_fract_z
 _atom_site_occupancy
  Sr2+  Sr0  1  0.83079266  0.82451921  0.87469904  1
  Sr2+  Sr1  1  0.33315940  0.66052343  0.37891557  1
  Sr2+  Sr2  1  0.83214185  0.50821515  0.12144691  1
  Sr2+  Sr3  1  0.33471745  0.32510525  0.37741618  1
  Sr2+  Sr4  1  0.67009125  0.98944190  0.87569797  1
  Sr2+  Sr5  1  0.49752505  0.84013650  0.62363376  1
  Sr2+  Sr6  1  0.66657406  0.00831811  0.12438924  1
  Ca2+  Ca7  1  0.32976459  0.34748757  0.62483422  1
  Ca2+  Ca8  1  -0.00050130  0.01142526  0.62483316  1
  Ca2+  Ca9  1  0.66465581  0.34922796  0.12116422  1
  Ca2+  Ca10  1  0.82834410  0.48606439  0.87391447  1
  Ca2+  Ca11  1  0.32594373  0.68642151  0.62566275  1
  Ca2+  Ca12  1  0.99928611  0.65368551  0.87465232  1
  Ca2+  Ca13  1  0.67097463  0.98478308  0.37498612  1
  Ca2+  Ca14  1  1.00784250  0.98059828  0.37552981  1
  Ca2+  Ca15  1  0.83833810  0.51587453  0.62951004  1
  Ca2+  Ca16  1  0.16278197  0.81783839  0.37799978  1
  Ca2+  Ca17  1  -0.00672606  0.01339991  0.12578462  1
  Ca2+  Ca18  1  0.49963967  0.48420237  0.87334083  1
  Ca2+  Ca19  1  0.67066422  0.32141772  0.87725326  1
  Ca2+  Ca20  1  0.15902370  0.81599356  0.87202926  1
  Ca2+  Ca21  1  0.17079518  0.84676125  0.62309941  1
  Pr3+  Pr22  1  0.50000668  0.82438841  0.87399018  1
  Pr3+  Pr23  1  0.33065665  0.01337297  0.12607260  1
  Pr3+  Pr24  1  0.83851289  0.84890174  0.12417087  1
  Pr3+  Pr25  1  0.16696249  0.84566845  0.12554425  1
  Pr3+  Pr26  1  0.99924601  0.32173215  0.87582318  1
  Pr3+  Pr27  1  1.00416975  0.32110711  0.37482236  1
  Pr3+  Pr28  1  0.32930674  0.00822751  0.62426215  1
  Pr3+  Pr29  1  0.16694068  0.17853468  0.12537800  1
  Pr3+  Pr30  1  0.50604247  0.51110819  0.12309392  1
  Pr3+  Pr31  1  0.16959499  0.17891402  0.62416641  1
  Pr3+  Pr32  1  0.17317425  0.51546283  0.62707613  1
  Pr3+  Pr33  1  0.83623784  0.17673567  0.62619206  1
  Pr3+  Pr34  1  0.33258368  0.98665085  0.37538406  1
  Pr3+  Pr35  1  -0.00561585  0.34873829  0.62665264  1
  Pr3+  Pr36  1  0.49858043  0.51236699  0.62676826  1
  Pr3+  Pr37  1  0.33038290  0.67879297  0.12461744  1
  Pr3+  Pr38  1  0.66915218  0.32079625  0.37373164  1
  Pr3+  Pr39  1  0.33384199  0.98622094  0.87505839  1
  Pr3+  Pr40  1  0.66637713  0.67777989  0.12440082  1
  Pr3+  Pr41  1  0.33828329  0.32121266  0.87263480  1
  Pr3+  Pr42  1  0.33774004  0.65375561  0.87146978  1
  Pr3+  Pr43  1  0.50245422  0.84491128  0.12585706  1
  Pr3+  Pr44  1  0.16309456  0.48795436  0.87383279  1
  Pr3+  Pr45  1  0.66684869  0.67939676  0.62554009  1
  Pr3+  Pr46  1  0.83086403  0.14987039  0.37573452  1
  Pr3+  Pr47  1  0.66766938  0.65520125  0.37765847  1
  Pr3+  Pr48  1  -0.00126514  0.68070839  0.62722190  1
  Pr3+  Pr49  1  1.00277367  0.98519354  0.87506623  1
  Pr3+  Pr50  1  0.33299293  0.34750586  0.12519061  1
  Pr3+  Pr51  1  0.49513759  0.48882426  0.37607853  1
  Pr3+  Pr52  1  0.16198909  0.15198917  0.37466645  1
  Pr3+  Pr53  1  0.16845461  0.51322634  0.12288526  1
  Pr3+  Pr54  1  1.00541236  0.65517300  0.37592747  1
  Pr3+  Pr55  1  0.67165677  0.65458756  0.87294645  1
  Pr3+  Pr56  1  0.83102209  0.48860663  0.37673032  1
  Pr3+  Pr57  1  0.82877926  0.15527434  0.87465193  1
  Pr3+  Pr58  1  0.49792185  0.82171107  0.37578767  1
  Pr3+  Pr59  1  0.50047008  0.15336323  0.87490965  1
  Pr3+  Pr60  1  0.66531611  0.34611816  0.62688529  1
  Pr3+  Pr61  1  0.66369263  0.00927977  0.62564428  1
  Pr3+  Pr62  1  0.16283886  0.15378334  0.87479485  1
  Pr3+  Pr63  1  0.16573136  0.48843073  0.37629710  1
  Pr3+  Pr64  1  0.83368445  0.82137614  0.37575896  1
  Pr3+  Pr65  1  0.49681750  0.15359836  0.37452789  1
  Pr3+  Pr66  1  0.50098933  0.17815889  0.62462892  1
  Pr3+  Pr67  1  0.50778537  0.18347384  0.12496390  1
  Pr3+  Pr68  1  0.83330320  0.17839774  0.12423793  1
  Pr3+  Pr69  1  -0.00473380  0.67885113  0.12287860  1
  Pr3+  Pr70  1  0.83891715  0.84909318  0.62627640  1
  Pr3+  Pr71  1  -0.00508777  0.34711001  0.12366267  1
  Mn3.30+  Mn72  1  0.16391589  -0.00151351  0.00155031  1
  Mn3.30+  Mn73  1  0.16282836  -0.00267198  0.50001024  1
  Mn3.30+  Mn74  1  0.16695169  0.33349122  -0.00056994  1
  Mn3.30+  Mn75  1  0.16726207  0.33350321  0.50131964  1
  Mn3.30+  Mn76  1  0.16467723  0.66755339  -0.00333212  1
  Mn3.30+  Mn77  1  0.16798428  0.66900188  0.50147805  1
  Mn3.30+  Mn78  1  0.49996683  -0.00032992  0.00024244  1
  Mn3.30+  Mn79  1  0.50089001  -0.00108563  0.49886710  1
  Mn3.30+  Mn80  1  0.50375836  0.33477645  -0.00398711  1
  Mn3.30+  Mn81  1  0.49873393  0.33383577  0.50275326  1
  Mn3.30+  Mn82  1  0.50026217  0.66551777  -0.00273939  1
  Mn3.30+  Mn83  1  0.49774972  0.66748474  0.50340848  1
  Mn3.30+  Mn84  1  0.83434252  0.00079287  0.00133215  1
  Mn3.30+  Mn85  1  0.83664023  -0.00086446  0.49811695  1
  Mn3.30+  Mn86  1  0.83005918  0.33503931  -0.00069555  1
  Mn3.30+  Mn87  1  0.83411059  0.33381542  0.50116416  1
  Mn3.30+  Mn88  1  0.83388739  0.66540381  -0.00280009  1
  Mn3.30+  Mn89  1  0.83552288  0.66625903  0.50190483  1
  Mn3.30+  Mn90  1  -0.00131598  0.16361755  0.25034537  1
  Mn3.30+  Mn91  1  0.00007328  0.16528163  0.74903048  1
  Mn3.30+  Mn92  1  -0.00104184  0.50041667  0.24925915  1
  Mn3.30+  Mn93  1  -0.00202744  0.50191349  0.75208949  1
  Mn3.30+  Mn94  1  0.00171997  0.83454105  0.25088050  1
  Mn3.30+  Mn95  1  0.00314564  0.83297766  0.75015343  1
  Mn3.30+  Mn96  1  0.33385845  0.16783958  0.25070893  1
  Mn3.30+  Mn97  1  0.33251650  0.16652485  0.74906683  1
  Mn3.30+  Mn98  1  0.33429198  0.50204093  0.25019212  1
  Mn3.30+  Mn99  1  0.33462085  0.50021217  0.74996120  1
  Mn3.30+  Mn100  1  0.33152767  0.83328903  0.25085968  1
  Mn3.30+  Mn101  1  0.32793472  0.83279434  0.75053147  1
  Mn3.30+  Mn102  1  0.66731585  0.16531212  0.25051491  1
  Mn3.30+  Mn103  1  0.66696814  0.16788269  0.74980338  1
  Mn3.30+  Mn104  1  0.66662934  0.49958362  0.24983098  1
  Mn3.30+  Mn105  1  0.66867769  0.49932865  0.75034469  1
  Mn3.30+  Mn106  1  0.66801055  0.83385124  0.25142870  1
  Mn3.30+  Mn107  1  0.66733491  0.83367307  0.74905374  1
  Mn3.30+  Mn108  1  0.16200562  -0.00178159  0.24921846  1
  Mn3.30+  Mn109  1  0.16440932  -0.00280416  0.74909447  1
  Mn3.30+  Mn110  1  0.16673751  0.33347052  0.24943751  1
  Mn3.30+  Mn111  1  0.16695968  0.33350484  0.74928386  1
  Mn3.30+  Mn112  1  0.16589367  0.66740764  0.25034643  1
  Mn3.30+  Mn113  1  0.16652537  0.66924211  0.75138391  1
  Mn3.30+  Mn114  1  0.50172916  0.00006516  0.25146055  1
  Mn3.30+  Mn115  1  0.49894174  -0.00193687  0.74924954  1
  Mn3.30+  Mn116  1  0.50205527  0.33483583  0.25006811  1
  Mn3.30+  Mn117  1  0.50065052  0.33403223  0.74989173  1
  Mn3.30+  Mn118  1  0.49901339  0.66628370  0.25015008  1
  Mn3.30+  Mn119  1  0.49969724  0.66670832  0.74904259  1
  Mn3.30+  Mn120  1  0.83619724  -0.00073741  0.25253137  1
  Mn3.30+  Mn121  1  0.83465214  0.00057289  0.74902473  1
  Mn3.30+  Mn122  1  0.83293937  0.33320622  0.24962520  1
  Mn3.30+  Mn123  1  0.83108662  0.33588319  0.75079512  1
  Mn3.30+  Mn124  1  0.83395115  0.66595869  0.24994358  1
  Mn3.30+  Mn125  1  0.83556907  0.66574844  0.75177215  1
  Mn3.30+  Mn126  1  -0.00109070  0.16491992  0.00097272  1
  Mn3.30+  Mn127  1  0.00012565  0.16357417  0.50010220  1
  Mn3.30+  Mn128  1  -0.00262152  0.50153542  -0.00373099  1
  Mn3.30+  Mn129  1  -0.00044230  0.50086495  0.50289241  1
  Mn3.30+  Mn130  1  0.00133758  0.83226204  -0.00269039  1
  Mn3.30+  Mn131  1  0.00372787  0.83556993  0.50240662  1
  Mn3.30+  Mn132  1  0.33405304  0.16698172  0.00072283  1
  Mn3.30+  Mn133  1  0.33241229  0.16759739  0.49954842  1
  Mn3.30+  Mn134  1  0.33593281  0.50036787  -0.00242304  1
  Mn3.30+  Mn135  1  0.33304889  0.50196882  0.50201720  1
  Mn3.30+  Mn136  1  0.33006269  0.83241973  -0.00184774  1
  Mn3.30+  Mn137  1  0.32993862  0.83357347  0.50039772  1
  Mn3.30+  Mn138  1  0.66713093  0.16869737  0.00048162  1
  Mn3.30+  Mn139  1  0.66710099  0.16470346  0.49877174  1
  Mn3.30+  Mn140  1  0.66696345  0.49868859  -0.00417387  1
  Mn3.30+  Mn141  1  0.66766386  0.49990909  0.50353194  1
  Mn3.30+  Mn142  1  0.66792479  0.83326457  0.00007763  1
  Mn3.30+  Mn143  1  0.66760179  0.83436129  0.49964695  1
  O2-  O144  1  0.02405413  0.15934266  0.12529082  1
  O2-  O145  1  0.02532869  0.15910681  0.62333773  1
  O2-  O146  1  0.02403799  0.49517477  0.12146893  1
  O2-  O147  1  0.02761467  0.49520728  0.62734702  1
  O2-  O148  1  0.02496222  0.82462768  0.12179250  1
  O2-  O149  1  0.02977839  0.82635861  0.62729112  1
  O2-  O150  1  0.36140534  0.16130837  0.12711506  1
  O2-  O151  1  0.35723743  0.15607873  0.62526221  1
  O2-  O152  1  0.36067954  0.49663291  0.12085911  1
  O2-  O153  1  0.35507279  0.49123562  0.62685309  1
  O2-  O154  1  0.35808559  0.82817767  0.12333568  1
  O2-  O155  1  0.34891706  0.83675946  0.62516728  1
  O2-  O156  1  0.68990109  0.16166916  0.12856480  1
  O2-  O157  1  0.69173339  0.15856744  0.62273343  1
  O2-  O158  1  0.68313518  0.49675011  0.12221312  1
  O2-  O159  1  0.69763214  0.49283844  0.62597003  1
  O2-  O160  1  0.69180276  0.82599044  0.12833408  1
  O2-  O161  1  0.69268569  0.82987978  0.62320327  1
  O2-  O162  1  0.14008744  0.32964656  0.12387822  1
  O2-  O163  1  0.13886796  0.32829150  0.62605887  1
  O2-  O164  1  0.14022662  0.66006453  0.12172742  1
  O2-  O165  1  0.14141788  0.65982595  0.62704029  1
  O2-  O166  1  0.13478876  0.99196429  0.12577855  1
  O2-  O167  1  0.14108107  0.99276384  0.62388553  1
  O2-  O168  1  0.47617202  0.33125455  0.12241616  1
  O2-  O169  1  0.47154409  0.32599673  0.62628886  1
  O2-  O170  1  0.47456259  0.65898173  0.12100251  1
  O2-  O171  1  0.47083519  0.66111858  0.62674620  1
  O2-  O172  1  0.47433578  0.99398788  0.12583513  1
  O2-  O173  1  0.47428122  0.99898997  0.62390626  1
  O2-  O174  1  0.80724248  0.32719613  0.12433808  1
  O2-  O175  1  0.80889185  0.32407678  0.62436707  1
  O2-  O176  1  0.81017457  0.66315022  0.12520662  1
  O2-  O177  1  0.81089646  0.66072432  0.62492567  1
  O2-  O178  1  0.81588832  0.99755798  0.12754058  1
  O2-  O179  1  0.80876651  0.99887011  0.62189174  1
  O2-  O180  1  0.30716985  0.16947881  0.37366113  1
  O2-  O181  1  0.30693064  0.17305525  0.87354317  1
  O2-  O182  1  0.30961937  0.50455766  0.37730005  1
  O2-  O183  1  0.30694253  0.50478941  0.87451984  1
  O2-  O184  1  0.30620954  0.83868763  0.37445791  1
  O2-  O185  1  0.30174954  0.83880046  0.87728188  1
  O2-  O186  1  0.64038038  0.17476279  0.37451877  1
  O2-  O187  1  0.64349197  0.17512967  0.87316954  1
  O2-  O188  1  0.63940580  0.50624580  0.37976303  1
  O2-  O189  1  0.63828071  0.50952079  0.87172157  1
  O2-  O190  1  0.64338800  0.83686928  0.37529567  1
  O2-  O191  1  0.64562114  0.83262125  0.87286974  1
  O2-  O192  1  0.97468557  0.17658381  0.37545774  1
  O2-  O193  1  0.97456768  0.17293304  0.87627058  1
  O2-  O194  1  0.97612541  0.50548744  0.37774865  1
  O2-  O195  1  0.97263544  0.50524975  0.87374434  1
  O2-  O196  1  0.97631305  0.83574516  0.37746654  1
  O2-  O197  1  0.97829126  0.84085835  0.87386234  1
  O2-  O198  1  0.19059412  0.00718329  0.37295610  1
  O2-  O199  1  0.19180321  0.00939509  0.87713608  1
  O2-  O200  1  0.18410127  0.33862149  0.37478783  1
  O2-  O201  1  0.19268182  0.33675888  0.87482104  1
  O2-  O202  1  0.18328598  0.66916351  0.37603942  1
  O2-  O203  1  0.19464204  0.67145711  0.87486807  1
  O2-  O204  1  0.52823942  0.00613842  0.37511661  1
  O2-  O205  1  0.51894944  0.00331430  0.87491827  1
  O2-  O206  1  0.52567812  0.34089259  0.37801559  1
  O2-  O207  1  0.52843206  0.33810775  0.87244549  1
  O2-  O208  1  0.52305411  0.67110882  0.37835997  1
  O2-  O209  1  0.52610209  0.67742289  0.87380982  1
  O2-  O210  1  0.86594411  0.00235756  0.37598495  1
  O2-  O211  1  0.85753320  0.00611711  0.87547850  1
  O2-  O212  1  0.86048294  0.34045955  0.37787247  1
  O2-  O213  1  0.85700551  0.33600119  0.87418504  1
  O2-  O214  1  0.86059957  0.67192581  0.37676241  1
  O2-  O215  1  0.85787731  0.67305695  0.87354905  1
  O2-  O216  1  0.23523672  0.09238333  0.02356395  1
  O2-  O217  1  0.23611111  0.09370067  0.51905731  1
  O2-  O218  1  0.24136145  0.42901043  0.02067974  1
  O2-  O219  1  0.23672047  0.43099341  0.51684987  1
  O2-  O220  1  0.23938476  0.75901728  0.02437836  1
  O2-  O221  1  0.23630551  0.76236212  0.51891024  1
  O2-  O222  1  0.57030261  0.09867123  0.01483537  1
  O2-  O223  1  0.57154343  0.09426988  0.52083339  1
  O2-  O224  1  0.56977665  0.42997189  0.01588381  1
  O2-  O225  1  0.57355893  0.42695813  0.52504499  1
  O2-  O226  1  0.57048594  0.75933703  0.02136846  1
  O2-  O227  1  0.57631227  0.75592251  0.51753017  1
  O2-  O228  1  0.90465389  0.09685488  0.01827636  1
  O2-  O229  1  0.90226129  0.09771436  0.51688126  1
  O2-  O230  1  0.90816273  0.42195660  0.01725367  1
  O2-  O231  1  0.90535331  0.43161638  0.52359910  1
  O2-  O232  1  0.90609096  0.76142151  0.02169221  1
  O2-  O233  1  0.90763476  0.76370928  0.52190646  1
  O2-  O234  1  0.25848877  0.26066679  0.22601981  1
  O2-  O235  1  0.26277825  0.26027242  0.72742625  1
  O2-  O236  1  0.25913217  0.59322663  0.22626939  1
  O2-  O237  1  0.26375224  0.59850427  0.73075530  1
  O2-  O238  1  0.26066718  0.92903663  0.22788709  1
  O2-  O239  1  0.26231667  0.93265163  0.73481350  1
  O2-  O240  1  0.59704954  0.26677893  0.22946119  1
  O2-  O241  1  0.59217023  0.25841795  0.72411469  1
  O2-  O242  1  0.59491403  0.59517415  0.23173734  1
  O2-  O243  1  0.59732263  0.59243456  0.72570991  1
  O2-  O244  1  0.59014054  0.92380593  0.23155472  1
  O2-  O245  1  0.59263343  0.92655197  0.73125849  1
  O2-  O246  1  0.92890554  0.26063304  0.22858698  1
  O2-  O247  1  0.92785895  0.26231127  0.73090052  1
  O2-  O248  1  0.92992786  0.59617931  0.23370329  1
  O2-  O249  1  0.92971056  0.59535816  0.72954872  1
  O2-  O250  1  0.93100038  0.92730885  0.22828376  1
  O2-  O251  1  0.93112133  0.92882767  0.72909863  1
  O2-  O252  1  0.09255637  0.23596662  0.26803658  1
  O2-  O253  1  0.09403901  0.23807357  0.76978734  1
  O2-  O254  1  0.09514875  0.57067718  0.26850674  1
  O2-  O255  1  0.09926919  0.57072219  0.76868563  1
  O2-  O256  1  0.09962391  0.89939932  0.26946311  1
  O2-  O257  1  0.09555044  0.90555725  0.77497697  1
  O2-  O258  1  0.43492263  0.24007076  0.26696301  1
  O2-  O259  1  0.42914499  0.23839538  0.77179423  1
  O2-  O260  1  0.42954313  0.57162118  0.26698135  1
  O2-  O261  1  0.43110752  0.57128973  0.77206133  1
  O2-  O262  1  0.42737221  0.90703808  0.27127527  1
  O2-  O263  1  0.42223312  0.90561798  0.77292449  1
  O2-  O264  1  0.76335941  0.23873113  0.27296969  1
  O2-  O265  1  0.76268477  0.23841595  0.76555698  1
  O2-  O266  1  0.75843271  0.57282256  0.27394977  1
  O2-  O267  1  0.76139857  0.57116628  0.77226266  1
  O2-  O268  1  0.76680876  0.90406612  0.26857404  1
  O2-  O269  1  0.76108014  0.90684758  0.76012328  1
  O2-  O270  1  0.07160504  0.07074189  0.47635658  1
  O2-  O271  1  0.07193964  0.07255079  0.97743556  1
  O2-  O272  1  0.06952566  0.40548189  0.48163133  1
  O2-  O273  1  0.07190168  0.40722403  0.97756498  1
  O2-  O274  1  0.06941308  0.73616729  0.48397819  1
  O2-  O275  1  0.06951420  0.73487417  0.97909732  1
  O2-  O276  1  0.40568520  0.07230243  0.47755531  1
  O2-  O277  1  0.40323438  0.07257685  0.98047254  1
  O2-  O278  1  0.40979177  0.41031646  0.48274923  1
  O2-  O279  1  0.40360272  0.40257934  0.98012760  1
  O2-  O280  1  0.40890332  0.74680073  0.48331429  1
  O2-  O281  1  0.40531330  0.73809221  0.97841231  1
  O2-  O282  1  0.73918850  0.06875333  0.47628637  1
  O2-  O283  1  0.74191162  0.07851275  0.98191673  1
  O2-  O284  1  0.73784757  0.40530712  0.47851265  1
  O2-  O285  1  0.73626310  0.40570684  0.97874928  1
  O2-  O286  1  0.74137954  0.73926193  0.48007143  1
  O2-  O287  1  0.73750102  0.73421715  0.98492442  1
  O2-  O288  1  0.09378934  0.23616997  0.48084595  1
  O2-  O289  1  0.09223492  0.23725612  0.98083205  1
  O2-  O290  1  0.09591832  0.57024549  0.48184550  1
  O2-  O291  1  0.09815782  0.57029468  0.98062703  1
  O2-  O292  1  0.09764943  0.90256266  0.47736066  1
  O2-  O293  1  0.09777498  0.90261887  0.97792623  1
  O2-  O294  1  0.43106186  0.23685338  0.48270067  1
  O2-  O295  1  0.43271871  0.24103682  0.97766548  1
  O2-  O296  1  0.43001878  0.57116626  0.48476921  1
  O2-  O297  1  0.42974245  0.57095932  0.97435835  1
  O2-  O298  1  0.42658180  0.90906983  0.47583218  1
  O2-  O299  1  0.42315519  0.90417528  0.97933888  1
  O2-  O300  1  0.76048705  0.23721989  0.47882869  1
  O2-  O301  1  0.76332323  0.23847379  0.98180016  1
  O2-  O302  1  0.75910268  0.57344673  0.47795025  1
  O2-  O303  1  0.75959427  0.57136686  0.97572342  1
  O2-  O304  1  0.76739223  0.90457351  0.48164901  1
  O2-  O305  1  0.76238991  0.90803288  0.99005600  1
  O2-  O306  1  0.07006509  0.07090192  0.27389805  1
  O2-  O307  1  0.07377706  0.07140877  0.77223123  1
  O2-  O308  1  0.07234757  0.40601062  0.26823715  1
  O2-  O309  1  0.06948784  0.40533306  0.77217939  1
  O2-  O310  1  0.06913309  0.73633420  0.26541474  1
  O2-  O311  1  0.06889761  0.73404806  0.77120407  1
  O2-  O312  1  0.40538006  0.07068283  0.27165474  1
  O2-  O313  1  0.40393814  0.07331572  0.77115078  1
  O2-  O314  1  0.40741656  0.40737410  0.26591914  1
  O2-  O315  1  0.40661577  0.40478566  0.77043986  1
  O2-  O316  1  0.40849019  0.74193851  0.26647636  1
  O2-  O317  1  0.40397967  0.74325281  0.77157290  1
  O2-  O318  1  0.74177642  0.06982448  0.27561969  1
  O2-  O319  1  0.74098287  0.07659638  0.76685910  1
  O2-  O320  1  0.73993066  0.40788632  0.27340584  1
  O2-  O321  1  0.73416798  0.40144989  0.76991029  1
  O2-  O322  1  0.73939187  0.73756141  0.27224647  1
  O2-  O323  1  0.73858071  0.73582414  0.76317560  1
  O2-  O324  1  0.23437751  0.09164007  0.22731615  1
  O2-  O325  1  0.23621907  0.09385270  0.72927420  1
  O2-  O326  1  0.24101875  0.42933785  0.22897150  1
  O2-  O327  1  0.23607537  0.42940103  0.73372076  1
  O2-  O328  1  0.23904230  0.75830616  0.22693163  1
  O2-  O329  1  0.23468173  0.76400396  0.72972221  1
  O2-  O330  1  0.56784475  0.09763535  0.23257729  1
  O2-  O331  1  0.57299071  0.09432718  0.73095185  1
  O2-  O332  1  0.56998569  0.43119912  0.23474908  1
  O2-  O333  1  0.57299145  0.42648239  0.72427724  1
  O2-  O334  1  0.57175878  0.75846064  0.23048173  1
  O2-  O335  1  0.57508035  0.75794434  0.73023766  1
  O2-  O336  1  0.90201178  0.09836836  0.23348843  1
  O2-  O337  1  0.90576539  0.09673381  0.73244279  1
  O2-  O338  1  0.90749415  0.42548231  0.23253861  1
  O2-  O339  1  0.90380337  0.42687134  0.72782497  1
  O2-  O340  1  0.90594770  0.76304976  0.23090940  1
  O2-  O341  1  0.90794050  0.76199767  0.72637189  1
  O2-  O342  1  0.26298792  0.25982021  0.02182096  1
  O2-  O343  1  0.25989948  0.26086694  0.52355658  1
  O2-  O344  1  0.26273931  0.59466413  0.01870115  1
  O2-  O345  1  0.26113157  0.59622104  0.52444724  1
  O2-  O346  1  0.25983665  0.92915865  0.02392072  1
  O2-  O347  1  0.26253365  0.93248620  0.51465618  1
  O2-  O348  1  0.59608095  0.26279008  0.02256293  1
  O2-  O349  1  0.59436120  0.26155308  0.52115209  1
  O2-  O350  1  0.59535284  0.59585638  0.01884163  1
  O2-  O351  1  0.59495507  0.59222371  0.52450181  1
  O2-  O352  1  0.58727314  0.92257759  0.01803750  1
  O2-  O353  1  0.59563095  0.92828200  0.51800449  1
  O2-  O354  1  0.92788897  0.25994348  0.02065268  1
  O2-  O355  1  0.92962391  0.26119742  0.52165157  1
  O2-  O356  1  0.92888938  0.59566812  0.01734158  1
  O2-  O357  1  0.93204452  0.59674185  0.51866382  1
  O2-  O358  1  0.93148242  0.92891185  0.01876643  1
  O2-  O359  1  0.93071837  0.92782154  0.52532553  1
