# generated using pymatgen
data_Sr7Ca15Pr50Mn72O216
_symmetry_space_group_name_H-M   'P 1'
_cell_length_a   16.55558093
_cell_length_b   16.60159219
_cell_length_c   15.59028447
_cell_angle_alpha   90.00070626
_cell_angle_beta   90.00313542
_cell_angle_gamma   90.00235469
_symmetry_Int_Tables_number   1
_chemical_formula_structural   Sr7Ca15Pr50Mn72O216
_chemical_formula_sum   'Sr7 Ca15 Pr50 Mn72 O216'
_cell_volume   4284.97413315
_cell_formula_units_Z   1
loop_
 _symmetry_equiv_pos_site_id
 _symmetry_equiv_pos_as_xyz
  1  'x, y, z'
loop_
 _atom_type_symbol
 _atom_type_oxidation_number
  Sr2+  2.0
  Ca2+  2.0
  Pr3+  3.0
  Mn3.30+  3.3
  O2-  -2.0
loop_
 _atom_site_type_symbol
 _atom_site_label
 _atom_site_symmetry_multiplicity
 _atom_site_fract_x
 _atom_site_fract_y
 _atom_site_fract_z
 _atom_site_occupancy
  Sr2+  Sr0  1  -0.00322625  0.67565413  0.62836280  1
  Sr2+  Sr1  1  -0.00457531  0.34566265  0.62520914  1
  Sr2+  Sr2  1  0.66706625  0.01028595  0.62525400  1
  Sr2+  Sr3  1  0.32967126  0.67825697  0.12223729  1
  Sr2+  Sr4  1  0.16783695  0.82626881  0.37075740  1
  Sr2+  Sr5  1  0.66739350  0.65860574  0.37460783  1
  Sr2+  Sr6  1  0.33502717  0.32345704  0.87525397  1
  Ca2+  Ca7  1  0.83697580  0.17945490  0.62276740  1
  Ca2+  Ca8  1  1.00425676  0.98643529  0.87571574  1
  Ca2+  Ca9  1  0.33519153  0.65137384  0.87678227  1
  Ca2+  Ca10  1  0.50281769  0.17783147  0.12563711  1
  Ca2+  Ca11  1  1.00335497  0.65170885  0.87415673  1
  Ca2+  Ca12  1  0.17267494  0.84757753  0.12426926  1
  Ca2+  Ca13  1  0.82808421  0.15157336  0.37653399  1
  Ca2+  Ca14  1  0.49693867  0.14676407  0.37285086  1
  Ca2+  Ca15  1  0.65829083  0.01772401  0.12562178  1
  Ca2+  Ca16  1  0.17319091  0.51579096  0.12297229  1
  Ca2+  Ca17  1  0.33751629  0.98368127  0.37211521  1
  Ca2+  Ca18  1  0.33629777  0.98579664  0.87817787  1
  Ca2+  Ca19  1  0.66929524  0.65225796  0.87625041  1
  Ca2+  Ca20  1  0.83977586  0.51665012  0.62526796  1
  Ca2+  Ca21  1  0.50229481  0.85050108  0.12473105  1
  Pr3+  Pr22  1  0.50487118  0.17650520  0.62363617  1
  Pr3+  Pr23  1  0.66816426  0.98954714  0.37343846  1
  Pr3+  Pr24  1  0.00154877  0.00882420  0.12448982  1
  Pr3+  Pr25  1  0.82867443  0.48981402  0.37833862  1
  Pr3+  Pr26  1  0.50271149  0.84729804  0.62567097  1
  Pr3+  Pr27  1  0.66620425  0.67796042  0.62735652  1
  Pr3+  Pr28  1  0.49528398  0.82309384  0.37299492  1
  Pr3+  Pr29  1  0.33514298  0.65574670  0.37337231  1
  Pr3+  Pr30  1  -0.00609132  0.01246112  0.62557872  1
  Pr3+  Pr31  1  0.49524433  0.15158114  0.87660492  1
  Pr3+  Pr32  1  0.83372048  0.17743583  0.12696613  1
  Pr3+  Pr33  1  0.00125048  0.68051168  0.12151880  1
  Pr3+  Pr34  1  0.16383338  0.82039981  0.87846989  1
  Pr3+  Pr35  1  0.16429407  0.15181074  0.87524496  1
  Pr3+  Pr36  1  0.16575371  0.15148708  0.37508773  1
  Pr3+  Pr37  1  0.16313575  0.49044083  0.37294764  1
  Pr3+  Pr38  1  0.49867833  0.48809498  0.37472851  1
  Pr3+  Pr39  1  0.83454947  0.51376731  0.12464249  1
  Pr3+  Pr40  1  0.16666166  0.51409822  0.62612119  1
  Pr3+  Pr41  1  0.17268063  0.17690524  0.12613238  1
  Pr3+  Pr42  1  0.33026658  0.01107843  0.62480412  1
  Pr3+  Pr43  1  -0.00004724  0.34765531  0.12521195  1
  Pr3+  Pr44  1  0.65786163  0.68249302  0.12315255  1
  Pr3+  Pr45  1  0.49636040  0.48695738  0.87560624  1
  Pr3+  Pr46  1  1.00213370  0.65754536  0.37537523  1
  Pr3+  Pr47  1  0.33997104  0.31645654  0.37513220  1
  Pr3+  Pr48  1  0.50201322  0.51261575  0.12346450  1
  Pr3+  Pr49  1  0.82903617  0.82129447  0.37403994  1
  Pr3+  Pr50  1  0.33282607  0.00827481  0.12562368  1
  Pr3+  Pr51  1  0.83226938  0.84750860  0.12450914  1
  Pr3+  Pr52  1  0.16491275  0.48988049  0.87676077  1
  Pr3+  Pr53  1  1.00041672  0.98695319  0.37373679  1
  Pr3+  Pr54  1  1.00553957  0.32196692  0.87434382  1
  Pr3+  Pr55  1  0.83703408  0.84389873  0.62600316  1
  Pr3+  Pr56  1  0.66955626  0.34479303  0.62490983  1
  Pr3+  Pr57  1  0.83302248  0.15544043  0.87371184  1
  Pr3+  Pr58  1  0.66902103  0.98905047  0.87647341  1
  Pr3+  Pr59  1  0.33220816  0.34572252  0.12446951  1
  Pr3+  Pr60  1  0.83118587  0.81899190  0.87640041  1
  Pr3+  Pr61  1  0.32741202  0.68033920  0.62806978  1
  Pr3+  Pr62  1  0.16868734  0.17927875  0.62380174  1
  Pr3+  Pr63  1  1.00147773  0.31998139  0.37560695  1
  Pr3+  Pr64  1  0.49350501  0.81955485  0.87648537  1
  Pr3+  Pr65  1  0.16533930  0.84478719  0.62550594  1
  Pr3+  Pr66  1  0.50210495  0.51160290  0.62687510  1
  Pr3+  Pr67  1  0.83303073  0.49005021  0.87212672  1
  Pr3+  Pr68  1  0.32967668  0.34546065  0.62517732  1
  Pr3+  Pr69  1  0.66882751  0.32107455  0.87516549  1
  Pr3+  Pr70  1  0.67105864  0.31688852  0.37462065  1
  Pr3+  Pr71  1  0.66243854  0.34547093  0.12508594  1
  Mn3.30+  Mn72  1  0.16828864  -0.00172758  -0.00118442  1
  Mn3.30+  Mn73  1  0.16601487  -0.00105993  0.49918974  1
  Mn3.30+  Mn74  1  0.16839736  0.33305358  0.00110052  1
  Mn3.30+  Mn75  1  0.16672204  0.33399404  0.49897335  1
  Mn3.30+  Mn76  1  0.16740993  0.66689819  -0.00074277  1
  Mn3.30+  Mn77  1  0.16562105  0.66893344  0.49952576  1
  Mn3.30+  Mn78  1  0.50034936  -0.00068167  0.00146045  1
  Mn3.30+  Mn79  1  0.49933109  0.00033075  0.49864193  1
  Mn3.30+  Mn80  1  0.49956907  0.33097678  0.00075597  1
  Mn3.30+  Mn81  1  0.50187284  0.33103875  0.49936699  1
  Mn3.30+  Mn82  1  0.49795955  0.66810472  -0.00175974  1
  Mn3.30+  Mn83  1  0.49898189  0.66668143  0.50140475  1
  Mn3.30+  Mn84  1  0.83313914  0.00103976  0.00054496  1
  Mn3.30+  Mn85  1  0.83261484  0.00201098  0.49956199  1
  Mn3.30+  Mn86  1  0.83457806  0.33384626  0.00057916  1
  Mn3.30+  Mn87  1  0.83447619  0.33163908  0.50003980  1
  Mn3.30+  Mn88  1  0.83148398  0.66708652  -0.00080906  1
  Mn3.30+  Mn89  1  0.83304559  0.66686298  0.50100422  1
  Mn3.30+  Mn90  1  -0.00041919  0.16594734  0.25053483  1
  Mn3.30+  Mn91  1  -0.00094531  0.16596716  0.74980011  1
  Mn3.30+  Mn92  1  0.00063764  0.50203663  0.24810727  1
  Mn3.30+  Mn93  1  -0.00213493  0.50099969  0.75040015  1
  Mn3.30+  Mn94  1  0.00094251  0.83337377  0.24658973  1
  Mn3.30+  Mn95  1  -0.00030939  0.83321059  0.75385708  1
  Mn3.30+  Mn96  1  0.33838486  0.16304498  0.25046340  1
  Mn3.30+  Mn97  1  0.33388048  0.16488901  0.75128566  1
  Mn3.30+  Mn98  1  0.33153147  0.49988616  0.24957142  1
  Mn3.30+  Mn99  1  0.33373265  0.50065007  0.75077669  1
  Mn3.30+  Mn100  1  0.33374822  0.83297486  0.24686304  1
  Mn3.30+  Mn101  1  0.33216540  0.83393675  0.75284957  1
  Mn3.30+  Mn102  1  0.66442033  0.16530125  0.25076717  1
  Mn3.30+  Mn103  1  0.66839358  0.16646076  0.74849341  1
  Mn3.30+  Mn104  1  0.66648705  0.50111658  0.25078519  1
  Mn3.30+  Mn105  1  0.66841097  0.50099545  0.74951493  1
  Mn3.30+  Mn106  1  0.66337913  0.83650242  0.24708903  1
  Mn3.30+  Mn107  1  0.66597893  0.83258921  0.75320458  1
  Mn3.30+  Mn108  1  0.16871972  -0.00171381  0.25045135  1
  Mn3.30+  Mn109  1  0.16591456  -0.00080664  0.75155401  1
  Mn3.30+  Mn110  1  0.16861137  0.33378915  0.25068742  1
  Mn3.30+  Mn111  1  0.16674796  0.33313683  0.74918783  1
  Mn3.30+  Mn112  1  0.16773277  0.66851359  0.24775655  1
  Mn3.30+  Mn113  1  0.16521244  0.66752613  0.75315926  1
  Mn3.30+  Mn114  1  0.50045433  0.00053458  0.24851787  1
  Mn3.30+  Mn115  1  0.49882033  -0.00034842  0.75110955  1
  Mn3.30+  Mn116  1  0.50085440  0.32990506  0.25098702  1
  Mn3.30+  Mn117  1  0.50013480  0.33177375  0.74860072  1
  Mn3.30+  Mn118  1  0.49872657  0.66797995  0.24850666  1
  Mn3.30+  Mn119  1  0.49881493  0.66642674  0.75239305  1
  Mn3.30+  Mn120  1  0.83067993  0.00207687  0.24741573  1
  Mn3.30+  Mn121  1  0.83512002  0.00064496  0.75214819  1
  Mn3.30+  Mn122  1  0.83338861  0.33266040  0.25011318  1
  Mn3.30+  Mn123  1  0.83550348  0.33330022  0.74928208  1
  Mn3.30+  Mn124  1  0.83172419  0.66811618  0.24675961  1
  Mn3.30+  Mn125  1  0.83311507  0.66599648  0.75399739  1
  Mn3.30+  Mn126  1  0.00153295  0.16533896  0.00141152  1
  Mn3.30+  Mn127  1  -0.00317025  0.16642341  0.49793461  1
  Mn3.30+  Mn128  1  0.00189034  0.50210830  0.00172673  1
  Mn3.30+  Mn129  1  -0.00337701  0.50074813  0.49992643  1
  Mn3.30+  Mn130  1  0.00079224  0.83429934  -0.00011188  1
  Mn3.30+  Mn131  1  -0.00023033  0.83281797  0.49968534  1
  Mn3.30+  Mn132  1  0.33577016  0.16488655  0.00033154  1
  Mn3.30+  Mn133  1  0.33659799  0.16319663  0.49832820  1
  Mn3.30+  Mn134  1  0.33255368  0.50099000  0.00009043  1
  Mn3.30+  Mn135  1  0.33275404  0.50009732  0.49992103  1
  Mn3.30+  Mn136  1  0.33293152  0.83296731  0.00078247  1
  Mn3.30+  Mn137  1  0.33282073  0.83396970  0.49939661  1
  Mn3.30+  Mn138  1  0.66482531  0.16622215  0.00083230  1
  Mn3.30+  Mn139  1  0.66843870  0.16537839  0.49957251  1
  Mn3.30+  Mn140  1  0.66687386  0.50137395  -0.00211342  1
  Mn3.30+  Mn141  1  0.66807043  0.50063241  0.50246100  1
  Mn3.30+  Mn142  1  0.66308628  0.83500806  -0.00051700  1
  Mn3.30+  Mn143  1  0.66613684  0.83376954  0.50058697  1
  O2-  O144  1  0.02865112  0.15873610  0.12552343  1
  O2-  O145  1  0.02513367  0.16003669  0.62197211  1
  O2-  O146  1  0.03018821  0.49481870  0.12575997  1
  O2-  O147  1  0.02332802  0.50026444  0.62286320  1
  O2-  O148  1  0.02840126  0.82932736  0.12269654  1
  O2-  O149  1  0.02051295  0.83232007  0.62844286  1
  O2-  O150  1  0.36093984  0.15709851  0.12708731  1
  O2-  O151  1  0.36056088  0.15773655  0.62390168  1
  O2-  O152  1  0.35820229  0.49444070  0.12632545  1
  O2-  O153  1  0.35727991  0.49563867  0.62460795  1
  O2-  O154  1  0.36015985  0.83325981  0.12242967  1
  O2-  O155  1  0.35839160  0.82708629  0.62742008  1
  O2-  O156  1  0.69057425  0.16443734  0.12411913  1
  O2-  O157  1  0.69345394  0.16580010  0.62487063  1
  O2-  O158  1  0.69036449  0.49361301  0.12242614  1
  O2-  O159  1  0.69681557  0.49428546  0.62602016  1
  O2-  O160  1  0.68999992  0.82758847  0.12200044  1
  O2-  O161  1  0.69215940  0.82663778  0.63109390  1
  O2-  O162  1  0.14260385  0.32322367  0.12756371  1
  O2-  O163  1  0.14657203  0.32692763  0.62292034  1
  O2-  O164  1  0.14295981  0.65798671  0.12337304  1
  O2-  O165  1  0.14709695  0.66324091  0.62703669  1
  O2-  O166  1  0.14537277  0.99812608  0.12483325  1
  O2-  O167  1  0.13908297  0.99549668  0.62560967  1
  O2-  O168  1  0.47718987  0.32595697  0.12801204  1
  O2-  O169  1  0.47414139  0.32517856  0.62276708  1
  O2-  O170  1  0.47971800  0.65813877  0.12295947  1
  O2-  O171  1  0.47090093  0.66005393  0.62689353  1
  O2-  O172  1  0.47532281  0.99408875  0.12387362  1
  O2-  O173  1  0.47495764  0.99656109  0.62450350  1
  O2-  O174  1  0.80684871  0.32699618  0.12576243  1
  O2-  O175  1  0.81136778  0.32226356  0.62460073  1
  O2-  O176  1  0.80302100  0.66175984  0.12295462  1
  O2-  O177  1  0.81019473  0.66545804  0.63136052  1
  O2-  O178  1  0.80194164  0.99604681  0.12347404  1
  O2-  O179  1  0.81557636  0.98990743  0.62692285  1
  O2-  O180  1  0.30794681  0.17174639  0.37449975  1
  O2-  O181  1  0.30769473  0.17094486  0.87430531  1
  O2-  O182  1  0.30838856  0.50495739  0.37522551  1
  O2-  O183  1  0.31063848  0.50131778  0.87370189  1
  O2-  O184  1  0.31750560  0.83630287  0.37530670  1
  O2-  O185  1  0.30754546  0.84294143  0.87467726  1
  O2-  O186  1  0.63904079  0.17038177  0.37505715  1
  O2-  O187  1  0.64070359  0.17259965  0.87563037  1
  O2-  O188  1  0.64239300  0.50277449  0.37878315  1
  O2-  O189  1  0.63986658  0.50409231  0.87396820  1
  O2-  O190  1  0.64095834  0.83976208  0.37101883  1
  O2-  O191  1  0.63798293  0.84253914  0.87642183  1
  O2-  O192  1  0.97129218  0.17123384  0.37360173  1
  O2-  O193  1  0.97695921  0.17446210  0.87853116  1
  O2-  O194  1  0.97251541  0.50885400  0.37205078  1
  O2-  O195  1  0.97672804  0.50222303  0.87875799  1
  O2-  O196  1  0.97343470  0.83718603  0.36985126  1
  O2-  O197  1  0.97420660  0.84363536  0.87845867  1
  O2-  O198  1  0.19326076  0.00437215  0.37542966  1
  O2-  O199  1  0.19458713  0.00605781  0.87385294  1
  O2-  O200  1  0.19508539  0.34125902  0.37439070  1
  O2-  O201  1  0.18503027  0.33963710  0.87449213  1
  O2-  O202  1  0.19070554  0.66975563  0.37410238  1
  O2-  O203  1  0.19404132  0.67243942  0.87537210  1
  O2-  O204  1  0.52418085  0.00100852  0.37398611  1
  O2-  O205  1  0.52524610  0.00507066  0.87749542  1
  O2-  O206  1  0.52654387  0.34233974  0.37613622  1
  O2-  O207  1  0.52396399  0.33810566  0.87323512  1
  O2-  O208  1  0.51789692  0.67296196  0.37582232  1
  O2-  O209  1  0.52799743  0.67249840  0.87472593  1
  O2-  O210  1  0.85729012  0.00568443  0.37175592  1
  O2-  O211  1  0.86244193  0.00876617  0.87709505  1
  O2-  O212  1  0.85873419  0.34356514  0.37218202  1
  O2-  O213  1  0.86127130  0.34095865  0.87771474  1
  O2-  O214  1  0.85690831  0.67333375  0.36823687  1
  O2-  O215  1  0.86058166  0.67102057  0.87845630  1
  O2-  O216  1  0.23968162  0.09447712  0.02003212  1
  O2-  O217  1  0.23713110  0.09457718  0.52079304  1
  O2-  O218  1  0.23918223  0.42563261  0.02128714  1
  O2-  O219  1  0.23900681  0.42915679  0.52131144  1
  O2-  O220  1  0.23325541  0.76517770  0.01716685  1
  O2-  O221  1  0.23996106  0.76068175  0.52212201  1
  O2-  O222  1  0.56872674  0.09813492  0.01811464  1
  O2-  O223  1  0.57083492  0.09434887  0.51716268  1
  O2-  O224  1  0.57333729  0.42821132  0.01930008  1
  O2-  O225  1  0.57419645  0.42829472  0.52321707  1
  O2-  O226  1  0.56696241  0.76410213  0.02055803  1
  O2-  O227  1  0.57074741  0.75772937  0.52294681  1
  O2-  O228  1  0.90568764  0.09459677  0.02371338  1
  O2-  O229  1  0.90477925  0.09360805  0.52183317  1
  O2-  O230  1  0.90689986  0.42750646  0.02378164  1
  O2-  O231  1  0.90102958  0.43191221  0.51649862  1
  O2-  O232  1  0.90210578  0.76164049  0.02177374  1
  O2-  O233  1  0.90340413  0.76514421  0.51448948  1
  O2-  O234  1  0.26625901  0.25939793  0.23047603  1
  O2-  O235  1  0.26226040  0.25831482  0.72661785  1
  O2-  O236  1  0.25988178  0.59389087  0.23610116  1
  O2-  O237  1  0.25996394  0.59306104  0.73042237  1
  O2-  O238  1  0.26295652  0.92597756  0.23132671  1
  O2-  O239  1  0.25799911  0.92655154  0.72561483  1
  O2-  O240  1  0.60030657  0.26396589  0.23365303  1
  O2-  O241  1  0.59555646  0.26180488  0.72865697  1
  O2-  O242  1  0.59329508  0.59415302  0.22984289  1
  O2-  O243  1  0.59356515  0.59215895  0.72608839  1
  O2-  O244  1  0.59760460  0.93413001  0.23046877  1
  O2-  O245  1  0.59224523  0.92528758  0.73271655  1
  O2-  O246  1  0.93002726  0.26098893  0.22759478  1
  O2-  O247  1  0.92891422  0.26193607  0.73856604  1
  O2-  O248  1  0.92745925  0.59575048  0.22442913  1
  O2-  O249  1  0.92490428  0.59302676  0.73778350  1
  O2-  O250  1  0.92497542  0.92726224  0.22672668  1
  O2-  O251  1  0.92793521  0.92759893  0.73152406  1
  O2-  O252  1  0.09702019  0.23991552  0.27312461  1
  O2-  O253  1  0.09553277  0.23700239  0.76871890  1
  O2-  O254  1  0.09144561  0.57509502  0.27312902  1
  O2-  O255  1  0.09699741  0.57148028  0.76851657  1
  O2-  O256  1  0.08799470  0.91130464  0.26742460  1
  O2-  O257  1  0.09657773  0.90346898  0.76925413  1
  O2-  O258  1  0.42935857  0.23584329  0.27486538  1
  O2-  O259  1  0.42969505  0.23310817  0.76608589  1
  O2-  O260  1  0.42647664  0.56984524  0.27027274  1
  O2-  O261  1  0.43108052  0.57097666  0.76985264  1
  O2-  O262  1  0.43125352  0.90404886  0.26599873  1
  O2-  O263  1  0.42844455  0.90263675  0.76699959  1
  O2-  O264  1  0.76256372  0.23614934  0.27109372  1
  O2-  O265  1  0.76068120  0.24253516  0.77472090  1
  O2-  O266  1  0.76354384  0.56986549  0.26591440  1
  O2-  O267  1  0.75929562  0.57365288  0.77290535  1
  O2-  O268  1  0.76115497  0.90689101  0.26985147  1
  O2-  O269  1  0.76210771  0.90722336  0.77430949  1
  O2-  O270  1  0.06982014  0.07331312  0.47714284  1
  O2-  O271  1  0.07268368  0.07147556  0.97922057  1
  O2-  O272  1  0.07014631  0.41022364  0.47493115  1
  O2-  O273  1  0.07122393  0.40603983  0.98242687  1
  O2-  O274  1  0.07079625  0.73962192  0.48186987  1
  O2-  O275  1  0.06928160  0.73663876  0.97856314  1
  O2-  O276  1  0.40105955  0.06605606  0.48025265  1
  O2-  O277  1  0.40448561  0.06941677  0.97860352  1
  O2-  O278  1  0.40629177  0.40365396  0.48031086  1
  O2-  O279  1  0.40915330  0.40643601  0.98577745  1
  O2-  O280  1  0.40402703  0.73757466  0.48308782  1
  O2-  O281  1  0.40261992  0.73841224  0.97410206  1
  O2-  O282  1  0.73779323  0.07236531  0.47873825  1
  O2-  O283  1  0.74053746  0.07612702  0.97654767  1
  O2-  O284  1  0.73858162  0.40260480  0.48091097  1
  O2-  O285  1  0.73838499  0.40741853  0.97818405  1
  O2-  O286  1  0.74065679  0.74213158  0.48370104  1
  O2-  O287  1  0.73452253  0.73962627  0.97855691  1
  O2-  O288  1  0.09455472  0.23800089  0.47700305  1
  O2-  O289  1  0.09627919  0.23790776  0.98084213  1
  O2-  O290  1  0.09428700  0.57329519  0.47975601  1
  O2-  O291  1  0.09416582  0.57310241  0.97851014  1
  O2-  O292  1  0.09067670  0.90719674  0.48139043  1
  O2-  O293  1  0.09618485  0.90756508  0.98057954  1
  O2-  O294  1  0.43095728  0.23360168  0.47746740  1
  O2-  O295  1  0.42914085  0.23562433  0.98254685  1
  O2-  O296  1  0.42780752  0.57127524  0.47971340  1
  O2-  O297  1  0.43084058  0.57094603  0.98100021  1
  O2-  O298  1  0.42987244  0.90204603  0.48536633  1
  O2-  O299  1  0.42962171  0.90435493  0.98063998  1
  O2-  O300  1  0.76154730  0.23898744  0.47511800  1
  O2-  O301  1  0.76272582  0.23972401  0.97930046  1
  O2-  O302  1  0.76012798  0.57226985  0.48338851  1
  O2-  O303  1  0.76284471  0.57011842  0.98054025  1
  O2-  O304  1  0.76210744  0.90879824  0.47887048  1
  O2-  O305  1  0.76227421  0.90662175  0.97719536  1
  O2-  O306  1  0.07276895  0.07407118  0.27202867  1
  O2-  O307  1  0.07149163  0.07086132  0.77130158  1
  O2-  O308  1  0.07113955  0.40679016  0.27208381  1
  O2-  O309  1  0.07231005  0.40841596  0.76974165  1
  O2-  O310  1  0.06856127  0.73646521  0.26453438  1
  O2-  O311  1  0.07107255  0.74035307  0.77528927  1
  O2-  O312  1  0.40251116  0.06597192  0.26986693  1
  O2-  O313  1  0.40239781  0.06859374  0.77159112  1
  O2-  O314  1  0.40505451  0.40379565  0.27005913  1
  O2-  O315  1  0.40978788  0.40667076  0.76421732  1
  O2-  O316  1  0.40467218  0.73897248  0.26968754  1
  O2-  O317  1  0.40225659  0.73706776  0.77255026  1
  O2-  O318  1  0.73617720  0.07359427  0.26874653  1
  O2-  O319  1  0.74151159  0.07370538  0.77359232  1
  O2-  O320  1  0.73807056  0.40556608  0.26985768  1
  O2-  O321  1  0.73937998  0.40525895  0.77150533  1
  O2-  O322  1  0.73975069  0.74348055  0.26481379  1
  O2-  O323  1  0.73694408  0.73820428  0.77574944  1
  O2-  O324  1  0.24006284  0.09493919  0.23089834  1
  O2-  O325  1  0.23763296  0.09486030  0.72754559  1
  O2-  O326  1  0.23856560  0.42800309  0.22737109  1
  O2-  O327  1  0.23894557  0.42684411  0.72875296  1
  O2-  O328  1  0.23688569  0.76247989  0.22936887  1
  O2-  O329  1  0.23690960  0.76248590  0.73081525  1
  O2-  O330  1  0.56811131  0.09730324  0.23065834  1
  O2-  O331  1  0.56976573  0.09624581  0.73439916  1
  O2-  O332  1  0.57168569  0.42897620  0.23034981  1
  O2-  O333  1  0.57615005  0.42728806  0.72776628  1
  O2-  O334  1  0.57110860  0.76468956  0.22816126  1
  O2-  O335  1  0.56937394  0.75869192  0.72869969  1
  O2-  O336  1  0.90622199  0.09046948  0.22434523  1
  O2-  O337  1  0.90470321  0.09661014  0.72869403  1
  O2-  O338  1  0.90773221  0.42873147  0.22645766  1
  O2-  O339  1  0.90089274  0.43026430  0.73264612  1
  O2-  O340  1  0.90509423  0.76182947  0.22470747  1
  O2-  O341  1  0.90075379  0.76500030  0.73734150  1
  O2-  O342  1  0.26306398  0.25772905  0.02386725  1
  O2-  O343  1  0.26677737  0.25836276  0.51841396  1
  O2-  O344  1  0.25880644  0.59209400  0.01388366  1
  O2-  O345  1  0.26009669  0.59560390  0.51953693  1
  O2-  O346  1  0.26275079  0.92823401  0.01918378  1
  O2-  O347  1  0.25952063  0.92437173  0.52368790  1
  O2-  O348  1  0.59824791  0.26431802  0.01633471  1
  O2-  O349  1  0.59809673  0.26137262  0.52094307  1
  O2-  O350  1  0.59492277  0.59377017  0.01941538  1
  O2-  O351  1  0.59143587  0.59293890  0.52564882  1
  O2-  O352  1  0.59830431  0.93399351  0.01865561  1
  O2-  O353  1  0.59190748  0.92510712  0.51775924  1
  O2-  O354  1  0.93076712  0.25998793  0.02318418  1
  O2-  O355  1  0.92962353  0.26254071  0.51264012  1
  O2-  O356  1  0.92702165  0.59206553  0.02476614  1
  O2-  O357  1  0.92671231  0.59640842  0.51277137  1
  O2-  O358  1  0.92514325  0.92713664  0.02559458  1
  O2-  O359  1  0.92812612  0.92846780  0.51569778  1
