# generated using pymatgen
data_Sr7Ca15Pr50Mn72O216
_symmetry_space_group_name_H-M   'P 1'
_cell_length_a   16.55440297
_cell_length_b   16.59805198
_cell_length_c   15.59050037
_cell_angle_alpha   90.00250594
_cell_angle_beta   90.00178344
_cell_angle_gamma   89.99048478
_symmetry_Int_Tables_number   1
_chemical_formula_structural   Sr7Ca15Pr50Mn72O216
_chemical_formula_sum   'Sr7 Ca15 Pr50 Mn72 O216'
_cell_volume   4283.81483252
_cell_formula_units_Z   1
loop_
 _symmetry_equiv_pos_site_id
 _symmetry_equiv_pos_as_xyz
  1  'x, y, z'
loop_
 _atom_type_symbol
 _atom_type_oxidation_number
  Sr2+  2.0
  Ca2+  2.0
  Pr3+  3.0
  Mn3.30+  3.3
  O2-  -2.0
loop_
 _atom_site_type_symbol
 _atom_site_label
 _atom_site_symmetry_multiplicity
 _atom_site_fract_x
 _atom_site_fract_y
 _atom_site_fract_z
 _atom_site_occupancy
  Sr2+  Sr0  1  0.49986765  0.17727937  0.12574643  1
  Sr2+  Sr1  1  0.82820056  0.15653803  0.87545224  1
  Sr2+  Sr2  1  0.66690300  0.67844729  0.62475796  1
  Sr2+  Sr3  1  0.33350104  0.98959005  0.37381042  1
  Sr2+  Sr4  1  0.83202985  0.82574360  0.37797279  1
  Sr2+  Sr5  1  -0.00411155  0.01053929  0.62477372  1
  Sr2+  Sr6  1  0.66611586  0.32572941  0.37575040  1
  Ca2+  Ca7  1  0.16261218  0.81949998  0.37758959  1
  Ca2+  Ca8  1  0.67336355  0.31778296  0.87505458  1
  Ca2+  Ca9  1  0.33817888  0.31800151  0.87727305  1
  Ca2+  Ca10  1  0.83638316  0.84965504  0.62486581  1
  Ca2+  Ca11  1  0.16930157  0.84934677  0.62301093  1
  Ca2+  Ca12  1  0.66473357  0.34399690  0.62769993  1
  Ca2+  Ca13  1  0.67125811  0.98789846  0.87480315  1
  Ca2+  Ca14  1  0.33144508  0.34660566  0.12545687  1
  Ca2+  Ca15  1  0.83440012  0.18053250  0.62730183  1
  Ca2+  Ca16  1  0.49585773  0.48098034  0.37585306  1
  Ca2+  Ca17  1  0.83558139  0.18491072  0.12336025  1
  Ca2+  Ca18  1  0.82642199  0.48065399  0.87413172  1
  Ca2+  Ca19  1  -0.00388744  0.34658029  0.12386799  1
  Ca2+  Ca20  1  0.34016818  0.32039283  0.37229749  1
  Ca2+  Ca21  1  0.50370715  0.84888111  0.12640645  1
  Pr3+  Pr22  1  0.32872245  0.01195907  0.62443390  1
  Pr3+  Pr23  1  0.66170539  0.68105151  0.12556681  1
  Pr3+  Pr24  1  0.32971396  0.68178310  0.62565686  1
  Pr3+  Pr25  1  -0.00356346  0.34209700  0.62596669  1
  Pr3+  Pr26  1  0.16546145  0.48536593  0.37518912  1
  Pr3+  Pr27  1  -0.00627866  0.01644127  0.12532595  1
  Pr3+  Pr28  1  0.50005096  0.82167023  0.87577878  1
  Pr3+  Pr29  1  0.16982599  0.50964675  0.12460294  1
  Pr3+  Pr30  1  0.16950239  0.84684024  0.12628396  1
  Pr3+  Pr31  1  0.49549095  0.82205871  0.37428005  1
  Pr3+  Pr32  1  0.33596423  0.98846393  0.87606815  1
  Pr3+  Pr33  1  0.49819456  0.48239246  0.87368615  1
  Pr3+  Pr34  1  0.82962737  0.15703706  0.37498164  1
  Pr3+  Pr35  1  0.83104680  0.48800157  0.37557814  1
  Pr3+  Pr36  1  0.16534351  0.48481182  0.87487114  1
  Pr3+  Pr37  1  0.83181031  0.50900299  0.62533874  1
  Pr3+  Pr38  1  0.99975296  0.65207998  0.87492857  1
  Pr3+  Pr39  1  0.50346532  0.15652268  0.87750494  1
  Pr3+  Pr40  1  0.83550657  0.50883386  0.12445122  1
  Pr3+  Pr41  1  0.16524796  0.15488582  0.37510136  1
  Pr3+  Pr42  1  1.00249308  0.32022390  0.37418493  1
  Pr3+  Pr43  1  0.66366497  0.01434639  0.12428644  1
  Pr3+  Pr44  1  0.49743714  0.15697173  0.37302298  1
  Pr3+  Pr45  1  -0.00596322  0.68218435  0.62478841  1
  Pr3+  Pr46  1  0.17171279  0.18257881  0.12442954  1
  Pr3+  Pr47  1  -0.00270682  0.67850282  0.12515297  1
  Pr3+  Pr48  1  0.50334756  0.84658203  0.62410289  1
  Pr3+  Pr49  1  0.16914659  0.51218015  0.62532632  1
  Pr3+  Pr50  1  0.83545906  0.84729377  0.12599935  1
  Pr3+  Pr51  1  0.50524799  0.18007849  0.62452551  1
  Pr3+  Pr52  1  0.50197561  0.50630790  0.12648600  1
  Pr3+  Pr53  1  0.82916250  0.82523383  0.87207834  1
  Pr3+  Pr54  1  1.00379595  0.65498697  0.37509134  1
  Pr3+  Pr55  1  0.50669960  0.51128413  0.62293921  1
  Pr3+  Pr56  1  0.99828760  0.32007402  0.87621196  1
  Pr3+  Pr57  1  0.99989461  0.98966977  0.87314079  1
  Pr3+  Pr58  1  0.66496757  0.34166760  0.12336460  1
  Pr3+  Pr59  1  0.67206974  0.65130533  0.87286196  1
  Pr3+  Pr60  1  0.16255719  0.82102645  0.87333786  1
  Pr3+  Pr61  1  0.66746679  0.99023918  0.37439391  1
  Pr3+  Pr62  1  0.33731827  0.65316005  0.87503198  1
  Pr3+  Pr63  1  0.16272096  0.15489054  0.87493484  1
  Pr3+  Pr64  1  1.00547947  0.98469902  0.37667869  1
  Pr3+  Pr65  1  0.33169267  0.34545697  0.62552907  1
  Pr3+  Pr66  1  0.33337552  0.01301851  0.12585940  1
  Pr3+  Pr67  1  0.66864112  0.65429121  0.37677872  1
  Pr3+  Pr68  1  0.66900298  0.01015488  0.62531845  1
  Pr3+  Pr69  1  0.33193379  0.67870612  0.12466657  1
  Pr3+  Pr70  1  0.33647993  0.65321896  0.37545773  1
  Pr3+  Pr71  1  0.16825871  0.17694894  0.62558192  1
  Mn3.30+  Mn72  1  0.16531254  0.00078193  0.00058771  1
  Mn3.30+  Mn73  1  0.16605052  -0.00179439  0.50020651  1
  Mn3.30+  Mn74  1  0.16786062  0.33332691  0.00036509  1
  Mn3.30+  Mn75  1  0.16877064  0.33217081  0.49921567  1
  Mn3.30+  Mn76  1  0.16681631  0.66571152  -0.00107339  1
  Mn3.30+  Mn77  1  0.16710027  0.66870677  0.50132090  1
  Mn3.30+  Mn78  1  0.50267075  -0.00034328  -0.00111743  1
  Mn3.30+  Mn79  1  0.49835860  0.00100577  0.50034504  1
  Mn3.30+  Mn80  1  0.49963867  0.33170195  -0.00031942  1
  Mn3.30+  Mn81  1  0.49971077  0.33306785  0.49917574  1
  Mn3.30+  Mn82  1  0.50152673  0.66592468  0.00051942  1
  Mn3.30+  Mn83  1  0.50030499  0.66547079  0.49945826  1
  Mn3.30+  Mn84  1  0.83073704  0.00267256  -0.00015730  1
  Mn3.30+  Mn85  1  0.83429094  0.00151391  0.50023570  1
  Mn3.30+  Mn86  1  0.83260151  0.33291243  -0.00008301  1
  Mn3.30+  Mn87  1  0.83145620  0.33255121  0.50180687  1
  Mn3.30+  Mn88  1  0.83188879  0.66563616  -0.00053013  1
  Mn3.30+  Mn89  1  0.83340699  0.66888494  0.50053594  1
  Mn3.30+  Mn90  1  -0.00180318  0.16892453  0.24804301  1
  Mn3.30+  Mn91  1  -0.00364585  0.16616911  0.74972346  1
  Mn3.30+  Mn92  1  0.00114184  0.49840830  0.24897363  1
  Mn3.30+  Mn93  1  -0.00209025  0.49876019  0.75161606  1
  Mn3.30+  Mn94  1  0.00155012  0.83254944  0.25109344  1
  Mn3.30+  Mn95  1  -0.00166898  0.83493082  0.74755642  1
  Mn3.30+  Mn96  1  0.33291534  0.16980409  0.24895857  1
  Mn3.30+  Mn97  1  0.33515538  0.16758058  0.75191382  1
  Mn3.30+  Mn98  1  0.33543689  0.49739293  0.25068791  1
  Mn3.30+  Mn99  1  0.33502647  0.49820661  0.75051513  1
  Mn3.30+  Mn100  1  0.33320838  0.83332636  0.24986859  1
  Mn3.30+  Mn101  1  0.33219445  0.83390470  0.75033889  1
  Mn3.30+  Mn102  1  0.66706390  0.16885905  0.24943626  1
  Mn3.30+  Mn103  1  0.66944526  0.16731535  0.74880631  1
  Mn3.30+  Mn104  1  0.66609639  0.49905507  0.25118417  1
  Mn3.30+  Mn105  1  0.66719648  0.49628430  0.75057268  1
  Mn3.30+  Mn106  1  0.66530718  0.83413351  0.25011269  1
  Mn3.30+  Mn107  1  0.66730985  0.83474097  0.74844576  1
  Mn3.30+  Mn108  1  0.16550388  -0.00032941  0.25042035  1
  Mn3.30+  Mn109  1  0.16614008  -0.00067640  0.74888237  1
  Mn3.30+  Mn110  1  0.16866379  0.33355162  0.24915355  1
  Mn3.30+  Mn111  1  0.16788319  0.33214563  0.75190185  1
  Mn3.30+  Mn112  1  0.16811466  0.66669466  0.25055826  1
  Mn3.30+  Mn113  1  0.16558342  0.66762369  0.74931484  1
  Mn3.30+  Mn114  1  0.49946707  -0.00033820  0.24884244  1
  Mn3.30+  Mn115  1  0.50156132  0.00102820  0.75167514  1
  Mn3.30+  Mn116  1  0.49781459  0.33310284  0.24932411  1
  Mn3.30+  Mn117  1  0.50217622  0.33124632  0.75156812  1
  Mn3.30+  Mn118  1  0.49964680  0.66512821  0.24973454  1
  Mn3.30+  Mn119  1  0.50191442  0.66614904  0.74975936  1
  Mn3.30+  Mn120  1  0.83330065  0.00281510  0.25018186  1
  Mn3.30+  Mn121  1  0.83207434  0.00177741  0.74978966  1
  Mn3.30+  Mn122  1  0.83468721  0.33328486  0.24915053  1
  Mn3.30+  Mn123  1  0.82945234  0.33242667  0.74921178  1
  Mn3.30+  Mn124  1  0.83269013  0.66756130  0.25091402  1
  Mn3.30+  Mn125  1  0.83333286  0.66655082  0.74923801  1
  Mn3.30+  Mn126  1  -0.00253444  0.16873480  0.00145996  1
  Mn3.30+  Mn127  1  -0.00291184  0.16624097  0.50120449  1
  Mn3.30+  Mn128  1  -0.00174789  0.49744070  -0.00149016  1
  Mn3.30+  Mn129  1  0.00079699  0.49951275  0.50116681  1
  Mn3.30+  Mn130  1  -0.00101542  0.83390516  -0.00021448  1
  Mn3.30+  Mn131  1  0.00071175  0.83342825  0.50117432  1
  Mn3.30+  Mn132  1  0.33357610  0.16939800  -0.00053633  1
  Mn3.30+  Mn133  1  0.33454476  0.16773714  0.49969249  1
  Mn3.30+  Mn134  1  0.33493058  0.49667859  -0.00071122  1
  Mn3.30+  Mn135  1  0.33588800  0.49840192  0.49935046  1
  Mn3.30+  Mn136  1  0.33497712  0.83351487  0.00156093  1
  Mn3.30+  Mn137  1  0.33031167  0.83380271  0.49830406  1
  Mn3.30+  Mn138  1  0.66859852  0.16733388  0.00053230  1
  Mn3.30+  Mn139  1  0.66787382  0.16928941  0.50147138  1
  Mn3.30+  Mn140  1  0.66835660  0.49762390  -0.00132920  1
  Mn3.30+  Mn141  1  0.66520706  0.49820395  0.49914440  1
  Mn3.30+  Mn142  1  0.66551959  0.83462660  -0.00006644  1
  Mn3.30+  Mn143  1  0.66750142  0.83426299  0.50080600  1
  O2-  O144  1  0.02794242  0.16143359  0.12472076  1
  O2-  O145  1  0.02418732  0.17049057  0.62582867  1
  O2-  O146  1  0.02594808  0.49399753  0.12204316  1
  O2-  O147  1  0.02607620  0.49188606  0.62580812  1
  O2-  O148  1  0.02520277  0.82775292  0.12437081  1
  O2-  O149  1  0.02786342  0.82873997  0.62547070  1
  O2-  O150  1  0.35043203  0.15931543  0.12360082  1
  O2-  O151  1  0.35971565  0.15933109  0.62844712  1
  O2-  O152  1  0.35785154  0.49421791  0.12273651  1
  O2-  O153  1  0.36109372  0.49393151  0.62563166  1
  O2-  O154  1  0.36130631  0.82659899  0.12299027  1
  O2-  O155  1  0.35945033  0.82912861  0.62553665  1
  O2-  O156  1  0.69283988  0.16154516  0.12585793  1
  O2-  O157  1  0.69353820  0.15668001  0.62436785  1
  O2-  O158  1  0.69089251  0.49327056  0.12401645  1
  O2-  O159  1  0.68737820  0.49195523  0.62500923  1
  O2-  O160  1  0.69259623  0.82759021  0.12498702  1
  O2-  O161  1  0.69183544  0.83484621  0.62393515  1
  O2-  O162  1  0.13830140  0.33077990  0.12447907  1
  O2-  O163  1  0.14160669  0.32781456  0.62667709  1
  O2-  O164  1  0.14148973  0.65790310  0.12270750  1
  O2-  O165  1  0.13884228  0.65715245  0.62625707  1
  O2-  O166  1  0.13889100  0.99464119  0.12541580  1
  O2-  O167  1  0.14816953  0.99783552  0.62535381  1
  O2-  O168  1  0.47382506  0.33675776  0.12349702  1
  O2-  O169  1  0.47389795  0.32859694  0.62657024  1
  O2-  O170  1  0.47429453  0.65448656  0.12470455  1
  O2-  O171  1  0.47420233  0.66014431  0.62406706  1
  O2-  O172  1  0.47641732  0.99402939  0.12310040  1
  O2-  O173  1  0.47238287  0.99540873  0.62732903  1
  O2-  O174  1  0.81003437  0.33419335  0.12528096  1
  O2-  O175  1  0.80825566  0.32906047  0.62443004  1
  O2-  O176  1  0.80678928  0.65847048  0.12472421  1
  O2-  O177  1  0.81500598  0.65633429  0.62550548  1
  O2-  O178  1  0.80844721  0.99295226  0.12522441  1
  O2-  O179  1  0.81196263  0.99321444  0.62411080  1
  O2-  O180  1  0.30916403  0.17494678  0.37273421  1
  O2-  O181  1  0.30669122  0.17189275  0.87525476  1
  O2-  O182  1  0.30680043  0.50739874  0.37704461  1
  O2-  O183  1  0.30823209  0.50739350  0.87443109  1
  O2-  O184  1  0.30624264  0.83196244  0.37511011  1
  O2-  O185  1  0.30661434  0.83867576  0.87666785  1
  O2-  O186  1  0.64199003  0.16921448  0.37602674  1
  O2-  O187  1  0.64574042  0.17433524  0.87388745  1
  O2-  O188  1  0.64049789  0.50657715  0.37440260  1
  O2-  O189  1  0.64101695  0.50593353  0.87589984  1
  O2-  O190  1  0.63953238  0.84033304  0.37532992  1
  O2-  O191  1  0.64283517  0.84000730  0.87520170  1
  O2-  O192  1  0.97465746  0.17307837  0.37369518  1
  O2-  O193  1  0.97928563  0.17121098  0.87590774  1
  O2-  O194  1  0.97622629  0.50570941  0.37661988  1
  O2-  O195  1  0.97031394  0.50496459  0.87579842  1
  O2-  O196  1  0.98143343  0.83437572  0.37489016  1
  O2-  O197  1  0.97452504  0.83875736  0.87552644  1
  O2-  O198  1  0.18402056  0.00807412  0.37429811  1
  O2-  O199  1  0.19067559  0.00509768  0.87547429  1
  O2-  O200  1  0.19574439  0.33734346  0.37502219  1
  O2-  O201  1  0.19531772  0.33731979  0.87437473  1
  O2-  O202  1  0.19207023  0.67317374  0.37708505  1
  O2-  O203  1  0.19347666  0.67388633  0.87413830  1
  O2-  O204  1  0.52241372  0.00537331  0.37458784  1
  O2-  O205  1  0.52877677  0.00677572  0.87461359  1
  O2-  O206  1  0.51795243  0.33300554  0.37506118  1
  O2-  O207  1  0.52976457  0.33502766  0.87451043  1
  O2-  O208  1  0.52472435  0.67621045  0.37383804  1
  O2-  O209  1  0.52694925  0.67389399  0.87696667  1
  O2-  O210  1  0.86077443  0.00973834  0.37393971  1
  O2-  O211  1  0.85656610  -0.00008117  0.87649309  1
  O2-  O212  1  0.85906688  0.33871684  0.37483645  1
  O2-  O213  1  0.85565293  0.33739764  0.87496875  1
  O2-  O214  1  0.85965020  0.66875822  0.37574780  1
  O2-  O215  1  0.85733293  0.67726789  0.87408436  1
  O2-  O216  1  0.23721098  0.09415062  0.01859360  1
  O2-  O217  1  0.24002441  0.09515455  0.51871861  1
  O2-  O218  1  0.23482788  0.42931149  0.01739622  1
  O2-  O219  1  0.23925604  0.42942558  0.52246009  1
  O2-  O220  1  0.23835678  0.76083836  0.02126939  1
  O2-  O221  1  0.23792547  0.76061682  0.52597638  1
  O2-  O222  1  0.57406448  0.09331077  0.01779921  1
  O2-  O223  1  0.57481123  0.09498535  0.51993875  1
  O2-  O224  1  0.57158141  0.42792705  0.01918525  1
  O2-  O225  1  0.56834487  0.42603396  0.51634385  1
  O2-  O226  1  0.56995359  0.76217003  0.02244698  1
  O2-  O227  1  0.56970248  0.76442524  0.51697721  1
  O2-  O228  1  0.90494937  0.09546805  0.02369397  1
  O2-  O229  1  0.90201515  0.10037184  0.51815256  1
  O2-  O230  1  0.90431276  0.42838136  0.01868561  1
  O2-  O231  1  0.90564698  0.42648925  0.52106935  1
  O2-  O232  1  0.90476161  0.76096755  0.02179582  1
  O2-  O233  1  0.90597015  0.76148670  0.52398597  1
  O2-  O234  1  0.26004515  0.26250046  0.22481816  1
  O2-  O235  1  0.26167312  0.25781595  0.72709327  1
  O2-  O236  1  0.26313150  0.59418541  0.23010244  1
  O2-  O237  1  0.26055168  0.59601632  0.72934364  1
  O2-  O238  1  0.26102560  0.92681408  0.22509035  1
  O2-  O239  1  0.26433651  0.92921892  0.73400988  1
  O2-  O240  1  0.59448605  0.26076740  0.23031850  1
  O2-  O241  1  0.59425199  0.25898776  0.72539340  1
  O2-  O242  1  0.59459228  0.59456520  0.22873719  1
  O2-  O243  1  0.59442821  0.59130041  0.73331137  1
  O2-  O244  1  0.59574706  0.92802516  0.23137705  1
  O2-  O245  1  0.59247779  0.92718810  0.72682532  1
  O2-  O246  1  0.93284121  0.26593006  0.23128273  1
  O2-  O247  1  0.92900371  0.26439858  0.73437278  1
  O2-  O248  1  0.92906540  0.59337510  0.22900963  1
  O2-  O249  1  0.93066128  0.59451443  0.73130199  1
  O2-  O250  1  0.92839807  0.92971629  0.23150462  1
  O2-  O251  1  0.92703759  0.92891849  0.73695646  1
  O2-  O252  1  0.09704300  0.23838787  0.27118849  1
  O2-  O253  1  0.09409581  0.23930751  0.77069126  1
  O2-  O254  1  0.09602595  0.57119452  0.27067550  1
  O2-  O255  1  0.09600914  0.57218005  0.77280150  1
  O2-  O256  1  0.09677431  0.90294408  0.26981537  1
  O2-  O257  1  0.09216112  0.90616103  0.77245557  1
  O2-  O258  1  0.42778788  0.23932872  0.26803944  1
  O2-  O259  1  0.43185734  0.23568637  0.76937638  1
  O2-  O260  1  0.42961558  0.56995803  0.27216138  1
  O2-  O261  1  0.42741969  0.57124077  0.77161471  1
  O2-  O262  1  0.42718005  0.90380169  0.26770608  1
  O2-  O263  1  0.42941598  0.90699704  0.77304573  1
  O2-  O264  1  0.76380163  0.24004049  0.26605544  1
  O2-  O265  1  0.76113817  0.23880137  0.76479406  1
  O2-  O266  1  0.76139684  0.57381856  0.27156240  1
  O2-  O267  1  0.76167916  0.56901051  0.76974520  1
  O2-  O268  1  0.76015449  0.90991804  0.26782452  1
  O2-  O269  1  0.76032035  0.90590497  0.76790554  1
  O2-  O270  1  0.07111528  0.07468141  0.48024611  1
  O2-  O271  1  0.06997258  0.07281237  0.98030536  1
  O2-  O272  1  0.07401091  0.40522694  0.47942235  1
  O2-  O273  1  0.07310046  0.40627280  0.97452409  1
  O2-  O274  1  0.06889636  0.73518978  0.48352208  1
  O2-  O275  1  0.07161600  0.73818745  0.97862328  1
  O2-  O276  1  0.40767908  0.07439415  0.48152555  1
  O2-  O277  1  0.40708065  0.07240475  0.97988050  1
  O2-  O278  1  0.40080384  0.40097559  0.48292517  1
  O2-  O279  1  0.40717426  0.40545079  0.97427522  1
  O2-  O280  1  0.40299800  0.73725140  0.48133448  1
  O2-  O281  1  0.40577948  0.73710145  0.97853043  1
  O2-  O282  1  0.73854815  0.07423293  0.47821072  1
  O2-  O283  1  0.73487767  0.06727020  0.98298074  1
  O2-  O284  1  0.74445800  0.41113173  0.48024174  1
  O2-  O285  1  0.73617748  0.40250546  0.98187989  1
  O2-  O286  1  0.73695842  0.73936381  0.47998512  1
  O2-  O287  1  0.73523798  0.73833498  0.98028304  1
  O2-  O288  1  0.09412246  0.23816763  0.47943099  1
  O2-  O289  1  0.09732555  0.23910841  0.97970023  1
  O2-  O290  1  0.09749338  0.57238378  0.47969455  1
  O2-  O291  1  0.09364730  0.57123566  0.97637432  1
  O2-  O292  1  0.09448654  0.90417027  0.47925405  1
  O2-  O293  1  0.09449005  0.90569907  0.97923246  1
  O2-  O294  1  0.43065292  0.23638752  0.48452876  1
  O2-  O295  1  0.42884101  0.23929468  0.97801687  1
  O2-  O296  1  0.42796882  0.56900863  0.47757621  1
  O2-  O297  1  0.43040884  0.57174446  0.97765014  1
  O2-  O298  1  0.42742123  0.90140879  0.48269842  1
  O2-  O299  1  0.42766674  0.90818008  0.97568219  1
  O2-  O300  1  0.76292841  0.23915064  0.48063991  1
  O2-  O301  1  0.76135293  0.23990570  0.98816426  1
  O2-  O302  1  0.76150805  0.57454052  0.48052440  1
  O2-  O303  1  0.76223495  0.56968534  0.97731594  1
  O2-  O304  1  0.75494391  0.91318073  0.47944507  1
  O2-  O305  1  0.76372513  0.90157487  0.98421133  1
  O2-  O306  1  0.06749561  0.07288701  0.26885169  1
  O2-  O307  1  0.07346020  0.07466438  0.77060175  1
  O2-  O308  1  0.07491400  0.40587208  0.27356607  1
  O2-  O309  1  0.07098108  0.40624957  0.77267240  1
  O2-  O310  1  0.07224187  0.73456179  0.26566638  1
  O2-  O311  1  0.07010252  0.73731020  0.77213940  1
  O2-  O312  1  0.40701610  0.07557623  0.26453206  1
  O2-  O313  1  0.40617284  0.07256306  0.77432925  1
  O2-  O314  1  0.40367042  0.40555863  0.27011262  1
  O2-  O315  1  0.40545835  0.40084293  0.77231520  1
  O2-  O316  1  0.40419837  0.73552378  0.26931997  1
  O2-  O317  1  0.40325851  0.73956148  0.77026939  1
  O2-  O318  1  0.73926052  0.07391448  0.27170582  1
  O2-  O319  1  0.73399696  0.06764017  0.76653919  1
  O2-  O320  1  0.74345082  0.40911094  0.26788443  1
  O2-  O321  1  0.73612131  0.40298350  0.76964083  1
  O2-  O322  1  0.73391942  0.73812373  0.26736014  1
  O2-  O323  1  0.73871807  0.74006698  0.77130684  1
  O2-  O324  1  0.23682651  0.09493534  0.23127168  1
  O2-  O325  1  0.24069841  0.09485176  0.73125281  1
  O2-  O326  1  0.23628431  0.43058662  0.23172514  1
  O2-  O327  1  0.23897151  0.42849546  0.72909785  1
  O2-  O328  1  0.24047858  0.75932425  0.22462195  1
  O2-  O329  1  0.23467458  0.76218894  0.72845418  1
  O2-  O330  1  0.57623357  0.09155509  0.23315359  1
  O2-  O331  1  0.57193077  0.09483286  0.72909231  1
  O2-  O332  1  0.57341033  0.42423363  0.22972740  1
  O2-  O333  1  0.56764754  0.42899448  0.73273968  1
  O2-  O334  1  0.56850540  0.76047499  0.22746833  1
  O2-  O335  1  0.57039223  0.76460043  0.73310488  1
  O2-  O336  1  0.90310299  0.09835232  0.22597436  1
  O2-  O337  1  0.90354377  0.09667259  0.73177196  1
  O2-  O338  1  0.90521545  0.42999539  0.23303416  1
  O2-  O339  1  0.90354567  0.42546693  0.72782845  1
  O2-  O340  1  0.90644974  0.75947573  0.22706613  1
  O2-  O341  1  0.90599413  0.76395083  0.72773508  1
  O2-  O342  1  0.25981417  0.26339056  0.02309749  1
  O2-  O343  1  0.25991299  0.25859792  0.52524441  1
  O2-  O344  1  0.26274062  0.59386410  0.01899389  1
  O2-  O345  1  0.26240032  0.59497810  0.52237254  1
  O2-  O346  1  0.26107620  0.92839883  0.02194012  1
  O2-  O347  1  0.26296804  0.92730705  0.52003071  1
  O2-  O348  1  0.59423992  0.26070495  0.01951119  1
  O2-  O349  1  0.59477239  0.26045211  0.52428783  1
  O2-  O350  1  0.59629668  0.59438352  0.02007958  1
  O2-  O351  1  0.59312026  0.59319356  0.51788943  1
  O2-  O352  1  0.59585830  0.92716623  0.02096770  1
  O2-  O353  1  0.59156595  0.92892598  0.52050061  1
  O2-  O354  1  0.93182033  0.26519862  0.01787953  1
  O2-  O355  1  0.93067512  0.26484256  0.51575553  1
  O2-  O356  1  0.92943247  0.59410285  0.02085014  1
  O2-  O357  1  0.92933032  0.59335016  0.51991488  1
  O2-  O358  1  0.92731981  0.92966775  0.02056084  1
  O2-  O359  1  0.92839346  0.92725112  0.51142092  1
