# generated using pymatgen
data_Sr7Ca15Pr50Mn72O216
_symmetry_space_group_name_H-M   'P 1'
_cell_length_a   16.55965105
_cell_length_b   16.60357765
_cell_length_c   15.59464166
_cell_angle_alpha   90.00574072
_cell_angle_beta   89.99227000
_cell_angle_gamma   90.00200707
_symmetry_Int_Tables_number   1
_chemical_formula_structural   Sr7Ca15Pr50Mn72O216
_chemical_formula_sum   'Sr7 Ca15 Pr50 Mn72 O216'
_cell_volume   4287.73811374
_cell_formula_units_Z   1
loop_
 _symmetry_equiv_pos_site_id
 _symmetry_equiv_pos_as_xyz
  1  'x, y, z'
loop_
 _atom_type_symbol
 _atom_type_oxidation_number
  Sr2+  2.0
  Ca2+  2.0
  Pr3+  3.0
  Mn3.30+  3.3
  O2-  -2.0
loop_
 _atom_site_type_symbol
 _atom_site_label
 _atom_site_symmetry_multiplicity
 _atom_site_fract_x
 _atom_site_fract_y
 _atom_site_fract_z
 _atom_site_occupancy
  Sr2+  Sr0  1  0.66590001  0.32437192  0.87419846  1
  Sr2+  Sr1  1  0.66350187  0.34515963  0.62642704  1
  Sr2+  Sr2  1  0.50237327  0.17636865  0.12322407  1
  Sr2+  Sr3  1  0.33522350  0.67464306  0.62393036  1
  Sr2+  Sr4  1  0.82984463  0.15831023  0.87438250  1
  Sr2+  Sr5  1  0.33419629  0.65522409  0.37689115  1
  Sr2+  Sr6  1  0.49893276  0.49474747  0.37727535  1
  Ca2+  Ca7  1  0.16397173  0.48622197  0.37614136  1
  Ca2+  Ca8  1  0.50520564  0.51707471  0.62370830  1
  Ca2+  Ca9  1  0.66272447  0.01683388  0.12271223  1
  Ca2+  Ca10  1  0.82696078  0.48447561  0.87440773  1
  Ca2+  Ca11  1  0.16468960  0.81935199  0.87259989  1
  Ca2+  Ca12  1  0.17112001  0.84634055  0.12473650  1
  Ca2+  Ca13  1  0.33069166  0.01304524  0.62594542  1
  Ca2+  Ca14  1  1.00499591  0.31951853  0.37581249  1
  Ca2+  Ca15  1  0.49892350  0.15360803  0.87297792  1
  Ca2+  Ca16  1  0.66292379  0.01556798  0.62668661  1
  Ca2+  Ca17  1  0.49786349  0.48723579  0.87051347  1
  Ca2+  Ca18  1  0.17101244  0.51363908  0.12626888  1
  Ca2+  Ca19  1  0.66006896  0.67655161  0.62191221  1
  Ca2+  Ca20  1  0.66698505  0.65131879  0.37798099  1
  Ca2+  Ca21  1  0.17408507  0.84725586  0.62596579  1
  Pr3+  Pr22  1  1.00376040  0.98488977  0.87421263  1
  Pr3+  Pr23  1  0.32828505  0.67888865  0.12616310  1
  Pr3+  Pr24  1  0.99947600  0.32019341  0.87438002  1
  Pr3+  Pr25  1  0.83213171  0.15517762  0.37583831  1
  Pr3+  Pr26  1  0.49637408  0.81837682  0.37547947  1
  Pr3+  Pr27  1  0.33080746  0.01353642  0.12483102  1
  Pr3+  Pr28  1  -0.00184813  0.34607612  0.12525453  1
  Pr3+  Pr29  1  0.83191747  0.84418196  0.62515491  1
  Pr3+  Pr30  1  0.82902693  0.48770823  0.37504517  1
  Pr3+  Pr31  1  -0.00518928  0.34575304  0.62447912  1
  Pr3+  Pr32  1  0.16384916  0.15374878  0.37573247  1
  Pr3+  Pr33  1  0.16941594  0.51311774  0.62460717  1
  Pr3+  Pr34  1  0.66349210  0.34430530  0.12320407  1
  Pr3+  Pr35  1  0.17250870  0.18092103  0.12555321  1
  Pr3+  Pr36  1  0.83553856  0.84672390  0.12453603  1
  Pr3+  Pr37  1  0.16346556  0.15270883  0.87476119  1
  Pr3+  Pr38  1  0.83258720  0.17880560  0.62665355  1
  Pr3+  Pr39  1  0.50084359  0.51106745  0.12439478  1
  Pr3+  Pr40  1  -0.00099068  0.01046729  0.62475543  1
  Pr3+  Pr41  1  1.00534288  0.65030120  0.37543107  1
  Pr3+  Pr42  1  0.49770825  0.15638952  0.37623237  1
  Pr3+  Pr43  1  0.00057749  0.67863698  0.12456066  1
  Pr3+  Pr44  1  0.17148411  0.17937163  0.62494667  1
  Pr3+  Pr45  1  0.66969437  0.65154527  0.87365871  1
  Pr3+  Pr46  1  -0.00223264  0.67971803  0.62528253  1
  Pr3+  Pr47  1  -0.00006435  0.01105216  0.12509041  1
  Pr3+  Pr48  1  0.50364878  0.84523942  0.62485522  1
  Pr3+  Pr49  1  0.66944916  0.98836112  0.37526807  1
  Pr3+  Pr50  1  0.83567508  0.51188779  0.12221184  1
  Pr3+  Pr51  1  0.82929127  0.81611156  0.37508226  1
  Pr3+  Pr52  1  0.16666724  0.81921744  0.37564227  1
  Pr3+  Pr53  1  0.66259881  0.67847572  0.12638255  1
  Pr3+  Pr54  1  0.50281841  0.17902471  0.62683876  1
  Pr3+  Pr55  1  0.16541433  0.48829368  0.87416443  1
  Pr3+  Pr56  1  0.49722807  0.82179504  0.87462029  1
  Pr3+  Pr57  1  0.83340035  0.17803435  0.12359085  1
  Pr3+  Pr58  1  0.32970493  0.34961371  0.12542803  1
  Pr3+  Pr59  1  0.33334942  0.34747513  0.62449663  1
  Pr3+  Pr60  1  0.83208629  0.51247900  0.62781431  1
  Pr3+  Pr61  1  0.33653807  0.65287688  0.87288378  1
  Pr3+  Pr62  1  0.66652672  0.32288424  0.37610630  1
  Pr3+  Pr63  1  0.34091818  0.31970684  0.87431585  1
  Pr3+  Pr64  1  0.50332034  0.84885623  0.12478171  1
  Pr3+  Pr65  1  0.33772082  0.98673225  0.87353478  1
  Pr3+  Pr66  1  1.00378541  0.98548441  0.37546645  1
  Pr3+  Pr67  1  1.00194228  0.65409995  0.87462889  1
  Pr3+  Pr68  1  0.66732794  0.99539553  0.87469159  1
  Pr3+  Pr69  1  0.83017112  0.82349547  0.87506595  1
  Pr3+  Pr70  1  0.33548533  0.32679907  0.37532791  1
  Pr3+  Pr71  1  0.33838311  0.98663252  0.37707192  1
  Mn3.30+  Mn72  1  0.16763352  -0.00351348  -0.00074454  1
  Mn3.30+  Mn73  1  0.16991312  -0.00213792  0.50183519  1
  Mn3.30+  Mn74  1  0.16760610  0.33522484  -0.00062458  1
  Mn3.30+  Mn75  1  0.16459313  0.33483151  0.49946690  1
  Mn3.30+  Mn76  1  0.16721476  0.66746040  -0.00029794  1
  Mn3.30+  Mn77  1  0.16724393  0.66629580  0.50062608  1
  Mn3.30+  Mn78  1  0.50155857  0.00217118  -0.00069532  1
  Mn3.30+  Mn79  1  0.50092517  0.00001794  0.50265962  1
  Mn3.30+  Mn80  1  0.49966287  0.33296282  -0.00153721  1
  Mn3.30+  Mn81  1  0.50057367  0.33683611  0.50069997  1
  Mn3.30+  Mn82  1  0.49910474  0.66569694  -0.00121434  1
  Mn3.30+  Mn83  1  0.50102040  0.66603950  0.50025101  1
  Mn3.30+  Mn84  1  0.83263913  0.00107846  0.00070779  1
  Mn3.30+  Mn85  1  0.83245232  -0.00104014  0.50114504  1
  Mn3.30+  Mn86  1  0.83169518  0.33388917  -0.00068407  1
  Mn3.30+  Mn87  1  0.83448367  0.33378555  0.49924751  1
  Mn3.30+  Mn88  1  0.83276939  0.66653999  -0.00096337  1
  Mn3.30+  Mn89  1  0.83037262  0.66544336  0.50135710  1
  Mn3.30+  Mn90  1  0.00117444  0.16749663  0.25025099  1
  Mn3.30+  Mn91  1  0.00029851  0.16508221  0.74997474  1
  Mn3.30+  Mn92  1  0.00288225  0.49829764  0.24928908  1
  Mn3.30+  Mn93  1  -0.00182928  0.49999099  0.75199314  1
  Mn3.30+  Mn94  1  0.00144946  0.83190527  0.24892877  1
  Mn3.30+  Mn95  1  0.00288250  0.83263893  0.74862655  1
  Mn3.30+  Mn96  1  0.33362801  0.16864305  0.25088794  1
  Mn3.30+  Mn97  1  0.33483281  0.16502861  0.74988068  1
  Mn3.30+  Mn98  1  0.33055626  0.50150492  0.25202502  1
  Mn3.30+  Mn99  1  0.33604689  0.50054507  0.74866571  1
  Mn3.30+  Mn100  1  0.33286045  0.83318944  0.24885714  1
  Mn3.30+  Mn101  1  0.33101931  0.83273373  0.74875896  1
  Mn3.30+  Mn102  1  0.66618772  0.16635092  0.25004757  1
  Mn3.30+  Mn103  1  0.66488111  0.16716470  0.75058486  1
  Mn3.30+  Mn104  1  0.66677783  0.50057484  0.25083268  1
  Mn3.30+  Mn105  1  0.66399780  0.50038155  0.74990303  1
  Mn3.30+  Mn106  1  0.66641195  0.83322490  0.25040506  1
  Mn3.30+  Mn107  1  0.66535758  0.83428393  0.74940835  1
  Mn3.30+  Mn108  1  0.16808843  -0.00204188  0.25004807  1
  Mn3.30+  Mn109  1  0.16961921  -0.00319180  0.74901010  1
  Mn3.30+  Mn110  1  0.16486791  0.33661290  0.25140589  1
  Mn3.30+  Mn111  1  0.16711223  0.33341996  0.75007049  1
  Mn3.30+  Mn112  1  0.16647179  0.66393061  0.24989747  1
  Mn3.30+  Mn113  1  0.16764311  0.66943818  0.74971910  1
  Mn3.30+  Mn114  1  0.50278254  0.00103728  0.25026218  1
  Mn3.30+  Mn115  1  0.49967203  0.00069156  0.74797421  1
  Mn3.30+  Mn116  1  0.49943604  0.33453353  0.24950183  1
  Mn3.30+  Mn117  1  0.50078197  0.33540668  0.75067042  1
  Mn3.30+  Mn118  1  0.49844955  0.66597435  0.25033529  1
  Mn3.30+  Mn119  1  0.50211577  0.66588869  0.74918754  1
  Mn3.30+  Mn120  1  0.83293146  -0.00016472  0.24944775  1
  Mn3.30+  Mn121  1  0.83192496  0.00029267  0.74880718  1
  Mn3.30+  Mn122  1  0.83542169  0.33303080  0.25139571  1
  Mn3.30+  Mn123  1  0.83043580  0.33494182  0.75025054  1
  Mn3.30+  Mn124  1  0.83251641  0.66516849  0.25021932  1
  Mn3.30+  Mn125  1  0.83078837  0.66671381  0.74980194  1
  Mn3.30+  Mn126  1  0.00083671  0.16547687  0.00013701  1
  Mn3.30+  Mn127  1  0.00077443  0.16687190  0.49992502  1
  Mn3.30+  Mn128  1  0.00081604  0.49969208  -0.00070533  1
  Mn3.30+  Mn129  1  -0.00002695  0.49833050  0.49938094  1
  Mn3.30+  Mn130  1  0.00325008  0.83244008  0.00021165  1
  Mn3.30+  Mn131  1  0.00130583  0.83220932  0.50137432  1
  Mn3.30+  Mn132  1  0.33531199  0.16713095  -0.00088310  1
  Mn3.30+  Mn133  1  0.33334138  0.16665657  0.50081662  1
  Mn3.30+  Mn134  1  0.33329321  0.50042297  -0.00115781  1
  Mn3.30+  Mn135  1  0.33352983  0.50167227  0.50010669  1
  Mn3.30+  Mn136  1  0.33042406  0.83276820  -0.00098137  1
  Mn3.30+  Mn137  1  0.33289499  0.83305044  0.50356628  1
  Mn3.30+  Mn138  1  0.66530978  0.16696036  -0.00128993  1
  Mn3.30+  Mn139  1  0.66572337  0.16648514  0.50090600  1
  Mn3.30+  Mn140  1  0.66650818  0.49932469  -0.00209353  1
  Mn3.30+  Mn141  1  0.66469794  0.50155189  0.50106476  1
  Mn3.30+  Mn142  1  0.66585337  0.83576465  0.00050887  1
  Mn3.30+  Mn143  1  0.66613869  0.83162257  0.50030705  1
  O2-  O144  1  0.02844258  0.16017108  0.12466400  1
  O2-  O145  1  0.02714999  0.16032423  0.62533790  1
  O2-  O146  1  0.02973619  0.49255911  0.12415864  1
  O2-  O147  1  0.02571465  0.49352457  0.62779812  1
  O2-  O148  1  0.02826842  0.82763228  0.12498455  1
  O2-  O149  1  0.02923318  0.82761946  0.62521256  1
  O2-  O150  1  0.35169578  0.16223092  0.12545255  1
  O2-  O151  1  0.35820679  0.16054963  0.62490901  1
  O2-  O152  1  0.35610788  0.49843991  0.12318884  1
  O2-  O153  1  0.35847954  0.49551474  0.62638405  1
  O2-  O154  1  0.35930237  0.82833756  0.12290965  1
  O2-  O155  1  0.35997005  0.82904775  0.62555941  1
  O2-  O156  1  0.68977345  0.16303884  0.12795879  1
  O2-  O157  1  0.68881690  0.16170617  0.62308947  1
  O2-  O158  1  0.69162332  0.49521527  0.12505936  1
  O2-  O159  1  0.68986922  0.49937077  0.62540276  1
  O2-  O160  1  0.69310311  0.82396198  0.12653519  1
  O2-  O161  1  0.69051677  0.82052816  0.62446659  1
  O2-  O162  1  0.14166188  0.32644209  0.12415975  1
  O2-  O163  1  0.13892377  0.32716708  0.62552658  1
  O2-  O164  1  0.14238873  0.65550971  0.12461174  1
  O2-  O165  1  0.14077903  0.65893984  0.62551852  1
  O2-  O166  1  0.14336393  0.99251112  0.12337418  1
  O2-  O167  1  0.14189023  0.99322935  0.62473089  1
  O2-  O168  1  0.47506527  0.33146355  0.12439183  1
  O2-  O169  1  0.47606005  0.32494541  0.62532856  1
  O2-  O170  1  0.47408821  0.66081813  0.12197562  1
  O2-  O171  1  0.48497142  0.66562873  0.62742847  1
  O2-  O172  1  0.47431946  0.99626707  0.12623785  1
  O2-  O173  1  0.47151994  0.99361736  0.62517840  1
  O2-  O174  1  0.80883099  0.32778443  0.12745589  1
  O2-  O175  1  0.81499755  0.32825953  0.62392322  1
  O2-  O176  1  0.80664050  0.66063720  0.12415078  1
  O2-  O177  1  0.80401228  0.66094532  0.62683850  1
  O2-  O178  1  0.80655283  0.99390792  0.12695835  1
  O2-  O179  1  0.80613229  0.99195481  0.62291665  1
  O2-  O180  1  0.30705520  0.17456909  0.37527684  1
  O2-  O181  1  0.30612535  0.17226107  0.87481067  1
  O2-  O182  1  0.30787658  0.49667213  0.37632028  1
  O2-  O183  1  0.30915439  0.50275026  0.87370654  1
  O2-  O184  1  0.31059553  0.83972099  0.37643421  1
  O2-  O185  1  0.30680981  0.83964830  0.87540899  1
  O2-  O186  1  0.64275758  0.17329144  0.37589323  1
  O2-  O187  1  0.64274283  0.16337960  0.87309087  1
  O2-  O188  1  0.64950705  0.50351189  0.37453885  1
  O2-  O189  1  0.63960777  0.50558544  0.87482741  1
  O2-  O190  1  0.63982208  0.84343479  0.37362612  1
  O2-  O191  1  0.64069832  0.84696434  0.87591806  1
  O2-  O192  1  0.97630557  0.17111174  0.37499354  1
  O2-  O193  1  0.98116723  0.16962080  0.87525321  1
  O2-  O194  1  0.97185567  0.50583497  0.37371817  1
  O2-  O195  1  0.97055992  0.50667145  0.87457781  1
  O2-  O196  1  0.97453498  0.83706191  0.37493744  1
  O2-  O197  1  0.97452050  0.83675423  0.87401930  1
  O2-  O198  1  0.19389964  0.00569515  0.37713238  1
  O2-  O199  1  0.19366800  0.00758520  0.87472335  1
  O2-  O200  1  0.19146368  0.34015139  0.37594412  1
  O2-  O201  1  0.19487282  0.33969831  0.87471581  1
  O2-  O202  1  0.18437753  0.67366567  0.37519901  1
  O2-  O203  1  0.19137848  0.67403400  0.87445123  1
  O2-  O204  1  0.52609899  0.00541778  0.37633245  1
  O2-  O205  1  0.52318142  0.00286929  0.87255263  1
  O2-  O206  1  0.52215153  0.33783107  0.37520645  1
  O2-  O207  1  0.51645688  0.34398418  0.87479185  1
  O2-  O208  1  0.52429041  0.67193583  0.37299540  1
  O2-  O209  1  0.52557037  0.67499695  0.87669812  1
  O2-  O210  1  0.85991159  0.00508700  0.37561146  1
  O2-  O211  1  0.85853239  0.00004785  0.87471764  1
  O2-  O212  1  0.86280965  0.33909273  0.37452595  1
  O2-  O213  1  0.85649127  0.33817352  0.87422921  1
  O2-  O214  1  0.86108645  0.66890508  0.37481892  1
  O2-  O215  1  0.85918510  0.67681696  0.87439596  1
  O2-  O216  1  0.23721992  0.09484001  0.01924425  1
  O2-  O217  1  0.23584450  0.09625298  0.51814152  1
  O2-  O218  1  0.23653112  0.43135884  0.02026645  1
  O2-  O219  1  0.23735844  0.42543478  0.52400472  1
  O2-  O220  1  0.23754181  0.76086517  0.02524467  1
  O2-  O221  1  0.23605400  0.76674136  0.51631335  1
  O2-  O222  1  0.57419916  0.09238969  0.01555932  1
  O2-  O223  1  0.56795993  0.09499254  0.51830659  1
  O2-  O224  1  0.57315550  0.42645838  0.02214645  1
  O2-  O225  1  0.57080838  0.43080886  0.51913253  1
  O2-  O226  1  0.57169988  0.76309182  0.02068692  1
  O2-  O227  1  0.57027439  0.76591899  0.51473374  1
  O2-  O228  1  0.90790062  0.09154766  0.02464612  1
  O2-  O229  1  0.90601468  0.09347756  0.52162679  1
  O2-  O230  1  0.90874490  0.42564744  0.02278444  1
  O2-  O231  1  0.90468533  0.42952831  0.52194866  1
  O2-  O232  1  0.90480016  0.76084711  0.02178358  1
  O2-  O233  1  0.90169645  0.75891977  0.52184452  1
  O2-  O234  1  0.25937576  0.26443855  0.23058303  1
  O2-  O235  1  0.26323491  0.25973355  0.72815685  1
  O2-  O236  1  0.26112574  0.59567017  0.23096514  1
  O2-  O237  1  0.25804535  0.59276163  0.73479377  1
  O2-  O238  1  0.26486471  0.92942393  0.23269227  1
  O2-  O239  1  0.26566795  0.93193909  0.73076368  1
  O2-  O240  1  0.59857283  0.26317344  0.23523248  1
  O2-  O241  1  0.58965725  0.25880617  0.73219345  1
  O2-  O242  1  0.59130915  0.59401867  0.22764277  1
  O2-  O243  1  0.60007808  0.60067280  0.73453241  1
  O2-  O244  1  0.59748442  0.92960354  0.22717247  1
  O2-  O245  1  0.59552057  0.92890463  0.72640289  1
  O2-  O246  1  0.92627026  0.25958460  0.22570848  1
  O2-  O247  1  0.92808478  0.25989049  0.73221097  1
  O2-  O248  1  0.93086073  0.59261757  0.22708143  1
  O2-  O249  1  0.92771345  0.59423685  0.72783668  1
  O2-  O250  1  0.92963440  0.92642534  0.22887266  1
  O2-  O251  1  0.92907087  0.92575106  0.72873360  1
  O2-  O252  1  0.09813209  0.23708620  0.26810252  1
  O2-  O253  1  0.09586614  0.23972744  0.77097251  1
  O2-  O254  1  0.09421861  0.56926475  0.27415837  1
  O2-  O255  1  0.09284144  0.57202686  0.77130449  1
  O2-  O256  1  0.09529912  0.90580512  0.27329641  1
  O2-  O257  1  0.09661283  0.90641905  0.77357526  1
  O2-  O258  1  0.42579609  0.24170713  0.27296802  1
  O2-  O259  1  0.42755230  0.23728784  0.77032727  1
  O2-  O260  1  0.42628727  0.57231265  0.26251083  1
  O2-  O261  1  0.42862787  0.57461984  0.77160439  1
  O2-  O262  1  0.43143076  0.90722035  0.26970244  1
  O2-  O263  1  0.42820515  0.90479836  0.77093220  1
  O2-  O264  1  0.76317561  0.23877228  0.27179295  1
  O2-  O265  1  0.76023021  0.23944755  0.76138348  1
  O2-  O266  1  0.76473290  0.57008703  0.26560452  1
  O2-  O267  1  0.76312894  0.57257261  0.77344989  1
  O2-  O268  1  0.76320762  0.90382299  0.27196666  1
  O2-  O269  1  0.76137562  0.90510649  0.76856909  1
  O2-  O270  1  0.07232501  0.07019084  0.48007724  1
  O2-  O271  1  0.07319967  0.06891425  0.98016284  1
  O2-  O272  1  0.06729383  0.40084608  0.48297544  1
  O2-  O273  1  0.07040042  0.40590485  0.97549270  1
  O2-  O274  1  0.06923265  0.73706418  0.48082881  1
  O2-  O275  1  0.06915082  0.73473211  0.98243631  1
  O2-  O276  1  0.40706984  0.07427331  0.47667150  1
  O2-  O277  1  0.40190328  0.07124113  0.98283887  1
  O2-  O278  1  0.40172315  0.40366895  0.48538181  1
  O2-  O279  1  0.40069986  0.40261067  0.98617864  1
  O2-  O280  1  0.40915269  0.74345051  0.48175452  1
  O2-  O281  1  0.40259566  0.73921966  0.97850688  1
  O2-  O282  1  0.74032729  0.07374055  0.47728148  1
  O2-  O283  1  0.73836106  0.07248633  0.98371000  1
  O2-  O284  1  0.74059192  0.40620757  0.47871884  1
  O2-  O285  1  0.73934508  0.40811944  0.98554117  1
  O2-  O286  1  0.73886528  0.73764943  0.47423572  1
  O2-  O287  1  0.73524411  0.74191688  0.97856064  1
  O2-  O288  1  0.09763497  0.23692121  0.48139782  1
  O2-  O289  1  0.09592946  0.23942562  0.97973597  1
  O2-  O290  1  0.09182872  0.56783505  0.48040297  1
  O2-  O291  1  0.09421764  0.57313086  0.97504983  1
  O2-  O292  1  0.09659278  0.90725444  0.47648034  1
  O2-  O293  1  0.09600177  0.90534216  0.97495445  1
  O2-  O294  1  0.42635071  0.24094784  0.48073430  1
  O2-  O295  1  0.42806285  0.23803859  0.97583140  1
  O2-  O296  1  0.42631591  0.57594559  0.48740665  1
  O2-  O297  1  0.42866983  0.56891585  0.97706474  1
  O2-  O298  1  0.43055047  0.90664650  0.47886716  1
  O2-  O299  1  0.42853093  0.90558124  0.98075310  1
  O2-  O300  1  0.76302831  0.24037350  0.47929334  1
  O2-  O301  1  0.76039872  0.23821704  0.98841951  1
  O2-  O302  1  0.76526543  0.56923592  0.48322836  1
  O2-  O303  1  0.76182264  0.57261983  0.97793895  1
  O2-  O304  1  0.76144753  0.90213716  0.47858267  1
  O2-  O305  1  0.76239547  0.90529634  0.98157638  1
  O2-  O306  1  0.07317354  0.07015356  0.27056741  1
  O2-  O307  1  0.07286682  0.06930676  0.76895132  1
  O2-  O308  1  0.06672712  0.39981059  0.26907167  1
  O2-  O309  1  0.07031707  0.40632638  0.77312807  1
  O2-  O310  1  0.06989543  0.73534194  0.26815063  1
  O2-  O311  1  0.06850489  0.73547593  0.76812515  1
  O2-  O312  1  0.40711899  0.07279269  0.27186341  1
  O2-  O313  1  0.40464015  0.07231742  0.77060978  1
  O2-  O314  1  0.40058452  0.40561287  0.26354661  1
  O2-  O315  1  0.40104971  0.40184222  0.76481761  1
  O2-  O316  1  0.40623698  0.74126471  0.26629704  1
  O2-  O317  1  0.40582599  0.74040916  0.77243385  1
  O2-  O318  1  0.74069529  0.07498050  0.27399388  1
  O2-  O319  1  0.73757453  0.07173082  0.76556880  1
  O2-  O320  1  0.74131301  0.40341189  0.27057796  1
  O2-  O321  1  0.74052872  0.41030768  0.76587305  1
  O2-  O322  1  0.73577865  0.73766662  0.27296034  1
  O2-  O323  1  0.73865259  0.74307949  0.77619288  1
  O2-  O324  1  0.23861057  0.09447542  0.23116005  1
  O2-  O325  1  0.23580720  0.09614348  0.73208068  1
  O2-  O326  1  0.23639933  0.42844939  0.22729281  1
  O2-  O327  1  0.23658923  0.42721636  0.72881020  1
  O2-  O328  1  0.23545831  0.76123659  0.22992485  1
  O2-  O329  1  0.23622441  0.76457883  0.73069360  1
  O2-  O330  1  0.57276025  0.09473173  0.23717649  1
  O2-  O331  1  0.57075796  0.09368597  0.72909374  1
  O2-  O332  1  0.57414260  0.42626241  0.22741654  1
  O2-  O333  1  0.56803797  0.43278477  0.73129860  1
  O2-  O334  1  0.57061327  0.76216620  0.22804616  1
  O2-  O335  1  0.56926379  0.76665047  0.73687331  1
  O2-  O336  1  0.90649001  0.09347032  0.22910270  1
  O2-  O337  1  0.90645078  0.09115166  0.72524366  1
  O2-  O338  1  0.90546171  0.42855722  0.22657579  1
  O2-  O339  1  0.90756580  0.42616959  0.72857990  1
  O2-  O340  1  0.90339691  0.75989493  0.22868022  1
  O2-  O341  1  0.90393557  0.75999866  0.72700645  1
  O2-  O342  1  0.26296714  0.26157020  0.02006453  1
  O2-  O343  1  0.26000865  0.26196427  0.52148822  1
  O2-  O344  1  0.26451647  0.59838671  0.01354888  1
  O2-  O345  1  0.25656226  0.59057656  0.51974974  1
  O2-  O346  1  0.26460946  0.93010799  0.01927679  1
  O2-  O347  1  0.26643217  0.93231377  0.51868564  1
  O2-  O348  1  0.59526765  0.26234645  0.01760105  1
  O2-  O349  1  0.59143181  0.26041410  0.51510160  1
  O2-  O350  1  0.59652476  0.59425810  0.02095716  1
  O2-  O351  1  0.59706970  0.59733368  0.51517846  1
  O2-  O352  1  0.59627218  0.92789848  0.02337278  1
  O2-  O353  1  0.59709426  0.93002885  0.52282503  1
  O2-  O354  1  0.92815234  0.26010798  0.01927723  1
  O2-  O355  1  0.92700607  0.25866877  0.52193533  1
  O2-  O356  1  0.93067897  0.59228525  0.02256845  1
  O2-  O357  1  0.92792123  0.59425873  0.52237975  1
  O2-  O358  1  0.92963959  0.92653728  0.02101826  1
  O2-  O359  1  0.92922998  0.92566176  0.52077065  1
