# generated using pymatgen
data_Sr7Ca15Pr50Mn72O216
_symmetry_space_group_name_H-M   'P 1'
_cell_length_a   16.55883213
_cell_length_b   16.60560758
_cell_length_c   15.59375138
_cell_angle_alpha   90.00020977
_cell_angle_beta   89.99722695
_cell_angle_gamma   90.01230739
_symmetry_Int_Tables_number   1
_chemical_formula_structural   Sr7Ca15Pr50Mn72O216
_chemical_formula_sum   'Sr7 Ca15 Pr50 Mn72 O216'
_cell_volume   4287.80542339
_cell_formula_units_Z   1
loop_
 _symmetry_equiv_pos_site_id
 _symmetry_equiv_pos_as_xyz
  1  'x, y, z'
loop_
 _atom_type_symbol
 _atom_type_oxidation_number
  Sr2+  2.0
  Ca2+  2.0
  Pr3+  3.0
  Mn3.30+  3.3
  O2-  -2.0
loop_
 _atom_site_type_symbol
 _atom_site_label
 _atom_site_symmetry_multiplicity
 _atom_site_fract_x
 _atom_site_fract_y
 _atom_site_fract_z
 _atom_site_occupancy
  Sr2+  Sr0  1  0.16725932  0.49167370  0.37566141  1
  Sr2+  Sr1  1  0.49959118  0.48854009  0.87395859  1
  Sr2+  Sr2  1  0.83310887  0.15690746  0.37696910  1
  Sr2+  Sr3  1  0.66251629  0.01223751  0.12469827  1
  Sr2+  Sr4  1  -0.00032642  0.67715241  0.12758051  1
  Sr2+  Sr5  1  0.50064678  0.17657080  0.62668482  1
  Sr2+  Sr6  1  -0.00001713  0.67536693  0.62204763  1
  Ca2+  Ca7  1  0.15926263  0.15154778  0.37879087  1
  Ca2+  Ca8  1  0.17133747  0.18131131  0.62437676  1
  Ca2+  Ca9  1  -0.00317750  0.01784590  0.62263719  1
  Ca2+  Ca10  1  0.50507260  0.85033371  0.12758925  1
  Ca2+  Ca11  1  0.50049996  0.15549335  0.87561345  1
  Ca2+  Ca12  1  0.49440214  0.81795290  0.37317376  1
  Ca2+  Ca13  1  0.49421324  0.48444851  0.37642594  1
  Ca2+  Ca14  1  0.66676785  0.31725846  0.87329474  1
  Ca2+  Ca15  1  1.00320750  0.98835532  0.37681567  1
  Ca2+  Ca16  1  0.50276848  0.51282107  0.62187378  1
  Ca2+  Ca17  1  0.16331477  0.15194891  0.87189460  1
  Ca2+  Ca18  1  0.50421427  0.17898270  0.12275744  1
  Ca2+  Ca19  1  0.83769952  0.18071475  0.62373705  1
  Ca2+  Ca20  1  0.33940703  0.64794993  0.37538996  1
  Ca2+  Ca21  1  0.83007618  0.48529838  0.37610251  1
  Pr3+  Pr22  1  0.33419292  0.32311180  0.37540237  1
  Pr3+  Pr23  1  0.49799015  0.15653378  0.37511402  1
  Pr3+  Pr24  1  -0.00344731  0.01263128  0.12728432  1
  Pr3+  Pr25  1  0.66820574  0.65308306  0.87539955  1
  Pr3+  Pr26  1  0.66849124  0.32162803  0.37550062  1
  Pr3+  Pr27  1  1.00394346  0.98851068  0.87331130  1
  Pr3+  Pr28  1  -0.00339613  0.34480521  0.12555806  1
  Pr3+  Pr29  1  0.66625514  0.01545624  0.62414906  1
  Pr3+  Pr30  1  1.00170523  0.65378431  0.87494652  1
  Pr3+  Pr31  1  0.83439161  0.17842459  0.12662688  1
  Pr3+  Pr32  1  0.83598924  0.51335685  0.12770652  1
  Pr3+  Pr33  1  0.50391809  0.51271697  0.12692001  1
  Pr3+  Pr34  1  1.00454310  0.31601829  0.87360041  1
  Pr3+  Pr35  1  0.66069854  0.68340521  0.12615219  1
  Pr3+  Pr36  1  0.33597741  0.99181023  0.87356705  1
  Pr3+  Pr37  1  1.00204263  0.65241937  0.37514505  1
  Pr3+  Pr38  1  -0.00128606  0.34156993  0.62410858  1
  Pr3+  Pr39  1  0.16389742  0.82121020  0.37481860  1
  Pr3+  Pr40  1  0.16507554  0.82141679  0.87505174  1
  Pr3+  Pr41  1  0.16949733  0.84815739  0.12636364  1
  Pr3+  Pr42  1  0.16866203  0.84715434  0.62367015  1
  Pr3+  Pr43  1  0.66889830  0.98982018  0.37569813  1
  Pr3+  Pr44  1  0.49770208  0.82337988  0.87627256  1
  Pr3+  Pr45  1  0.83994127  0.84715095  0.62367691  1
  Pr3+  Pr46  1  0.83031389  0.82095863  0.87508870  1
  Pr3+  Pr47  1  0.16939615  0.51134419  0.62308670  1
  Pr3+  Pr48  1  0.50238005  0.84627609  0.62222185  1
  Pr3+  Pr49  1  0.33416483  0.01376963  0.12642458  1
  Pr3+  Pr50  1  0.33576349  0.98735453  0.37649455  1
  Pr3+  Pr51  1  0.33881751  0.31679789  0.87490596  1
  Pr3+  Pr52  1  0.33452204  0.34453509  0.12482023  1
  Pr3+  Pr53  1  0.33112952  0.67724839  0.62251086  1
  Pr3+  Pr54  1  0.66260671  0.34585874  0.62481390  1
  Pr3+  Pr55  1  0.83577377  0.51191044  0.62239057  1
  Pr3+  Pr56  1  0.33099277  0.68007141  0.12749720  1
  Pr3+  Pr57  1  0.83276611  0.82438073  0.37490828  1
  Pr3+  Pr58  1  0.32786806  0.01766275  0.62365838  1
  Pr3+  Pr59  1  0.33267080  0.34517588  0.62544368  1
  Pr3+  Pr60  1  1.00454069  0.31994520  0.37652178  1
  Pr3+  Pr61  1  0.66743567  0.65136076  0.37456881  1
  Pr3+  Pr62  1  0.66213441  0.67672202  0.62409233  1
  Pr3+  Pr63  1  0.82580640  0.48430070  0.87390565  1
  Pr3+  Pr64  1  0.66645373  0.99029960  0.87343020  1
  Pr3+  Pr65  1  0.82994918  0.15407215  0.87255061  1
  Pr3+  Pr66  1  0.16931607  0.51254112  0.12682145  1
  Pr3+  Pr67  1  0.16416823  0.48679073  0.87453536  1
  Pr3+  Pr68  1  0.66340235  0.34126312  0.12491721  1
  Pr3+  Pr69  1  0.16996481  0.17843609  0.12542851  1
  Pr3+  Pr70  1  0.33768285  0.65305067  0.87542575  1
  Pr3+  Pr71  1  0.83542974  0.84702452  0.12656512  1
  Mn3.30+  Mn72  1  0.16755624  0.00199282  -0.00022140  1
  Mn3.30+  Mn73  1  0.16338770  0.00275118  0.50067305  1
  Mn3.30+  Mn74  1  0.16717149  0.33157693  -0.00046907  1
  Mn3.30+  Mn75  1  0.16688362  0.33182502  0.49975591  1
  Mn3.30+  Mn76  1  0.16732963  0.66711529  0.00099941  1
  Mn3.30+  Mn77  1  0.16806682  0.66676451  0.49817205  1
  Mn3.30+  Mn78  1  0.50039439  0.00263621  0.00042004  1
  Mn3.30+  Mn79  1  0.49995407  0.00019206  0.49938430  1
  Mn3.30+  Mn80  1  0.50158909  0.33087594  -0.00272994  1
  Mn3.30+  Mn81  1  0.50005923  0.33441269  0.50135103  1
  Mn3.30+  Mn82  1  0.49948594  0.66852160  0.00170065  1
  Mn3.30+  Mn83  1  0.49802968  0.66509444  0.49749725  1
  Mn3.30+  Mn84  1  0.83267141  0.00099112  0.00028042  1
  Mn3.30+  Mn85  1  0.83737234  0.00252726  0.49975120  1
  Mn3.30+  Mn86  1  0.83157546  0.33173241  -0.00159110  1
  Mn3.30+  Mn87  1  0.83290143  0.33256601  0.50012365  1
  Mn3.30+  Mn88  1  0.83293022  0.66665129  0.00147054  1
  Mn3.30+  Mn89  1  0.83230305  0.66627660  0.49794399  1
  Mn3.30+  Mn90  1  0.00189839  0.16529108  0.25316225  1
  Mn3.30+  Mn91  1  0.00146831  0.16510238  0.74620017  1
  Mn3.30+  Mn92  1  -0.00113741  0.49894479  0.25161282  1
  Mn3.30+  Mn93  1  -0.00184445  0.49851647  0.74997263  1
  Mn3.30+  Mn94  1  0.00014536  0.83462153  0.25121807  1
  Mn3.30+  Mn95  1  0.00056837  0.83384813  0.74812110  1
  Mn3.30+  Mn96  1  0.33263139  0.16694083  0.25129066  1
  Mn3.30+  Mn97  1  0.33194652  0.16739335  0.75061257  1
  Mn3.30+  Mn98  1  0.33636028  0.49977293  0.25186193  1
  Mn3.30+  Mn99  1  0.33537862  0.49922555  0.74904655  1
  Mn3.30+  Mn100  1  0.33653891  0.83298774  0.25100963  1
  Mn3.30+  Mn101  1  0.33363679  0.83471723  0.74926836  1
  Mn3.30+  Mn102  1  0.66525789  0.16607582  0.24960601  1
  Mn3.30+  Mn103  1  0.66712793  0.16876251  0.74962127  1
  Mn3.30+  Mn104  1  0.66633235  0.49879091  0.25219431  1
  Mn3.30+  Mn105  1  0.66413199  0.49819705  0.74939840  1
  Mn3.30+  Mn106  1  0.66225548  0.83474907  0.25282757  1
  Mn3.30+  Mn107  1  0.66745119  0.83328904  0.74802398  1
  Mn3.30+  Mn108  1  0.16590858  0.00176030  0.25272033  1
  Mn3.30+  Mn109  1  0.16517298  0.00322010  0.74760666  1
  Mn3.30+  Mn110  1  0.16677698  0.33287744  0.25076877  1
  Mn3.30+  Mn111  1  0.16735998  0.33039815  0.75055519  1
  Mn3.30+  Mn112  1  0.16858451  0.66682692  0.25151063  1
  Mn3.30+  Mn113  1  0.16719720  0.66663264  0.74951648  1
  Mn3.30+  Mn114  1  0.50063570  -0.00019525  0.25055593  1
  Mn3.30+  Mn115  1  0.49993577  0.00235275  0.74862679  1
  Mn3.30+  Mn116  1  0.50001136  0.33237844  0.24996359  1
  Mn3.30+  Mn117  1  0.50117549  0.33257911  0.75111456  1
  Mn3.30+  Mn118  1  0.49785852  0.66776482  0.25241441  1
  Mn3.30+  Mn119  1  0.49919517  0.66567531  0.74860499  1
  Mn3.30+  Mn120  1  0.83343983  0.00145212  0.25261337  1
  Mn3.30+  Mn121  1  0.83647954  0.00195450  0.74744284  1
  Mn3.30+  Mn122  1  0.83294052  0.33369703  0.25213234  1
  Mn3.30+  Mn123  1  0.83194557  0.33126139  0.74893187  1
  Mn3.30+  Mn124  1  0.83182155  0.66659586  0.25166700  1
  Mn3.30+  Mn125  1  0.83340613  0.66643486  0.74890075  1
  Mn3.30+  Mn126  1  0.00127771  0.16561097  -0.00085195  1
  Mn3.30+  Mn127  1  0.00163874  0.16451857  0.50154751  1
  Mn3.30+  Mn128  1  -0.00201062  0.49923705  -0.00053343  1
  Mn3.30+  Mn129  1  -0.00088089  0.49858945  0.49897275  1
  Mn3.30+  Mn130  1  -0.00002224  0.83331688  0.00068013  1
  Mn3.30+  Mn131  1  0.00056631  0.83578785  0.49992440  1
  Mn3.30+  Mn132  1  0.33548046  0.16613865  -0.00028103  1
  Mn3.30+  Mn133  1  0.32908735  0.16840192  0.49855538  1
  Mn3.30+  Mn134  1  0.33467390  0.49898729  0.00004802  1
  Mn3.30+  Mn135  1  0.33716996  0.49984286  0.49964519  1
  Mn3.30+  Mn136  1  0.33523766  0.83563370  0.00238872  1
  Mn3.30+  Mn137  1  0.33499740  0.83180672  0.49757190  1
  Mn3.30+  Mn138  1  0.66431855  0.16686859  -0.00199168  1
  Mn3.30+  Mn139  1  0.66827658  0.16778290  0.50175133  1
  Mn3.30+  Mn140  1  0.66640350  0.49783027  0.00050549  1
  Mn3.30+  Mn141  1  0.66431958  0.49943199  0.49786356  1
  Mn3.30+  Mn142  1  0.66443827  0.83551731  0.00089376  1
  Mn3.30+  Mn143  1  0.66607044  0.83274987  0.49885967  1
  O2-  O144  1  0.02546722  0.16193682  0.12676843  1
  O2-  O145  1  0.02985775  0.16440484  0.62483074  1
  O2-  O146  1  0.02424083  0.49297081  0.12400282  1
  O2-  O147  1  0.02430242  0.49238655  0.62595180  1
  O2-  O148  1  0.02516006  0.83237015  0.12513127  1
  O2-  O149  1  0.02538847  0.82684647  0.62494009  1
  O2-  O150  1  0.36132803  0.16163044  0.12610501  1
  O2-  O151  1  0.35137700  0.16556516  0.62411224  1
  O2-  O152  1  0.35961888  0.49394904  0.12573841  1
  O2-  O153  1  0.36006944  0.49484812  0.62567665  1
  O2-  O154  1  0.36311037  0.82781397  0.12611292  1
  O2-  O155  1  0.35873930  0.82609800  0.62181307  1
  O2-  O156  1  0.69029220  0.16859607  0.12367737  1
  O2-  O157  1  0.69463493  0.16354765  0.62583131  1
  O2-  O158  1  0.69312147  0.49221458  0.12548620  1
  O2-  O159  1  0.69254187  0.49713454  0.62370181  1
  O2-  O160  1  0.69124066  0.83038834  0.12772056  1
  O2-  O161  1  0.69478815  0.82436044  0.62402163  1
  O2-  O162  1  0.14052485  0.32606556  0.12345111  1
  O2-  O163  1  0.14334966  0.32817961  0.62628027  1
  O2-  O164  1  0.14899540  0.66188514  0.12586409  1
  O2-  O165  1  0.14983200  0.66136097  0.62510079  1
  O2-  O166  1  0.14093709  0.99581611  0.12699104  1
  O2-  O167  1  0.13881593  0.99099493  0.62472085  1
  O2-  O168  1  0.47757287  0.32396041  0.12269382  1
  O2-  O169  1  0.47560095  0.32799892  0.62629591  1
  O2-  O170  1  0.47456394  0.65916184  0.12772832  1
  O2-  O171  1  0.47489335  0.66013189  0.62239249  1
  O2-  O172  1  0.47648137  0.99256770  0.12781361  1
  O2-  O173  1  0.47397310  0.99446482  0.62340841  1
  O2-  O174  1  0.80929087  0.32693661  0.12342892  1
  O2-  O175  1  0.80817789  0.32782454  0.62411933  1
  O2-  O176  1  0.80546643  0.66153940  0.12817923  1
  O2-  O177  1  0.80698551  0.66143060  0.62161840  1
  O2-  O178  1  0.81335406  0.99544974  0.12625286  1
  O2-  O179  1  0.80821504  0.99205398  0.62465263  1
  O2-  O180  1  0.30272639  0.17358641  0.37451546  1
  O2-  O181  1  0.30526175  0.16855006  0.87544450  1
  O2-  O182  1  0.31561164  0.49884549  0.37441516  1
  O2-  O183  1  0.30787203  0.50498789  0.87448819  1
  O2-  O184  1  0.30675700  0.84122312  0.37525066  1
  O2-  O185  1  0.30818842  0.84255947  0.87705615  1
  O2-  O186  1  0.64263855  0.17139424  0.37602343  1
  O2-  O187  1  0.64304204  0.16965450  0.87362000  1
  O2-  O188  1  0.63575669  0.50326883  0.37435481  1
  O2-  O189  1  0.64801812  0.50767563  0.87590878  1
  O2-  O190  1  0.63755536  0.84156380  0.37676283  1
  O2-  O191  1  0.64215290  0.83929928  0.87239316  1
  O2-  O192  1  0.98062460  0.17424863  0.37606404  1
  O2-  O193  1  0.97389466  0.16871697  0.87281263  1
  O2-  O194  1  0.97416546  0.50258801  0.37505968  1
  O2-  O195  1  0.97172093  0.50531525  0.87462805  1
  O2-  O196  1  0.97641982  0.84277832  0.37535060  1
  O2-  O197  1  0.97504249  0.83985929  0.87459542  1
  O2-  O198  1  0.19232702  0.00533556  0.37530989  1
  O2-  O199  1  0.19173570  0.00578067  0.87333845  1
  O2-  O200  1  0.19018271  0.33892226  0.37372815  1
  O2-  O201  1  0.19337632  0.34140921  0.87671499  1
  O2-  O202  1  0.19409030  0.67207006  0.37397606  1
  O2-  O203  1  0.19320083  0.67132627  0.87526612  1
  O2-  O204  1  0.52413585  0.00954707  0.37632857  1
  O2-  O205  1  0.52148776  0.00559547  0.87131027  1
  O2-  O206  1  0.52387312  0.33922446  0.37673918  1
  O2-  O207  1  0.52607755  0.33851096  0.87383199  1
  O2-  O208  1  0.52602474  0.67640857  0.37401161  1
  O2-  O209  1  0.52483527  0.67561515  0.87626182  1
  O2-  O210  1  0.85992948  0.00005169  0.37690869  1
  O2-  O211  1  0.85991591  0.00574239  0.87299825  1
  O2-  O212  1  0.85924784  0.33999286  0.37685096  1
  O2-  O213  1  0.86073310  0.33800304  0.87531570  1
  O2-  O214  1  0.85841498  0.67570527  0.37468695  1
  O2-  O215  1  0.85745331  0.67246219  0.87563426  1
  O2-  O216  1  0.23992522  0.09304255  0.02356175  1
  O2-  O217  1  0.23490919  0.09428680  0.52237212  1
  O2-  O218  1  0.23759274  0.42803508  0.02164203  1
  O2-  O219  1  0.24057195  0.42653442  0.52234326  1
  O2-  O220  1  0.24165893  0.76416704  0.02092437  1
  O2-  O221  1  0.23919101  0.76299418  0.51990663  1
  O2-  O222  1  0.56866001  0.09745793  0.01691460  1
  O2-  O223  1  0.57720406  0.09380034  0.51811938  1
  O2-  O224  1  0.57323101  0.42681058  0.02341371  1
  O2-  O225  1  0.57253876  0.42828308  0.52398050  1
  O2-  O226  1  0.57047834  0.76379691  0.02177347  1
  O2-  O227  1  0.57162744  0.75909986  0.52318860  1
  O2-  O228  1  0.90480629  0.09506556  0.02055736  1
  O2-  O229  1  0.90541835  0.09637174  0.52340514  1
  O2-  O230  1  0.90287155  0.42746418  0.02092389  1
  O2-  O231  1  0.90590219  0.42385094  0.52328226  1
  O2-  O232  1  0.90100200  0.76349883  0.01762778  1
  O2-  O233  1  0.90382023  0.76474563  0.51495075  1
  O2-  O234  1  0.26175165  0.26076601  0.22659268  1
  O2-  O235  1  0.26461283  0.26403297  0.73413631  1
  O2-  O236  1  0.26365372  0.59065959  0.22952792  1
  O2-  O237  1  0.26119662  0.59341463  0.73027967  1
  O2-  O238  1  0.26238146  0.92881571  0.22971001  1
  O2-  O239  1  0.26121107  0.92963314  0.72788072  1
  O2-  O240  1  0.59530028  0.26267169  0.23534765  1
  O2-  O241  1  0.59776725  0.26293275  0.73139635  1
  O2-  O242  1  0.59688737  0.59591473  0.22942593  1
  O2-  O243  1  0.59633246  0.59652351  0.73369029  1
  O2-  O244  1  0.59416634  0.92979647  0.23619479  1
  O2-  O245  1  0.59583308  0.92615535  0.72728038  1
  O2-  O246  1  0.92875789  0.25996617  0.23061563  1
  O2-  O247  1  0.93233216  0.26135794  0.73218999  1
  O2-  O248  1  0.92472853  0.59167904  0.23274488  1
  O2-  O249  1  0.92469071  0.59295164  0.73126456  1
  O2-  O250  1  0.92703465  0.92552836  0.22906646  1
  O2-  O251  1  0.92984507  0.93069862  0.72855925  1
  O2-  O252  1  0.09707185  0.23686151  0.26970540  1
  O2-  O253  1  0.09449733  0.23754020  0.77367498  1
  O2-  O254  1  0.08958667  0.57329963  0.26699590  1
  O2-  O255  1  0.09292235  0.57126533  0.77086960  1
  O2-  O256  1  0.09820352  0.90426549  0.26735660  1
  O2-  O257  1  0.09702826  0.90535238  0.77156335  1
  O2-  O258  1  0.42429107  0.23968269  0.27449976  1
  O2-  O259  1  0.42804387  0.23817099  0.77371849  1
  O2-  O260  1  0.43390986  0.56819193  0.26847642  1
  O2-  O261  1  0.42377566  0.57632226  0.77053891  1
  O2-  O262  1  0.42645781  0.90520444  0.27447108  1
  O2-  O263  1  0.42782575  0.90518307  0.76868659  1
  O2-  O264  1  0.75918762  0.24148039  0.26682110  1
  O2-  O265  1  0.76263712  0.23881475  0.77109855  1
  O2-  O266  1  0.75959485  0.57021155  0.27329022  1
  O2-  O267  1  0.76086939  0.57179859  0.76842413  1
  O2-  O268  1  0.75935927  0.90625650  0.27185912  1
  O2-  O269  1  0.76314711  0.90694681  0.76991551  1
  O2-  O270  1  0.06862799  0.06923413  0.47909732  1
  O2-  O271  1  0.06934646  0.07027492  0.98277706  1
  O2-  O272  1  0.07194349  0.40261494  0.48438538  1
  O2-  O273  1  0.06993631  0.40495238  0.97862373  1
  O2-  O274  1  0.07184351  0.74178833  0.47616233  1
  O2-  O275  1  0.07324263  0.74033707  0.97754976  1
  O2-  O276  1  0.40125913  0.07524875  0.48036424  1
  O2-  O277  1  0.40164210  0.06952714  0.98306963  1
  O2-  O278  1  0.40384666  0.40272186  0.48351808  1
  O2-  O279  1  0.40408575  0.40157216  0.98374155  1
  O2-  O280  1  0.40220281  0.73271371  0.48095539  1
  O2-  O281  1  0.40377041  0.74085194  0.97873022  1
  O2-  O282  1  0.73929771  0.06952835  0.48345368  1
  O2-  O283  1  0.73817147  0.07360115  0.97709694  1
  O2-  O284  1  0.73588427  0.40685505  0.48149886  1
  O2-  O285  1  0.73889949  0.40142802  0.97745934  1
  O2-  O286  1  0.73657560  0.73947604  0.47651555  1
  O2-  O287  1  0.73701811  0.73837475  0.98106877  1
  O2-  O288  1  0.09451957  0.23879895  0.47927976  1
  O2-  O289  1  0.09625614  0.23656628  0.97776473  1
  O2-  O290  1  0.09040797  0.57537186  0.48344894  1
  O2-  O291  1  0.09251420  0.57099017  0.97907021  1
  O2-  O292  1  0.09869117  0.90349793  0.48175217  1
  O2-  O293  1  0.09697486  0.90651690  0.97946868  1
  O2-  O294  1  0.42530411  0.24126948  0.47707289  1
  O2-  O295  1  0.42812688  0.23764669  0.97526859  1
  O2-  O296  1  0.43181387  0.56960118  0.47876002  1
  O2-  O297  1  0.42570171  0.57504719  0.98258572  1
  O2-  O298  1  0.42796835  0.90215004  0.47864659  1
  O2-  O299  1  0.42631633  0.90801685  0.97748821  1
  O2-  O300  1  0.75781498  0.24397249  0.47977646  1
  O2-  O301  1  0.76456862  0.23545390  0.98175273  1
  O2-  O302  1  0.75872235  0.57036856  0.47650382  1
  O2-  O303  1  0.76146949  0.57101894  0.98153482  1
  O2-  O304  1  0.76221783  0.90596819  0.48022233  1
  O2-  O305  1  0.76095376  0.90631982  0.97950473  1
  O2-  O306  1  0.06952043  0.06855636  0.26875790  1
  O2-  O307  1  0.06969972  0.07062328  0.76967092  1
  O2-  O308  1  0.06910497  0.40195818  0.26502345  1
  O2-  O309  1  0.07230188  0.40411601  0.77147638  1
  O2-  O310  1  0.07100801  0.74224455  0.27341581  1
  O2-  O311  1  0.07411190  0.73940236  0.77326695  1
  O2-  O312  1  0.40374153  0.07165511  0.27243023  1
  O2-  O313  1  0.40038027  0.07219073  0.76420523  1
  O2-  O314  1  0.40426093  0.40208521  0.26464403  1
  O2-  O315  1  0.40197181  0.40229177  0.76809803  1
  O2-  O316  1  0.40006373  0.73309210  0.27020823  1
  O2-  O317  1  0.40521460  0.73991419  0.77045333  1
  O2-  O318  1  0.73687829  0.07323151  0.26895948  1
  O2-  O319  1  0.74029254  0.07204452  0.76986564  1
  O2-  O320  1  0.73735788  0.40553675  0.26985528  1
  O2-  O321  1  0.73643681  0.40526442  0.76971710  1
  O2-  O322  1  0.73542863  0.74017326  0.27160465  1
  O2-  O323  1  0.73815640  0.73804710  0.77152977  1
  O2-  O324  1  0.24027055  0.09350128  0.22693167  1
  O2-  O325  1  0.23578188  0.09442688  0.72637494  1
  O2-  O326  1  0.23911585  0.42529224  0.22646464  1
  O2-  O327  1  0.23831174  0.42978680  0.72960550  1
  O2-  O328  1  0.24062129  0.76470532  0.22841802  1
  O2-  O329  1  0.24032467  0.76335930  0.73124793  1
  O2-  O330  1  0.56743532  0.09949140  0.23381804  1
  O2-  O331  1  0.57857419  0.09103779  0.73037620  1
  O2-  O332  1  0.57414544  0.42632547  0.22650629  1
  O2-  O333  1  0.57208012  0.42940054  0.72537753  1
  O2-  O334  1  0.57023995  0.76164072  0.22739455  1
  O2-  O335  1  0.57040554  0.76046581  0.72806935  1
  O2-  O336  1  0.90740256  0.09451994  0.22869477  1
  O2-  O337  1  0.90362178  0.09812640  0.72843624  1
  O2-  O338  1  0.90601322  0.42591772  0.22730645  1
  O2-  O339  1  0.90306578  0.42635463  0.72912526  1
  O2-  O340  1  0.90276487  0.76433590  0.23349836  1
  O2-  O341  1  0.90213755  0.76361212  0.73368898  1
  O2-  O342  1  0.26445969  0.25921809  0.02167826  1
  O2-  O343  1  0.26244796  0.26451518  0.51779008  1
  O2-  O344  1  0.26121611  0.59383026  0.02013003  1
  O2-  O345  1  0.26304463  0.59031670  0.51958003  1
  O2-  O346  1  0.26251140  0.92808570  0.02366026  1
  O2-  O347  1  0.26138548  0.92985356  0.51985754  1
  O2-  O348  1  0.59711932  0.26241740  0.01659587  1
  O2-  O349  1  0.59433026  0.26426986  0.51643669  1
  O2-  O350  1  0.59481216  0.59560385  0.02127583  1
  O2-  O351  1  0.59721479  0.59744242  0.51644741  1
  O2-  O352  1  0.59309225  0.92987760  0.01111114  1
  O2-  O353  1  0.59802242  0.92558736  0.52323005  1
  O2-  O354  1  0.92923926  0.26071003  0.01921779  1
  O2-  O355  1  0.93138711  0.26008313  0.51810559  1
  O2-  O356  1  0.92527866  0.59338359  0.01914117  1
  O2-  O357  1  0.92364232  0.59117130  0.51659127  1
  O2-  O358  1  0.92865705  0.92783906  0.01949687  1
  O2-  O359  1  0.92897781  0.92816775  0.52393905  1
