# generated using pymatgen
data_Sr7Ca15Pr50Mn72O216
_symmetry_space_group_name_H-M   'P 1'
_cell_length_a   16.55711029
_cell_length_b   16.60555736
_cell_length_c   15.59363709
_cell_angle_alpha   90.00193331
_cell_angle_beta   89.99606178
_cell_angle_gamma   90.00760351
_symmetry_Int_Tables_number   1
_chemical_formula_structural   Sr7Ca15Pr50Mn72O216
_chemical_formula_sum   'Sr7 Ca15 Pr50 Mn72 O216'
_cell_volume   4287.31522519
_cell_formula_units_Z   1
loop_
 _symmetry_equiv_pos_site_id
 _symmetry_equiv_pos_as_xyz
  1  'x, y, z'
loop_
 _atom_type_symbol
 _atom_type_oxidation_number
  Sr2+  2.0
  Ca2+  2.0
  Pr3+  3.0
  Mn3.30+  3.3
  O2-  -2.0
loop_
 _atom_site_type_symbol
 _atom_site_label
 _atom_site_symmetry_multiplicity
 _atom_site_fract_x
 _atom_site_fract_y
 _atom_site_fract_z
 _atom_site_occupancy
  Sr2+  Sr0  1  1.00186970  0.66031356  0.87363464  1
  Sr2+  Sr1  1  0.66606809  0.67683840  0.12450550  1
  Sr2+  Sr2  1  0.16826247  0.50903962  0.62600237  1
  Sr2+  Sr3  1  0.66488740  0.34297709  0.12517652  1
  Sr2+  Sr4  1  0.33401261  0.00632658  0.62706702  1
  Sr2+  Sr5  1  1.00168988  0.32350598  0.87366527  1
  Sr2+  Sr6  1  1.00326755  0.98892273  0.87218113  1
  Ca2+  Ca7  1  0.66488155  0.34808310  0.62479081  1
  Ca2+  Ca8  1  -0.00164298  0.01144760  0.62863509  1
  Ca2+  Ca9  1  0.16948683  0.84796264  0.63051989  1
  Ca2+  Ca10  1  0.65949130  0.01198672  0.62807360  1
  Ca2+  Ca11  1  0.50516329  0.18221061  0.12216903  1
  Ca2+  Ca12  1  0.66844742  0.98580205  0.87179268  1
  Ca2+  Ca13  1  0.49513514  0.14827834  0.87516611  1
  Ca2+  Ca14  1  0.82803480  0.48388052  0.37770095  1
  Ca2+  Ca15  1  0.66854266  0.98588183  0.37851426  1
  Ca2+  Ca16  1  0.50454152  0.85371946  0.62719253  1
  Ca2+  Ca17  1  0.16354533  0.82235329  0.86982138  1
  Ca2+  Ca18  1  0.83678453  0.51392726  0.62456499  1
  Ca2+  Ca19  1  0.66302329  0.68504147  0.62545800  1
  Ca2+  Ca20  1  0.16834557  0.18028743  0.12230121  1
  Ca2+  Ca21  1  0.33489553  0.98552675  0.87198886  1
  Pr3+  Pr22  1  0.83476548  0.84611066  0.12348844  1
  Pr3+  Pr23  1  0.32857900  0.68241037  0.62543852  1
  Pr3+  Pr24  1  0.99958706  0.32011673  0.37726504  1
  Pr3+  Pr25  1  -0.00447798  0.34735378  0.62675944  1
  Pr3+  Pr26  1  0.49934301  0.15340945  0.37337248  1
  Pr3+  Pr27  1  0.83475591  0.51188760  0.12609896  1
  Pr3+  Pr28  1  0.49830691  0.82521115  0.87108070  1
  Pr3+  Pr29  1  1.00084890  0.98806309  0.37762474  1
  Pr3+  Pr30  1  0.16486532  0.82153235  0.37886824  1
  Pr3+  Pr31  1  0.16890396  0.51233351  0.12411102  1
  Pr3+  Pr32  1  -0.00305982  0.34537680  0.12401108  1
  Pr3+  Pr33  1  0.16104271  0.48755677  0.87262060  1
  Pr3+  Pr34  1  0.50711620  0.51283303  0.12444368  1
  Pr3+  Pr35  1  0.16452082  0.15316346  0.37411091  1
  Pr3+  Pr36  1  0.50478930  0.17707884  0.62729001  1
  Pr3+  Pr37  1  0.16297223  0.15284241  0.87565814  1
  Pr3+  Pr38  1  -0.00450343  0.68085381  0.12417283  1
  Pr3+  Pr39  1  0.83465273  0.84825771  0.62610979  1
  Pr3+  Pr40  1  0.99967186  0.65321500  0.37734681  1
  Pr3+  Pr41  1  0.33604226  0.98724593  0.37631680  1
  Pr3+  Pr42  1  0.67038999  0.31962637  0.87437724  1
  Pr3+  Pr43  1  0.33752049  0.31821407  0.87326844  1
  Pr3+  Pr44  1  0.83126253  0.82206398  0.87252997  1
  Pr3+  Pr45  1  0.33405810  0.65640328  0.87340016  1
  Pr3+  Pr46  1  0.16810491  0.17239237  0.62694533  1
  Pr3+  Pr47  1  0.67158315  0.65549073  0.87236317  1
  Pr3+  Pr48  1  0.33264501  0.34348240  0.12410342  1
  Pr3+  Pr49  1  0.16851324  0.84498073  0.12258516  1
  Pr3+  Pr50  1  0.50012126  0.48790186  0.87434277  1
  Pr3+  Pr51  1  0.33776402  0.65352910  0.37642108  1
  Pr3+  Pr52  1  0.49984309  0.48638922  0.37561146  1
  Pr3+  Pr53  1  0.50454574  0.84577859  0.12339283  1
  Pr3+  Pr54  1  0.66101631  0.01338528  0.12302106  1
  Pr3+  Pr55  1  0.67079657  0.32069231  0.37611934  1
  Pr3+  Pr56  1  0.33078021  0.34337562  0.62539691  1
  Pr3+  Pr57  1  0.83004547  0.15108260  0.87503158  1
  Pr3+  Pr58  1  -0.00086587  0.67876696  0.62664963  1
  Pr3+  Pr59  1  -0.00335627  0.01369904  0.12291169  1
  Pr3+  Pr60  1  0.16434657  0.48593570  0.37760576  1
  Pr3+  Pr61  1  0.49955633  0.82291367  0.37858489  1
  Pr3+  Pr62  1  0.83282909  0.48769019  0.87221831  1
  Pr3+  Pr63  1  0.33074325  0.01553408  0.12260427  1
  Pr3+  Pr64  1  0.83375563  0.18030693  0.12378801  1
  Pr3+  Pr65  1  0.82651714  0.15062409  0.37482726  1
  Pr3+  Pr66  1  0.67189262  0.65190449  0.37730080  1
  Pr3+  Pr67  1  0.33705313  0.31899154  0.37604664  1
  Pr3+  Pr68  1  0.33255905  0.67939719  0.12463644  1
  Pr3+  Pr69  1  0.50637186  0.51478345  0.62523043  1
  Pr3+  Pr70  1  0.82710954  0.82240465  0.37711891  1
  Pr3+  Pr71  1  0.83262979  0.17514168  0.62619883  1
  Mn3.30+  Mn72  1  0.16750246  -0.00027709  -0.00109713  1
  Mn3.30+  Mn73  1  0.16601484  -0.00148270  0.50254146  1
  Mn3.30+  Mn74  1  0.16718723  0.33170197  0.00082968  1
  Mn3.30+  Mn75  1  0.16660233  0.33110258  0.50047136  1
  Mn3.30+  Mn76  1  0.16612379  0.66891474  -0.00052473  1
  Mn3.30+  Mn77  1  0.16695239  0.66656902  0.50117847  1
  Mn3.30+  Mn78  1  0.49797750  0.00158534  -0.00319758  1
  Mn3.30+  Mn79  1  0.50298106  0.00033780  0.50127763  1
  Mn3.30+  Mn80  1  0.50116091  0.32973142  -0.00199667  1
  Mn3.30+  Mn81  1  0.50314730  0.33289178  0.50227181  1
  Mn3.30+  Mn82  1  0.50096911  0.66789198  -0.00243890  1
  Mn3.30+  Mn83  1  0.50285729  0.66954177  0.50326713  1
  Mn3.30+  Mn84  1  0.83061528  -0.00079394  -0.00244364  1
  Mn3.30+  Mn85  1  0.83043741  0.00027250  0.50315241  1
  Mn3.30+  Mn86  1  0.83338762  0.33316659  -0.00144722  1
  Mn3.30+  Mn87  1  0.83122900  0.33422722  0.50274811  1
  Mn3.30+  Mn88  1  0.83383808  0.66686694  -0.00139993  1
  Mn3.30+  Mn89  1  0.83114448  0.66551094  0.50326220  1
  Mn3.30+  Mn90  1  -0.00060440  0.16654285  0.24971818  1
  Mn3.30+  Mn91  1  -0.00045932  0.16520028  0.75005924  1
  Mn3.30+  Mn92  1  -0.00092311  0.49951342  0.25299176  1
  Mn3.30+  Mn93  1  -0.00080761  0.50196628  0.74806745  1
  Mn3.30+  Mn94  1  -0.00094616  0.83394480  0.25201179  1
  Mn3.30+  Mn95  1  0.00274133  0.83543869  0.74788637  1
  Mn3.30+  Mn96  1  0.33365009  0.16683299  0.24679046  1
  Mn3.30+  Mn97  1  0.33578102  0.16250039  0.75170400  1
  Mn3.30+  Mn98  1  0.33471886  0.49927639  0.24949607  1
  Mn3.30+  Mn99  1  0.33418760  0.49988728  0.74982274  1
  Mn3.30+  Mn100  1  0.33430016  0.83374818  0.24973341  1
  Mn3.30+  Mn101  1  0.33184239  0.83539734  0.75014969  1
  Mn3.30+  Mn102  1  0.66415450  0.16535790  0.24916646  1
  Mn3.30+  Mn103  1  0.66447035  0.16437235  0.75181207  1
  Mn3.30+  Mn104  1  0.66821087  0.49921150  0.25139910  1
  Mn3.30+  Mn105  1  0.66876263  0.50071450  0.74551721  1
  Mn3.30+  Mn106  1  0.66603757  0.83410853  0.25059919  1
  Mn3.30+  Mn107  1  0.66426930  0.83560747  0.74774413  1
  Mn3.30+  Mn108  1  0.16624403  0.00050142  0.24867276  1
  Mn3.30+  Mn109  1  0.16764387  -0.00214972  0.75029517  1
  Mn3.30+  Mn110  1  0.16654940  0.33162468  0.24971442  1
  Mn3.30+  Mn111  1  0.16709080  0.33152904  0.74943609  1
  Mn3.30+  Mn112  1  0.16623962  0.66671076  0.25138131  1
  Mn3.30+  Mn113  1  0.16651265  0.66866438  0.74910435  1
  Mn3.30+  Mn114  1  0.50067414  0.00074519  0.24959805  1
  Mn3.30+  Mn115  1  0.50050705  0.00111407  0.75204887  1
  Mn3.30+  Mn116  1  0.50124918  0.33149470  0.24900254  1
  Mn3.30+  Mn117  1  0.50292285  0.33179867  0.74957347  1
  Mn3.30+  Mn118  1  0.50204139  0.66758209  0.25138779  1
  Mn3.30+  Mn119  1  0.50167662  0.66983355  0.74766688  1
  Mn3.30+  Mn120  1  0.83024852  -0.00077424  0.25015470  1
  Mn3.30+  Mn121  1  0.83090889  -0.00026094  0.74946721  1
  Mn3.30+  Mn122  1  0.83285274  0.33423853  0.25092657  1
  Mn3.30+  Mn123  1  0.83134424  0.33298520  0.74778659  1
  Mn3.30+  Mn124  1  0.83286265  0.66620790  0.25148235  1
  Mn3.30+  Mn125  1  0.83188289  0.66626689  0.74631181  1
  Mn3.30+  Mn126  1  0.00126210  0.16697663  -0.00016936  1
  Mn3.30+  Mn127  1  -0.00184554  0.16478973  0.50149983  1
  Mn3.30+  Mn128  1  0.00130642  0.50106477  -0.00078849  1
  Mn3.30+  Mn129  1  -0.00392122  0.50014057  0.50059471  1
  Mn3.30+  Mn130  1  0.00252751  0.83482004  -0.00235164  1
  Mn3.30+  Mn131  1  -0.00062988  0.83478971  0.50299169  1
  Mn3.30+  Mn132  1  0.33470894  0.16530711  -0.00047680  1
  Mn3.30+  Mn133  1  0.33458542  0.16388388  0.50110659  1
  Mn3.30+  Mn134  1  0.33409468  0.49952815  -0.00098096  1
  Mn3.30+  Mn135  1  0.33484244  0.49964757  0.50112598  1
  Mn3.30+  Mn136  1  0.33286021  0.83510217  -0.00287668  1
  Mn3.30+  Mn137  1  0.33309717  0.83434142  0.50312158  1
  Mn3.30+  Mn138  1  0.66181271  0.16472351  -0.00299564  1
  Mn3.30+  Mn139  1  0.66642188  0.16469535  0.50190830  1
  Mn3.30+  Mn140  1  0.66689633  0.49958439  -0.00101866  1
  Mn3.30+  Mn141  1  0.67042763  0.50048317  0.50376822  1
  Mn3.30+  Mn142  1  0.66640118  0.83416257  -0.00145540  1
  Mn3.30+  Mn143  1  0.66432907  0.83556039  0.50308475  1
  O2-  O144  1  0.02433622  0.16142020  0.12713022  1
  O2-  O145  1  0.02289918  0.15985253  0.62420766  1
  O2-  O146  1  0.02537540  0.49437241  0.12773033  1
  O2-  O147  1  0.01988504  0.49668352  0.62258501  1
  O2-  O148  1  0.02387167  0.82889494  0.12816593  1
  O2-  O149  1  0.02742361  0.82620352  0.62325360  1
  O2-  O150  1  0.36367903  0.16277022  0.12333621  1
  O2-  O151  1  0.35981249  0.16361721  0.62601103  1
  O2-  O152  1  0.36235968  0.49365278  0.12326443  1
  O2-  O153  1  0.36109741  0.49288423  0.62482487  1
  O2-  O154  1  0.36073276  0.82708590  0.12418620  1
  O2-  O155  1  0.36105653  0.82872797  0.62432073  1
  O2-  O156  1  0.69088476  0.15982316  0.12229758  1
  O2-  O157  1  0.68953100  0.15495478  0.62619278  1
  O2-  O158  1  0.68988599  0.49885924  0.12573866  1
  O2-  O159  1  0.69596236  0.49072322  0.62454536  1
  O2-  O160  1  0.69008227  0.83157984  0.12295873  1
  O2-  O161  1  0.69131415  0.82778631  0.62505287  1
  O2-  O162  1  0.14119991  0.32794089  0.12815859  1
  O2-  O163  1  0.14169334  0.32297012  0.62400936  1
  O2-  O164  1  0.14009045  0.66022819  0.12902609  1
  O2-  O165  1  0.14313937  0.66084817  0.62275957  1
  O2-  O166  1  0.13976106  0.99119510  0.12622328  1
  O2-  O167  1  0.14137859  0.99793679  0.62347493  1
  O2-  O168  1  0.47575706  0.32809508  0.12202665  1
  O2-  O169  1  0.47424303  0.32689304  0.62527766  1
  O2-  O170  1  0.47692547  0.66132726  0.12299259  1
  O2-  O171  1  0.47238787  0.65957576  0.62490986  1
  O2-  O172  1  0.47369063  0.99090529  0.12417592  1
  O2-  O173  1  0.48209097  1.00189471  0.62578129  1
  O2-  O174  1  0.81479744  0.32966622  0.12446060  1
  O2-  O175  1  0.80481340  0.32128407  0.62546663  1
  O2-  O176  1  0.81580048  0.66105392  0.12608927  1
  O2-  O177  1  0.80475295  0.65944937  0.62396242  1
  O2-  O178  1  0.80666590  0.99475206  0.12271575  1
  O2-  O179  1  0.80268701  0.99809064  0.62603692  1
  O2-  O180  1  0.30828230  0.17080142  0.37305668  1
  O2-  O181  1  0.30547827  0.17346736  0.87624666  1
  O2-  O182  1  0.30913728  0.50498495  0.37566380  1
  O2-  O183  1  0.30628162  0.50589889  0.87578443  1
  O2-  O184  1  0.30935224  0.83803825  0.37535755  1
  O2-  O185  1  0.30662126  0.83713205  0.87627680  1
  O2-  O186  1  0.64304403  0.17456850  0.37653246  1
  O2-  O187  1  0.63703908  0.17569800  0.87472811  1
  O2-  O188  1  0.64243411  0.50450992  0.37863498  1
  O2-  O189  1  0.64357107  0.50686711  0.87111937  1
  O2-  O190  1  0.64356415  0.84052791  0.37855784  1
  O2-  O191  1  0.64317043  0.83761778  0.87329222  1
  O2-  O192  1  0.97198804  0.17064120  0.37482796  1
  O2-  O193  1  0.97618812  0.16842220  0.87433900  1
  O2-  O194  1  0.97029378  0.50451235  0.37700501  1
  O2-  O195  1  0.97795259  0.50196779  0.87360478  1
  O2-  O196  1  0.97111959  0.84022395  0.37725567  1
  O2-  O197  1  0.97564658  0.83434460  0.87175795  1
  O2-  O198  1  0.19137928  0.00557697  0.37234886  1
  O2-  O199  1  0.19316603  0.00807761  0.87748575  1
  O2-  O200  1  0.19226191  0.33744248  0.37423005  1
  O2-  O201  1  0.19167613  0.33917064  0.87409052  1
  O2-  O202  1  0.19349463  0.67313751  0.37533867  1
  O2-  O203  1  0.19072834  0.67429125  0.87420306  1
  O2-  O204  1  0.52651614  0.00575727  0.37339915  1
  O2-  O205  1  0.52716754  0.00226899  0.87644087  1
  O2-  O206  1  0.52637351  0.33844907  0.37847807  1
  O2-  O207  1  0.52724973  0.34182836  0.87299991  1
  O2-  O208  1  0.52700083  0.67424264  0.38023718  1
  O2-  O209  1  0.52670700  0.67446926  0.87140393  1
  O2-  O210  1  0.85717014  0.00229361  0.37660617  1
  O2-  O211  1  0.85405312  0.00225236  0.87485867  1
  O2-  O212  1  0.85627242  0.33662132  0.37678775  1
  O2-  O213  1  0.85240282  0.33793790  0.87319088  1
  O2-  O214  1  0.85709942  0.67663630  0.37726036  1
  O2-  O215  1  0.85144028  0.67271267  0.87217802  1
  O2-  O216  1  0.23778468  0.09603796  0.02401631  1
  O2-  O217  1  0.23668375  0.09497013  0.51518584  1
  O2-  O218  1  0.24054070  0.42706182  0.02212010  1
  O2-  O219  1  0.24139838  0.42275878  0.51737898  1
  O2-  O220  1  0.24267498  0.75937353  0.02474749  1
  O2-  O221  1  0.23761163  0.76244054  0.52103163  1
  O2-  O222  1  0.56839643  0.09402377  0.02337174  1
  O2-  O223  1  0.56847034  0.09985503  0.51483117  1
  O2-  O224  1  0.56968920  0.43001809  0.01543018  1
  O2-  O225  1  0.57190437  0.43264250  0.51914155  1
  O2-  O226  1  0.57081517  0.76433038  0.01539778  1
  O2-  O227  1  0.56712599  0.76802776  0.52059771  1
  O2-  O228  1  0.90358739  0.09423562  0.02008118  1
  O2-  O229  1  0.90019731  0.09561073  0.51700036  1
  O2-  O230  1  0.90767409  0.42925810  0.01935484  1
  O2-  O231  1  0.90376202  0.42553725  0.52432304  1
  O2-  O232  1  0.90691670  0.76162026  0.01870039  1
  O2-  O233  1  0.90403938  0.76114709  0.52292057  1
  O2-  O234  1  0.26484360  0.26221400  0.23096266  1
  O2-  O235  1  0.26266703  0.25852712  0.72996624  1
  O2-  O236  1  0.26410042  0.59247401  0.22880785  1
  O2-  O237  1  0.26477163  0.59653246  0.73344042  1
  O2-  O238  1  0.26250200  0.92761687  0.22904399  1
  O2-  O239  1  0.25989759  0.92543891  0.73245571  1
  O2-  O240  1  0.59349879  0.26027629  0.23577489  1
  O2-  O241  1  0.59711974  0.26305226  0.72692771  1
  O2-  O242  1  0.59413905  0.59291811  0.23572744  1
  O2-  O243  1  0.59819217  0.59652371  0.72685993  1
  O2-  O244  1  0.59353986  0.92853774  0.22808012  1
  O2-  O245  1  0.59576982  0.93016722  0.73229635  1
  O2-  O246  1  0.92895279  0.26104543  0.23109178  1
  O2-  O247  1  0.92517414  0.25975624  0.72718048  1
  O2-  O248  1  0.93088134  0.59504442  0.23180298  1
  O2-  O249  1  0.92608685  0.59537087  0.72927243  1
  O2-  O250  1  0.92824373  0.92854574  0.22946676  1
  O2-  O251  1  0.92711581  0.92639458  0.72578880  1
  O2-  O252  1  0.09168116  0.23924123  0.27421681  1
  O2-  O253  1  0.09745818  0.23766616  0.76671775  1
  O2-  O254  1  0.09442269  0.57002030  0.27391052  1
  O2-  O255  1  0.09710221  0.57409597  0.76820832  1
  O2-  O256  1  0.09278230  0.90372081  0.27289526  1
  O2-  O257  1  0.09803752  0.90494653  0.76794534  1
  O2-  O258  1  0.42615452  0.24014721  0.27276641  1
  O2-  O259  1  0.42791805  0.23646122  0.77174770  1
  O2-  O260  1  0.42889164  0.57246833  0.27120410  1
  O2-  O261  1  0.42966007  0.57331588  0.77090487  1
  O2-  O262  1  0.42914344  0.90642723  0.27200902  1
  O2-  O263  1  0.42845523  0.90715994  0.76827221  1
  O2-  O264  1  0.76110413  0.23680998  0.26742659  1
  O2-  O265  1  0.75971105  0.23565853  0.77170511  1
  O2-  O266  1  0.76414587  0.57070657  0.27158945  1
  O2-  O267  1  0.76105788  0.57228458  0.77198153  1
  O2-  O268  1  0.76281385  0.90197845  0.26611794  1
  O2-  O269  1  0.76327580  0.90300215  0.76664265  1
  O2-  O270  1  0.07317406  0.07351778  0.47703606  1
  O2-  O271  1  0.07338425  0.07192746  0.98432774  1
  O2-  O272  1  0.07060140  0.40587658  0.48019933  1
  O2-  O273  1  0.07486936  0.40814964  0.98435404  1
  O2-  O274  1  0.07085731  0.73945916  0.47737806  1
  O2-  O275  1  0.07284113  0.73915593  0.98958212  1
  O2-  O276  1  0.40717531  0.07359938  0.47598391  1
  O2-  O277  1  0.39944057  0.06710137  0.98004205  1
  O2-  O278  1  0.40747605  0.40485851  0.47970974  1
  O2-  O279  1  0.40695145  0.40338227  0.97745171  1
  O2-  O280  1  0.40358445  0.73900135  0.47927918  1
  O2-  O281  1  0.40544741  0.73926108  0.97848503  1
  O2-  O282  1  0.73808780  0.07196344  0.47563985  1
  O2-  O283  1  0.73357169  0.07178177  0.97748837  1
  O2-  O284  1  0.73766101  0.40338221  0.48042698  1
  O2-  O285  1  0.74060074  0.40746202  0.97806143  1
  O2-  O286  1  0.73721462  0.73962610  0.48019252  1
  O2-  O287  1  0.73910976  0.74084632  0.97872008  1
  O2-  O288  1  0.09379149  0.23870888  0.47780499  1
  O2-  O289  1  0.09743909  0.23849071  0.98299377  1
  O2-  O290  1  0.09358399  0.57325492  0.47591077  1
  O2-  O291  1  0.09800794  0.56955775  0.98389705  1
  O2-  O292  1  0.09238256  0.90797882  0.47564292  1
  O2-  O293  1  0.09885525  0.90174064  0.98252036  1
  O2-  O294  1  0.42758904  0.23816695  0.47847786  1
  O2-  O295  1  0.42787885  0.23771790  0.97410638  1
  O2-  O296  1  0.43163306  0.57298178  0.47926266  1
  O2-  O297  1  0.42667946  0.57304348  0.97727220  1
  O2-  O298  1  0.42736486  0.90878925  0.47915217  1
  O2-  O299  1  0.42922212  0.90369264  0.98024556  1
  O2-  O300  1  0.76164532  0.23662454  0.47985304  1
  O2-  O301  1  0.75992371  0.23637281  0.98038268  1
  O2-  O302  1  0.76256439  0.57118395  0.47551946  1
  O2-  O303  1  0.76240054  0.57178366  0.98008034  1
  O2-  O304  1  0.76382134  0.90286273  0.48480400  1
  O2-  O305  1  0.76265843  0.90215948  0.98152519  1
  O2-  O306  1  0.06887579  0.07201715  0.27111936  1
  O2-  O307  1  0.07728836  0.07454242  0.76721284  1
  O2-  O308  1  0.07054678  0.40620037  0.27358140  1
  O2-  O309  1  0.07579957  0.40796393  0.76359087  1
  O2-  O310  1  0.06884811  0.74044256  0.27336466  1
  O2-  O311  1  0.07287035  0.73977232  0.76286617  1
  O2-  O312  1  0.40374547  0.07129729  0.26986995  1
  O2-  O313  1  0.40485095  0.07057298  0.77390422  1
  O2-  O314  1  0.40536085  0.40463584  0.27083224  1
  O2-  O315  1  0.40767163  0.40532386  0.77046678  1
  O2-  O316  1  0.40552229  0.73862407  0.27062819  1
  O2-  O317  1  0.40300701  0.74075168  0.77107673  1
  O2-  O318  1  0.73503137  0.07007541  0.27038975  1
  O2-  O319  1  0.73690827  0.07330146  0.77546421  1
  O2-  O320  1  0.73855883  0.40510945  0.27068303  1
  O2-  O321  1  0.73889252  0.40596525  0.77123293  1
  O2-  O322  1  0.73853769  0.73880597  0.27197791  1
  O2-  O323  1  0.73825545  0.74086425  0.76809682  1
  O2-  O324  1  0.23868548  0.09783476  0.22655118  1
  O2-  O325  1  0.23794786  0.09508285  0.73267432  1
  O2-  O326  1  0.23890636  0.42791032  0.22941143  1
  O2-  O327  1  0.24330928  0.42236606  0.73133502  1
  O2-  O328  1  0.23939853  0.76132748  0.22924662  1
  O2-  O329  1  0.24009232  0.75967837  0.72662599  1
  O2-  O330  1  0.56832382  0.09583763  0.22735534  1
  O2-  O331  1  0.56925510  0.09716909  0.73388033  1
  O2-  O332  1  0.56919752  0.42985636  0.23422178  1
  O2-  O333  1  0.57231739  0.43231306  0.73074555  1
  O2-  O334  1  0.56992484  0.76548754  0.23523638  1
  O2-  O335  1  0.56865372  0.76673516  0.72963617  1
  O2-  O336  1  0.90288438  0.09521510  0.22947348  1
  O2-  O337  1  0.90118821  0.09387551  0.73322700  1
  O2-  O338  1  0.90770593  0.42772861  0.22834049  1
  O2-  O339  1  0.90346622  0.42675495  0.72910239  1
  O2-  O340  1  0.90517224  0.76253031  0.23020051  1
  O2-  O341  1  0.90507928  0.76033467  0.72719545  1
  O2-  O342  1  0.26553035  0.26240280  0.01850485  1
  O2-  O343  1  0.26299152  0.25730794  0.51960937  1
  O2-  O344  1  0.26082569  0.59539682  0.02158271  1
  O2-  O345  1  0.26597169  0.59582579  0.51647554  1
  O2-  O346  1  0.26064310  0.92708525  0.02490830  1
  O2-  O347  1  0.25972303  0.92696000  0.51310693  1
  O2-  O348  1  0.59492118  0.26186443  0.01558651  1
  O2-  O349  1  0.59652423  0.26292196  0.52270265  1
  O2-  O350  1  0.59228166  0.59275741  0.01429625  1
  O2-  O351  1  0.59886807  0.59762047  0.52295700  1
  O2-  O352  1  0.59314313  0.92740539  0.02034224  1
  O2-  O353  1  0.59665019  0.93180639  0.51969029  1
  O2-  O354  1  0.92709051  0.25976967  0.02085680  1
  O2-  O355  1  0.92773062  0.26230154  0.52060445  1
  O2-  O356  1  0.92873278  0.59216359  0.02166320  1
  O2-  O357  1  0.92967792  0.59831406  0.51788803  1
  O2-  O358  1  0.92835407  0.92570713  0.02192010  1
  O2-  O359  1  0.92706710  0.93059573  0.52394502  1
