# generated using pymatgen
data_Sr7Ca15Pr50Mn72O216
_symmetry_space_group_name_H-M   'P 1'
_cell_length_a   16.56061347
_cell_length_b   16.60402602
_cell_length_c   15.59119213
_cell_angle_alpha   90.00189845
_cell_angle_beta   90.00471968
_cell_angle_gamma   90.00883806
_symmetry_Int_Tables_number   1
_chemical_formula_structural   Sr7Ca15Pr50Mn72O216
_chemical_formula_sum   'Sr7 Ca15 Pr50 Mn72 O216'
_cell_volume   4287.15457544
_cell_formula_units_Z   1
loop_
 _symmetry_equiv_pos_site_id
 _symmetry_equiv_pos_as_xyz
  1  'x, y, z'
loop_
 _atom_type_symbol
 _atom_type_oxidation_number
  Sr2+  2.0
  Ca2+  2.0
  Pr3+  3.0
  Mn3.30+  3.3
  O2-  -2.0
loop_
 _atom_site_type_symbol
 _atom_site_label
 _atom_site_symmetry_multiplicity
 _atom_site_fract_x
 _atom_site_fract_y
 _atom_site_fract_z
 _atom_site_occupancy
  Sr2+  Sr0  1  1.00163040  0.65643624  0.87436268  1
  Sr2+  Sr1  1  0.16515468  0.82236668  0.87465557  1
  Sr2+  Sr2  1  0.83448999  0.49142365  0.87550968  1
  Sr2+  Sr3  1  0.83298715  0.50537555  0.12453174  1
  Sr2+  Sr4  1  0.50118168  0.17702381  0.62648527  1
  Sr2+  Sr5  1  0.33099298  0.67517549  0.12591019  1
  Sr2+  Sr6  1  0.83154639  0.48779339  0.37457799  1
  Ca2+  Ca7  1  0.83805997  0.18448869  0.62626195  1
  Ca2+  Ca8  1  0.17006265  0.18164999  0.62518894  1
  Ca2+  Ca9  1  0.50634820  0.18606156  0.12301710  1
  Ca2+  Ca10  1  -0.00743205  0.01545706  0.12180477  1
  Ca2+  Ca11  1  0.33319140  0.98475950  0.87532159  1
  Ca2+  Ca12  1  1.00387183  0.98448708  0.87668031  1
  Ca2+  Ca13  1  0.83839499  0.18493736  0.12386895  1
  Ca2+  Ca14  1  -0.00401623  0.34773435  0.62524530  1
  Ca2+  Ca15  1  0.66644989  0.67827798  0.62433611  1
  Ca2+  Ca16  1  0.83762570  0.51218136  0.62568549  1
  Ca2+  Ca17  1  0.66737910  0.34768924  0.12334446  1
  Ca2+  Ca18  1  0.16313163  0.48402717  0.37501751  1
  Ca2+  Ca19  1  0.49886705  0.48479466  0.87563939  1
  Ca2+  Ca20  1  -0.00518936  0.34864288  0.12472921  1
  Ca2+  Ca21  1  0.33707992  0.64878943  0.37502348  1
  Pr3+  Pr22  1  0.16702100  0.84337499  0.12223068  1
  Pr3+  Pr23  1  0.50508587  0.51329265  0.62610937  1
  Pr3+  Pr24  1  0.16836856  0.51072221  0.12682104  1
  Pr3+  Pr25  1  0.33707453  0.65078231  0.87515993  1
  Pr3+  Pr26  1  0.67062320  0.65193518  0.37656724  1
  Pr3+  Pr27  1  0.33365742  0.32166308  0.37420164  1
  Pr3+  Pr28  1  0.50130674  0.84512885  0.12509521  1
  Pr3+  Pr29  1  0.16755167  0.84570442  0.62738150  1
  Pr3+  Pr30  1  0.83134044  0.15788113  0.37474128  1
  Pr3+  Pr31  1  0.49411017  0.81731925  0.37505505  1
  Pr3+  Pr32  1  0.33657745  0.32234488  0.87553254  1
  Pr3+  Pr33  1  0.16213386  0.15492350  0.37456166  1
  Pr3+  Pr34  1  0.50511488  0.51083377  0.12404501  1
  Pr3+  Pr35  1  0.67094843  0.32387788  0.87665802  1
  Pr3+  Pr36  1  1.00105840  0.32297927  0.37287026  1
  Pr3+  Pr37  1  0.49447153  0.82139866  0.87531806  1
  Pr3+  Pr38  1  0.83836365  0.84655372  0.12468383  1
  Pr3+  Pr39  1  0.83282609  0.15606661  0.87548326  1
  Pr3+  Pr40  1  1.00299896  0.64793007  0.37614439  1
  Pr3+  Pr41  1  0.83278106  0.82107100  0.87469718  1
  Pr3+  Pr42  1  0.82994715  0.82032264  0.37552361  1
  Pr3+  Pr43  1  0.49874127  0.15710359  0.37351529  1
  Pr3+  Pr44  1  0.66877917  0.98790186  0.87455823  1
  Pr3+  Pr45  1  0.66289429  0.01745080  0.12357374  1
  Pr3+  Pr46  1  0.67130552  0.65315547  0.87359251  1
  Pr3+  Pr47  1  -0.00356682  0.01614597  0.62821648  1
  Pr3+  Pr48  1  0.83484379  0.84499977  0.62552400  1
  Pr3+  Pr49  1  -0.00240471  0.67464335  0.12364690  1
  Pr3+  Pr50  1  0.66703482  0.34507416  0.62595442  1
  Pr3+  Pr51  1  0.66408125  0.01558959  0.62613396  1
  Pr3+  Pr52  1  0.16188858  0.49019749  0.87483802  1
  Pr3+  Pr53  1  0.16855631  0.50966335  0.62301174  1
  Pr3+  Pr54  1  0.32973239  0.01113490  0.12169306  1
  Pr3+  Pr55  1  0.33377714  0.34524840  0.12569980  1
  Pr3+  Pr56  1  0.16409796  0.81894804  0.37492760  1
  Pr3+  Pr57  1  0.66964647  0.98914925  0.37538150  1
  Pr3+  Pr58  1  0.49905405  0.48670520  0.37543774  1
  Pr3+  Pr59  1  0.50344831  0.84627505  0.62526380  1
  Pr3+  Pr60  1  0.33481365  0.98862417  0.37412566  1
  Pr3+  Pr61  1  0.16101003  0.15137980  0.87516280  1
  Pr3+  Pr62  1  0.49560365  0.15283135  0.87602211  1
  Pr3+  Pr63  1  -0.00229797  0.67669310  0.62605292  1
  Pr3+  Pr64  1  1.00165910  0.98892827  0.37374933  1
  Pr3+  Pr65  1  0.16504603  0.17958412  0.12429987  1
  Pr3+  Pr66  1  0.33049352  0.34298072  0.62466781  1
  Pr3+  Pr67  1  0.32721288  0.01551379  0.62785013  1
  Pr3+  Pr68  1  0.67338811  0.32253405  0.37317441  1
  Pr3+  Pr69  1  1.00182705  0.32483480  0.87702129  1
  Pr3+  Pr70  1  0.66568979  0.67574437  0.12563593  1
  Pr3+  Pr71  1  0.32999663  0.67923596  0.62344621  1
  Mn3.30+  Mn72  1  0.16205429  -0.00071865  0.00010590  1
  Mn3.30+  Mn73  1  0.16547699  0.00134188  0.50052751  1
  Mn3.30+  Mn74  1  0.16700201  0.33318032  0.00172691  1
  Mn3.30+  Mn75  1  0.16422084  0.33206797  0.50084531  1
  Mn3.30+  Mn76  1  0.16692839  0.66607193  0.00006009  1
  Mn3.30+  Mn77  1  0.16801683  0.66370804  0.49741164  1
  Mn3.30+  Mn78  1  0.49781857  0.00122523  0.00047172  1
  Mn3.30+  Mn79  1  0.49990764  0.00124526  0.49973144  1
  Mn3.30+  Mn80  1  0.50285825  0.33381419  -0.00035322  1
  Mn3.30+  Mn81  1  0.50132250  0.33246774  0.50070602  1
  Mn3.30+  Mn82  1  0.49999900  0.66519508  -0.00050052  1
  Mn3.30+  Mn83  1  0.49989963  0.66581324  0.50046102  1
  Mn3.30+  Mn84  1  0.83520631  0.00211652  -0.00007522  1
  Mn3.30+  Mn85  1  0.83359421  0.00312324  0.50147897  1
  Mn3.30+  Mn86  1  0.83518551  0.33351231  0.00148971  1
  Mn3.30+  Mn87  1  0.83582245  0.33435122  0.50266688  1
  Mn3.30+  Mn88  1  0.83317702  0.66545345  -0.00020931  1
  Mn3.30+  Mn89  1  0.83288082  0.66484269  0.50229736  1
  Mn3.30+  Mn90  1  -0.00311927  0.16667436  0.24704542  1
  Mn3.30+  Mn91  1  0.00024870  0.16944085  0.74865449  1
  Mn3.30+  Mn92  1  0.00074909  0.49751850  0.25091841  1
  Mn3.30+  Mn93  1  -0.00113261  0.49827430  0.74828894  1
  Mn3.30+  Mn94  1  -0.00034123  0.83333142  0.25027882  1
  Mn3.30+  Mn95  1  0.00074060  0.83423064  0.75072977  1
  Mn3.30+  Mn96  1  0.33434526  0.16615955  0.24665549  1
  Mn3.30+  Mn97  1  0.33033643  0.16636210  0.75179864  1
  Mn3.30+  Mn98  1  0.33292780  0.49990657  0.25248074  1
  Mn3.30+  Mn99  1  0.33528247  0.49836324  0.74946119  1
  Mn3.30+  Mn100  1  0.33173494  0.83107929  0.24992380  1
  Mn3.30+  Mn101  1  0.33327039  0.83368294  0.75109034  1
  Mn3.30+  Mn102  1  0.66726232  0.17006757  0.24577949  1
  Mn3.30+  Mn103  1  0.66769480  0.16837024  0.75093048  1
  Mn3.30+  Mn104  1  0.66760554  0.49866023  0.24887065  1
  Mn3.30+  Mn105  1  0.66841589  0.50090808  0.74915040  1
  Mn3.30+  Mn106  1  0.66638364  0.83418519  0.25007663  1
  Mn3.30+  Mn107  1  0.66595581  0.83216533  0.74929644  1
  Mn3.30+  Mn108  1  0.16371888  -0.00022937  0.24657691  1
  Mn3.30+  Mn109  1  0.16403898  0.00085326  0.75223568  1
  Mn3.30+  Mn110  1  0.16539188  0.33346417  0.24878933  1
  Mn3.30+  Mn111  1  0.16551248  0.33192736  0.74834958  1
  Mn3.30+  Mn112  1  0.16837373  0.66388880  0.25330432  1
  Mn3.30+  Mn113  1  0.16650492  0.66566863  0.74943221  1
  Mn3.30+  Mn114  1  0.50010007  0.00225791  0.24841294  1
  Mn3.30+  Mn115  1  0.49776527  0.00023375  0.75091740  1
  Mn3.30+  Mn116  1  0.50341001  0.33280881  0.24890483  1
  Mn3.30+  Mn117  1  0.50092440  0.33359424  0.75025195  1
  Mn3.30+  Mn118  1  0.49801232  0.66544685  0.25065167  1
  Mn3.30+  Mn119  1  0.50201753  0.66545234  0.74998842  1
  Mn3.30+  Mn120  1  0.83377967  0.00309118  0.24770555  1
  Mn3.30+  Mn121  1  0.83464067  0.00220649  0.75125380  1
  Mn3.30+  Mn122  1  0.83503031  0.33306974  0.24668550  1
  Mn3.30+  Mn123  1  0.83589509  0.33473982  0.74937231  1
  Mn3.30+  Mn124  1  0.83368988  0.66539319  0.25009500  1
  Mn3.30+  Mn125  1  0.83234330  0.66488955  0.74804377  1
  Mn3.30+  Mn126  1  -0.00237837  0.16611374  0.00093882  1
  Mn3.30+  Mn127  1  -0.00063025  0.16968387  0.50358142  1
  Mn3.30+  Mn128  1  -0.00041818  0.49909146  0.00043564  1
  Mn3.30+  Mn129  1  -0.00012712  0.49653744  0.50067640  1
  Mn3.30+  Mn130  1  0.00096996  0.83451537  -0.00001663  1
  Mn3.30+  Mn131  1  -0.00047231  0.83341426  0.49987653  1
  Mn3.30+  Mn132  1  0.33383632  0.16575026  0.00094679  1
  Mn3.30+  Mn133  1  0.33127305  0.16688041  0.49997370  1
  Mn3.30+  Mn134  1  0.33476944  0.49892652  0.00011311  1
  Mn3.30+  Mn135  1  0.33328710  0.49912854  0.49799761  1
  Mn3.30+  Mn136  1  0.33224933  0.83211022  -0.00015330  1
  Mn3.30+  Mn137  1  0.33265117  0.83267965  0.49958128  1
  Mn3.30+  Mn138  1  0.66706267  0.16981015  0.00161857  1
  Mn3.30+  Mn139  1  0.66793415  0.16841433  0.50153760  1
  Mn3.30+  Mn140  1  0.66616681  0.49886291  -0.00167138  1
  Mn3.30+  Mn141  1  0.66990044  0.50067521  0.50322692  1
  Mn3.30+  Mn142  1  0.66668532  0.83388551  0.00041205  1
  Mn3.30+  Mn143  1  0.66560108  0.83264365  0.50039571  1
  O2-  O144  1  0.02452355  0.15592675  0.12364095  1
  O2-  O145  1  0.03049711  0.15955828  0.62692897  1
  O2-  O146  1  0.02390052  0.49955767  0.12750715  1
  O2-  O147  1  0.02591284  0.49601594  0.62319522  1
  O2-  O148  1  0.02315483  0.82298798  0.12755057  1
  O2-  O149  1  0.02301898  0.82742041  0.62298757  1
  O2-  O150  1  0.36259888  0.15896887  0.12352296  1
  O2-  O151  1  0.35221733  0.16292137  0.62678100  1
  O2-  O152  1  0.36072650  0.49442298  0.12807315  1
  O2-  O153  1  0.36009843  0.49256165  0.62406436  1
  O2-  O154  1  0.35750608  0.83045192  0.12673931  1
  O2-  O155  1  0.35945763  0.82744573  0.62469980  1
  O2-  O156  1  0.69667711  0.16047456  0.12323137  1
  O2-  O157  1  0.69336959  0.16152389  0.62804101  1
  O2-  O158  1  0.68152939  0.49800251  0.12460698  1
  O2-  O159  1  0.69534530  0.49168598  0.62579217  1
  O2-  O160  1  0.69329333  0.82565354  0.12626152  1
  O2-  O161  1  0.69119772  0.82669187  0.62534860  1
  O2-  O162  1  0.13891135  0.32784851  0.12551230  1
  O2-  O163  1  0.14063431  0.32590195  0.62369360  1
  O2-  O164  1  0.14273945  0.66026308  0.12902929  1
  O2-  O165  1  0.14297312  0.65931326  0.62188542  1
  O2-  O166  1  0.13496577  0.99141582  0.12557034  1
  O2-  O167  1  0.14034577  0.99303810  0.62626779  1
  O2-  O168  1  0.47674095  0.33145000  0.12526398  1
  O2-  O169  1  0.47498033  0.33181153  0.62450405  1
  O2-  O170  1  0.47945842  0.65918474  0.12607492  1
  O2-  O171  1  0.47284858  0.66092237  0.62604060  1
  O2-  O172  1  0.47397227  0.99252450  0.12545750  1
  O2-  O173  1  0.47323958  0.99545607  0.62559499  1
  O2-  O174  1  0.80845453  0.32834122  0.12383795  1
  O2-  O175  1  0.80880632  0.32496022  0.62646133  1
  O2-  O176  1  0.81075617  0.66752324  0.12530635  1
  O2-  O177  1  0.80890557  0.66300421  0.62438703  1
  O2-  O178  1  0.80493680  0.99166519  0.12408368  1
  O2-  O179  1  0.80609880  0.99261112  0.62729231  1
  O2-  O180  1  0.30700892  0.17120376  0.37188587  1
  O2-  O181  1  0.30554885  0.17550588  0.87731594  1
  O2-  O182  1  0.30729347  0.50153727  0.37532082  1
  O2-  O183  1  0.30708783  0.50160632  0.87268356  1
  O2-  O184  1  0.30639896  0.84335189  0.37444256  1
  O2-  O185  1  0.31534270  0.83782032  0.87397908  1
  O2-  O186  1  0.64268587  0.17373545  0.37181025  1
  O2-  O187  1  0.64032947  0.17392980  0.87681151  1
  O2-  O188  1  0.64342072  0.50348934  0.37710928  1
  O2-  O189  1  0.64012226  0.50603678  0.87240420  1
  O2-  O190  1  0.63897586  0.84184058  0.37410388  1
  O2-  O191  1  0.63916216  0.83977604  0.87452429  1
  O2-  O192  1  0.97469769  0.17270064  0.37421437  1
  O2-  O193  1  0.97532118  0.17733135  0.87552345  1
  O2-  O194  1  0.97962751  0.50047324  0.37669715  1
  O2-  O195  1  0.98541391  0.49828992  0.87240130  1
  O2-  O196  1  0.97399981  0.84080148  0.37552162  1
  O2-  O197  1  0.97614259  0.83819920  0.87434584  1
  O2-  O198  1  0.19116613  0.00659855  0.37255184  1
  O2-  O199  1  0.19199659  0.00536597  0.87568332  1
  O2-  O200  1  0.19033531  0.33517774  0.37305435  1
  O2-  O201  1  0.19275905  0.34124139  0.87727393  1
  O2-  O202  1  0.19664861  0.67422149  0.37614310  1
  O2-  O203  1  0.19160382  0.66306640  0.87260334  1
  O2-  O204  1  0.52519985  0.00822800  0.37223442  1
  O2-  O205  1  0.52465755  0.00315381  0.87645175  1
  O2-  O206  1  0.52788489  0.33686172  0.37503278  1
  O2-  O207  1  0.52539378  0.33911497  0.87477192  1
  O2-  O208  1  0.52699196  0.67034775  0.37494972  1
  O2-  O209  1  0.52772389  0.67545761  0.87363246  1
  O2-  O210  1  0.85849780  0.00890421  0.37416003  1
  O2-  O211  1  0.86149473  0.00716770  0.87464847  1
  O2-  O212  1  0.85581961  0.33044531  0.37558159  1
  O2-  O213  1  0.85800535  0.33473976  0.87438409  1
  O2-  O214  1  0.85751160  0.67278640  0.37650940  1
  O2-  O215  1  0.85140686  0.67294838  0.87412316  1
  O2-  O216  1  0.23345602  0.09203165  0.02325602  1
  O2-  O217  1  0.23626919  0.09472292  0.51995514  1
  O2-  O218  1  0.24074131  0.42598105  0.02385882  1
  O2-  O219  1  0.24004915  0.42277576  0.52155988  1
  O2-  O220  1  0.23875917  0.75982026  0.01801802  1
  O2-  O221  1  0.23689600  0.76190263  0.52149323  1
  O2-  O222  1  0.57057889  0.09801588  0.02045008  1
  O2-  O223  1  0.57543457  0.09329591  0.51674920  1
  O2-  O224  1  0.56954739  0.42977990  0.01577161  1
  O2-  O225  1  0.57373920  0.42998163  0.52055622  1
  O2-  O226  1  0.57215125  0.76105734  0.02191560  1
  O2-  O227  1  0.56731676  0.76271980  0.51696199  1
  O2-  O228  1  0.89897874  0.09881916  0.01875298  1
  O2-  O229  1  0.90589097  0.09937545  0.52347464  1
  O2-  O230  1  0.90949442  0.42388060  0.01662947  1
  O2-  O231  1  0.90352978  0.42825190  0.52139643  1
  O2-  O232  1  0.90616453  0.76289892  0.01776289  1
  O2-  O233  1  0.90372256  0.76098252  0.52021222  1
  O2-  O234  1  0.26138511  0.25874060  0.22725432  1
  O2-  O235  1  0.26203676  0.26326831  0.73285297  1
  O2-  O236  1  0.25825801  0.58959862  0.23072990  1
  O2-  O237  1  0.26381657  0.59308457  0.72840390  1
  O2-  O238  1  0.25912049  0.92833063  0.22774761  1
  O2-  O239  1  0.25888165  0.92756559  0.72823472  1
  O2-  O240  1  0.59971456  0.26619077  0.22873092  1
  O2-  O241  1  0.59574839  0.26342022  0.73297559  1
  O2-  O242  1  0.59377946  0.59480469  0.23258454  1
  O2-  O243  1  0.59649823  0.59669605  0.72580529  1
  O2-  O244  1  0.59519502  0.92882819  0.22778252  1
  O2-  O245  1  0.59624512  0.92686231  0.72816328  1
  O2-  O246  1  0.93185599  0.26267835  0.22975528  1
  O2-  O247  1  0.93250946  0.26489437  0.73103304  1
  O2-  O248  1  0.93161790  0.59565344  0.23648151  1
  O2-  O249  1  0.92860970  0.59352802  0.72954816  1
  O2-  O250  1  0.92714392  0.93149594  0.22891022  1
  O2-  O251  1  0.92391057  0.92782203  0.72735113  1
  O2-  O252  1  0.09464612  0.23677767  0.26850065  1
  O2-  O253  1  0.09505347  0.23988449  0.77507403  1
  O2-  O254  1  0.09654062  0.57060243  0.27331339  1
  O2-  O255  1  0.09838260  0.56876541  0.76208423  1
  O2-  O256  1  0.09436734  0.90437422  0.27221178  1
  O2-  O257  1  0.09314470  0.90646496  0.76451963  1
  O2-  O258  1  0.42974844  0.24210669  0.27064528  1
  O2-  O259  1  0.42560909  0.23799761  0.77290379  1
  O2-  O260  1  0.42912762  0.57030022  0.27142858  1
  O2-  O261  1  0.43167750  0.57084814  0.77219168  1
  O2-  O262  1  0.42519499  0.90359932  0.27048459  1
  O2-  O263  1  0.43072592  0.90350786  0.76641222  1
  O2-  O264  1  0.76196931  0.23914886  0.27062659  1
  O2-  O265  1  0.76181084  0.24153228  0.77283698  1
  O2-  O266  1  0.75597601  0.57655666  0.26748208  1
  O2-  O267  1  0.75768625  0.57562841  0.76968174  1
  O2-  O268  1  0.76290665  0.90749879  0.27186825  1
  O2-  O269  1  0.75993803  0.90596571  0.77195141  1
  O2-  O270  1  0.06918543  0.07232286  0.47911730  1
  O2-  O271  1  0.06940120  0.07248384  0.97594783  1
  O2-  O272  1  0.07283851  0.40369746  0.48042225  1
  O2-  O273  1  0.07745197  0.40625944  0.98118183  1
  O2-  O274  1  0.07382207  0.73550110  0.47862181  1
  O2-  O275  1  0.07367689  0.73696172  0.98830914  1
  O2-  O276  1  0.40296915  0.07356394  0.47970158  1
  O2-  O277  1  0.40244170  0.06922169  0.97659941  1
  O2-  O278  1  0.40684866  0.40489958  0.47734999  1
  O2-  O279  1  0.40401415  0.40300574  0.98333486  1
  O2-  O280  1  0.40191174  0.73757783  0.47789822  1
  O2-  O281  1  0.40829543  0.73671319  0.97826408  1
  O2-  O282  1  0.73918634  0.07263814  0.47961526  1
  O2-  O283  1  0.73601189  0.07171190  0.97814042  1
  O2-  O284  1  0.73704231  0.40253117  0.48395040  1
  O2-  O285  1  0.73810708  0.40666402  0.98293535  1
  O2-  O286  1  0.73779869  0.74201126  0.47743684  1
  O2-  O287  1  0.73854963  0.74062361  0.97988008  1
  O2-  O288  1  0.09347875  0.23883487  0.47549409  1
  O2-  O289  1  0.09718623  0.23755923  0.98125471  1
  O2-  O290  1  0.09803060  0.56959787  0.47849229  1
  O2-  O291  1  0.09700484  0.57043523  0.98660102  1
  O2-  O292  1  0.09578148  0.90636236  0.47957059  1
  O2-  O293  1  0.09333340  0.90477042  0.98362783  1
  O2-  O294  1  0.42500329  0.23910828  0.47678009  1
  O2-  O295  1  0.43113550  0.24122250  0.97879907  1
  O2-  O296  1  0.43151165  0.57074082  0.48161487  1
  O2-  O297  1  0.42848613  0.57046351  0.97709923  1
  O2-  O298  1  0.42815479  0.90548694  0.47832481  1
  O2-  O299  1  0.42849782  0.90259200  0.98548091  1
  O2-  O300  1  0.76119661  0.24011579  0.48039407  1
  O2-  O301  1  0.76184174  0.24025690  0.97684950  1
  O2-  O302  1  0.75901849  0.57522232  0.48022350  1
  O2-  O303  1  0.75461778  0.57651687  0.98233887  1
  O2-  O304  1  0.76051816  0.90620115  0.47943483  1
  O2-  O305  1  0.76208617  0.90696971  0.97773878  1
  O2-  O306  1  0.07125381  0.07357738  0.27241094  1
  O2-  O307  1  0.06811699  0.07119638  0.77321514  1
  O2-  O308  1  0.07418666  0.40555207  0.26903652  1
  O2-  O309  1  0.07512311  0.40514777  0.76909061  1
  O2-  O310  1  0.07270694  0.73586226  0.27342095  1
  O2-  O311  1  0.07444945  0.73710829  0.76069490  1
  O2-  O312  1  0.40418576  0.07264663  0.27095840  1
  O2-  O313  1  0.40062569  0.07151533  0.77195021  1
  O2-  O314  1  0.40632358  0.40489873  0.27160203  1
  O2-  O315  1  0.40438524  0.40338313  0.76810590  1
  O2-  O316  1  0.40537147  0.73756919  0.27454323  1
  O2-  O317  1  0.40617891  0.73563796  0.77004554  1
  O2-  O318  1  0.73613614  0.07197238  0.27000619  1
  O2-  O319  1  0.73997992  0.07215751  0.77319748  1
  O2-  O320  1  0.73841365  0.40533043  0.26563230  1
  O2-  O321  1  0.73727595  0.40418523  0.76793501  1
  O2-  O322  1  0.73754421  0.74083031  0.27259094  1
  O2-  O323  1  0.73849775  0.74274755  0.77097990  1
  O2-  O324  1  0.23642633  0.09160972  0.22538772  1
  O2-  O325  1  0.23441917  0.09604109  0.73024701  1
  O2-  O326  1  0.24272791  0.42352774  0.22755740  1
  O2-  O327  1  0.23847268  0.42541410  0.72739160  1
  O2-  O328  1  0.23483605  0.76424785  0.23307012  1
  O2-  O329  1  0.24078467  0.75846411  0.72682426  1
  O2-  O330  1  0.57317579  0.10082896  0.22640520  1
  O2-  O331  1  0.57368320  0.09098869  0.73520686  1
  O2-  O332  1  0.56837141  0.43111850  0.23553676  1
  O2-  O333  1  0.57503455  0.42886475  0.72757736  1
  O2-  O334  1  0.57023393  0.76046124  0.23037146  1
  O2-  O335  1  0.56903025  0.76294744  0.73067417  1
  O2-  O336  1  0.89983572  0.09890770  0.23049508  1
  O2-  O337  1  0.90502926  0.09902084  0.72751603  1
  O2-  O338  1  0.90824707  0.42385369  0.23393169  1
  O2-  O339  1  0.90503237  0.42847180  0.72831528  1
  O2-  O340  1  0.90493980  0.76273370  0.23229324  1
  O2-  O341  1  0.90507227  0.76084490  0.73007961  1
  O2-  O342  1  0.26129940  0.26113600  0.02360342  1
  O2-  O343  1  0.26173062  0.26155223  0.51581041  1
  O2-  O344  1  0.25988499  0.59065859  0.01674857  1
  O2-  O345  1  0.26170010  0.59238348  0.52270173  1
  O2-  O346  1  0.25689173  0.92674936  0.02205013  1
  O2-  O347  1  0.26177239  0.92868756  0.52134098  1
  O2-  O348  1  0.59867282  0.26575834  0.01975575  1
  O2-  O349  1  0.59675268  0.26281437  0.51798600  1
  O2-  O350  1  0.59360509  0.59601886  0.01888801  1
  O2-  O351  1  0.59719431  0.59463800  0.52224268  1
  O2-  O352  1  0.59506084  0.92858702  0.02131752  1
  O2-  O353  1  0.59563880  0.92773922  0.52196375  1
  O2-  O354  1  0.93251596  0.26243768  0.01957438  1
  O2-  O355  1  0.93216863  0.26478180  0.51941492  1
  O2-  O356  1  0.92579855  0.59552915  0.01679458  1
  O2-  O357  1  0.93249554  0.59555956  0.51658162  1
  O2-  O358  1  0.92570960  0.92825392  0.02291173  1
  O2-  O359  1  0.92577858  0.93190294  0.52076410  1
