# generated using pymatgen
data_Sr7Ca15Pr50Mn72O216
_symmetry_space_group_name_H-M   'P 1'
_cell_length_a   16.55870565
_cell_length_b   16.60431677
_cell_length_c   15.59341979
_cell_angle_alpha   90.00488366
_cell_angle_beta   89.99206849
_cell_angle_gamma   89.99890666
_symmetry_Int_Tables_number   1
_chemical_formula_structural   Sr7Ca15Pr50Mn72O216
_chemical_formula_sum   'Sr7 Ca15 Pr50 Mn72 O216'
_cell_volume   4287.34824510
_cell_formula_units_Z   1
loop_
 _symmetry_equiv_pos_site_id
 _symmetry_equiv_pos_as_xyz
  1  'x, y, z'
loop_
 _atom_type_symbol
 _atom_type_oxidation_number
  Sr2+  2.0
  Ca2+  2.0
  Pr3+  3.0
  Mn3.30+  3.3
  O2-  -2.0
loop_
 _atom_site_type_symbol
 _atom_site_label
 _atom_site_symmetry_multiplicity
 _atom_site_fract_x
 _atom_site_fract_y
 _atom_site_fract_z
 _atom_site_occupancy
  Sr2+  Sr0  1  0.66876706  0.32201172  0.87704545  1
  Sr2+  Sr1  1  0.16300765  0.82330850  0.87542992  1
  Sr2+  Sr2  1  -0.00229712  0.34516115  0.62505677  1
  Sr2+  Sr3  1  0.33487986  0.32266681  0.37239204  1
  Sr2+  Sr4  1  0.66510089  0.00978622  0.62720628  1
  Sr2+  Sr5  1  1.00178742  0.65845216  0.87551776  1
  Sr2+  Sr6  1  1.00352528  0.32308705  0.37369484  1
  Ca2+  Ca7  1  0.83622510  0.18161114  0.12354358  1
  Ca2+  Ca8  1  0.66686530  0.98874138  0.87652463  1
  Ca2+  Ca9  1  0.50091871  0.15163091  0.87677278  1
  Ca2+  Ca10  1  0.67298439  0.65293518  0.87310435  1
  Ca2+  Ca11  1  0.32993263  0.34693985  0.12382050  1
  Ca2+  Ca12  1  1.00225607  0.98471512  0.87851940  1
  Ca2+  Ca13  1  0.34121981  0.31554963  0.87722434  1
  Ca2+  Ca14  1  0.50637023  0.85191301  0.12383451  1
  Ca2+  Ca15  1  0.66951242  0.98699843  0.37360283  1
  Ca2+  Ca16  1  -0.00254280  0.34647611  0.12492286  1
  Ca2+  Ca17  1  0.33909119  0.65065904  0.37493189  1
  Ca2+  Ca18  1  0.83671393  0.51349611  0.62773631  1
  Ca2+  Ca19  1  0.66429050  0.68142349  0.62694421  1
  Ca2+  Ca20  1  -0.00792643  0.01749090  0.12199981  1
  Ca2+  Ca21  1  0.66285868  0.01464422  0.12237871  1
  Pr3+  Pr22  1  0.33151644  0.67822969  0.12636513  1
  Pr3+  Pr23  1  0.16489569  0.82090947  0.37367269  1
  Pr3+  Pr24  1  -0.00416823  0.67732449  0.62644099  1
  Pr3+  Pr25  1  0.33224074  0.01186077  0.12282127  1
  Pr3+  Pr26  1  0.16816896  0.18186631  0.12327837  1
  Pr3+  Pr27  1  0.82725402  0.82263472  0.37439149  1
  Pr3+  Pr28  1  0.49835744  0.48630794  0.87531082  1
  Pr3+  Pr29  1  0.66102657  0.68217745  0.12323020  1
  Pr3+  Pr30  1  0.33628731  0.98659131  0.87710650  1
  Pr3+  Pr31  1  0.50657088  0.51467057  0.62466954  1
  Pr3+  Pr32  1  0.16609609  0.84592625  0.12189121  1
  Pr3+  Pr33  1  0.16648768  0.48521688  0.37555547  1
  Pr3+  Pr34  1  0.66623784  0.34489742  0.12223804  1
  Pr3+  Pr35  1  0.49863899  0.15284445  0.37310946  1
  Pr3+  Pr36  1  0.83599736  0.85073646  0.12492504  1
  Pr3+  Pr37  1  0.16868529  0.17944305  0.62638134  1
  Pr3+  Pr38  1  0.50493584  0.84643844  0.62611578  1
  Pr3+  Pr39  1  0.33605760  0.98975463  0.37258268  1
  Pr3+  Pr40  1  1.00182148  0.32302321  0.87670586  1
  Pr3+  Pr41  1  0.66943586  0.65363391  0.37620573  1
  Pr3+  Pr42  1  -0.00312816  0.67929911  0.12408833  1
  Pr3+  Pr43  1  0.83046204  0.48775189  0.87384132  1
  Pr3+  Pr44  1  1.00136853  0.99002153  0.37234273  1
  Pr3+  Pr45  1  0.33068644  0.34521678  0.62631863  1
  Pr3+  Pr46  1  0.16901793  0.50875821  0.12639710  1
  Pr3+  Pr47  1  0.50103554  0.82185601  0.87665301  1
  Pr3+  Pr48  1  0.33458038  0.65580373  0.87537229  1
  Pr3+  Pr49  1  0.82824833  0.15259744  0.87740241  1
  Pr3+  Pr50  1  0.50257181  0.17904485  0.12250879  1
  Pr3+  Pr51  1  0.83184314  0.48409816  0.37589483  1
  Pr3+  Pr52  1  0.33129036  0.67988677  0.62365414  1
  Pr3+  Pr53  1  0.16731824  0.84622469  0.62753665  1
  Pr3+  Pr54  1  0.66536313  0.34480473  0.62766161  1
  Pr3+  Pr55  1  0.83403907  0.17773356  0.62669548  1
  Pr3+  Pr56  1  0.50117434  0.50983604  0.12487095  1
  Pr3+  Pr57  1  0.16240017  0.15251841  0.87663865  1
  Pr3+  Pr58  1  -0.00539738  0.01164308  0.62816602  1
  Pr3+  Pr59  1  0.33101594  0.01245939  0.62693801  1
  Pr3+  Pr60  1  1.00095555  0.65298595  0.37466325  1
  Pr3+  Pr61  1  0.67068448  0.31989701  0.37326255  1
  Pr3+  Pr62  1  0.83681385  0.51043452  0.12386035  1
  Pr3+  Pr63  1  0.50382897  0.17822165  0.62782118  1
  Pr3+  Pr64  1  0.83199907  0.84633051  0.62554187  1
  Pr3+  Pr65  1  0.83051392  0.15435319  0.37327473  1
  Pr3+  Pr66  1  0.16386171  0.48853423  0.87476757  1
  Pr3+  Pr67  1  0.16768810  0.51121452  0.62343979  1
  Pr3+  Pr68  1  0.49696222  0.48625262  0.37463184  1
  Pr3+  Pr69  1  0.16239587  0.15699363  0.37326645  1
  Pr3+  Pr70  1  0.49695796  0.82079872  0.37326933  1
  Pr3+  Pr71  1  0.82843014  0.82115384  0.87528182  1
  Mn3.30+  Mn72  1  0.16190763  0.00048554  0.00117930  1
  Mn3.30+  Mn73  1  0.16627267  0.00057689  0.49938873  1
  Mn3.30+  Mn74  1  0.16962324  0.33336769  -0.00101568  1
  Mn3.30+  Mn75  1  0.16689021  0.33259932  0.50076675  1
  Mn3.30+  Mn76  1  0.16578644  0.66641550  0.00094473  1
  Mn3.30+  Mn77  1  0.16831652  0.66695433  0.49770855  1
  Mn3.30+  Mn78  1  0.50299894  0.00026090  0.00018661  1
  Mn3.30+  Mn79  1  0.50170503  -0.00049474  0.49875544  1
  Mn3.30+  Mn80  1  0.49805417  0.33125330  -0.00101091  1
  Mn3.30+  Mn81  1  0.50021864  0.33252715  0.50002961  1
  Mn3.30+  Mn82  1  0.50181068  0.66679912  -0.00079974  1
  Mn3.30+  Mn83  1  0.50053478  0.66725809  0.49998824  1
  Mn3.30+  Mn84  1  0.83190973  0.00190356  0.00101679  1
  Mn3.30+  Mn85  1  0.83116324  0.00060657  0.49942125  1
  Mn3.30+  Mn86  1  0.83557718  0.33198772  0.00152618  1
  Mn3.30+  Mn87  1  0.83411876  0.33300435  0.50069125  1
  Mn3.30+  Mn88  1  0.83086707  0.66744897  -0.00076131  1
  Mn3.30+  Mn89  1  0.83106434  0.66603934  0.50226355  1
  Mn3.30+  Mn90  1  -0.00271436  0.16755985  0.24625228  1
  Mn3.30+  Mn91  1  -0.00093567  0.16640975  0.75282978  1
  Mn3.30+  Mn92  1  0.00096504  0.49831895  0.24935960  1
  Mn3.30+  Mn93  1  -0.00168128  0.50077439  0.74964428  1
  Mn3.30+  Mn94  1  -0.00173689  0.83559339  0.24948049  1
  Mn3.30+  Mn95  1  -0.00103724  0.83377961  0.75098010  1
  Mn3.30+  Mn96  1  0.33291747  0.16785080  0.24789013  1
  Mn3.30+  Mn97  1  0.33545722  0.16644204  0.75355003  1
  Mn3.30+  Mn98  1  0.33490656  0.49929023  0.24997274  1
  Mn3.30+  Mn99  1  0.33449956  0.49914765  0.75033424  1
  Mn3.30+  Mn100  1  0.33458966  0.83296874  0.24783602  1
  Mn3.30+  Mn101  1  0.33421534  0.83276990  0.75142706  1
  Mn3.30+  Mn102  1  0.66819629  0.16377709  0.24657736  1
  Mn3.30+  Mn103  1  0.66573635  0.16515395  0.75394471  1
  Mn3.30+  Mn104  1  0.66722426  0.50006644  0.24970595  1
  Mn3.30+  Mn105  1  0.66844698  0.50201415  0.74917063  1
  Mn3.30+  Mn106  1  0.66447193  0.83688769  0.24841000  1
  Mn3.30+  Mn107  1  0.66602412  0.83305217  0.75181521  1
  Mn3.30+  Mn108  1  0.16460843  0.00103440  0.24650882  1
  Mn3.30+  Mn109  1  0.16391942  -0.00005523  0.75218085  1
  Mn3.30+  Mn110  1  0.16669563  0.33275253  0.24755252  1
  Mn3.30+  Mn111  1  0.16924640  0.33313054  0.75261571  1
  Mn3.30+  Mn112  1  0.16847682  0.66596014  0.25208973  1
  Mn3.30+  Mn113  1  0.16574307  0.66694006  0.74950171  1
  Mn3.30+  Mn114  1  0.50371575  -0.00090842  0.24808006  1
  Mn3.30+  Mn115  1  0.50129471  0.00084661  0.75310537  1
  Mn3.30+  Mn116  1  0.49968808  0.33238496  0.24706322  1
  Mn3.30+  Mn117  1  0.49864047  0.33126110  0.75343792  1
  Mn3.30+  Mn118  1  0.49880996  0.66795986  0.24927067  1
  Mn3.30+  Mn119  1  0.50368276  0.66622452  0.75169988  1
  Mn3.30+  Mn120  1  0.83109143  0.00321264  0.24674232  1
  Mn3.30+  Mn121  1  0.83201918  -0.00034021  0.75365794  1
  Mn3.30+  Mn122  1  0.83608823  0.33068348  0.24827506  1
  Mn3.30+  Mn123  1  0.83356343  0.33362979  0.75017907  1
  Mn3.30+  Mn124  1  0.83163359  0.66708722  0.24972710  1
  Mn3.30+  Mn125  1  0.83050064  0.66618696  0.74918943  1
  Mn3.30+  Mn126  1  -0.00294787  0.16660811  0.00120962  1
  Mn3.30+  Mn127  1  -0.00099840  0.16681988  0.49984172  1
  Mn3.30+  Mn128  1  0.00054638  0.49992708  0.00002699  1
  Mn3.30+  Mn129  1  -0.00150736  0.49984743  0.50119471  1
  Mn3.30+  Mn130  1  -0.00134674  0.83618156  0.00032738  1
  Mn3.30+  Mn131  1  -0.00144816  0.83377039  0.49873015  1
  Mn3.30+  Mn132  1  0.33468259  0.16777388  -0.00117485  1
  Mn3.30+  Mn133  1  0.33416875  0.16648162  0.49920209  1
  Mn3.30+  Mn134  1  0.33341185  0.49725162  -0.00105536  1
  Mn3.30+  Mn135  1  0.33628320  0.50047717  0.50050174  1
  Mn3.30+  Mn136  1  0.33563848  0.83251736  0.00198961  1
  Mn3.30+  Mn137  1  0.33319755  0.83310130  0.49851886  1
  Mn3.30+  Mn138  1  0.66768640  0.16450709  0.00034048  1
  Mn3.30+  Mn139  1  0.66594486  0.16481594  0.49989506  1
  Mn3.30+  Mn140  1  0.66740920  0.50139174  -0.00128691  1
  Mn3.30+  Mn141  1  0.66880766  0.50075135  0.50269170  1
  Mn3.30+  Mn142  1  0.66591021  0.83630439  0.00092400  1
  Mn3.30+  Mn143  1  0.66471916  0.83404536  0.49931079  1
  O2-  O144  1  0.02525215  0.15850898  0.12270921  1
  O2-  O145  1  0.02435484  0.15774266  0.62868705  1
  O2-  O146  1  0.02409793  0.49583249  0.12485254  1
  O2-  O147  1  0.02334654  0.50379466  0.62424022  1
  O2-  O148  1  0.02224109  0.82630542  0.12759600  1
  O2-  O149  1  0.02335776  0.82827013  0.62182632  1
  O2-  O150  1  0.35824614  0.15843039  0.12351259  1
  O2-  O151  1  0.35889578  0.15961373  0.62793492  1
  O2-  O152  1  0.35758639  0.49462918  0.12205580  1
  O2-  O153  1  0.36202714  0.49364993  0.62492644  1
  O2-  O154  1  0.36331944  0.82608178  0.12586815  1
  O2-  O155  1  0.36001970  0.82907084  0.62608498  1
  O2-  O156  1  0.69406794  0.15869730  0.12498764  1
  O2-  O157  1  0.68924155  0.16430572  0.62742976  1
  O2-  O158  1  0.69210207  0.49572131  0.12568286  1
  O2-  O159  1  0.69465219  0.49078210  0.62451786  1
  O2-  O160  1  0.69295853  0.82596804  0.12509998  1
  O2-  O161  1  0.68774126  0.82700616  0.62582928  1
  O2-  O162  1  0.14027504  0.33101518  0.12253227  1
  O2-  O163  1  0.14838672  0.32806228  0.62748266  1
  O2-  O164  1  0.14114135  0.65756269  0.12882372  1
  O2-  O165  1  0.14144238  0.66097301  0.62145359  1
  O2-  O166  1  0.13598212  0.99376113  0.12508840  1
  O2-  O167  1  0.14003828  0.99572233  0.62638121  1
  O2-  O168  1  0.47278675  0.32842857  0.12308397  1
  O2-  O169  1  0.47406078  0.32660944  0.63033344  1
  O2-  O170  1  0.47436359  0.65734794  0.12530163  1
  O2-  O171  1  0.47441235  0.66281558  0.62673835  1
  O2-  O172  1  0.47486610  0.99673574  0.12457684  1
  O2-  O173  1  0.47474057  0.99496148  0.62673784  1
  O2-  O174  1  0.80944017  0.33085624  0.12491124  1
  O2-  O175  1  0.80831222  0.32462576  0.62417873  1
  O2-  O176  1  0.80590749  0.65957273  0.12552216  1
  O2-  O177  1  0.80558535  0.66072368  0.62354127  1
  O2-  O178  1  0.80302284  0.99490751  0.12480453  1
  O2-  O179  1  0.81472992  0.99658463  0.62632596  1
  O2-  O180  1  0.30766135  0.16557110  0.37118715  1
  O2-  O181  1  0.30602813  0.16940873  0.87685760  1
  O2-  O182  1  0.31166088  0.50589805  0.37790702  1
  O2-  O183  1  0.30708815  0.51016797  0.87493184  1
  O2-  O184  1  0.30689889  0.84370387  0.37162998  1
  O2-  O185  1  0.31308915  0.83624046  0.87612470  1
  O2-  O186  1  0.64106469  0.17528413  0.37179610  1
  O2-  O187  1  0.64204504  0.17091774  0.87673467  1
  O2-  O188  1  0.64110537  0.50471060  0.37514724  1
  O2-  O189  1  0.64232571  0.50734362  0.87412556  1
  O2-  O190  1  0.64144931  0.84036174  0.37195756  1
  O2-  O191  1  0.64359952  0.84295755  0.87740012  1
  O2-  O192  1  0.97641633  0.16686889  0.37131369  1
  O2-  O193  1  0.97339206  0.17709502  0.87724489  1
  O2-  O194  1  0.97615628  0.50477145  0.37551217  1
  O2-  O195  1  0.97590135  0.50159800  0.87537775  1
  O2-  O196  1  0.97235543  0.84104505  0.37345457  1
  O2-  O197  1  0.97443046  0.83747780  0.87698287  1
  O2-  O198  1  0.19205581  0.00779527  0.37142847  1
  O2-  O199  1  0.19186954  0.00431568  0.87671957  1
  O2-  O200  1  0.18498201  0.33418667  0.37466040  1
  O2-  O201  1  0.19796353  0.34003604  0.87482990  1
  O2-  O202  1  0.19775245  0.67473576  0.37501420  1
  O2-  O203  1  0.19035095  0.66729081  0.87476029  1
  O2-  O204  1  0.52653155  0.00572813  0.37172074  1
  O2-  O205  1  0.52410044  0.00443281  0.87687699  1
  O2-  O206  1  0.52701414  0.33818154  0.37033765  1
  O2-  O207  1  0.52111771  0.34057927  0.87541816  1
  O2-  O208  1  0.52629390  0.67211021  0.37311051  1
  O2-  O209  1  0.52973651  0.67229379  0.87486540  1
  O2-  O210  1  0.85883017  0.00556407  0.37266102  1
  O2-  O211  1  0.86115347  0.00427946  0.87713189  1
  O2-  O212  1  0.85310210  0.33549543  0.37483202  1
  O2-  O213  1  0.85766150  0.33882151  0.87683850  1
  O2-  O214  1  0.85687246  0.67438080  0.37508848  1
  O2-  O215  1  0.85326788  0.67334727  0.87544503  1
  O2-  O216  1  0.23652983  0.09364383  0.02029491  1
  O2-  O217  1  0.23900531  0.09401257  0.52154065  1
  O2-  O218  1  0.23659666  0.42998425  0.01949013  1
  O2-  O219  1  0.24333151  0.42759402  0.51933002  1
  O2-  O220  1  0.24188307  0.75751861  0.02408094  1
  O2-  O221  1  0.23720649  0.76249747  0.52153222  1
  O2-  O222  1  0.57074493  0.09505871  0.02017436  1
  O2-  O223  1  0.56899355  0.09788581  0.51643029  1
  O2-  O224  1  0.57288687  0.42665325  0.01940852  1
  O2-  O225  1  0.57465936  0.42927784  0.52098248  1
  O2-  O226  1  0.57143895  0.76532135  0.02186719  1
  O2-  O227  1  0.56719928  0.76289687  0.51569130  1
  O2-  O228  1  0.89882089  0.09932445  0.01914226  1
  O2-  O229  1  0.90550919  0.09380006  0.51928683  1
  O2-  O230  1  0.90684107  0.42957038  0.01829392  1
  O2-  O231  1  0.90056427  0.42995432  0.51681038  1
  O2-  O232  1  0.90345822  0.76181081  0.02108234  1
  O2-  O233  1  0.90245364  0.76033150  0.52100914  1
  O2-  O234  1  0.26011467  0.26102408  0.22537006  1
  O2-  O235  1  0.26258393  0.25871714  0.72937384  1
  O2-  O236  1  0.26097992  0.59271872  0.22874583  1
  O2-  O237  1  0.26296375  0.59409242  0.72755742  1
  O2-  O238  1  0.25933614  0.92763858  0.22557320  1
  O2-  O239  1  0.25911635  0.92811007  0.73018420  1
  O2-  O240  1  0.59601502  0.26107967  0.22595042  1
  O2-  O241  1  0.59313052  0.26084435  0.72893720  1
  O2-  O242  1  0.59434910  0.59646395  0.23005578  1
  O2-  O243  1  0.59537218  0.59461051  0.72483796  1
  O2-  O244  1  0.59655804  0.93050402  0.22655745  1
  O2-  O245  1  0.59044123  0.92390665  0.73273104  1
  O2-  O246  1  0.93034355  0.26320436  0.22762095  1
  O2-  O247  1  0.92707407  0.25870095  0.73256521  1
  O2-  O248  1  0.92931623  0.59403222  0.23115659  1
  O2-  O249  1  0.92576842  0.59711581  0.73078328  1
  O2-  O250  1  0.92643967  0.93415632  0.22802322  1
  O2-  O251  1  0.92545364  0.92548654  0.72934370  1
  O2-  O252  1  0.09738484  0.23554899  0.26335694  1
  O2-  O253  1  0.09574233  0.23869669  0.77172662  1
  O2-  O254  1  0.09697901  0.57379362  0.27442967  1
  O2-  O255  1  0.09660797  0.56978261  0.76495229  1
  O2-  O256  1  0.09581053  0.90624616  0.27145546  1
  O2-  O257  1  0.09324269  0.90687745  0.76424590  1
  O2-  O258  1  0.43184549  0.23675141  0.26674227  1
  O2-  O259  1  0.42980946  0.23275441  0.77150738  1
  O2-  O260  1  0.43105953  0.57104666  0.26788434  1
  O2-  O261  1  0.43058634  0.57178364  0.77088398  1
  O2-  O262  1  0.42828400  0.90808801  0.27115589  1
  O2-  O263  1  0.42778992  0.90554400  0.77164540  1
  O2-  O264  1  0.76050335  0.23929997  0.26928476  1
  O2-  O265  1  0.76216994  0.23613904  0.76704321  1
  O2-  O266  1  0.76190550  0.57191347  0.27200035  1
  O2-  O267  1  0.76233387  0.57220674  0.77054083  1
  O2-  O268  1  0.76485922  0.90427337  0.26744854  1
  O2-  O269  1  0.76267212  0.90337663  0.76640170  1
  O2-  O270  1  0.07156586  0.07158938  0.47979481  1
  O2-  O271  1  0.06921809  0.07459425  0.97591233  1
  O2-  O272  1  0.07812072  0.41072753  0.48451554  1
  O2-  O273  1  0.07656857  0.40553024  0.97616568  1
  O2-  O274  1  0.07077741  0.74081087  0.47616001  1
  O2-  O275  1  0.07423202  0.73822988  0.99069245  1
  O2-  O276  1  0.40476375  0.06986935  0.47986376  1
  O2-  O277  1  0.40188955  0.06913823  0.98291108  1
  O2-  O278  1  0.40952815  0.40651994  0.48205531  1
  O2-  O279  1  0.40354411  0.40673918  0.97645642  1
  O2-  O280  1  0.40161863  0.73797652  0.47839765  1
  O2-  O281  1  0.40764887  0.73634703  0.97871596  1
  O2-  O282  1  0.73880907  0.07315123  0.47706427  1
  O2-  O283  1  0.73766230  0.07036488  0.97491092  1
  O2-  O284  1  0.73745490  0.40441847  0.47866472  1
  O2-  O285  1  0.74304931  0.40827965  0.98433791  1
  O2-  O286  1  0.73784165  0.74073000  0.47777771  1
  O2-  O287  1  0.73553510  0.73800559  0.98047742  1
  O2-  O288  1  0.09503220  0.23448676  0.48582295  1
  O2-  O289  1  0.09802454  0.23922430  0.97913128  1
  O2-  O290  1  0.09679768  0.57499675  0.47658209  1
  O2-  O291  1  0.09647834  0.56952654  0.98424856  1
  O2-  O292  1  0.09600532  0.90652864  0.47814599  1
  O2-  O293  1  0.09337402  0.90630951  0.98477555  1
  O2-  O294  1  0.42917600  0.23466591  0.48215418  1
  O2-  O295  1  0.43094784  0.23375179  0.97983123  1
  O2-  O296  1  0.43267953  0.57062332  0.48279647  1
  O2-  O297  1  0.42706875  0.57064585  0.97853720  1
  O2-  O298  1  0.42688505  0.90525471  0.47818277  1
  O2-  O299  1  0.42888464  0.90714381  0.97998728  1
  O2-  O300  1  0.75936023  0.23762481  0.48046483  1
  O2-  O301  1  0.76341119  0.23720789  0.98416843  1
  O2-  O302  1  0.76115184  0.57249039  0.47499627  1
  O2-  O303  1  0.76278757  0.57188745  0.98148060  1
  O2-  O304  1  0.76296108  0.90467019  0.48345839  1
  O2-  O305  1  0.76536781  0.90225744  0.98337756  1
  O2-  O306  1  0.07220923  0.07389239  0.27093205  1
  O2-  O307  1  0.06993548  0.07198778  0.77415757  1
  O2-  O308  1  0.07724151  0.40991778  0.26767168  1
  O2-  O309  1  0.07574263  0.40607208  0.77165088  1
  O2-  O310  1  0.07403009  0.73749291  0.27180221  1
  O2-  O311  1  0.07169923  0.73992460  0.76103657  1
  O2-  O312  1  0.40633943  0.07090265  0.26813484  1
  O2-  O313  1  0.40086927  0.06779518  0.76897069  1
  O2-  O314  1  0.41127224  0.40930395  0.26807656  1
  O2-  O315  1  0.40359767  0.40355878  0.77173261  1
  O2-  O316  1  0.40389244  0.73611329  0.27326160  1
  O2-  O317  1  0.40810061  0.73635563  0.77119798  1
  O2-  O318  1  0.73792725  0.07232228  0.27632494  1
  O2-  O319  1  0.73967887  0.07143584  0.77419384  1
  O2-  O320  1  0.74010328  0.40432789  0.26880592  1
  O2-  O321  1  0.73984936  0.40756409  0.76845838  1
  O2-  O322  1  0.73468695  0.73962266  0.27011300  1
  O2-  O323  1  0.73786435  0.74011578  0.77154348  1
  O2-  O324  1  0.23712404  0.09306638  0.22547332  1
  O2-  O325  1  0.23745473  0.09422672  0.73100675  1
  O2-  O326  1  0.23935540  0.42779381  0.23483982  1
  O2-  O327  1  0.23944296  0.42906145  0.72741413  1
  O2-  O328  1  0.23707940  0.76083986  0.22652594  1
  O2-  O329  1  0.24160075  0.75918484  0.72683268  1
  O2-  O330  1  0.56954724  0.09727751  0.23057059  1
  O2-  O331  1  0.56931224  0.09512512  0.73320095  1
  O2-  O332  1  0.57424095  0.42691170  0.22725531  1
  O2-  O333  1  0.57277628  0.42912641  0.73053738  1
  O2-  O334  1  0.56820408  0.76321137  0.22805764  1
  O2-  O335  1  0.56914171  0.76303194  0.73335349  1
  O2-  O336  1  0.89994066  0.09943960  0.23025648  1
  O2-  O337  1  0.90432019  0.09399967  0.73186613  1
  O2-  O338  1  0.90286812  0.42867844  0.23352913  1
  O2-  O339  1  0.90461937  0.43072819  0.73287181  1
  O2-  O340  1  0.90313052  0.76069235  0.22976877  1
  O2-  O341  1  0.90272562  0.76036457  0.72824332  1
  O2-  O342  1  0.26233383  0.26084698  0.02318121  1
  O2-  O343  1  0.26135242  0.25849334  0.52141073  1
  O2-  O344  1  0.26177751  0.59401847  0.02125146  1
  O2-  O345  1  0.26286024  0.59167464  0.52355947  1
  O2-  O346  1  0.26007643  0.92621370  0.02194540  1
  O2-  O347  1  0.26063695  0.92797099  0.52078078  1
  O2-  O348  1  0.59599085  0.25837464  0.02402847  1
  O2-  O349  1  0.59517588  0.26211816  0.52015813  1
  O2-  O350  1  0.59207166  0.59344184  0.02335522  1
  O2-  O351  1  0.59894903  0.59562660  0.52136115  1
  O2-  O352  1  0.59682292  0.92995777  0.02101641  1
  O2-  O353  1  0.59074630  0.92500787  0.51915519  1
  O2-  O354  1  0.93361873  0.26613231  0.01890237  1
  O2-  O355  1  0.92375217  0.25660327  0.51971333  1
  O2-  O356  1  0.92511507  0.59527021  0.02277162  1
  O2-  O357  1  0.92887248  0.59821629  0.51528946  1
  O2-  O358  1  0.92493466  0.93135583  0.02397762  1
  O2-  O359  1  0.92836736  0.92823026  0.51906426  1
