# generated using pymatgen
data_Sr7Ca15Pr50Mn72O216
_symmetry_space_group_name_H-M   'P 1'
_cell_length_a   16.55948445
_cell_length_b   16.60533257
_cell_length_c   15.59182673
_cell_angle_alpha   89.99822793
_cell_angle_beta   90.00038888
_cell_angle_gamma   90.00115693
_symmetry_Int_Tables_number   1
_chemical_formula_structural   Sr7Ca15Pr50Mn72O216
_chemical_formula_sum   'Sr7 Ca15 Pr50 Mn72 O216'
_cell_volume   4287.37418997
_cell_formula_units_Z   1
loop_
 _symmetry_equiv_pos_site_id
 _symmetry_equiv_pos_as_xyz
  1  'x, y, z'
loop_
 _atom_type_symbol
 _atom_type_oxidation_number
  Sr2+  2.0
  Ca2+  2.0
  Pr3+  3.0
  Mn3.30+  3.3
  O2-  -2.0
loop_
 _atom_site_type_symbol
 _atom_site_label
 _atom_site_symmetry_multiplicity
 _atom_site_fract_x
 _atom_site_fract_y
 _atom_site_fract_z
 _atom_site_occupancy
  Sr2+  Sr0  1  0.50327463  0.84230040  0.62419469  1
  Sr2+  Sr1  1  1.00323702  0.98835133  0.87427480  1
  Sr2+  Sr2  1  0.66751543  0.65569746  0.37606888  1
  Sr2+  Sr3  1  0.33434665  0.34371449  0.12465528  1
  Sr2+  Sr4  1  0.82792584  0.48683776  0.87447682  1
  Sr2+  Sr5  1  0.33299437  0.65800342  0.87406290  1
  Sr2+  Sr6  1  0.83824329  0.84340014  0.62382109  1
  Ca2+  Ca7  1  0.49598807  0.15204269  0.37277260  1
  Ca2+  Ca8  1  0.66845993  0.98696550  0.37565966  1
  Ca2+  Ca9  1  0.50370402  0.51421423  0.62330807  1
  Ca2+  Ca10  1  -0.00545158  0.01268455  0.62501321  1
  Ca2+  Ca11  1  0.50115143  0.51210393  0.12640360  1
  Ca2+  Ca12  1  1.00048512  0.31920119  0.37547061  1
  Ca2+  Ca13  1  0.66907235  0.32103055  0.87595951  1
  Ca2+  Ca14  1  0.16302471  0.81810759  0.87497706  1
  Ca2+  Ca15  1  0.66165888  0.35025820  0.62574953  1
  Ca2+  Ca16  1  0.50513881  0.18673401  0.12789547  1
  Ca2+  Ca17  1  0.16396040  0.81809110  0.37471490  1
  Ca2+  Ca18  1  0.49774115  0.48734049  0.37417389  1
  Ca2+  Ca19  1  0.65823498  0.35046489  0.12362526  1
  Ca2+  Ca20  1  -0.00444634  0.68350364  0.62588780  1
  Ca2+  Ca21  1  0.17309633  0.84609857  0.12254860  1
  Pr3+  Pr22  1  0.16768476  0.51484165  0.62404395  1
  Pr3+  Pr23  1  1.00341771  0.65663859  0.37839352  1
  Pr3+  Pr24  1  -0.00012778  0.67946065  0.12520486  1
  Pr3+  Pr25  1  0.33594742  0.98622521  0.37444029  1
  Pr3+  Pr26  1  0.83748639  0.84553558  0.12640603  1
  Pr3+  Pr27  1  0.33418091  0.67900437  0.62602183  1
  Pr3+  Pr28  1  0.49726393  0.81894295  0.87396103  1
  Pr3+  Pr29  1  0.16773302  0.84501266  0.62580137  1
  Pr3+  Pr30  1  -0.00597845  0.34349985  0.62332466  1
  Pr3+  Pr31  1  1.00478153  0.65576142  0.87198017  1
  Pr3+  Pr32  1  0.83326154  0.17695639  0.62401606  1
  Pr3+  Pr33  1  0.50199992  0.84424204  0.12506811  1
  Pr3+  Pr34  1  0.33411048  0.01073337  0.62422867  1
  Pr3+  Pr35  1  0.82936773  0.15250594  0.37464017  1
  Pr3+  Pr36  1  0.33898086  0.65274049  0.37608577  1
  Pr3+  Pr37  1  0.82845514  0.15597646  0.87562358  1
  Pr3+  Pr38  1  0.16494340  0.15581918  0.37379584  1
  Pr3+  Pr39  1  0.50643325  0.18101538  0.62240112  1
  Pr3+  Pr40  1  0.83414663  0.82002299  0.87411050  1
  Pr3+  Pr41  1  0.33458458  0.98622675  0.87524411  1
  Pr3+  Pr42  1  0.17172330  0.51106018  0.12569390  1
  Pr3+  Pr43  1  0.67232793  0.98805589  0.87524698  1
  Pr3+  Pr44  1  0.82783698  0.48870730  0.37566744  1
  Pr3+  Pr45  1  0.16363638  0.15390580  0.87655699  1
  Pr3+  Pr46  1  0.16451553  0.48884726  0.87449136  1
  Pr3+  Pr47  1  0.33685170  0.32168859  0.87508740  1
  Pr3+  Pr48  1  0.67005570  0.65218241  0.87367062  1
  Pr3+  Pr49  1  0.66399847  0.67989455  0.62417095  1
  Pr3+  Pr50  1  -0.00009086  0.01269473  0.12526434  1
  Pr3+  Pr51  1  1.00535376  0.98488186  0.37650390  1
  Pr3+  Pr52  1  0.33051983  0.67733443  0.12430819  1
  Pr3+  Pr53  1  0.17022868  0.17964476  0.12498751  1
  Pr3+  Pr54  1  0.83429634  0.51356951  0.62556977  1
  Pr3+  Pr55  1  0.33164848  0.34671565  0.62463780  1
  Pr3+  Pr56  1  0.16365508  0.48461372  0.37555773  1
  Pr3+  Pr57  1  -0.00447886  0.34605249  0.12707669  1
  Pr3+  Pr58  1  0.16715456  0.17586331  0.62529693  1
  Pr3+  Pr59  1  0.50037744  0.82163297  0.37602880  1
  Pr3+  Pr60  1  0.99814805  0.32128103  0.87490927  1
  Pr3+  Pr61  1  0.49965697  0.15704983  0.87729273  1
  Pr3+  Pr62  1  0.83263142  0.18191335  0.12611089  1
  Pr3+  Pr63  1  0.66356626  0.01030765  0.62206187  1
  Pr3+  Pr64  1  0.83199693  0.51095968  0.12487306  1
  Pr3+  Pr65  1  0.66391160  0.32410507  0.37480775  1
  Pr3+  Pr66  1  0.83068703  0.82027426  0.37595370  1
  Pr3+  Pr67  1  0.33125452  0.01304422  0.12551867  1
  Pr3+  Pr68  1  0.34162076  0.31897627  0.37416287  1
  Pr3+  Pr69  1  0.66355534  0.67651137  0.12548441  1
  Pr3+  Pr70  1  0.66101213  0.01711577  0.12777225  1
  Pr3+  Pr71  1  0.49704680  0.48754915  0.87444110  1
  Mn3.30+  Mn72  1  0.16667145  -0.00353027  0.00019945  1
  Mn3.30+  Mn73  1  0.16553888  -0.00088625  0.50072488  1
  Mn3.30+  Mn74  1  0.16655084  0.33396051  -0.00013648  1
  Mn3.30+  Mn75  1  0.16514679  0.33206130  0.49968288  1
  Mn3.30+  Mn76  1  0.16707381  0.66779443  -0.00063842  1
  Mn3.30+  Mn77  1  0.16677324  0.66817843  0.50030205  1
  Mn3.30+  Mn78  1  0.50095665  0.00201746  0.00111343  1
  Mn3.30+  Mn79  1  0.50133397  0.00061219  0.49715499  1
  Mn3.30+  Mn80  1  0.50279781  0.33487886  0.00140676  1
  Mn3.30+  Mn81  1  0.50149187  0.33546610  0.50068486  1
  Mn3.30+  Mn82  1  0.49946521  0.66449704  0.00067471  1
  Mn3.30+  Mn83  1  0.50169744  0.66386587  0.49898947  1
  Mn3.30+  Mn84  1  0.83346662  0.00045772  0.00112397  1
  Mn3.30+  Mn85  1  0.83398303  -0.00067225  0.49909852  1
  Mn3.30+  Mn86  1  0.82749433  0.33427756  0.00140468  1
  Mn3.30+  Mn87  1  0.83073939  0.33314266  0.49917564  1
  Mn3.30+  Mn88  1  0.83402063  0.66546431  0.00016203  1
  Mn3.30+  Mn89  1  0.83514782  0.66669135  0.50082363  1
  Mn3.30+  Mn90  1  -0.00075670  0.16765766  0.25123326  1
  Mn3.30+  Mn91  1  -0.00123833  0.16509241  0.74922924  1
  Mn3.30+  Mn92  1  -0.00025524  0.49943243  0.25198569  1
  Mn3.30+  Mn93  1  -0.00185108  0.49969687  0.74930627  1
  Mn3.30+  Mn94  1  0.00480776  0.83334280  0.24905253  1
  Mn3.30+  Mn95  1  0.00166392  0.83446653  0.75000055  1
  Mn3.30+  Mn96  1  0.33649976  0.16698075  0.24896895  1
  Mn3.30+  Mn97  1  0.33475755  0.16615020  0.74966195  1
  Mn3.30+  Mn98  1  0.33580736  0.49874912  0.25003847  1
  Mn3.30+  Mn99  1  0.33451324  0.50091262  0.74858243  1
  Mn3.30+  Mn100  1  0.33116102  0.83209011  0.25065876  1
  Mn3.30+  Mn101  1  0.33287867  0.83348087  0.75013209  1
  Mn3.30+  Mn102  1  0.66202902  0.16901046  0.25219320  1
  Mn3.30+  Mn103  1  0.66615762  0.16904775  0.74920748  1
  Mn3.30+  Mn104  1  0.66252156  0.49898832  0.25068163  1
  Mn3.30+  Mn105  1  0.66490336  0.49738946  0.74827442  1
  Mn3.30+  Mn106  1  0.66799874  0.83443536  0.24991718  1
  Mn3.30+  Mn107  1  0.66790373  0.83389327  0.74963857  1
  Mn3.30+  Mn108  1  0.16750262  -0.00294651  0.25015830  1
  Mn3.30+  Mn109  1  0.16458994  -0.00143803  0.74903797  1
  Mn3.30+  Mn110  1  0.16638902  0.33300345  0.25152487  1
  Mn3.30+  Mn111  1  0.16543460  0.33289018  0.74910360  1
  Mn3.30+  Mn112  1  0.16810800  0.66804288  0.25160318  1
  Mn3.30+  Mn113  1  0.16540918  0.66797752  0.74827715  1
  Mn3.30+  Mn114  1  0.50047142  0.00204033  0.25109300  1
  Mn3.30+  Mn115  1  0.50168662  0.00078041  0.75059585  1
  Mn3.30+  Mn116  1  0.50144420  0.33535242  0.24890576  1
  Mn3.30+  Mn117  1  0.50346102  0.33482705  0.74949335  1
  Mn3.30+  Mn118  1  0.49982407  0.66389094  0.25021680  1
  Mn3.30+  Mn119  1  0.50114193  0.66493316  0.74919860  1
  Mn3.30+  Mn120  1  0.83209002  0.00032216  0.25054268  1
  Mn3.30+  Mn121  1  0.83563361  -0.00076679  0.74927854  1
  Mn3.30+  Mn122  1  0.83055157  0.33420201  0.25112687  1
  Mn3.30+  Mn123  1  0.82756268  0.33318544  0.74866113  1
  Mn3.30+  Mn124  1  0.83347135  0.66573514  0.25006689  1
  Mn3.30+  Mn125  1  0.83555070  0.66632598  0.74940582  1
  Mn3.30+  Mn126  1  -0.00112840  0.16714943  0.00138919  1
  Mn3.30+  Mn127  1  -0.00096158  0.16603606  0.49890686  1
  Mn3.30+  Mn128  1  -0.00095088  0.49975360  -0.00019144  1
  Mn3.30+  Mn129  1  -0.00115701  0.49955947  0.50013543  1
  Mn3.30+  Mn130  1  0.00473711  0.83400212  0.00133868  1
  Mn3.30+  Mn131  1  0.00197556  0.83351588  0.50049015  1
  Mn3.30+  Mn132  1  0.33516143  0.16694430  0.00123880  1
  Mn3.30+  Mn133  1  0.33594933  0.16616923  0.49996381  1
  Mn3.30+  Mn134  1  0.33472209  0.50030741  0.00001237  1
  Mn3.30+  Mn135  1  0.33554891  0.49939412  0.50077904  1
  Mn3.30+  Mn136  1  0.33212263  0.83259350  -0.00069816  1
  Mn3.30+  Mn137  1  0.33235848  0.83309219  0.49950047  1
  Mn3.30+  Mn138  1  0.66367540  0.17081461  0.00228837  1
  Mn3.30+  Mn139  1  0.66494376  0.16711670  0.49629231  1
  Mn3.30+  Mn140  1  0.66414991  0.49776305  0.00063835  1
  Mn3.30+  Mn141  1  0.66336587  0.49892252  0.50019839  1
  Mn3.30+  Mn142  1  0.66764772  0.83353732  0.00050935  1
  Mn3.30+  Mn143  1  0.66828237  0.83472049  0.49880751  1
  O2-  O144  1  0.02509143  0.16353798  0.12661797  1
  O2-  O145  1  0.02284432  0.16217621  0.62258052  1
  O2-  O146  1  0.02701586  0.49289042  0.12622195  1
  O2-  O147  1  0.02488368  0.48884935  0.62352590  1
  O2-  O148  1  0.03152306  0.82628832  0.12636556  1
  O2-  O149  1  0.02497556  0.82641221  0.62435691  1
  O2-  O150  1  0.36094175  0.16020959  0.12397864  1
  O2-  O151  1  0.36163219  0.15984076  0.62541887  1
  O2-  O152  1  0.35605293  0.50091256  0.12686466  1
  O2-  O153  1  0.35949164  0.49456487  0.62503048  1
  O2-  O154  1  0.35882494  0.82790279  0.12569548  1
  O2-  O155  1  0.35359888  0.83106286  0.62456894  1
  O2-  O156  1  0.69070534  0.16157063  0.12835792  1
  O2-  O157  1  0.69018408  0.15667128  0.62029427  1
  O2-  O158  1  0.68934066  0.49587085  0.12550798  1
  O2-  O159  1  0.69141025  0.49436723  0.62427935  1
  O2-  O160  1  0.69254513  0.82656873  0.12478579  1
  O2-  O161  1  0.68631345  0.83070659  0.62544908  1
  O2-  O162  1  0.14038600  0.32925189  0.12623711  1
  O2-  O163  1  0.13864903  0.32478871  0.62505549  1
  O2-  O164  1  0.14235910  0.65608687  0.12704714  1
  O2-  O165  1  0.13795360  0.66122709  0.62338903  1
  O2-  O166  1  0.14315903  0.99159056  0.12647489  1
  O2-  O167  1  0.13739849  0.99348443  0.62430080  1
  O2-  O168  1  0.48039943  0.32771725  0.12508990  1
  O2-  O169  1  0.47344206  0.32507547  0.62547204  1
  O2-  O170  1  0.47542139  0.66263126  0.12660825  1
  O2-  O171  1  0.47845573  0.66169607  0.62380569  1
  O2-  O172  1  0.47430286  0.99063641  0.12504250  1
  O2-  O173  1  0.47825872  0.99850360  0.62311544  1
  O2-  O174  1  0.80359835  0.32982487  0.12688794  1
  O2-  O175  1  0.80470824  0.32476147  0.62318622  1
  O2-  O176  1  0.80878752  0.66208384  0.12464400  1
  O2-  O177  1  0.80898416  0.66364253  0.62458015  1
  O2-  O178  1  0.80670570  0.99414714  0.12517907  1
  O2-  O179  1  0.80783478  1.00015954  0.62228737  1
  O2-  O180  1  0.30891443  0.17074059  0.37546596  1
  O2-  O181  1  0.30832280  0.17168831  0.87434619  1
  O2-  O182  1  0.30741135  0.50407129  0.37688410  1
  O2-  O183  1  0.30848306  0.50066774  0.87148709  1
  O2-  O184  1  0.30591933  0.83760677  0.37506989  1
  O2-  O185  1  0.30703872  0.83848470  0.87417080  1
  O2-  O186  1  0.63550445  0.17819617  0.37436657  1
  O2-  O187  1  0.64282651  0.17445309  0.87725137  1
  O2-  O188  1  0.64062047  0.50047638  0.37582271  1
  O2-  O189  1  0.64101413  0.50684932  0.87411138  1
  O2-  O190  1  0.64457821  0.83951584  0.37202898  1
  O2-  O191  1  0.64196557  0.83938796  0.87675061  1
  O2-  O192  1  0.97484104  0.17161538  0.37375905  1
  O2-  O193  1  0.97382555  0.17262601  0.87713901  1
  O2-  O194  1  0.97228792  0.50997493  0.37711004  1
  O2-  O195  1  0.97825667  0.50688112  0.87461109  1
  O2-  O196  1  0.97500069  0.83738625  0.37272277  1
  O2-  O197  1  0.97708305  0.83392663  0.87759965  1
  O2-  O198  1  0.19307675  0.00947782  0.37478915  1
  O2-  O199  1  0.19175831  0.00868560  0.87458909  1
  O2-  O200  1  0.19495023  0.33577774  0.37612397  1
  O2-  O201  1  0.19165897  0.33917425  0.87280210  1
  O2-  O202  1  0.19459648  0.67277029  0.37565578  1
  O2-  O203  1  0.18344795  0.67033203  0.87399525  1
  O2-  O204  1  0.52541420  0.00582063  0.37284575  1
  O2-  O205  1  0.52870422  0.00932506  0.87820862  1
  O2-  O206  1  0.52154865  0.34425069  0.37563753  1
  O2-  O207  1  0.52745419  0.33998137  0.87340858  1
  O2-  O208  1  0.51857330  0.67478987  0.37355641  1
  O2-  O209  1  0.52545282  0.67129050  0.87500125  1
  O2-  O210  1  0.86106009  0.00468763  0.37414411  1
  O2-  O211  1  0.85222731  0.00777377  0.87801858  1
  O2-  O212  1  0.85945245  0.34129418  0.37516575  1
  O2-  O213  1  0.85494523  0.33075626  0.87541770  1
  O2-  O214  1  0.85831438  0.66840620  0.37470792  1
  O2-  O215  1  0.85943164  0.66993097  0.87679303  1
  O2-  O216  1  0.23915961  0.09233424  0.02127103  1
  O2-  O217  1  0.23829736  0.09287818  0.52259112  1
  O2-  O218  1  0.23660100  0.42966946  0.01582687  1
  O2-  O219  1  0.23538787  0.42696379  0.52137421  1
  O2-  O220  1  0.23908114  0.75803428  0.02257947  1
  O2-  O221  1  0.24015986  0.75805460  0.52419046  1
  O2-  O222  1  0.56897374  0.09904436  0.02321727  1
  O2-  O223  1  0.57239416  0.09446594  0.51965616  1
  O2-  O224  1  0.56604847  0.43401752  0.01805502  1
  O2-  O225  1  0.56897343  0.42937150  0.52185725  1
  O2-  O226  1  0.57375396  0.76160417  0.02042053  1
  O2-  O227  1  0.57556495  0.75782937  0.51401857  1
  O2-  O228  1  0.90582033  0.09536999  0.02365908  1
  O2-  O229  1  0.90222800  0.09574793  0.51605142  1
  O2-  O230  1  0.90430450  0.42519858  0.02223876  1
  O2-  O231  1  0.90183531  0.42686073  0.52206709  1
  O2-  O232  1  0.90804210  0.76201875  0.02182595  1
  O2-  O233  1  0.90982510  0.76082008  0.51216559  1
  O2-  O234  1  0.25970785  0.25705735  0.23157397  1
  O2-  O235  1  0.26122519  0.25889467  0.72849466  1
  O2-  O236  1  0.26234440  0.59490971  0.23228872  1
  O2-  O237  1  0.25831472  0.59375026  0.72584634  1
  O2-  O238  1  0.26489038  0.92965834  0.23177971  1
  O2-  O239  1  0.26129304  0.92948990  0.72904962  1
  O2-  O240  1  0.59892146  0.26854970  0.23276350  1
  O2-  O241  1  0.59490613  0.26207697  0.72559768  1
  O2-  O242  1  0.59515095  0.59502574  0.22934119  1
  O2-  O243  1  0.59816166  0.59619597  0.73188858  1
  O2-  O244  1  0.59268976  0.92786747  0.22760098  1
  O2-  O245  1  0.59767104  0.93241345  0.73546256  1
  O2-  O246  1  0.92359311  0.26168738  0.22797861  1
  O2-  O247  1  0.92626307  0.26104116  0.73000411  1
  O2-  O248  1  0.92827377  0.59363759  0.22857315  1
  O2-  O249  1  0.92836061  0.59388517  0.72735743  1
  O2-  O250  1  0.93314686  0.92605105  0.22810181  1
  O2-  O251  1  0.93177219  0.92963600  0.73204226  1
  O2-  O252  1  0.09535811  0.23779246  0.26853385  1
  O2-  O253  1  0.09302976  0.23932098  0.77136263  1
  O2-  O254  1  0.09637105  0.57265428  0.27325198  1
  O2-  O255  1  0.09593820  0.57185529  0.76761603  1
  O2-  O256  1  0.09639411  0.90493021  0.27565907  1
  O2-  O257  1  0.10063084  0.90075637  0.76806951  1
  O2-  O258  1  0.43088101  0.24063815  0.27193093  1
  O2-  O259  1  0.43033342  0.24023525  0.77158969  1
  O2-  O260  1  0.42625520  0.57215105  0.27360471  1
  O2-  O261  1  0.42949977  0.57304715  0.76775003  1
  O2-  O262  1  0.42775017  0.90355289  0.27109764  1
  O2-  O263  1  0.42806200  0.90907922  0.77362235  1
  O2-  O264  1  0.76135532  0.23844208  0.27277462  1
  O2-  O265  1  0.76326942  0.23440225  0.76590198  1
  O2-  O266  1  0.76114647  0.56851694  0.26534629  1
  O2-  O267  1  0.75841503  0.57198199  0.76500303  1
  O2-  O268  1  0.76554407  0.90495750  0.26708800  1
  O2-  O269  1  0.76272948  0.90690633  0.77215803  1
  O2-  O270  1  0.07460025  0.07281319  0.47669283  1
  O2-  O271  1  0.07604974  0.07318694  0.98569873  1
  O2-  O272  1  0.06892258  0.40471628  0.47704643  1
  O2-  O273  1  0.07069884  0.40524913  0.97878685  1
  O2-  O274  1  0.07463495  0.73973474  0.47866163  1
  O2-  O275  1  0.06867278  0.73442164  0.98421789  1
  O2-  O276  1  0.40383302  0.06955964  0.48128071  1
  O2-  O277  1  0.40587558  0.07121482  0.97783496  1
  O2-  O278  1  0.40076527  0.40046259  0.48484381  1
  O2-  O279  1  0.40654319  0.40522982  0.97725396  1
  O2-  O280  1  0.40651477  0.73872492  0.48204820  1
  O2-  O281  1  0.40852894  0.74205122  0.98240208  1
  O2-  O282  1  0.73752725  0.07271556  0.47486081  1
  O2-  O283  1  0.73351217  0.07508518  0.98323349  1
  O2-  O284  1  0.73807401  0.40672128  0.47804151  1
  O2-  O285  1  0.73388980  0.40264605  0.98172245  1
  O2-  O286  1  0.74451139  0.74126876  0.48271448  1
  O2-  O287  1  0.74138677  0.73836632  0.97831037  1
  O2-  O288  1  0.09650445  0.23707827  0.48119134  1
  O2-  O289  1  0.09213839  0.24017614  0.97945050  1
  O2-  O290  1  0.09698355  0.57226267  0.47900668  1
  O2-  O291  1  0.09522431  0.57195770  0.98062112  1
  O2-  O292  1  0.09776261  0.90346084  0.47717340  1
  O2-  O293  1  0.09964971  0.90152084  0.98064591  1
  O2-  O294  1  0.43201080  0.23799181  0.47879357  1
  O2-  O295  1  0.42772390  0.24277771  0.97692654  1
  O2-  O296  1  0.42852359  0.57245988  0.47776063  1
  O2-  O297  1  0.42776221  0.57148212  0.98096366  1
  O2-  O298  1  0.42697082  0.90733801  0.47634104  1
  O2-  O299  1  0.43062232  0.90648727  0.97821499  1
  O2-  O300  1  0.76059545  0.23815494  0.47589304  1
  O2-  O301  1  0.76376312  0.23493444  0.98561408  1
  O2-  O302  1  0.76333271  0.56947597  0.48524007  1
  O2-  O303  1  0.75743067  0.57149442  0.98394673  1
  O2-  O304  1  0.76396975  0.90721979  0.47876020  1
  O2-  O305  1  0.76227524  0.90421125  0.98023486  1
  O2-  O306  1  0.07316419  0.07007546  0.26844092  1
  O2-  O307  1  0.07697877  0.07623130  0.76911083  1
  O2-  O308  1  0.06897652  0.40487243  0.27398418  1
  O2-  O309  1  0.06969298  0.40550679  0.77107538  1
  O2-  O310  1  0.07085264  0.73570418  0.26992191  1
  O2-  O311  1  0.07179213  0.73875930  0.76756972  1
  O2-  O312  1  0.40272873  0.06889650  0.26854610  1
  O2-  O313  1  0.40642958  0.07243483  0.77166260  1
  O2-  O314  1  0.40369102  0.40404335  0.26931469  1
  O2-  O315  1  0.40493688  0.40277456  0.76954165  1
  O2-  O316  1  0.40409499  0.73896025  0.26924875  1
  O2-  O317  1  0.40964988  0.74171477  0.76560539  1
  O2-  O318  1  0.73302284  0.07446065  0.27232201  1
  O2-  O319  1  0.73738966  0.07308649  0.76908272  1
  O2-  O320  1  0.73834105  0.40722125  0.27322847  1
  O2-  O321  1  0.73297197  0.40148608  0.76759509  1
  O2-  O322  1  0.74428029  0.74081031  0.26771288  1
  O2-  O323  1  0.74188067  0.73922990  0.77113211  1
  O2-  O324  1  0.23773086  0.09304381  0.22791952  1
  O2-  O325  1  0.23938506  0.09177465  0.72788344  1
  O2-  O326  1  0.23542214  0.43020311  0.23496376  1
  O2-  O327  1  0.23686326  0.42657259  0.72698028  1
  O2-  O328  1  0.23918695  0.76008090  0.22516449  1
  O2-  O329  1  0.23944841  0.75794452  0.72722692  1
  O2-  O330  1  0.56945734  0.09788636  0.22621205  1
  O2-  O331  1  0.57217015  0.09737014  0.73110917  1
  O2-  O332  1  0.56867288  0.43095912  0.22984515  1
  O2-  O333  1  0.56620707  0.43284845  0.72976195  1
  O2-  O334  1  0.57245706  0.76067718  0.22993199  1
  O2-  O335  1  0.57592602  0.75815578  0.73444314  1
  O2-  O336  1  0.90405065  0.09404407  0.22888625  1
  O2-  O337  1  0.90343800  0.09562532  0.73186488  1
  O2-  O338  1  0.90269732  0.42758154  0.22859736  1
  O2-  O339  1  0.90263742  0.42397181  0.72808607  1
  O2-  O340  1  0.90975735  0.76186803  0.22907426  1
  O2-  O341  1  0.90823123  0.76226457  0.73748247  1
  O2-  O342  1  0.25671798  0.25777216  0.01720206  1
  O2-  O343  1  0.26246863  0.25894466  0.52243637  1
  O2-  O344  1  0.25890690  0.59346442  0.01981201  1
  O2-  O345  1  0.26210620  0.59452663  0.52171022  1
  O2-  O346  1  0.26555115  0.92985235  0.01795287  1
  O2-  O347  1  0.26010967  0.92931325  0.52123818  1
  O2-  O348  1  0.59630919  0.26511794  0.01990579  1
  O2-  O349  1  0.59642327  0.26473895  0.52150559  1
  O2-  O350  1  0.59699354  0.59701556  0.01700097  1
  O2-  O351  1  0.59689849  0.59459571  0.52087949  1
  O2-  O352  1  0.59513414  0.93065376  0.02137817  1
  O2-  O353  1  0.59484805  0.92994462  0.51442282  1
  O2-  O354  1  0.92515101  0.26310765  0.02227244  1
  O2-  O355  1  0.92431456  0.26007348  0.52054767  1
  O2-  O356  1  0.92748858  0.59290937  0.02318279  1
  O2-  O357  1  0.92913266  0.59459906  0.52358150  1
  O2-  O358  1  0.93134722  0.92453802  0.02496090  1
  O2-  O359  1  0.93411533  0.93133745  0.51570850  1
