# generated using pymatgen
data_Sr7Ca15Pr50Mn72O216
_symmetry_space_group_name_H-M   'P 1'
_cell_length_a   16.55746750
_cell_length_b   16.59908136
_cell_length_c   15.58986865
_cell_angle_alpha   90.00107277
_cell_angle_beta   90.00014379
_cell_angle_gamma   89.99485923
_symmetry_Int_Tables_number   1
_chemical_formula_structural   Sr7Ca15Pr50Mn72O216
_chemical_formula_sum   'Sr7 Ca15 Pr50 Mn72 O216'
_cell_volume   4284.69999713
_cell_formula_units_Z   1
loop_
 _symmetry_equiv_pos_site_id
 _symmetry_equiv_pos_as_xyz
  1  'x, y, z'
loop_
 _atom_type_symbol
 _atom_type_oxidation_number
  Sr2+  2.0
  Ca2+  2.0
  Pr3+  3.0
  Mn3.30+  3.3
  O2-  -2.0
loop_
 _atom_site_type_symbol
 _atom_site_label
 _atom_site_symmetry_multiplicity
 _atom_site_fract_x
 _atom_site_fract_y
 _atom_site_fract_z
 _atom_site_occupancy
  Sr2+  Sr0  1  0.49996678  0.48990441  0.37729472  1
  Sr2+  Sr1  1  0.33459721  0.32156836  0.87348566  1
  Sr2+  Sr2  1  0.49351728  0.15461827  0.87379994  1
  Sr2+  Sr3  1  0.50091007  0.50841627  0.62367790  1
  Sr2+  Sr4  1  0.50201073  0.84497319  0.12675942  1
  Sr2+  Sr5  1  0.16451702  0.15376495  0.87414870  1
  Sr2+  Sr6  1  0.83477698  0.82756280  0.87207034  1
  Ca2+  Ca7  1  1.00133005  0.98941262  0.87113081  1
  Ca2+  Ca8  1  0.32842642  0.01549057  0.62755132  1
  Ca2+  Ca9  1  0.83658488  0.17924773  0.12505153  1
  Ca2+  Ca10  1  0.33499225  0.99050518  0.87190021  1
  Ca2+  Ca11  1  0.16151460  0.48407842  0.37552735  1
  Ca2+  Ca12  1  0.82885924  0.48457922  0.37721013  1
  Ca2+  Ca13  1  0.83026167  0.15170438  0.87181485  1
  Ca2+  Ca14  1  0.82905118  0.15202192  0.37835881  1
  Ca2+  Ca15  1  0.83734984  0.51351663  0.62355296  1
  Ca2+  Ca16  1  0.33791382  0.65490693  0.87380978  1
  Ca2+  Ca17  1  0.83911486  0.17966878  0.62486216  1
  Ca2+  Ca18  1  0.16141342  0.15250858  0.37662375  1
  Ca2+  Ca19  1  0.49760337  0.81943318  0.37561996  1
  Ca2+  Ca20  1  -0.00633629  0.01765409  0.62749940  1
  Ca2+  Ca21  1  0.83997020  0.85128340  0.62690690  1
  Pr3+  Pr22  1  0.66367595  0.01253312  0.12397146  1
  Pr3+  Pr23  1  0.17015518  0.84835129  0.12546874  1
  Pr3+  Pr24  1  0.49633918  0.48744822  0.87320678  1
  Pr3+  Pr25  1  -0.00386115  0.34354838  0.12432585  1
  Pr3+  Pr26  1  0.33649330  0.65432687  0.37539651  1
  Pr3+  Pr27  1  0.16796436  0.17803300  0.12574796  1
  Pr3+  Pr28  1  0.66749281  0.34458898  0.62476502  1
  Pr3+  Pr29  1  0.66965244  0.98745471  0.37667943  1
  Pr3+  Pr30  1  1.00232645  0.65679688  0.87454414  1
  Pr3+  Pr31  1  0.33551171  0.98758509  0.37799150  1
  Pr3+  Pr32  1  0.83083631  0.48773993  0.87328573  1
  Pr3+  Pr33  1  0.50349586  0.51257356  0.12591819  1
  Pr3+  Pr34  1  0.16257395  0.82114477  0.37582210  1
  Pr3+  Pr35  1  0.50257939  0.17701454  0.12423019  1
  Pr3+  Pr36  1  0.66543434  0.34339775  0.12536496  1
  Pr3+  Pr37  1  0.66951534  0.31766393  0.87345383  1
  Pr3+  Pr38  1  0.33247702  0.68180878  0.12451301  1
  Pr3+  Pr39  1  0.67263623  0.32007525  0.37697466  1
  Pr3+  Pr40  1  0.50185652  0.84534740  0.62337084  1
  Pr3+  Pr41  1  0.66852230  0.98829424  0.87346983  1
  Pr3+  Pr42  1  0.33167522  0.01129174  0.12353110  1
  Pr3+  Pr43  1  1.00408645  0.64949219  0.37557275  1
  Pr3+  Pr44  1  0.16991087  0.51197376  0.62423599  1
  Pr3+  Pr45  1  0.49542979  0.82318655  0.87443950  1
  Pr3+  Pr46  1  0.17047126  0.85121565  0.62428629  1
  Pr3+  Pr47  1  0.16456266  0.82638284  0.87434518  1
  Pr3+  Pr48  1  -0.00543152  0.34621811  0.62563093  1
  Pr3+  Pr49  1  0.66659045  0.67697411  0.62454793  1
  Pr3+  Pr50  1  0.83710026  0.51323037  0.12672448  1
  Pr3+  Pr51  1  1.00117781  0.99046753  0.37791458  1
  Pr3+  Pr52  1  0.16511407  0.48628795  0.87435259  1
  Pr3+  Pr53  1  0.66317622  0.68103983  0.12576854  1
  Pr3+  Pr54  1  0.33118269  0.34527706  0.62625846  1
  Pr3+  Pr55  1  -0.00462278  0.01490749  0.12359948  1
  Pr3+  Pr56  1  0.16630575  0.17670565  0.62411705  1
  Pr3+  Pr57  1  0.33394328  0.32200720  0.37601335  1
  Pr3+  Pr58  1  1.00359024  0.31708986  0.87459719  1
  Pr3+  Pr59  1  0.17019465  0.51236261  0.12560107  1
  Pr3+  Pr60  1  0.67037540  0.65615820  0.87453086  1
  Pr3+  Pr61  1  -0.00172542  0.68112072  0.12497346  1
  Pr3+  Pr62  1  0.83498892  0.84729007  0.12364608  1
  Pr3+  Pr63  1  0.66854392  0.01186285  0.62624813  1
  Pr3+  Pr64  1  1.00147969  0.31813778  0.37509418  1
  Pr3+  Pr65  1  0.33168130  0.67833107  0.62452115  1
  Pr3+  Pr66  1  0.83093789  0.82195073  0.37787656  1
  Pr3+  Pr67  1  0.50050391  0.17743444  0.62596180  1
  Pr3+  Pr68  1  0.33179153  0.34505110  0.12312599  1
  Pr3+  Pr69  1  -0.00539978  0.68134573  0.62548469  1
  Pr3+  Pr70  1  0.66910768  0.65135927  0.37542351  1
  Pr3+  Pr71  1  0.49933846  0.15703399  0.37639364  1
  Mn3.30+  Mn72  1  0.16530822  0.00113101  -0.00278099  1
  Mn3.30+  Mn73  1  0.16561098  0.00263610  0.50110563  1
  Mn3.30+  Mn74  1  0.16583661  0.33156784  -0.00010252  1
  Mn3.30+  Mn75  1  0.16454238  0.33249046  0.49833121  1
  Mn3.30+  Mn76  1  0.16921279  0.66761130  -0.00236897  1
  Mn3.30+  Mn77  1  0.16502619  0.66588009  0.50004241  1
  Mn3.30+  Mn78  1  0.49821875  -0.00016441  -0.00142551  1
  Mn3.30+  Mn79  1  0.49921515  -0.00029413  0.50137009  1
  Mn3.30+  Mn80  1  0.49959656  0.33205783  -0.00026466  1
  Mn3.30+  Mn81  1  0.50122321  0.33341854  0.49941856  1
  Mn3.30+  Mn82  1  0.49971729  0.66786844  -0.00123190  1
  Mn3.30+  Mn83  1  0.50013447  0.66669435  0.50027309  1
  Mn3.30+  Mn84  1  0.83354221  0.00278940  -0.00227268  1
  Mn3.30+  Mn85  1  0.83588001  0.00204961  0.50250257  1
  Mn3.30+  Mn86  1  0.83297460  0.32997337  -0.00076085  1
  Mn3.30+  Mn87  1  0.83513016  0.33304838  0.50031582  1
  Mn3.30+  Mn88  1  0.83346654  0.66828305  -0.00055532  1
  Mn3.30+  Mn89  1  0.83461494  0.66550193  0.50039365  1
  Mn3.30+  Mn90  1  -0.00245762  0.16612739  0.25169957  1
  Mn3.30+  Mn91  1  -0.00273305  0.16365495  0.75034640  1
  Mn3.30+  Mn92  1  0.00006079  0.49799720  0.25185351  1
  Mn3.30+  Mn93  1  -0.00141818  0.50086450  0.74906656  1
  Mn3.30+  Mn94  1  -0.00065320  0.83434668  0.25078891  1
  Mn3.30+  Mn95  1  0.00000708  0.83710331  0.74904215  1
  Mn3.30+  Mn96  1  0.33177823  0.16619937  0.25214892  1
  Mn3.30+  Mn97  1  0.33232721  0.16437029  0.74962803  1
  Mn3.30+  Mn98  1  0.33251419  0.49967693  0.25177888  1
  Mn3.30+  Mn99  1  0.33341953  0.50216139  0.75016125  1
  Mn3.30+  Mn100  1  0.33443781  0.83447908  0.25137724  1
  Mn3.30+  Mn101  1  0.33268602  0.83567004  0.74946306  1
  Mn3.30+  Mn102  1  0.67069995  0.16624725  0.25010907  1
  Mn3.30+  Mn103  1  0.66941826  0.16560520  0.74957862  1
  Mn3.30+  Mn104  1  0.66948469  0.49799880  0.25124206  1
  Mn3.30+  Mn105  1  0.66777883  0.49998209  0.74826332  1
  Mn3.30+  Mn106  1  0.66544224  0.83367984  0.25314905  1
  Mn3.30+  Mn107  1  0.66902470  0.83379145  0.74717225  1
  Mn3.30+  Mn108  1  0.16564616  0.00205164  0.25187507  1
  Mn3.30+  Mn109  1  0.16537735  0.00144326  0.74919978  1
  Mn3.30+  Mn110  1  0.16574087  0.33276867  0.25144892  1
  Mn3.30+  Mn111  1  0.16492500  0.33137151  0.74958121  1
  Mn3.30+  Mn112  1  0.16692738  0.66536964  0.25077602  1
  Mn3.30+  Mn113  1  0.16774337  0.66808492  0.75104141  1
  Mn3.30+  Mn114  1  0.50026286  -0.00054211  0.25253710  1
  Mn3.30+  Mn115  1  0.49706373  0.00011289  0.74741064  1
  Mn3.30+  Mn116  1  0.50053577  0.33318894  0.25164277  1
  Mn3.30+  Mn117  1  0.50018488  0.33253636  0.74891958  1
  Mn3.30+  Mn118  1  0.50018049  0.66751256  0.25215876  1
  Mn3.30+  Mn119  1  0.49961721  0.66697806  0.74914348  1
  Mn3.30+  Mn120  1  0.83297402  0.00307788  0.25046467  1
  Mn3.30+  Mn121  1  0.83636878  0.00178634  0.74980288  1
  Mn3.30+  Mn122  1  0.83374142  0.33096954  0.25070318  1
  Mn3.30+  Mn123  1  0.83418977  0.33170802  0.74991708  1
  Mn3.30+  Mn124  1  0.83424401  0.66632728  0.25179276  1
  Mn3.30+  Mn125  1  0.83392440  0.66798972  0.74891595  1
  Mn3.30+  Mn126  1  -0.00302936  0.16428225  -0.00200373  1
  Mn3.30+  Mn127  1  -0.00268822  0.16563783  0.49953263  1
  Mn3.30+  Mn128  1  -0.00011510  0.50013581  0.00014315  1
  Mn3.30+  Mn129  1  -0.00162449  0.49860400  0.49874205  1
  Mn3.30+  Mn130  1  0.00079096  0.83609162  -0.00156992  1
  Mn3.30+  Mn131  1  -0.00172772  0.83550186  0.50229247  1
  Mn3.30+  Mn132  1  0.33328305  0.16505680  -0.00189592  1
  Mn3.30+  Mn133  1  0.33063020  0.16574348  0.49919455  1
  Mn3.30+  Mn134  1  0.33452487  0.50188397  -0.00079621  1
  Mn3.30+  Mn135  1  0.33110706  0.49981304  0.49823684  1
  Mn3.30+  Mn136  1  0.33318809  0.83549819  -0.00181733  1
  Mn3.30+  Mn137  1  0.33406590  0.83490224  0.50020230  1
  Mn3.30+  Mn138  1  0.66924877  0.16580826  -0.00166108  1
  Mn3.30+  Mn139  1  0.67089957  0.16598375  0.50231439  1
  Mn3.30+  Mn140  1  0.66716816  0.49935579  -0.00017878  1
  Mn3.30+  Mn141  1  0.67063528  0.49897309  0.50088109  1
  Mn3.30+  Mn142  1  0.66631683  0.83445453  -0.00090180  1
  Mn3.30+  Mn143  1  0.66814027  0.83285429  0.50128220  1
  O2-  O144  1  0.02428867  0.16302768  0.12595069  1
  O2-  O145  1  0.02261929  0.16477428  0.62409271  1
  O2-  O146  1  0.02606093  0.49402887  0.12457680  1
  O2-  O147  1  0.02675879  0.49554206  0.62378342  1
  O2-  O148  1  0.02524012  0.82943579  0.12606937  1
  O2-  O149  1  0.02729482  0.82621060  0.62425378  1
  O2-  O150  1  0.35812777  0.15888981  0.12760311  1
  O2-  O151  1  0.35598632  0.16150602  0.62230794  1
  O2-  O152  1  0.35917273  0.49488361  0.12543008  1
  O2-  O153  1  0.34987519  0.49580066  0.62469233  1
  O2-  O154  1  0.35246273  0.83018466  0.12582679  1
  O2-  O155  1  0.35837240  0.82447962  0.62424817  1
  O2-  O156  1  0.69423729  0.16051036  0.12450599  1
  O2-  O157  1  0.69704262  0.16047814  0.62563091  1
  O2-  O158  1  0.69382016  0.49298899  0.12569558  1
  O2-  O159  1  0.69586443  0.49431540  0.62531013  1
  O2-  O160  1  0.69093913  0.82935197  0.12801694  1
  O2-  O161  1  0.69714254  0.82548004  0.62402397  1
  O2-  O162  1  0.14099966  0.32776699  0.12720476  1
  O2-  O163  1  0.13986792  0.32797006  0.62360176  1
  O2-  O164  1  0.14115933  0.66038597  0.12546142  1
  O2-  O165  1  0.13899389  0.65954066  0.62581697  1
  O2-  O166  1  0.14120530  0.99682855  0.12695494  1
  O2-  O167  1  0.13812747  0.99830405  0.62388278  1
  O2-  O168  1  0.47717816  0.32756539  0.12750011  1
  O2-  O169  1  0.47688876  0.32824291  0.62312672  1
  O2-  O170  1  0.47692833  0.66123408  0.12630440  1
  O2-  O171  1  0.47567693  0.66547383  0.62490532  1
  O2-  O172  1  0.47635543  1.00100477  0.12973780  1
  O2-  O173  1  0.47067130  0.99333332  0.62233678  1
  O2-  O174  1  0.80812176  0.32337190  0.12388802  1
  O2-  O175  1  0.81063513  0.32309768  0.62594045  1
  O2-  O176  1  0.80854378  0.66173420  0.12591528  1
  O2-  O177  1  0.81045815  0.65700664  0.62359032  1
  O2-  O178  1  0.80680485  0.99303396  0.12580237  1
  O2-  O179  1  0.81041207  0.99311902  0.62541709  1
  O2-  O180  1  0.30383749  0.17504837  0.37492304  1
  O2-  O181  1  0.31440234  0.16903648  0.87463985  1
  O2-  O182  1  0.30324832  0.50644721  0.37426884  1
  O2-  O183  1  0.30880285  0.50827348  0.87486733  1
  O2-  O184  1  0.30528353  0.83956548  0.37621259  1
  O2-  O185  1  0.30784545  0.84453666  0.87335474  1
  O2-  O186  1  0.64291227  0.17072442  0.37712355  1
  O2-  O187  1  0.64303828  0.16962570  0.87341802  1
  O2-  O188  1  0.64930443  0.50155418  0.37462770  1
  O2-  O189  1  0.64102275  0.50641896  0.87464170  1
  O2-  O190  1  0.64033919  0.84002858  0.37715633  1
  O2-  O191  1  0.64135790  0.83809504  0.87098075  1
  O2-  O192  1  0.97021878  0.17032345  0.37463307  1
  O2-  O193  1  0.97188485  0.17233968  0.87524501  1
  O2-  O194  1  0.97048539  0.50382995  0.37513599  1
  O2-  O195  1  0.97457304  0.50783252  0.87607672  1
  O2-  O196  1  0.97529836  0.84059047  0.37652542  1
  O2-  O197  1  0.98463895  0.83882196  0.87404995  1
  O2-  O198  1  0.19035151  0.00547312  0.37510917  1
  O2-  O199  1  0.19137295  -0.00293259  0.87396349  1
  O2-  O200  1  0.19144726  0.34117564  0.37391509  1
  O2-  O201  1  0.18378495  0.33804833  0.87432832  1
  O2-  O202  1  0.19241867  0.67494339  0.37432350  1
  O2-  O203  1  0.19607687  0.67678276  0.87464689  1
  O2-  O204  1  0.52672158  0.00995181  0.37743592  1
  O2-  O205  1  0.52385783  -0.00180890  0.86967439  1
  O2-  O206  1  0.52557006  0.33055531  0.37528929  1
  O2-  O207  1  0.52369653  0.33796910  0.87370353  1
  O2-  O208  1  0.52379747  0.67158837  0.37620573  1
  O2-  O209  1  0.52665036  0.67351403  0.87293186  1
  O2-  O210  1  0.85732660  0.00519356  0.37589597  1
  O2-  O211  1  0.85884036  0.00698963  0.87393740  1
  O2-  O212  1  0.85867917  0.34319423  0.37551470  1
  O2-  O213  1  0.86059532  0.34343597  0.87477309  1
  O2-  O214  1  0.86146943  0.67612740  0.37594235  1
  O2-  O215  1  0.85775366  0.66917945  0.87569460  1
  O2-  O216  1  0.23740349  0.09324501  0.02215505  1
  O2-  O217  1  0.23666452  0.09590160  0.51847755  1
  O2-  O218  1  0.24002243  0.42818524  0.01930564  1
  O2-  O219  1  0.23715609  0.42587382  0.52104736  1
  O2-  O220  1  0.23829903  0.76216244  0.02171905  1
  O2-  O221  1  0.23815965  0.76297282  0.52044789  1
  O2-  O222  1  0.57361946  0.09366086  0.02084980  1
  O2-  O223  1  0.57251281  0.09298439  0.52265352  1
  O2-  O224  1  0.57361329  0.42804060  0.02038425  1
  O2-  O225  1  0.57971769  0.42322537  0.51831025  1
  O2-  O226  1  0.57333679  0.75896306  0.01736306  1
  O2-  O227  1  0.57647194  0.76000094  0.52287321  1
  O2-  O228  1  0.90352617  0.09511697  0.02512995  1
  O2-  O229  1  0.90249769  0.09795607  0.51999307  1
  O2-  O230  1  0.90230150  0.42659040  0.02168556  1
  O2-  O231  1  0.90553149  0.42853608  0.52499680  1
  O2-  O232  1  0.90854385  0.76040803  0.02171780  1
  O2-  O233  1  0.90311732  0.76369065  0.52203038  1
  O2-  O234  1  0.26234134  0.26084234  0.22794055  1
  O2-  O235  1  0.25830955  0.25859293  0.72676265  1
  O2-  O236  1  0.26204163  0.59552765  0.22731870  1
  O2-  O237  1  0.25901476  0.59495234  0.72777086  1
  O2-  O238  1  0.26201158  0.92770759  0.23153106  1
  O2-  O239  1  0.26110991  0.92792251  0.72441663  1
  O2-  O240  1  0.59749600  0.25760923  0.22970116  1
  O2-  O241  1  0.59654687  0.25788059  0.72826646  1
  O2-  O242  1  0.59632570  0.59214100  0.23102132  1
  O2-  O243  1  0.59742724  0.59603321  0.73171677  1
  O2-  O244  1  0.59791156  0.93084356  0.23438045  1
  O2-  O245  1  0.59346569  0.92567782  0.72508758  1
  O2-  O246  1  0.93102796  0.26335102  0.23243578  1
  O2-  O247  1  0.93022725  0.26487535  0.73402803  1
  O2-  O248  1  0.93161519  0.59468404  0.22905730  1
  O2-  O249  1  0.93129060  0.59713644  0.73308882  1
  O2-  O250  1  0.92512003  0.93011052  0.22986995  1
  O2-  O251  1  0.92991248  0.93093111  0.73104955  1
  O2-  O252  1  0.09412735  0.23586063  0.27221503  1
  O2-  O253  1  0.08992442  0.23876982  0.76686082  1
  O2-  O254  1  0.09754907  0.57029794  0.27157789  1
  O2-  O255  1  0.09676397  0.57354256  0.77313055  1
  O2-  O256  1  0.09438241  0.90595810  0.27097212  1
  O2-  O257  1  0.09945812  0.90300234  0.76406845  1
  O2-  O258  1  0.42638026  0.23770082  0.27053190  1
  O2-  O259  1  0.42601243  0.23860688  0.75928962  1
  O2-  O260  1  0.42499349  0.57367897  0.26852664  1
  O2-  O261  1  0.42927144  0.57496038  0.77002183  1
  O2-  O262  1  0.42822214  0.90798277  0.27590044  1
  O2-  O263  1  0.43060535  0.90182932  0.76489934  1
  O2-  O264  1  0.76267938  0.23810200  0.27525219  1
  O2-  O265  1  0.76183833  0.24102551  0.77432066  1
  O2-  O266  1  0.76510408  0.57107807  0.27014402  1
  O2-  O267  1  0.75960781  0.57233070  0.77255871  1
  O2-  O268  1  0.76178902  0.90474832  0.27160582  1
  O2-  O269  1  0.75782193  0.91138757  0.76799860  1
  O2-  O270  1  0.06888302  0.07432146  0.47948212  1
  O2-  O271  1  0.06654816  0.06734509  0.98315731  1
  O2-  O272  1  0.06832384  0.40293884  0.48080523  1
  O2-  O273  1  0.07079844  0.40736570  0.98010558  1
  O2-  O274  1  0.07141595  0.73723223  0.47901532  1
  O2-  O275  1  0.07480273  0.73766048  0.98097558  1
  O2-  O276  1  0.40528860  0.07588675  0.47613309  1
  O2-  O277  1  0.40160938  0.06760958  0.98434546  1
  O2-  O278  1  0.40062705  0.40587446  0.48264247  1
  O2-  O279  1  0.40751909  0.40932523  0.98226956  1
  O2-  O280  1  0.40216603  0.74042727  0.48061475  1
  O2-  O281  1  0.40272754  0.73931393  0.97911882  1
  O2-  O282  1  0.73700108  0.06926064  0.48299103  1
  O2-  O283  1  0.73629114  0.07007370  0.98016561  1
  O2-  O284  1  0.73979983  0.40171018  0.48416643  1
  O2-  O285  1  0.73804070  0.40358615  0.97901432  1
  O2-  O286  1  0.73879328  0.73738279  0.47711939  1
  O2-  O287  1  0.73710307  0.73797447  0.98455528  1
  O2-  O288  1  0.09507043  0.23779272  0.47747291  1
  O2-  O289  1  0.08957972  0.23742401  0.98396757  1
  O2-  O290  1  0.09399264  0.56817443  0.47694449  1
  O2-  O291  1  0.09804711  0.57440308  0.97787348  1
  O2-  O292  1  0.09663574  0.90553013  0.47992014  1
  O2-  O293  1  0.09815061  0.90391032  0.98589156  1
  O2-  O294  1  0.42527506  0.23849973  0.48051418  1
  O2-  O295  1  0.42687048  0.23737817  0.99010271  1
  O2-  O296  1  0.42046213  0.57545099  0.48100260  1
  O2-  O297  1  0.43188996  0.57203637  0.98208356  1
  O2-  O298  1  0.42981115  0.90443230  0.47671756  1
  O2-  O299  1  0.42726275  0.90419090  0.98213400  1
  O2-  O300  1  0.76275489  0.23992094  0.47705249  1
  O2-  O301  1  0.76152154  0.23896648  0.97390186  1
  O2-  O302  1  0.76365403  0.57258349  0.47670512  1
  O2-  O303  1  0.76165174  0.57097065  0.98062479  1
  O2-  O304  1  0.76114931  0.90658492  0.47897263  1
  O2-  O305  1  0.75945698  0.90847750  0.98237644  1
  O2-  O306  1  0.06675000  0.07175310  0.26830899  1
  O2-  O307  1  0.06777996  0.07022680  0.76842912  1
  O2-  O308  1  0.06900825  0.40373066  0.26915391  1
  O2-  O309  1  0.06977040  0.40735918  0.76944549  1
  O2-  O310  1  0.07228340  0.73638540  0.27006757  1
  O2-  O311  1  0.07360906  0.73842838  0.77058540  1
  O2-  O312  1  0.40488272  0.07358668  0.27411299  1
  O2-  O313  1  0.40256080  0.06918769  0.76484629  1
  O2-  O314  1  0.40127903  0.40481233  0.26872815  1
  O2-  O315  1  0.40795542  0.41026515  0.76603822  1
  O2-  O316  1  0.40193349  0.73964273  0.26817740  1
  O2-  O317  1  0.40390336  0.73998771  0.77140648  1
  O2-  O318  1  0.73624655  0.06954330  0.26961375  1
  O2-  O319  1  0.73663853  0.07087748  0.76822449  1
  O2-  O320  1  0.73795563  0.40008103  0.26593932  1
  O2-  O321  1  0.73981097  0.40397768  0.77128604  1
  O2-  O322  1  0.73874774  0.73921207  0.27233886  1
  O2-  O323  1  0.73673548  0.73648384  0.76676033  1
  O2-  O324  1  0.23982269  0.09366359  0.22853054  1
  O2-  O325  1  0.23503858  0.09463545  0.72915881  1
  O2-  O326  1  0.24037653  0.42713307  0.22581084  1
  O2-  O327  1  0.23743601  0.42720575  0.73204387  1
  O2-  O328  1  0.23688695  0.76086229  0.23010725  1
  O2-  O329  1  0.23810488  0.76229936  0.72666958  1
  O2-  O330  1  0.57257970  0.09530010  0.23154612  1
  O2-  O331  1  0.57274408  0.09090150  0.72486860  1
  O2-  O332  1  0.57424318  0.42592752  0.22828114  1
  O2-  O333  1  0.57777733  0.42506722  0.73194049  1
  O2-  O334  1  0.57686992  0.75777336  0.23240813  1
  O2-  O335  1  0.57199401  0.76066521  0.72780265  1
  O2-  O336  1  0.90417750  0.09481802  0.22618901  1
  O2-  O337  1  0.90180450  0.09810753  0.72836514  1
  O2-  O338  1  0.90456589  0.42476731  0.22503145  1
  O2-  O339  1  0.90263815  0.42954623  0.72867864  1
  O2-  O340  1  0.90499365  0.76187829  0.22938101  1
  O2-  O341  1  0.90856828  0.76319424  0.72817754  1
  O2-  O342  1  0.25980130  0.25751560  0.02302853  1
  O2-  O343  1  0.26121515  0.26223242  0.52101413  1
  O2-  O344  1  0.26105628  0.59493360  0.02351255  1
  O2-  O345  1  0.25849039  0.59577164  0.52051161  1
  O2-  O346  1  0.25870057  0.92740408  0.02306067  1
  O2-  O347  1  0.26408947  0.92973520  0.52083796  1
  O2-  O348  1  0.59720953  0.25927862  0.01985250  1
  O2-  O349  1  0.59740402  0.25601906  0.52245219  1
  O2-  O350  1  0.59638950  0.59361305  0.02198839  1
  O2-  O351  1  0.59982281  0.59306332  0.51549079  1
  O2-  O352  1  0.59487718  0.92967756  0.01620274  1
  O2-  O353  1  0.59657149  0.92642212  0.52336595  1
  O2-  O354  1  0.92936242  0.26318997  0.01696975  1
  O2-  O355  1  0.93161864  0.26529277  0.51629686  1
  O2-  O356  1  0.92905241  0.59444304  0.02169343  1
  O2-  O357  1  0.93294077  0.59796139  0.51711756  1
  O2-  O358  1  0.92402059  0.92835634  0.02162375  1
  O2-  O359  1  0.93083547  0.93366680  0.51840104  1
