# generated using pymatgen
data_Sr7Ca15Pr50Mn72O216
_symmetry_space_group_name_H-M   'P 1'
_cell_length_a   16.55582950
_cell_length_b   16.59450338
_cell_length_c   15.59027023
_cell_angle_alpha   89.99641108
_cell_angle_beta   90.00319407
_cell_angle_gamma   89.99706636
_symmetry_Int_Tables_number   1
_chemical_formula_structural   Sr7Ca15Pr50Mn72O216
_chemical_formula_sum   'Sr7 Ca15 Pr50 Mn72 O216'
_cell_volume   4283.20485669
_cell_formula_units_Z   1
loop_
 _symmetry_equiv_pos_site_id
 _symmetry_equiv_pos_as_xyz
  1  'x, y, z'
loop_
 _atom_type_symbol
 _atom_type_oxidation_number
  Sr2+  2.0
  Ca2+  2.0
  Pr3+  3.0
  Mn3.30+  3.3
  O2-  -2.0
loop_
 _atom_site_type_symbol
 _atom_site_label
 _atom_site_symmetry_multiplicity
 _atom_site_fract_x
 _atom_site_fract_y
 _atom_site_fract_z
 _atom_site_occupancy
  Sr2+  Sr0  1  -0.00232254  0.34506345  0.62618153  1
  Sr2+  Sr1  1  1.00105210  0.32571820  0.37389059  1
  Sr2+  Sr2  1  0.32988371  0.34439883  0.62636661  1
  Sr2+  Sr3  1  0.16418479  0.49068132  0.37054734  1
  Sr2+  Sr4  1  0.50219187  0.84099950  0.62456618  1
  Sr2+  Sr5  1  0.66704249  0.67346856  0.62524825  1
  Sr2+  Sr6  1  0.83258187  0.48910552  0.87451346  1
  Ca2+  Ca7  1  0.16589600  0.15712251  0.87466781  1
  Ca2+  Ca8  1  1.00435914  0.64759809  0.37300405  1
  Ca2+  Ca9  1  0.83541673  0.50993744  0.62419945  1
  Ca2+  Ca10  1  0.66234647  0.35200657  0.12363660  1
  Ca2+  Ca11  1  1.00348891  0.31756152  0.87673783  1
  Ca2+  Ca12  1  0.83320282  0.15553858  0.37553457  1
  Ca2+  Ca13  1  0.00091508  0.34598084  0.12461228  1
  Ca2+  Ca14  1  0.33445503  0.31873759  0.87548955  1
  Ca2+  Ca15  1  0.66517314  0.34908998  0.62658397  1
  Ca2+  Ca16  1  0.16877085  0.18208038  0.12377744  1
  Ca2+  Ca17  1  0.33582932  0.64845897  0.37210336  1
  Ca2+  Ca18  1  0.50070918  0.51315186  0.12483242  1
  Ca2+  Ca19  1  0.16944075  0.51370500  0.12777397  1
  Ca2+  Ca20  1  0.50018552  0.84616657  0.12592483  1
  Ca2+  Ca21  1  0.33114127  0.67730803  0.12818467  1
  Pr3+  Pr22  1  0.66673764  0.65273894  0.37629352  1
  Pr3+  Pr23  1  0.83473783  0.15921158  0.87459488  1
  Pr3+  Pr24  1  0.83555401  0.84308716  0.62424786  1
  Pr3+  Pr25  1  0.67139880  0.32403096  0.87639360  1
  Pr3+  Pr26  1  0.33286315  0.32514527  0.37463391  1
  Pr3+  Pr27  1  0.67041082  0.98773650  0.37451935  1
  Pr3+  Pr28  1  0.83162464  0.81794156  0.37442319  1
  Pr3+  Pr29  1  -0.00225224  0.01409756  0.62507864  1
  Pr3+  Pr30  1  0.83905263  0.18278057  0.12558295  1
  Pr3+  Pr31  1  -0.00501037  0.67117178  0.62208554  1
  Pr3+  Pr32  1  0.50123513  0.51085159  0.62548016  1
  Pr3+  Pr33  1  1.00223917  0.99136354  0.37490136  1
  Pr3+  Pr34  1  0.49587813  0.15692243  0.87590488  1
  Pr3+  Pr35  1  0.17142416  0.84476323  0.62471438  1
  Pr3+  Pr36  1  0.49506807  0.48901011  0.37359094  1
  Pr3+  Pr37  1  0.83385586  0.48832647  0.37567218  1
  Pr3+  Pr38  1  0.83731687  0.84624934  0.12599077  1
  Pr3+  Pr39  1  0.66449047  0.01363435  0.12567849  1
  Pr3+  Pr40  1  0.49746993  0.15583455  0.37371987  1
  Pr3+  Pr41  1  0.16367238  0.81574859  0.37381600  1
  Pr3+  Pr42  1  -0.00074597  0.01424725  0.12505048  1
  Pr3+  Pr43  1  0.16050258  0.48393285  0.87849630  1
  Pr3+  Pr44  1  0.67389796  0.32076393  0.37395628  1
  Pr3+  Pr45  1  0.32814378  0.34740954  0.12314165  1
  Pr3+  Pr46  1  -0.00043169  0.67384505  0.12786057  1
  Pr3+  Pr47  1  0.16466778  0.81811815  0.87640929  1
  Pr3+  Pr48  1  0.66850910  0.65307077  0.87406529  1
  Pr3+  Pr49  1  0.65949011  0.67857147  0.12482975  1
  Pr3+  Pr50  1  0.16750018  0.50810114  0.62195819  1
  Pr3+  Pr51  1  0.49534155  0.48587104  0.87632257  1
  Pr3+  Pr52  1  0.83051018  0.81995441  0.87590055  1
  Pr3+  Pr53  1  0.17112717  0.84215729  0.12509875  1
  Pr3+  Pr54  1  0.49747194  0.82044761  0.87568930  1
  Pr3+  Pr55  1  0.50475920  0.18371224  0.62534119  1
  Pr3+  Pr56  1  0.33191586  0.01342487  0.62491095  1
  Pr3+  Pr57  1  0.33721607  0.98717841  0.37363462  1
  Pr3+  Pr58  1  0.83343060  0.50780678  0.12453987  1
  Pr3+  Pr59  1  1.00579760  0.98849449  0.87540141  1
  Pr3+  Pr60  1  0.16911615  0.18285860  0.62641910  1
  Pr3+  Pr61  1  0.49495460  0.81640733  0.37378758  1
  Pr3+  Pr62  1  0.33483069  0.65352055  0.87708700  1
  Pr3+  Pr63  1  0.83655822  0.18129473  0.62439969  1
  Pr3+  Pr64  1  0.66336637  0.01214429  0.62431469  1
  Pr3+  Pr65  1  0.32960978  0.67606465  0.62266575  1
  Pr3+  Pr66  1  0.33032894  0.01479196  0.12529249  1
  Pr3+  Pr67  1  0.33502462  0.98969139  0.87624209  1
  Pr3+  Pr68  1  0.16399244  0.16003155  0.37407748  1
  Pr3+  Pr69  1  0.66943381  0.98837739  0.87569677  1
  Pr3+  Pr70  1  1.00208485  0.65071745  0.87717772  1
  Pr3+  Pr71  1  0.50449560  0.18373610  0.12453953  1
  Mn3.30+  Mn72  1  0.16756432  0.00248525  0.00075253  1
  Mn3.30+  Mn73  1  0.16750802  0.00043858  0.49928108  1
  Mn3.30+  Mn74  1  0.16532341  0.33113499  0.00018982  1
  Mn3.30+  Mn75  1  0.16556947  0.33510105  0.49949139  1
  Mn3.30+  Mn76  1  0.16924155  0.66432905  0.00339948  1
  Mn3.30+  Mn77  1  0.16420865  0.66417202  0.49685815  1
  Mn3.30+  Mn78  1  0.50009283  0.00014681  0.00178308  1
  Mn3.30+  Mn79  1  0.50069406  0.00014332  0.49960333  1
  Mn3.30+  Mn80  1  0.49902432  0.33568770  0.00059598  1
  Mn3.30+  Mn81  1  0.50291998  0.33476285  0.50013980  1
  Mn3.30+  Mn82  1  0.49752123  0.66630124  0.00300052  1
  Mn3.30+  Mn83  1  0.49840555  0.66548883  0.49919798  1
  Mn3.30+  Mn84  1  0.83496827  0.00162991  0.00007007  1
  Mn3.30+  Mn85  1  0.83337292  0.00067746  0.49907362  1
  Mn3.30+  Mn86  1  0.83528150  0.33432960  0.00081185  1
  Mn3.30+  Mn87  1  0.83285952  0.33409950  0.50092289  1
  Mn3.30+  Mn88  1  0.83168589  0.66507622  0.00186867  1
  Mn3.30+  Mn89  1  0.83425209  0.66375570  0.49841764  1
  Mn3.30+  Mn90  1  0.00101169  0.16973529  0.24883410  1
  Mn3.30+  Mn91  1  0.00184027  0.16857293  0.75174357  1
  Mn3.30+  Mn92  1  0.00180307  0.49768265  0.24666119  1
  Mn3.30+  Mn93  1  -0.00177392  0.49646991  0.75139629  1
  Mn3.30+  Mn94  1  0.00106162  0.83203286  0.25135208  1
  Mn3.30+  Mn95  1  0.00117890  0.83089804  0.74910764  1
  Mn3.30+  Mn96  1  0.33248352  0.16882902  0.24829293  1
  Mn3.30+  Mn97  1  0.33255261  0.16862520  0.75176299  1
  Mn3.30+  Mn98  1  0.33266118  0.50126559  0.24673564  1
  Mn3.30+  Mn99  1  0.33117109  0.49771952  0.75221328  1
  Mn3.30+  Mn100  1  0.33449115  0.83032922  0.24919100  1
  Mn3.30+  Mn101  1  0.33339332  0.83329325  0.74986341  1
  Mn3.30+  Mn102  1  0.66882048  0.16937889  0.24907597  1
  Mn3.30+  Mn103  1  0.66689181  0.16905269  0.75034863  1
  Mn3.30+  Mn104  1  0.66355228  0.49944587  0.24904830  1
  Mn3.30+  Mn105  1  0.66734923  0.49873029  0.74846569  1
  Mn3.30+  Mn106  1  0.66475090  0.83294080  0.24922529  1
  Mn3.30+  Mn107  1  0.66616657  0.83287401  0.74967078  1
  Mn3.30+  Mn108  1  0.16791526  0.00141182  0.24959540  1
  Mn3.30+  Mn109  1  0.16715652  0.00106237  0.75074750  1
  Mn3.30+  Mn110  1  0.16467491  0.33408273  0.24585771  1
  Mn3.30+  Mn111  1  0.16654440  0.33279171  0.75385528  1
  Mn3.30+  Mn112  1  0.16811508  0.66422801  0.25001838  1
  Mn3.30+  Mn113  1  0.16527564  0.66406412  0.74982265  1
  Mn3.30+  Mn114  1  0.50048990  -0.00043569  0.24849172  1
  Mn3.30+  Mn115  1  0.50039961  0.00057562  0.74987601  1
  Mn3.30+  Mn116  1  0.50210504  0.33618087  0.24834999  1
  Mn3.30+  Mn117  1  0.49993484  0.33420647  0.75029091  1
  Mn3.30+  Mn118  1  0.49613269  0.66546753  0.24699077  1
  Mn3.30+  Mn119  1  0.49988779  0.66605326  0.75073383  1
  Mn3.30+  Mn120  1  0.83399146  0.00215658  0.25098015  1
  Mn3.30+  Mn121  1  0.83412625  0.00018525  0.75035773  1
  Mn3.30+  Mn122  1  0.83367191  0.33304935  0.24840461  1
  Mn3.30+  Mn123  1  0.83416380  0.33569926  0.74995055  1
  Mn3.30+  Mn124  1  0.83238697  0.66452524  0.25005135  1
  Mn3.30+  Mn125  1  0.83316449  0.66434674  0.74896749  1
  Mn3.30+  Mn126  1  0.00459749  0.16943660  0.00109609  1
  Mn3.30+  Mn127  1  -0.00143378  0.16880819  0.49804897  1
  Mn3.30+  Mn128  1  0.00094198  0.49547818  0.00258355  1
  Mn3.30+  Mn129  1  -0.00051013  0.49879641  0.49898780  1
  Mn3.30+  Mn130  1  0.00094020  0.83211746  0.00113364  1
  Mn3.30+  Mn131  1  0.00125439  0.83122079  0.49884345  1
  Mn3.30+  Mn132  1  0.33066999  0.16888601  -0.00030569  1
  Mn3.30+  Mn133  1  0.33361362  0.16812221  0.49970738  1
  Mn3.30+  Mn134  1  0.33121744  0.49995256  0.00227062  1
  Mn3.30+  Mn135  1  0.33254855  0.49977240  0.49842286  1
  Mn3.30+  Mn136  1  0.33481484  0.83258556  0.00260819  1
  Mn3.30+  Mn137  1  0.33294513  0.83147749  0.49849620  1
  Mn3.30+  Mn138  1  0.66734826  0.16990644  0.00098361  1
  Mn3.30+  Mn139  1  0.66846628  0.16854467  0.49941828  1
  Mn3.30+  Mn140  1  0.66419811  0.49952510  0.00108508  1
  Mn3.30+  Mn141  1  0.66665098  0.49838678  0.50176295  1
  Mn3.30+  Mn142  1  0.66500349  0.83369933  0.00190194  1
  Mn3.30+  Mn143  1  0.66566521  0.83192220  0.49965303  1
  O2-  O144  1  0.02786558  0.15836766  0.12401770  1
  O2-  O145  1  0.02430103  0.16170186  0.62554460  1
  O2-  O146  1  0.02586803  0.49441742  0.12336695  1
  O2-  O147  1  0.02261642  0.50379235  0.62712555  1
  O2-  O148  1  0.02646294  0.82496281  0.12509282  1
  O2-  O149  1  0.02888333  0.82128315  0.62169788  1
  O2-  O150  1  0.36061158  0.16299556  0.12478544  1
  O2-  O151  1  0.35969963  0.16150826  0.62340287  1
  O2-  O152  1  0.36134878  0.49143847  0.12301909  1
  O2-  O153  1  0.35621222  0.49972847  0.62660966  1
  O2-  O154  1  0.35850096  0.82576811  0.12697180  1
  O2-  O155  1  0.35132293  0.82563316  0.62439576  1
  O2-  O156  1  0.69450275  0.15925464  0.12546323  1
  O2-  O157  1  0.69290245  0.15768662  0.62663483  1
  O2-  O158  1  0.68919043  0.49885874  0.12583215  1
  O2-  O159  1  0.69190042  0.49459873  0.62493034  1
  O2-  O160  1  0.69362673  0.82729089  0.12633314  1
  O2-  O161  1  0.69082682  0.83299493  0.62519885  1
  O2-  O162  1  0.14154762  0.32286883  0.12237382  1
  O2-  O163  1  0.14882350  0.33115255  0.62855381  1
  O2-  O164  1  0.14313122  0.67002251  0.12553232  1
  O2-  O165  1  0.14003443  0.65971731  0.62329373  1
  O2-  O166  1  0.14159316  0.98860097  0.12462731  1
  O2-  O167  1  0.14131035  0.99158339  0.62263265  1
  O2-  O168  1  0.47275314  0.32826012  0.12322619  1
  O2-  O169  1  0.47862443  0.33054379  0.62443434  1
  O2-  O170  1  0.47221164  0.65724309  0.12431124  1
  O2-  O171  1  0.47392301  0.66080886  0.62505679  1
  O2-  O172  1  0.47523440  0.99429880  0.12494282  1
  O2-  O173  1  0.47612043  0.99801829  0.62292390  1
  O2-  O174  1  0.80470702  0.32870967  0.12539117  1
  O2-  O175  1  0.80643174  0.32580530  0.62495753  1
  O2-  O176  1  0.80372079  0.65947255  0.12667842  1
  O2-  O177  1  0.81731491  0.66129560  0.62464151  1
  O2-  O178  1  0.80893282  0.99481187  0.12474394  1
  O2-  O179  1  0.80762936  0.99237285  0.62353985  1
  O2-  O180  1  0.30994110  0.17334835  0.37393701  1
  O2-  O181  1  0.30914967  0.16936431  0.87786735  1
  O2-  O182  1  0.31483891  0.50076375  0.37176658  1
  O2-  O183  1  0.30418856  0.50899437  0.87856374  1
  O2-  O184  1  0.30698277  0.84174465  0.37418956  1
  O2-  O185  1  0.30815016  0.84025280  0.87443162  1
  O2-  O186  1  0.64004957  0.17382836  0.37245785  1
  O2-  O187  1  0.63975079  0.17555835  0.87548838  1
  O2-  O188  1  0.63978798  0.50394816  0.37382233  1
  O2-  O189  1  0.64111277  0.50380816  0.87580718  1
  O2-  O190  1  0.64072123  0.83898373  0.37236357  1
  O2-  O191  1  0.64238652  0.83986778  0.87669047  1
  O2-  O192  1  0.97614664  0.16618362  0.37424573  1
  O2-  O193  1  0.97755723  0.16766656  0.87632689  1
  O2-  O194  1  0.97800369  0.50278991  0.37114109  1
  O2-  O195  1  0.98166918  0.50602818  0.87830712  1
  O2-  O196  1  0.97382646  0.84431228  0.37644952  1
  O2-  O197  1  0.97454244  0.83934171  0.87731443  1
  O2-  O198  1  0.19421529  0.01113511  0.37586086  1
  O2-  O199  1  0.19143640  0.00757276  0.87770052  1
  O2-  O200  1  0.18876798  0.33179638  0.37189803  1
  O2-  O201  1  0.19468443  0.34030338  0.87728926  1
  O2-  O202  1  0.19377493  0.66919678  0.37302011  1
  O2-  O203  1  0.19028298  0.66976096  0.87803832  1
  O2-  O204  1  0.52521348  0.00773273  0.37388524  1
  O2-  O205  1  0.52524962  0.00834576  0.87743500  1
  O2-  O206  1  0.52933631  0.34007569  0.37490793  1
  O2-  O207  1  0.52707031  0.33690104  0.87680892  1
  O2-  O208  1  0.52279150  0.66821601  0.37257975  1
  O2-  O209  1  0.52402360  0.67226628  0.87771520  1
  O2-  O210  1  0.85869028  0.00729056  0.37550782  1
  O2-  O211  1  0.86172643  0.00677414  0.87653305  1
  O2-  O212  1  0.85129070  0.34117010  0.37409498  1
  O2-  O213  1  0.85827185  0.33211386  0.87589176  1
  O2-  O214  1  0.86117798  0.67042012  0.37228365  1
  O2-  O215  1  0.85759363  0.67306036  0.87648331  1
  O2-  O216  1  0.23948761  0.09347508  0.02598400  1
  O2-  O217  1  0.23864074  0.09273778  0.52299801  1
  O2-  O218  1  0.23462692  0.42989694  0.02317898  1
  O2-  O219  1  0.24121999  0.42819813  0.51531815  1
  O2-  O220  1  0.23730360  0.76360821  0.01524016  1
  O2-  O221  1  0.23414514  0.75978643  0.51858887  1
  O2-  O222  1  0.57240490  0.09614231  0.02138938  1
  O2-  O223  1  0.57177996  0.09758920  0.51930761  1
  O2-  O224  1  0.56652939  0.43268095  0.01788362  1
  O2-  O225  1  0.57100730  0.42944834  0.52001372  1
  O2-  O226  1  0.56813777  0.76237174  0.02263026  1
  O2-  O227  1  0.57062761  0.75864711  0.51065831  1
  O2-  O228  1  0.90647805  0.09556417  0.02116599  1
  O2-  O229  1  0.90747083  0.09239310  0.52275838  1
  O2-  O230  1  0.90403519  0.42635819  0.02242518  1
  O2-  O231  1  0.90116706  0.43070366  0.51599855  1
  O2-  O232  1  0.90410702  0.75899953  0.02237429  1
  O2-  O233  1  0.90614964  0.76150937  0.51911872  1
  O2-  O234  1  0.26418166  0.26357745  0.23207323  1
  O2-  O235  1  0.25979080  0.25793252  0.73317270  1
  O2-  O236  1  0.26222208  0.59421807  0.22796345  1
  O2-  O237  1  0.26045868  0.59463403  0.72965458  1
  O2-  O238  1  0.26335189  0.92889398  0.22963170  1
  O2-  O239  1  0.26161309  0.92866836  0.73014685  1
  O2-  O240  1  0.59773599  0.26506227  0.22682480  1
  O2-  O241  1  0.59733112  0.26148473  0.72804822  1
  O2-  O242  1  0.59589670  0.59857707  0.23327812  1
  O2-  O243  1  0.59049009  0.59018398  0.73299591  1
  O2-  O244  1  0.59771825  0.93028640  0.23090313  1
  O2-  O245  1  0.59762689  0.93173423  0.73517001  1
  O2-  O246  1  0.92900088  0.26069007  0.22492865  1
  O2-  O247  1  0.92277111  0.25716082  0.73288838  1
  O2-  O248  1  0.92363548  0.59015445  0.22537314  1
  O2-  O249  1  0.93048318  0.59612823  0.73775845  1
  O2-  O250  1  0.93003627  0.92624845  0.22896830  1
  O2-  O251  1  0.93169997  0.92375858  0.72704849  1
  O2-  O252  1  0.09649234  0.23615328  0.26725392  1
  O2-  O253  1  0.09830880  0.23618024  0.76843178  1
  O2-  O254  1  0.09111413  0.57687894  0.26107788  1
  O2-  O255  1  0.09460779  0.57008335  0.77056951  1
  O2-  O256  1  0.09870037  0.90811984  0.27285174  1
  O2-  O257  1  0.09672942  0.90398877  0.77059829  1
  O2-  O258  1  0.43153145  0.24081594  0.26967260  1
  O2-  O259  1  0.43156608  0.23805562  0.76753987  1
  O2-  O260  1  0.42855712  0.57079613  0.26800334  1
  O2-  O261  1  0.42421414  0.57185802  0.77216104  1
  O2-  O262  1  0.42594491  0.90395957  0.27151882  1
  O2-  O263  1  0.42775079  0.90825486  0.77237927  1
  O2-  O264  1  0.76439732  0.23681542  0.27144866  1
  O2-  O265  1  0.76090355  0.23938212  0.77145410  1
  O2-  O266  1  0.75945100  0.57241603  0.27263551  1
  O2-  O267  1  0.75586147  0.57710727  0.76917679  1
  O2-  O268  1  0.76395576  0.90564236  0.27032707  1
  O2-  O269  1  0.76294708  0.90683555  0.77209923  1
  O2-  O270  1  0.07250317  0.07199524  0.48077217  1
  O2-  O271  1  0.06951166  0.06804868  0.98384505  1
  O2-  O272  1  0.07290240  0.40812704  0.48762268  1
  O2-  O273  1  0.07195785  0.40113287  0.97751403  1
  O2-  O274  1  0.07011533  0.73700358  0.47392932  1
  O2-  O275  1  0.07223080  0.73788388  0.98005516  1
  O2-  O276  1  0.40589646  0.07271016  0.47853228  1
  O2-  O277  1  0.40399355  0.07358620  0.98122426  1
  O2-  O278  1  0.40909175  0.40658563  0.47800123  1
  O2-  O279  1  0.40172771  0.40423322  0.97641447  1
  O2-  O280  1  0.40233747  0.73714638  0.47820960  1
  O2-  O281  1  0.40632056  0.74017887  0.97627789  1
  O2-  O282  1  0.73547911  0.07128921  0.48165490  1
  O2-  O283  1  0.73930674  0.07467605  0.97822042  1
  O2-  O284  1  0.73808826  0.40607205  0.47850545  1
  O2-  O285  1  0.73623246  0.40608598  0.98433080  1
  O2-  O286  1  0.74337456  0.73857371  0.47749056  1
  O2-  O287  1  0.73644864  0.74058446  0.97971003  1
  O2-  O288  1  0.09501910  0.23612726  0.48515362  1
  O2-  O289  1  0.09839373  0.23527699  0.97673658  1
  O2-  O290  1  0.09302594  0.57294411  0.48302540  1
  O2-  O291  1  0.09437738  0.57319649  0.98377340  1
  O2-  O292  1  0.09648386  0.90505266  0.47786809  1
  O2-  O293  1  0.09698210  0.90543467  0.97845638  1
  O2-  O294  1  0.43111145  0.24109842  0.47877522  1
  O2-  O295  1  0.43093130  0.23772146  0.98272888  1
  O2-  O296  1  0.42691870  0.57121104  0.48272842  1
  O2-  O297  1  0.42622008  0.57312797  0.97609311  1
  O2-  O298  1  0.42837896  0.90694481  0.47673234  1
  O2-  O299  1  0.42730746  0.90738046  0.97840249  1
  O2-  O300  1  0.76207874  0.23672785  0.47834857  1
  O2-  O301  1  0.76375199  0.23965554  0.97972377  1
  O2-  O302  1  0.75731472  0.57278436  0.47671085  1
  O2-  O303  1  0.75687287  0.57496873  0.98197588  1
  O2-  O304  1  0.76336958  0.90541589  0.47754367  1
  O2-  O305  1  0.76379246  0.90686983  0.98009909  1
  O2-  O306  1  0.07200853  0.07170939  0.26977278  1
  O2-  O307  1  0.07088443  0.06826470  0.76580902  1
  O2-  O308  1  0.07282270  0.40471829  0.26238298  1
  O2-  O309  1  0.07099463  0.40338215  0.77340284  1
  O2-  O310  1  0.07042490  0.73943036  0.27285379  1
  O2-  O311  1  0.07132569  0.73732448  0.77296019  1
  O2-  O312  1  0.40457314  0.07326036  0.26873781  1
  O2-  O313  1  0.40502277  0.07298833  0.77041488  1
  O2-  O314  1  0.40556384  0.40424277  0.27006489  1
  O2-  O315  1  0.40340476  0.40714050  0.77490249  1
  O2-  O316  1  0.40366161  0.73692856  0.27467412  1
  O2-  O317  1  0.40456074  0.73928216  0.77039631  1
  O2-  O318  1  0.73610176  0.07160239  0.26802357  1
  O2-  O319  1  0.73701841  0.07564248  0.77293463  1
  O2-  O320  1  0.73743532  0.40783658  0.26870094  1
  O2-  O321  1  0.73624661  0.40430840  0.76932694  1
  O2-  O322  1  0.73713781  0.73838902  0.27203611  1
  O2-  O323  1  0.74199761  0.74201180  0.77169161  1
  O2-  O324  1  0.23690810  0.09469724  0.22729814  1
  O2-  O325  1  0.24022193  0.09230464  0.72655994  1
  O2-  O326  1  0.24055093  0.42651436  0.22588739  1
  O2-  O327  1  0.23398698  0.43169071  0.73534236  1
  O2-  O328  1  0.23620609  0.76433829  0.23369778  1
  O2-  O329  1  0.23634002  0.75960398  0.73166430  1
  O2-  O330  1  0.57329829  0.09831655  0.22876740  1
  O2-  O331  1  0.57183658  0.09636335  0.73004314  1
  O2-  O332  1  0.56770404  0.43256890  0.22963329  1
  O2-  O333  1  0.56909883  0.42906351  0.73333838  1
  O2-  O334  1  0.56678548  0.76123858  0.22849382  1
  O2-  O335  1  0.57314254  0.76112103  0.73861257  1
  O2-  O336  1  0.90825771  0.09390093  0.22737539  1
  O2-  O337  1  0.90528675  0.09285978  0.72912188  1
  O2-  O338  1  0.90194833  0.42815601  0.23190861  1
  O2-  O339  1  0.90230516  0.43026658  0.72967712  1
  O2-  O340  1  0.90231270  0.75832337  0.22801959  1
  O2-  O341  1  0.90557607  0.76022383  0.72997467  1
  O2-  O342  1  0.26276665  0.26272497  0.02000404  1
  O2-  O343  1  0.25912652  0.25808163  0.51591422  1
  O2-  O344  1  0.26451099  0.59825602  0.02229648  1
  O2-  O345  1  0.25808568  0.59297551  0.52087898  1
  O2-  O346  1  0.26281364  0.92844658  0.02085896  1
  O2-  O347  1  0.26239882  0.92800801  0.51963809  1
  O2-  O348  1  0.59629639  0.26427402  0.02299821  1
  O2-  O349  1  0.59775323  0.26299696  0.52117018  1
  O2-  O350  1  0.59454277  0.59834714  0.01666287  1
  O2-  O351  1  0.59125276  0.59100985  0.51725464  1
  O2-  O352  1  0.59875131  0.93008350  0.01834441  1
  O2-  O353  1  0.59627901  0.93268853  0.51536770  1
  O2-  O354  1  0.92992665  0.25918163  0.02280719  1
  O2-  O355  1  0.92352001  0.25844369  0.51974119  1
  O2-  O356  1  0.92696402  0.59242453  0.02185877  1
  O2-  O357  1  0.92715495  0.59309317  0.51450742  1
  O2-  O358  1  0.92973729  0.92683406  0.02246308  1
  O2-  O359  1  0.93025196  0.92543674  0.52260512  1
