# generated using pymatgen
data_Sr7Ca15Pr50Mn72O216
_symmetry_space_group_name_H-M   'P 1'
_cell_length_a   16.55943050
_cell_length_b   16.60564371
_cell_length_c   15.59258640
_cell_angle_alpha   90.00573578
_cell_angle_beta   90.00035979
_cell_angle_gamma   90.00355335
_symmetry_Int_Tables_number   1
_chemical_formula_structural   Sr7Ca15Pr50Mn72O216
_chemical_formula_sum   'Sr7 Ca15 Pr50 Mn72 O216'
_cell_volume   4287.64942249
_cell_formula_units_Z   1
loop_
 _symmetry_equiv_pos_site_id
 _symmetry_equiv_pos_as_xyz
  1  'x, y, z'
loop_
 _atom_type_symbol
 _atom_type_oxidation_number
  Sr2+  2.0
  Ca2+  2.0
  Pr3+  3.0
  Mn3.30+  3.3
  O2-  -2.0
loop_
 _atom_site_type_symbol
 _atom_site_label
 _atom_site_symmetry_multiplicity
 _atom_site_fract_x
 _atom_site_fract_y
 _atom_site_fract_z
 _atom_site_occupancy
  Sr2+  Sr0  1  0.16646108  0.17848732  0.12393890  1
  Sr2+  Sr1  1  -0.00140384  0.67470998  0.62645845  1
  Sr2+  Sr2  1  0.66667485  0.65745776  0.37561634  1
  Sr2+  Sr3  1  0.83610972  0.84037618  0.62421594  1
  Sr2+  Sr4  1  0.00037901  0.34039407  0.62447645  1
  Sr2+  Sr5  1  0.16110321  0.48744430  0.37483861  1
  Sr2+  Sr6  1  0.66783962  0.32324526  0.87410035  1
  Ca2+  Ca7  1  0.83514881  0.15646835  0.37881746  1
  Ca2+  Ca8  1  0.32632626  0.34730763  0.62710499  1
  Ca2+  Ca9  1  0.67068290  0.98515349  0.87360772  1
  Ca2+  Ca10  1  0.49966246  0.15385222  0.87376740  1
  Ca2+  Ca11  1  0.83167555  0.82007826  0.87288958  1
  Ca2+  Ca12  1  0.33684471  0.65107223  0.87409724  1
  Ca2+  Ca13  1  0.33926777  0.31616860  0.87340450  1
  Ca2+  Ca14  1  0.16229468  0.81809857  0.37536343  1
  Ca2+  Ca15  1  0.17008701  0.18641626  0.62598714  1
  Ca2+  Ca16  1  0.83661454  0.51275910  0.12304317  1
  Ca2+  Ca17  1  1.00414137  0.32063371  0.37581687  1
  Ca2+  Ca18  1  -0.00307497  0.34999938  0.12686368  1
  Ca2+  Ca19  1  0.49765319  0.81810542  0.37533460  1
  Ca2+  Ca20  1  0.83784642  0.18157008  0.62494461  1
  Ca2+  Ca21  1  1.00032117  0.65311134  0.87345953  1
  Pr3+  Pr22  1  0.32822470  0.67907428  0.12328344  1
  Pr3+  Pr23  1  0.50370183  0.17969430  0.12347601  1
  Pr3+  Pr24  1  0.49712116  0.48777802  0.37477192  1
  Pr3+  Pr25  1  0.49422045  0.48510439  0.87496876  1
  Pr3+  Pr26  1  0.66566470  0.67984564  0.62502743  1
  Pr3+  Pr27  1  0.16681763  0.84495084  0.62362207  1
  Pr3+  Pr28  1  0.16971629  0.84706195  0.12667718  1
  Pr3+  Pr29  1  0.66535536  0.67897013  0.12521855  1
  Pr3+  Pr30  1  0.16777086  0.51057409  0.62431115  1
  Pr3+  Pr31  1  0.67029302  0.98863314  0.37542405  1
  Pr3+  Pr32  1  0.50056714  0.51144751  0.62541834  1
  Pr3+  Pr33  1  0.33618433  0.98442318  0.37494690  1
  Pr3+  Pr34  1  0.82856459  0.15376374  0.87132060  1
  Pr3+  Pr35  1  0.49721859  0.15397914  0.37601225  1
  Pr3+  Pr36  1  0.33520704  0.65433996  0.37544551  1
  Pr3+  Pr37  1  0.66494450  0.01379030  0.12341036  1
  Pr3+  Pr38  1  0.83807802  0.51074318  0.62718998  1
  Pr3+  Pr39  1  0.50249605  0.18088910  0.62640581  1
  Pr3+  Pr40  1  1.00291875  0.65433007  0.37677333  1
  Pr3+  Pr41  1  0.32817782  0.67940012  0.62672854  1
  Pr3+  Pr42  1  0.32874513  0.01599791  0.62571610  1
  Pr3+  Pr43  1  0.83931117  0.18164451  0.12500667  1
  Pr3+  Pr44  1  0.50223002  0.51239918  0.12437029  1
  Pr3+  Pr45  1  1.00184199  0.98705270  0.87474045  1
  Pr3+  Pr46  1  -0.00340113  0.67630533  0.12442834  1
  Pr3+  Pr47  1  0.33073342  0.01497466  0.12370369  1
  Pr3+  Pr48  1  0.50492141  0.84636558  0.62428265  1
  Pr3+  Pr49  1  0.66747092  0.01339243  0.62674227  1
  Pr3+  Pr50  1  0.83107340  0.81863818  0.37554550  1
  Pr3+  Pr51  1  0.33186467  0.32169384  0.37640049  1
  Pr3+  Pr52  1  0.83157055  0.48852926  0.37503325  1
  Pr3+  Pr53  1  0.66537581  0.34701878  0.12404598  1
  Pr3+  Pr54  1  0.66712748  0.34503261  0.62624682  1
  Pr3+  Pr55  1  0.83571088  0.84660593  0.12453344  1
  Pr3+  Pr56  1  0.50352407  0.84633391  0.12539824  1
  Pr3+  Pr57  1  0.16072232  0.16015928  0.37790041  1
  Pr3+  Pr58  1  0.16517771  0.15591210  0.87275715  1
  Pr3+  Pr59  1  -0.00228653  0.01412508  0.12486704  1
  Pr3+  Pr60  1  0.83216864  0.48754532  0.87524354  1
  Pr3+  Pr61  1  0.33666767  0.99138449  0.87477125  1
  Pr3+  Pr62  1  0.16588023  0.50940237  0.12561878  1
  Pr3+  Pr63  1  0.16244287  0.81774843  0.87498042  1
  Pr3+  Pr64  1  0.49660245  0.81898363  0.87445295  1
  Pr3+  Pr65  1  1.00344351  0.98763196  0.37520239  1
  Pr3+  Pr66  1  -0.00583334  0.01379424  0.62502410  1
  Pr3+  Pr67  1  0.67068785  0.65589921  0.87500050  1
  Pr3+  Pr68  1  1.00202796  0.32210796  0.87448192  1
  Pr3+  Pr69  1  0.67212609  0.31932619  0.37563958  1
  Pr3+  Pr70  1  0.32870712  0.34399282  0.12340691  1
  Pr3+  Pr71  1  0.16584898  0.48834426  0.87483444  1
  Mn3.30+  Mn72  1  0.16744108  0.00073832  -0.00075785  1
  Mn3.30+  Mn73  1  0.16619200  0.00170279  0.50031502  1
  Mn3.30+  Mn74  1  0.16719925  0.33327501  -0.00122757  1
  Mn3.30+  Mn75  1  0.16574288  0.33387987  0.50175098  1
  Mn3.30+  Mn76  1  0.16546527  0.66512018  -0.00218068  1
  Mn3.30+  Mn77  1  0.16623432  0.66761202  0.50010194  1
  Mn3.30+  Mn78  1  0.50235520  0.00105234  -0.00304359  1
  Mn3.30+  Mn79  1  0.49965498  -0.00053206  0.50028179  1
  Mn3.30+  Mn80  1  0.49844022  0.33121401  -0.00244747  1
  Mn3.30+  Mn81  1  0.49888218  0.33336535  0.50178185  1
  Mn3.30+  Mn82  1  0.49821714  0.66620571  -0.00039923  1
  Mn3.30+  Mn83  1  0.49878372  0.66736651  0.49956365  1
  Mn3.30+  Mn84  1  0.83169706  -0.00059588  -0.00217785  1
  Mn3.30+  Mn85  1  0.83448383  0.00154766  0.50025179  1
  Mn3.30+  Mn86  1  0.83458392  0.33467129  0.00162705  1
  Mn3.30+  Mn87  1  0.83654085  0.33078757  0.49859052  1
  Mn3.30+  Mn88  1  0.83441316  0.66681151  -0.00114122  1
  Mn3.30+  Mn89  1  0.83407202  0.66559485  0.50042539  1
  Mn3.30+  Mn90  1  -0.00132266  0.17031654  0.25116476  1
  Mn3.30+  Mn91  1  -0.00076174  0.16696849  0.74820578  1
  Mn3.30+  Mn92  1  -0.00252922  0.49782597  0.24906169  1
  Mn3.30+  Mn93  1  0.00064281  0.49952258  0.75124638  1
  Mn3.30+  Mn94  1  0.00168911  0.83336717  0.24985360  1
  Mn3.30+  Mn95  1  -0.00194929  0.83099380  0.75180171  1
  Mn3.30+  Mn96  1  0.33186961  0.16700742  0.25050266  1
  Mn3.30+  Mn97  1  0.33373228  0.16962378  0.74949543  1
  Mn3.30+  Mn98  1  0.33189639  0.49907555  0.25001420  1
  Mn3.30+  Mn99  1  0.33321582  0.49820096  0.75062461  1
  Mn3.30+  Mn100  1  0.33380105  0.83247242  0.25144848  1
  Mn3.30+  Mn101  1  0.33326816  0.83372234  0.75054067  1
  Mn3.30+  Mn102  1  0.66979147  0.16697720  0.25056648  1
  Mn3.30+  Mn103  1  0.66671829  0.16660769  0.75074290  1
  Mn3.30+  Mn104  1  0.66807267  0.50056662  0.24969594  1
  Mn3.30+  Mn105  1  0.66612712  0.50018457  0.75038795  1
  Mn3.30+  Mn106  1  0.66642762  0.83361766  0.25123696  1
  Mn3.30+  Mn107  1  0.66850398  0.83519541  0.75139953  1
  Mn3.30+  Mn108  1  0.16766675  0.00134806  0.25213589  1
  Mn3.30+  Mn109  1  0.16584629  0.00135594  0.74829267  1
  Mn3.30+  Mn110  1  0.16237642  0.33333753  0.24862523  1
  Mn3.30+  Mn111  1  0.17055008  0.33349878  0.75104348  1
  Mn3.30+  Mn112  1  0.16529838  0.66684363  0.25025233  1
  Mn3.30+  Mn113  1  0.16647470  0.66591492  0.75210989  1
  Mn3.30+  Mn114  1  0.50015105  -0.00099107  0.25061375  1
  Mn3.30+  Mn115  1  0.50137801  0.00146073  0.75158089  1
  Mn3.30+  Mn116  1  0.50034034  0.33274179  0.25052937  1
  Mn3.30+  Mn117  1  0.49661320  0.33191778  0.74979456  1
  Mn3.30+  Mn118  1  0.49897447  0.66745722  0.25040478  1
  Mn3.30+  Mn119  1  0.49822670  0.66606525  0.75049489  1
  Mn3.30+  Mn120  1  0.83404082  0.00273702  0.25167650  1
  Mn3.30+  Mn121  1  0.83231545  -0.00209740  0.75009792  1
  Mn3.30+  Mn122  1  0.83676992  0.33401606  0.25092164  1
  Mn3.30+  Mn123  1  0.83395729  0.33151656  0.74927542  1
  Mn3.30+  Mn124  1  0.83262480  0.66449291  0.24830779  1
  Mn3.30+  Mn125  1  0.83547855  0.66804580  0.75295885  1
  Mn3.30+  Mn126  1  -0.00061644  0.16885077  0.00007387  1
  Mn3.30+  Mn127  1  -0.00169030  0.16834273  0.50110334  1
  Mn3.30+  Mn128  1  -0.00130137  0.50003442  -0.00020088  1
  Mn3.30+  Mn129  1  -0.00026459  0.49703649  0.50027676  1
  Mn3.30+  Mn130  1  -0.00108486  0.83165835  -0.00155679  1
  Mn3.30+  Mn131  1  0.00134750  0.83296568  0.49984653  1
  Mn3.30+  Mn132  1  0.33528501  0.16819137  -0.00233960  1
  Mn3.30+  Mn133  1  0.33040582  0.16877564  0.50219767  1
  Mn3.30+  Mn134  1  0.33290684  0.49923672  -0.00087243  1
  Mn3.30+  Mn135  1  0.33205121  0.49828411  0.49990439  1
  Mn3.30+  Mn136  1  0.33320463  0.83285409  -0.00159320  1
  Mn3.30+  Mn137  1  0.33374298  0.83319459  0.49888240  1
  Mn3.30+  Mn138  1  0.66743689  0.16650857  -0.00332961  1
  Mn3.30+  Mn139  1  0.66967641  0.16677569  0.50162581  1
  Mn3.30+  Mn140  1  0.66781598  0.50003336  0.00058201  1
  Mn3.30+  Mn141  1  0.66691186  0.50008739  0.49963431  1
  Mn3.30+  Mn142  1  0.66844769  0.83458775  -0.00197205  1
  Mn3.30+  Mn143  1  0.66667243  0.83405196  0.49924569  1
  O2-  O144  1  0.01790355  0.15916007  0.12388258  1
  O2-  O145  1  0.02716607  0.16001526  0.62684204  1
  O2-  O146  1  0.02300202  0.49696060  0.12328608  1
  O2-  O147  1  0.02302765  0.49690139  0.62731073  1
  O2-  O148  1  0.02635408  0.82709652  0.12469181  1
  O2-  O149  1  0.02366848  0.83182563  0.62568544  1
  O2-  O150  1  0.35939106  0.16301429  0.12327789  1
  O2-  O151  1  0.36004933  0.16096007  0.62469669  1
  O2-  O152  1  0.35831430  0.49261861  0.12394099  1
  O2-  O153  1  0.35702516  0.49335399  0.62381852  1
  O2-  O154  1  0.35979245  0.82709950  0.12340527  1
  O2-  O155  1  0.36068062  0.82774657  0.62619625  1
  O2-  O156  1  0.69414213  0.16095394  0.12315755  1
  O2-  O157  1  0.69440638  0.16144998  0.62474523  1
  O2-  O158  1  0.69223013  0.49504389  0.12506414  1
  O2-  O159  1  0.69170316  0.49545615  0.62524565  1
  O2-  O160  1  0.69061415  0.82921185  0.12481919  1
  O2-  O161  1  0.68481499  0.82880068  0.62604836  1
  O2-  O162  1  0.14159227  0.33459464  0.12242720  1
  O2-  O163  1  0.14898141  0.33350961  0.62690585  1
  O2-  O164  1  0.14130036  0.66086378  0.12297216  1
  O2-  O165  1  0.14872985  0.66213184  0.62688810  1
  O2-  O166  1  0.14273605  0.99437238  0.12546597  1
  O2-  O167  1  0.13950500  0.99111041  0.62387033  1
  O2-  O168  1  0.47368947  0.32695376  0.12359091  1
  O2-  O169  1  0.47004487  0.32869198  0.62449940  1
  O2-  O170  1  0.47239767  0.66157988  0.12436554  1
  O2-  O171  1  0.47247406  0.66166714  0.62520450  1
  O2-  O172  1  0.47446352  0.99375132  0.12380372  1
  O2-  O173  1  0.47319783  0.99291777  0.62310262  1
  O2-  O174  1  0.80710927  0.32636215  0.12584776  1
  O2-  O175  1  0.81006659  0.32870268  0.62239440  1
  O2-  O176  1  0.80812932  0.65966680  0.12383420  1
  O2-  O177  1  0.80979107  0.66006666  0.62770235  1
  O2-  O178  1  0.80878710  0.99501257  0.12374489  1
  O2-  O179  1  0.81003810  0.99203554  0.62533140  1
  O2-  O180  1  0.30705862  0.17258565  0.37842567  1
  O2-  O181  1  0.30905474  0.16885881  0.87320657  1
  O2-  O182  1  0.31209304  0.50657181  0.37486743  1
  O2-  O183  1  0.30991921  0.50891131  0.87681918  1
  O2-  O184  1  0.30444382  0.83779578  0.37510530  1
  O2-  O185  1  0.30642024  0.84454750  0.87439299  1
  O2-  O186  1  0.64040540  0.17111562  0.37724828  1
  O2-  O187  1  0.64118153  0.17159921  0.87477874  1
  O2-  O188  1  0.64108425  0.50040081  0.37514254  1
  O2-  O189  1  0.63975860  0.50665480  0.87500397  1
  O2-  O190  1  0.64038041  0.84003899  0.37422360  1
  O2-  O191  1  0.64008947  0.83613827  0.87530801  1
  O2-  O192  1  0.97649796  0.17416524  0.37456287  1
  O2-  O193  1  0.97449317  0.17181828  0.87533172  1
  O2-  O194  1  0.97501993  0.50784805  0.37392789  1
  O2-  O195  1  0.97615380  0.50403948  0.87629345  1
  O2-  O196  1  0.97494824  0.83918400  0.37207690  1
  O2-  O197  1  0.97328059  0.84164942  0.87716436  1
  O2-  O198  1  0.19334130  0.01212074  0.37758903  1
  O2-  O199  1  0.19177703  0.00633202  0.87305208  1
  O2-  O200  1  0.18843252  0.32992245  0.37580441  1
  O2-  O201  1  0.19657459  0.34016685  0.87513274  1
  O2-  O202  1  0.19142041  0.67199401  0.37504274  1
  O2-  O203  1  0.19608507  0.67091310  0.87531433  1
  O2-  O204  1  0.52591369  0.00818709  0.37700667  1
  O2-  O205  1  0.52731046  0.00737777  0.87609253  1
  O2-  O206  1  0.52702478  0.33835220  0.37717267  1
  O2-  O207  1  0.52041736  0.34048061  0.87443212  1
  O2-  O208  1  0.51689384  0.67050795  0.37462903  1
  O2-  O209  1  0.52587714  0.67008691  0.87574828  1
  O2-  O210  1  0.85936350  0.00974128  0.37577727  1
  O2-  O211  1  0.85960727  0.00839956  0.87463629  1
  O2-  O212  1  0.86203829  0.34278443  0.37397516  1
  O2-  O213  1  0.85694633  0.33828075  0.87773031  1
  O2-  O214  1  0.85700581  0.66942320  0.37224968  1
  O2-  O215  1  0.85811994  0.67478593  0.87683200  1
  O2-  O216  1  0.24331625  0.09283728  0.01576796  1
  O2-  O217  1  0.23695789  0.09778733  0.52492761  1
  O2-  O218  1  0.23827341  0.42856536  0.02090486  1
  O2-  O219  1  0.23784880  0.42862826  0.51708480  1
  O2-  O220  1  0.23557197  0.76096204  0.02076588  1
  O2-  O221  1  0.24133219  0.76204854  0.52282997  1
  O2-  O222  1  0.57371267  0.09340969  0.02462000  1
  O2-  O223  1  0.57152221  0.09532287  0.52176123  1
  O2-  O224  1  0.56996500  0.42620416  0.02022408  1
  O2-  O225  1  0.57295171  0.42701855  0.52238148  1
  O2-  O226  1  0.57027853  0.76107129  0.02000765  1
  O2-  O227  1  0.57118608  0.75875452  0.52071465  1
  O2-  O228  1  0.90257510  0.09411331  0.01823500  1
  O2-  O229  1  0.90523799  0.09426793  0.52398664  1
  O2-  O230  1  0.90315142  0.43129235  0.01742332  1
  O2-  O231  1  0.90188838  0.42950076  0.51779857  1
  O2-  O232  1  0.90520483  0.75950694  0.02558130  1
  O2-  O233  1  0.90808768  0.76033862  0.50956959  1
  O2-  O234  1  0.26357530  0.26296271  0.23345911  1
  O2-  O235  1  0.26525138  0.26331210  0.73158926  1
  O2-  O236  1  0.26021102  0.59365930  0.22858346  1
  O2-  O237  1  0.26184711  0.59262977  0.72943214  1
  O2-  O238  1  0.26585487  0.92716616  0.22935563  1
  O2-  O239  1  0.26037992  0.92948516  0.72767363  1
  O2-  O240  1  0.59766580  0.26032308  0.22993214  1
  O2-  O241  1  0.59237983  0.26167851  0.72506070  1
  O2-  O242  1  0.59073075  0.59399152  0.22736704  1
  O2-  O243  1  0.59386863  0.59509592  0.72814368  1
  O2-  O244  1  0.59511223  0.92907087  0.22878624  1
  O2-  O245  1  0.59404096  0.92737054  0.72914099  1
  O2-  O246  1  0.92824898  0.26353538  0.22537946  1
  O2-  O247  1  0.92840103  0.25919537  0.73669593  1
  O2-  O248  1  0.92865301  0.59615508  0.23153910  1
  O2-  O249  1  0.92375245  0.58936743  0.73452286  1
  O2-  O250  1  0.92943999  0.92822755  0.22918821  1
  O2-  O251  1  0.93152508  0.93165667  0.73485043  1
  O2-  O252  1  0.09431920  0.23777676  0.26813338  1
  O2-  O253  1  0.09575558  0.24174218  0.77170349  1
  O2-  O254  1  0.09017311  0.57386492  0.26564985  1
  O2-  O255  1  0.09626296  0.57141216  0.76895959  1
  O2-  O256  1  0.09846465  0.90704684  0.27128513  1
  O2-  O257  1  0.09410652  0.90376874  0.77116479  1
  O2-  O258  1  0.42792807  0.23755555  0.27115113  1
  O2-  O259  1  0.43233084  0.23375696  0.76910056  1
  O2-  O260  1  0.42815048  0.57166142  0.26804105  1
  O2-  O261  1  0.42939959  0.56758700  0.76650841  1
  O2-  O262  1  0.42959417  0.90219746  0.27217106  1
  O2-  O263  1  0.42894040  0.90545436  0.77137420  1
  O2-  O264  1  0.76543162  0.23794053  0.27251327  1
  O2-  O265  1  0.76063484  0.23800200  0.76700877  1
  O2-  O266  1  0.76060914  0.57162450  0.26902130  1
  O2-  O267  1  0.76062290  0.57510023  0.77251815  1
  O2-  O268  1  0.76365887  0.90757544  0.27081873  1
  O2-  O269  1  0.76189847  0.90383336  0.77272254  1
  O2-  O270  1  0.06890678  0.07360613  0.47868474  1
  O2-  O271  1  0.07286164  0.07293530  0.98006042  1
  O2-  O272  1  0.07012624  0.40429914  0.48150266  1
  O2-  O273  1  0.07412069  0.40754695  0.97685774  1
  O2-  O274  1  0.07372135  0.74125839  0.47974983  1
  O2-  O275  1  0.07144951  0.73604744  0.97661050  1
  O2-  O276  1  0.40364865  0.07124875  0.47968661  1
  O2-  O277  1  0.40571093  0.06992934  0.98225221  1
  O2-  O278  1  0.40669145  0.40828561  0.47561418  1
  O2-  O279  1  0.40218105  0.40397784  0.97959346  1
  O2-  O280  1  0.40181065  0.73641490  0.48235255  1
  O2-  O281  1  0.40237192  0.73819810  0.97683828  1
  O2-  O282  1  0.73548827  0.07005257  0.48319436  1
  O2-  O283  1  0.73637540  0.06902968  0.97741647  1
  O2-  O284  1  0.74020400  0.40322346  0.48012502  1
  O2-  O285  1  0.74013777  0.40690904  0.98275647  1
  O2-  O286  1  0.74139782  0.74150945  0.48407713  1
  O2-  O287  1  0.73629154  0.73674769  0.98405577  1
  O2-  O288  1  0.09562805  0.23810623  0.48662176  1
  O2-  O289  1  0.09574309  0.24165458  0.97447202  1
  O2-  O290  1  0.09019156  0.57451222  0.48378732  1
  O2-  O291  1  0.09662363  0.57020331  0.98199879  1
  O2-  O292  1  0.09669573  0.90522317  0.47728280  1
  O2-  O293  1  0.09538131  0.90482306  0.97989132  1
  O2-  O294  1  0.42838461  0.23771966  0.47851542  1
  O2-  O295  1  0.43217641  0.23429798  0.98042775  1
  O2-  O296  1  0.42798233  0.57156968  0.48129018  1
  O2-  O297  1  0.42977802  0.56844096  0.98345363  1
  O2-  O298  1  0.42857929  0.90228353  0.47691702  1
  O2-  O299  1  0.43011146  0.90614809  0.97819729  1
  O2-  O300  1  0.76130276  0.23998157  0.47542554  1
  O2-  O301  1  0.76518939  0.23496370  0.98308426  1
  O2-  O302  1  0.76039380  0.57035634  0.48356371  1
  O2-  O303  1  0.76151501  0.57559845  0.97589812  1
  O2-  O304  1  0.76206308  0.90857816  0.47500198  1
  O2-  O305  1  0.76630104  0.90245601  0.98131620  1
  O2-  O306  1  0.07075622  0.07468848  0.27013223  1
  O2-  O307  1  0.07082113  0.07239581  0.77155393  1
  O2-  O308  1  0.06646215  0.40440939  0.26682865  1
  O2-  O309  1  0.07546625  0.40728109  0.77419860  1
  O2-  O310  1  0.07097961  0.73837203  0.26899182  1
  O2-  O311  1  0.07364389  0.73916719  0.77452734  1
  O2-  O312  1  0.40572659  0.07080728  0.27060031  1
  O2-  O313  1  0.40271495  0.07005016  0.76607277  1
  O2-  O314  1  0.40543684  0.40586044  0.27095659  1
  O2-  O315  1  0.40378657  0.40474128  0.77259334  1
  O2-  O316  1  0.40122822  0.73639258  0.26733226  1
  O2-  O317  1  0.40419767  0.73667460  0.77271261  1
  O2-  O318  1  0.73520207  0.07077183  0.26715736  1
  O2-  O319  1  0.73770173  0.06877476  0.77038392  1
  O2-  O320  1  0.73934153  0.40192483  0.27082379  1
  O2-  O321  1  0.74118030  0.40906916  0.76571969  1
  O2-  O322  1  0.74143555  0.74099973  0.26649766  1
  O2-  O323  1  0.73508342  0.73739576  0.76661728  1
  O2-  O324  1  0.24198010  0.09235309  0.23041706  1
  O2-  O325  1  0.23822488  0.09853153  0.72836909  1
  O2-  O326  1  0.23866961  0.42542376  0.22977604  1
  O2-  O327  1  0.23699142  0.43210719  0.73293450  1
  O2-  O328  1  0.23971572  0.76051312  0.22615433  1
  O2-  O329  1  0.23794015  0.76305142  0.73026550  1
  O2-  O330  1  0.57187660  0.09517677  0.22954362  1
  O2-  O331  1  0.57337946  0.09400482  0.72566766  1
  O2-  O332  1  0.57289304  0.42754562  0.22898546  1
  O2-  O333  1  0.56981596  0.42649342  0.72923215  1
  O2-  O334  1  0.57124368  0.75892829  0.22773897  1
  O2-  O335  1  0.57057276  0.76194060  0.73142697  1
  O2-  O336  1  0.90626685  0.09434551  0.22933851  1
  O2-  O337  1  0.90325571  0.09425338  0.72910278  1
  O2-  O338  1  0.89968463  0.43275658  0.22964700  1
  O2-  O339  1  0.90537569  0.42722342  0.73579406  1
  O2-  O340  1  0.90452632  0.75999416  0.22908546  1
  O2-  O341  1  0.90620071  0.76046977  0.73523466  1
  O2-  O342  1  0.26333854  0.26230274  0.01711639  1
  O2-  O343  1  0.26518699  0.26529969  0.51827774  1
  O2-  O344  1  0.25981261  0.59195219  0.02322700  1
  O2-  O345  1  0.26215029  0.59388893  0.51973862  1
  O2-  O346  1  0.26206594  0.92712186  0.02153902  1
  O2-  O347  1  0.26423802  0.92906467  0.52047697  1
  O2-  O348  1  0.59551441  0.25981330  0.02359809  1
  O2-  O349  1  0.59593137  0.26047131  0.52246494  1
  O2-  O350  1  0.59503018  0.59416128  0.02218442  1
  O2-  O351  1  0.59061606  0.59403390  0.52280988  1
  O2-  O352  1  0.59398226  0.92691453  0.02185553  1
  O2-  O353  1  0.59492616  0.92938742  0.52119979  1
  O2-  O354  1  0.92957603  0.26526487  0.02100462  1
  O2-  O355  1  0.92639511  0.25833190  0.51826916  1
  O2-  O356  1  0.92845974  0.59546844  0.01823120  1
  O2-  O357  1  0.92448066  0.59018811  0.51740092  1
  O2-  O358  1  0.92861718  0.92984261  0.02164510  1
  O2-  O359  1  0.93232536  0.93037459  0.51379767  1
