# generated using pymatgen
data_Sr7Ca15Pr50Mn72O216
_symmetry_space_group_name_H-M   'P 1'
_cell_length_a   16.55477736
_cell_length_b   16.59949282
_cell_length_c   15.59199117
_cell_angle_alpha   90.00113490
_cell_angle_beta   89.99326413
_cell_angle_gamma   90.00997533
_symmetry_Int_Tables_number   1
_chemical_formula_structural   Sr7Ca15Pr50Mn72O216
_chemical_formula_sum   'Sr7 Ca15 Pr50 Mn72 O216'
_cell_volume   4284.69323356
_cell_formula_units_Z   1
loop_
 _symmetry_equiv_pos_site_id
 _symmetry_equiv_pos_as_xyz
  1  'x, y, z'
loop_
 _atom_type_symbol
 _atom_type_oxidation_number
  Sr2+  2.0
  Ca2+  2.0
  Pr3+  3.0
  Mn3.30+  3.3
  O2-  -2.0
loop_
 _atom_site_type_symbol
 _atom_site_label
 _atom_site_symmetry_multiplicity
 _atom_site_fract_x
 _atom_site_fract_y
 _atom_site_fract_z
 _atom_site_occupancy
  Sr2+  Sr0  1  0.33204792  0.67167636  0.12439932  1
  Sr2+  Sr1  1  0.66777928  0.32390574  0.87701001  1
  Sr2+  Sr2  1  1.00312779  0.65573748  0.37608390  1
  Sr2+  Sr3  1  0.16574046  0.15951647  0.37635514  1
  Sr2+  Sr4  1  0.49834358  0.50595567  0.12623986  1
  Sr2+  Sr5  1  0.33529772  0.32340205  0.37236530  1
  Sr2+  Sr6  1  0.49617938  0.15852378  0.37518479  1
  Ca2+  Ca7  1  1.00362193  0.31555018  0.87509855  1
  Ca2+  Ca8  1  0.66244845  0.01672139  0.12418924  1
  Ca2+  Ca9  1  0.82988785  0.48215811  0.87441999  1
  Ca2+  Ca10  1  0.32853601  0.34953249  0.12735941  1
  Ca2+  Ca11  1  0.17227828  0.51255220  0.12668965  1
  Ca2+  Ca12  1  0.16730671  0.84714658  0.62438396  1
  Ca2+  Ca13  1  0.49277710  0.48348093  0.37376174  1
  Ca2+  Ca14  1  -0.00377746  0.01978825  0.12436276  1
  Ca2+  Ca15  1  0.16106675  0.15279236  0.87447982  1
  Ca2+  Ca16  1  0.16981680  0.18163345  0.62716350  1
  Ca2+  Ca17  1  0.49864836  0.15294183  0.87606264  1
  Ca2+  Ca18  1  0.50356667  0.51072158  0.62446786  1
  Ca2+  Ca19  1  -0.00213874  0.68239207  0.62366434  1
  Ca2+  Ca20  1  0.83562049  0.18154817  0.12201582  1
  Ca2+  Ca21  1  0.83624344  0.18268493  0.62818090  1
  Pr3+  Pr22  1  0.50139925  0.17854956  0.12452144  1
  Pr3+  Pr23  1  0.33746690  0.65107655  0.37510213  1
  Pr3+  Pr24  1  -0.00140669  0.01609168  0.62584801  1
  Pr3+  Pr25  1  0.83507504  0.51047790  0.12215403  1
  Pr3+  Pr26  1  0.66869105  0.99240985  0.87672634  1
  Pr3+  Pr27  1  0.50093023  0.17908481  0.62576179  1
  Pr3+  Pr28  1  0.33038206  0.68072029  0.62523227  1
  Pr3+  Pr29  1  0.33381147  0.98893979  0.87576874  1
  Pr3+  Pr30  1  0.66559587  0.01547471  0.62546388  1
  Pr3+  Pr31  1  0.83886377  0.51341925  0.62690655  1
  Pr3+  Pr32  1  0.83166343  0.15816117  0.87653718  1
  Pr3+  Pr33  1  0.16992389  0.84485985  0.12565031  1
  Pr3+  Pr34  1  0.67202169  0.65036285  0.87414029  1
  Pr3+  Pr35  1  0.33463535  0.99205575  0.37471282  1
  Pr3+  Pr36  1  0.66608408  0.34317454  0.12301996  1
  Pr3+  Pr37  1  1.00461238  0.99050537  0.37305253  1
  Pr3+  Pr38  1  0.33499936  0.65200851  0.87510958  1
  Pr3+  Pr39  1  0.16469423  0.48724087  0.37295040  1
  Pr3+  Pr40  1  -0.00149572  0.34454674  0.12283379  1
  Pr3+  Pr41  1  1.00517090  0.32028097  0.37456957  1
  Pr3+  Pr42  1  0.33080792  0.01130029  0.12472803  1
  Pr3+  Pr43  1  0.50308012  0.84766248  0.62550395  1
  Pr3+  Pr44  1  0.83281164  0.48635307  0.37489827  1
  Pr3+  Pr45  1  0.17032958  0.18082551  0.12378560  1
  Pr3+  Pr46  1  0.83763234  0.84942652  0.12584655  1
  Pr3+  Pr47  1  0.49650243  0.82184454  0.37563569  1
  Pr3+  Pr48  1  0.16449076  0.82083971  0.37611366  1
  Pr3+  Pr49  1  0.16352348  0.82065662  0.87392682  1
  Pr3+  Pr50  1  0.83101642  0.82235715  0.87493670  1
  Pr3+  Pr51  1  0.49723894  0.48633810  0.87556972  1
  Pr3+  Pr52  1  0.83227315  0.81953180  0.37482246  1
  Pr3+  Pr53  1  0.50366834  0.84580435  0.12409249  1
  Pr3+  Pr54  1  0.00057334  0.67684809  0.12595633  1
  Pr3+  Pr55  1  0.16752841  0.51069703  0.62471382  1
  Pr3+  Pr56  1  0.33840405  0.31708936  0.87732185  1
  Pr3+  Pr57  1  0.66425908  0.34559913  0.62670130  1
  Pr3+  Pr58  1  0.66333366  0.67855044  0.62505504  1
  Pr3+  Pr59  1  1.00222921  0.65291009  0.87314620  1
  Pr3+  Pr60  1  0.49732834  0.81959974  0.87468752  1
  Pr3+  Pr61  1  0.83020995  0.15650541  0.37403599  1
  Pr3+  Pr62  1  -0.00207320  0.34169720  0.62684219  1
  Pr3+  Pr63  1  1.00300828  0.99011387  0.87711831  1
  Pr3+  Pr64  1  0.66867750  0.65061192  0.37524284  1
  Pr3+  Pr65  1  0.33088294  0.34324807  0.62339338  1
  Pr3+  Pr66  1  0.66897806  0.98932904  0.37306513  1
  Pr3+  Pr67  1  0.66087812  0.67700166  0.12447804  1
  Pr3+  Pr68  1  0.16342244  0.48432052  0.87667475  1
  Pr3+  Pr69  1  0.32683812  0.01530676  0.62586808  1
  Pr3+  Pr70  1  0.66499609  0.32194732  0.37256563  1
  Pr3+  Pr71  1  0.83863621  0.84577141  0.62399512  1
  Mn3.30+  Mn72  1  0.16457357  0.00154002  0.00117204  1
  Mn3.30+  Mn73  1  0.16606408  0.00180458  0.50130571  1
  Mn3.30+  Mn74  1  0.16711974  0.33222073  -0.00117183  1
  Mn3.30+  Mn75  1  0.16614148  0.33193691  0.50128334  1
  Mn3.30+  Mn76  1  0.16661708  0.66450972  -0.00065807  1
  Mn3.30+  Mn77  1  0.16575836  0.66748054  0.50263279  1
  Mn3.30+  Mn78  1  0.50110451  0.00108638  -0.00049168  1
  Mn3.30+  Mn79  1  0.49937209  0.00140445  0.50038404  1
  Mn3.30+  Mn80  1  0.49881713  0.33154611  0.00032098  1
  Mn3.30+  Mn81  1  0.49843313  0.33483534  0.50045901  1
  Mn3.30+  Mn82  1  0.50019626  0.66467110  0.00016349  1
  Mn3.30+  Mn83  1  0.49984203  0.66393227  0.50061563  1
  Mn3.30+  Mn84  1  0.83422572  0.00383430  0.00399390  1
  Mn3.30+  Mn85  1  0.83484097  0.00207134  0.49956761  1
  Mn3.30+  Mn86  1  0.83533835  0.33315032  -0.00198207  1
  Mn3.30+  Mn87  1  0.83289515  0.33240028  0.50121542  1
  Mn3.30+  Mn88  1  0.83347392  0.66602709  -0.00021887  1
  Mn3.30+  Mn89  1  0.83468682  0.66574360  0.49982553  1
  Mn3.30+  Mn90  1  -0.00130156  0.16681405  0.24748399  1
  Mn3.30+  Mn91  1  0.00156523  0.16794328  0.75065278  1
  Mn3.30+  Mn92  1  0.00168703  0.50033087  0.24759226  1
  Mn3.30+  Mn93  1  -0.00078091  0.49786315  0.75265226  1
  Mn3.30+  Mn94  1  0.00085140  0.83528354  0.24891646  1
  Mn3.30+  Mn95  1  0.00103601  0.83387887  0.74853856  1
  Mn3.30+  Mn96  1  0.33378838  0.16773475  0.24926018  1
  Mn3.30+  Mn97  1  0.33068075  0.16625352  0.75305505  1
  Mn3.30+  Mn98  1  0.33259968  0.49898290  0.24914406  1
  Mn3.30+  Mn99  1  0.33391950  0.49833186  0.74828248  1
  Mn3.30+  Mn100  1  0.33367296  0.83223519  0.24947858  1
  Mn3.30+  Mn101  1  0.33149185  0.83418462  0.74935741  1
  Mn3.30+  Mn102  1  0.66729362  0.16552009  0.24771239  1
  Mn3.30+  Mn103  1  0.66724845  0.16841861  0.75136497  1
  Mn3.30+  Mn104  1  0.66449567  0.49813183  0.25114751  1
  Mn3.30+  Mn105  1  0.66815078  0.49859084  0.74911891  1
  Mn3.30+  Mn106  1  0.66713525  0.83448818  0.24929326  1
  Mn3.30+  Mn107  1  0.66758591  0.83452288  0.75027594  1
  Mn3.30+  Mn108  1  0.16514247  0.00194839  0.24869659  1
  Mn3.30+  Mn109  1  0.16583439  0.00152372  0.74991702  1
  Mn3.30+  Mn110  1  0.16753424  0.33381645  0.24810637  1
  Mn3.30+  Mn111  1  0.16586151  0.32994808  0.75268782  1
  Mn3.30+  Mn112  1  0.16768025  0.66529314  0.25056270  1
  Mn3.30+  Mn113  1  0.16508045  0.66701503  0.74725067  1
  Mn3.30+  Mn114  1  0.50159326  0.00053521  0.24904074  1
  Mn3.30+  Mn115  1  0.49905045  0.00188823  0.75137650  1
  Mn3.30+  Mn116  1  0.49743166  0.33372097  0.24788518  1
  Mn3.30+  Mn117  1  0.49942660  0.33192075  0.75173846  1
  Mn3.30+  Mn118  1  0.49955424  0.66503004  0.24988759  1
  Mn3.30+  Mn119  1  0.50039367  0.66401931  0.74879992  1
  Mn3.30+  Mn120  1  0.83438686  0.00362532  0.24643667  1
  Mn3.30+  Mn121  1  0.83468166  0.00270175  0.74995468  1
  Mn3.30+  Mn122  1  0.83471686  0.33210839  0.24888255  1
  Mn3.30+  Mn123  1  0.83377100  0.33308593  0.75189182  1
  Mn3.30+  Mn124  1  0.83265500  0.66544809  0.24972348  1
  Mn3.30+  Mn125  1  0.83577049  0.66617782  0.74957167  1
  Mn3.30+  Mn126  1  0.00066527  0.16746522  0.00000798  1
  Mn3.30+  Mn127  1  -0.00081662  0.16748021  0.50228169  1
  Mn3.30+  Mn128  1  0.00050749  0.49792311  -0.00178443  1
  Mn3.30+  Mn129  1  0.00055369  0.50093919  0.50111462  1
  Mn3.30+  Mn130  1  -0.00028441  0.83468990  0.00118609  1
  Mn3.30+  Mn131  1  0.00228780  0.83397360  0.50132827  1
  Mn3.30+  Mn132  1  0.33262067  0.16643011  -0.00115561  1
  Mn3.30+  Mn133  1  0.33163833  0.16752734  0.50004287  1
  Mn3.30+  Mn134  1  0.32986079  0.49782771  0.00109788  1
  Mn3.30+  Mn135  1  0.33664521  0.49918089  0.50188815  1
  Mn3.30+  Mn136  1  0.33309232  0.83186876  0.00033871  1
  Mn3.30+  Mn137  1  0.33170399  0.83456590  0.50135520  1
  Mn3.30+  Mn138  1  0.66709968  0.16644583  0.00063674  1
  Mn3.30+  Mn139  1  0.66733212  0.16791974  0.50013762  1
  Mn3.30+  Mn140  1  0.66813564  0.49845446  -0.00088801  1
  Mn3.30+  Mn141  1  0.66429468  0.49815639  0.49989390  1
  Mn3.30+  Mn142  1  0.66773946  0.83508119  0.00023998  1
  Mn3.30+  Mn143  1  0.66712391  0.83391841  0.49975439  1
  O2-  O144  1  0.02575294  0.16573032  0.12295787  1
  O2-  O145  1  0.02700723  0.16409107  0.62774123  1
  O2-  O146  1  0.02888925  0.49333694  0.12258136  1
  O2-  O147  1  0.02488672  0.48854878  0.62851713  1
  O2-  O148  1  0.02609548  0.82494116  0.12387556  1
  O2-  O149  1  0.02454105  0.82886242  0.62452603  1
  O2-  O150  1  0.35769636  0.15775872  0.12285187  1
  O2-  O151  1  0.35726642  0.16310852  0.62908723  1
  O2-  O152  1  0.34876103  0.49885807  0.12337372  1
  O2-  O153  1  0.36151278  0.49235551  0.62623109  1
  O2-  O154  1  0.35850565  0.83102474  0.12305419  1
  O2-  O155  1  0.36003609  0.82979909  0.62593063  1
  O2-  O156  1  0.69304063  0.16264508  0.12538001  1
  O2-  O157  1  0.69335948  0.16276795  0.62533003  1
  O2-  O158  1  0.69065864  0.49641578  0.12593186  1
  O2-  O159  1  0.69444153  0.49526665  0.62416319  1
  O2-  O160  1  0.69388620  0.82281897  0.12356173  1
  O2-  O161  1  0.69373326  0.82757037  0.62479604  1
  O2-  O162  1  0.14098852  0.32716423  0.12212220  1
  O2-  O163  1  0.14248734  0.32895000  0.62945423  1
  O2-  O164  1  0.14431778  0.65991816  0.12313681  1
  O2-  O165  1  0.13931543  0.65760782  0.62590037  1
  O2-  O166  1  0.13957558  0.99163620  0.12411523  1
  O2-  O167  1  0.14142633  0.99028701  0.62531316  1
  O2-  O168  1  0.47362378  0.32659127  0.12193281  1
  O2-  O169  1  0.47463294  0.32517557  0.63010348  1
  O2-  O170  1  0.48313641  0.66541463  0.12430767  1
  O2-  O171  1  0.47483118  0.65775005  0.62524074  1
  O2-  O172  1  0.47473937  0.99274867  0.12409224  1
  O2-  O173  1  0.47337527  0.99523086  0.62791781  1
  O2-  O174  1  0.81086367  0.32939170  0.12490142  1
  O2-  O175  1  0.80881483  0.32811314  0.62638285  1
  O2-  O176  1  0.80537233  0.65969395  0.12440139  1
  O2-  O177  1  0.80708156  0.66269520  0.62411012  1
  O2-  O178  1  0.80263922  0.99308101  0.12518318  1
  O2-  O179  1  0.80788902  0.99124087  0.62353038  1
  O2-  O180  1  0.31590392  0.16273420  0.37293180  1
  O2-  O181  1  0.30276192  0.17015346  0.87633467  1
  O2-  O182  1  0.30901492  0.50334834  0.37751886  1
  O2-  O183  1  0.30828731  0.50343743  0.87233706  1
  O2-  O184  1  0.30928106  0.84041322  0.37676749  1
  O2-  O185  1  0.30821735  0.83871584  0.87449310  1
  O2-  O186  1  0.64644448  0.17161125  0.37343605  1
  O2-  O187  1  0.64211480  0.16527673  0.87514151  1
  O2-  O188  1  0.63741429  0.50196749  0.37613239  1
  O2-  O189  1  0.64206332  0.50383566  0.87327877  1
  O2-  O190  1  0.64046791  0.84141663  0.37556177  1
  O2-  O191  1  0.64126726  0.84241675  0.87525460  1
  O2-  O192  1  0.97454489  0.17104601  0.37443574  1
  O2-  O193  1  0.97516149  0.16734552  0.87519708  1
  O2-  O194  1  0.97626191  0.50092346  0.37323381  1
  O2-  O195  1  0.97023634  0.50851720  0.87435877  1
  O2-  O196  1  0.97552365  0.84216625  0.37407307  1
  O2-  O197  1  0.97435545  0.84081717  0.87720747  1
  O2-  O198  1  0.18994857  0.00410087  0.37503909  1
  O2-  O199  1  0.18972168  0.00660678  0.87653759  1
  O2-  O200  1  0.18400472  0.33896671  0.37356837  1
  O2-  O201  1  0.19570220  0.33948816  0.87578526  1
  O2-  O202  1  0.19243904  0.67248478  0.37940403  1
  O2-  O203  1  0.19077909  0.67287748  0.87084299  1
  O2-  O204  1  0.52413519  0.00086696  0.37363593  1
  O2-  O205  1  0.52467709  0.00525871  0.87410779  1
  O2-  O206  1  0.52121168  0.33799975  0.37322844  1
  O2-  O207  1  0.51838018  0.33991362  0.87476728  1
  O2-  O208  1  0.52596438  0.67623877  0.37668755  1
  O2-  O209  1  0.52628060  0.67150754  0.87306701  1
  O2-  O210  1  0.86086163  0.00874199  0.37389796  1
  O2-  O211  1  0.85931237  0.00785547  0.87741888  1
  O2-  O212  1  0.86045075  0.33852065  0.37401319  1
  O2-  O213  1  0.85971110  0.33733564  0.87482360  1
  O2-  O214  1  0.85350771  0.66955704  0.37542818  1
  O2-  O215  1  0.85958049  0.67630842  0.87533777  1
  O2-  O216  1  0.23846936  0.09250763  0.02332257  1
  O2-  O217  1  0.23679947  0.09424617  0.52424534  1
  O2-  O218  1  0.23304922  0.43061740  0.01727461  1
  O2-  O219  1  0.23940390  0.42740456  0.52133746  1
  O2-  O220  1  0.23526084  0.76279842  0.01558071  1
  O2-  O221  1  0.23860007  0.76179672  0.52388279  1
  O2-  O222  1  0.57189273  0.09316539  0.01999384  1
  O2-  O223  1  0.57320142  0.09338611  0.52242416  1
  O2-  O224  1  0.57588907  0.42474306  0.01628746  1
  O2-  O225  1  0.57383360  0.42677348  0.52575310  1
  O2-  O226  1  0.57355618  0.76321360  0.01761691  1
  O2-  O227  1  0.56923277  0.75976965  0.52268034  1
  O2-  O228  1  0.90248381  0.09863326  0.02063187  1
  O2-  O229  1  0.90318127  0.09733019  0.52299332  1
  O2-  O230  1  0.90806348  0.42726880  0.02313517  1
  O2-  O231  1  0.90410077  0.42778054  0.51975671  1
  O2-  O232  1  0.90493896  0.76203954  0.02199317  1
  O2-  O233  1  0.90505671  0.76491495  0.51612033  1
  O2-  O234  1  0.25880790  0.26028631  0.22705587  1
  O2-  O235  1  0.26482830  0.26349177  0.73306788  1
  O2-  O236  1  0.26149495  0.59508763  0.24004689  1
  O2-  O237  1  0.26265529  0.59356304  0.72813700  1
  O2-  O238  1  0.26128108  0.92695179  0.23017682  1
  O2-  O239  1  0.26291151  0.93059770  0.73445250  1
  O2-  O240  1  0.59432837  0.25915707  0.22889833  1
  O2-  O241  1  0.59392103  0.25960304  0.72790218  1
  O2-  O242  1  0.59689037  0.59800833  0.23532970  1
  O2-  O243  1  0.60024487  0.59497521  0.73201299  1
  O2-  O244  1  0.59654652  0.92792329  0.22722960  1
  O2-  O245  1  0.59581726  0.92755549  0.72835384  1
  O2-  O246  1  0.93034276  0.26380351  0.23199366  1
  O2-  O247  1  0.92939242  0.26090433  0.73227754  1
  O2-  O248  1  0.92712816  0.59106009  0.22526994  1
  O2-  O249  1  0.93035957  0.59757134  0.72695486  1
  O2-  O250  1  0.92760039  0.93253941  0.22689068  1
  O2-  O251  1  0.92857707  0.92851708  0.72978984  1
  O2-  O252  1  0.09141199  0.24112043  0.26583139  1
  O2-  O253  1  0.09652244  0.23628296  0.77286011  1
  O2-  O254  1  0.09564196  0.57158827  0.26825693  1
  O2-  O255  1  0.09379946  0.56897592  0.77148834  1
  O2-  O256  1  0.09582340  0.90572042  0.27051968  1
  O2-  O257  1  0.09460231  0.90777403  0.77312087  1
  O2-  O258  1  0.42791698  0.23755354  0.26131365  1
  O2-  O259  1  0.42723375  0.23435188  0.77335562  1
  O2-  O260  1  0.42761831  0.57372360  0.27246645  1
  O2-  O261  1  0.42719448  0.57192416  0.77304699  1
  O2-  O262  1  0.42890903  0.90489325  0.26910689  1
  O2-  O263  1  0.42808097  0.90410592  0.77122100  1
  O2-  O264  1  0.76025479  0.24186789  0.27084936  1
  O2-  O265  1  0.76286834  0.23894814  0.76947384  1
  O2-  O266  1  0.75876562  0.56911206  0.27138347  1
  O2-  O267  1  0.76540481  0.57219012  0.77076430  1
  O2-  O268  1  0.76372368  0.90587291  0.27168923  1
  O2-  O269  1  0.76289624  0.90802443  0.77126984  1
  O2-  O270  1  0.06706232  0.06992141  0.48493587  1
  O2-  O271  1  0.06916305  0.07130128  0.98294931  1
  O2-  O272  1  0.07225929  0.40676417  0.48230792  1
  O2-  O273  1  0.07039136  0.40196868  0.97499442  1
  O2-  O274  1  0.07446428  0.74395800  0.48018615  1
  O2-  O275  1  0.07239195  0.73629880  0.97947064  1
  O2-  O276  1  0.40203248  0.06963947  0.48667296  1
  O2-  O277  1  0.40187947  0.07011436  0.98158514  1
  O2-  O278  1  0.40556387  0.40539795  0.48511650  1
  O2-  O279  1  0.40469289  0.40700002  0.98031121  1
  O2-  O280  1  0.40505483  0.73742581  0.48222684  1
  O2-  O281  1  0.40756428  0.73930115  0.97574999  1
  O2-  O282  1  0.73874248  0.07118535  0.47916683  1
  O2-  O283  1  0.74001337  0.07371998  0.97780318  1
  O2-  O284  1  0.73724616  0.40510019  0.47813558  1
  O2-  O285  1  0.74175630  0.40695568  0.98690560  1
  O2-  O286  1  0.73780334  0.73920145  0.47897452  1
  O2-  O287  1  0.73809986  0.74001361  0.97692235  1
  O2-  O288  1  0.08835563  0.24227262  0.48261634  1
  O2-  O289  1  0.09970141  0.23508406  0.98088788  1
  O2-  O290  1  0.09904599  0.56935259  0.48356717  1
  O2-  O291  1  0.09131390  0.57203037  0.97514788  1
  O2-  O292  1  0.09420944  0.90784951  0.47742325  1
  O2-  O293  1  0.09533921  0.90496677  0.97871624  1
  O2-  O294  1  0.42684636  0.23894339  0.49024369  1
  O2-  O295  1  0.42848579  0.23452746  0.97734077  1
  O2-  O296  1  0.42973609  0.57247860  0.47606160  1
  O2-  O297  1  0.42497828  0.57190733  0.97766753  1
  O2-  O298  1  0.42876868  0.90532161  0.48149071  1
  O2-  O299  1  0.42927065  0.90544092  0.97858535  1
  O2-  O300  1  0.75967961  0.24178872  0.47721043  1
  O2-  O301  1  0.76232855  0.23928953  0.98276944  1
  O2-  O302  1  0.76011845  0.56897704  0.47936810  1
  O2-  O303  1  0.76288197  0.57107034  0.97755554  1
  O2-  O304  1  0.76457282  0.90767900  0.47685966  1
  O2-  O305  1  0.76248717  0.90618810  0.97912520  1
  O2-  O306  1  0.06779019  0.07288028  0.26542325  1
  O2-  O307  1  0.06754096  0.06901637  0.76708442  1
  O2-  O308  1  0.07040254  0.40592662  0.26838226  1
  O2-  O309  1  0.07235417  0.40265982  0.77440622  1
  O2-  O310  1  0.07638993  0.73972672  0.26662747  1
  O2-  O311  1  0.07056633  0.74093925  0.77236929  1
  O2-  O312  1  0.40425665  0.06758966  0.26361286  1
  O2-  O313  1  0.40031104  0.07080786  0.76967085  1
  O2-  O314  1  0.40685975  0.40900073  0.26267527  1
  O2-  O315  1  0.40372639  0.40391284  0.77107533  1
  O2-  O316  1  0.40742725  0.73968589  0.27341377  1
  O2-  O317  1  0.40363107  0.73902857  0.76902745  1
  O2-  O318  1  0.74013204  0.07276376  0.27308648  1
  O2-  O319  1  0.73845585  0.07252043  0.76949158  1
  O2-  O320  1  0.74148851  0.40501866  0.27114044  1
  O2-  O321  1  0.73900896  0.40594602  0.76503010  1
  O2-  O322  1  0.73712476  0.73994054  0.27155635  1
  O2-  O323  1  0.73839616  0.73956058  0.77091239  1
  O2-  O324  1  0.23956996  0.09254687  0.22659247  1
  O2-  O325  1  0.23647024  0.09481002  0.72730730  1
  O2-  O326  1  0.23541394  0.42950789  0.23309780  1
  O2-  O327  1  0.23821376  0.42761038  0.72918683  1
  O2-  O328  1  0.23756226  0.76284492  0.23388415  1
  O2-  O329  1  0.23866011  0.76385492  0.72712520  1
  O2-  O330  1  0.57183833  0.09266052  0.22832164  1
  O2-  O331  1  0.57389309  0.09332957  0.72774404  1
  O2-  O332  1  0.57872242  0.42113333  0.22878319  1
  O2-  O333  1  0.57187216  0.42870812  0.72943584  1
  O2-  O334  1  0.57163132  0.76246562  0.23039538  1
  O2-  O335  1  0.57123883  0.76090979  0.72902390  1
  O2-  O336  1  0.90042875  0.10013494  0.22874064  1
  O2-  O337  1  0.90438855  0.09569715  0.72817646  1
  O2-  O338  1  0.90563005  0.42829399  0.22821380  1
  O2-  O339  1  0.90594833  0.42647198  0.72765508  1
  O2-  O340  1  0.90668556  0.76261475  0.23034264  1
  O2-  O341  1  0.90234404  0.76348950  0.73181389  1
  O2-  O342  1  0.26462117  0.26374879  0.02228302  1
  O2-  O343  1  0.25903320  0.26018481  0.51900850  1
  O2-  O344  1  0.25938175  0.59522660  0.00923612  1
  O2-  O345  1  0.26476963  0.59375570  0.52221223  1
  O2-  O346  1  0.25989028  0.92771750  0.01920342  1
  O2-  O347  1  0.26188667  0.93102191  0.51795077  1
  O2-  O348  1  0.59420473  0.25779459  0.02300372  1
  O2-  O349  1  0.59342566  0.26240660  0.51925124  1
  O2-  O350  1  0.59862716  0.59576389  0.01350654  1
  O2-  O351  1  0.59841633  0.59682124  0.51831398  1
  O2-  O352  1  0.59708953  0.92745171  0.02160404  1
  O2-  O353  1  0.59491366  0.92824619  0.52210277  1
  O2-  O354  1  0.93078093  0.26166832  0.01688443  1
  O2-  O355  1  0.92811718  0.26205969  0.51880358  1
  O2-  O356  1  0.92919294  0.59464588  0.02228220  1
  O2-  O357  1  0.92886509  0.59294758  0.52383467  1
  O2-  O358  1  0.92650861  0.93174152  0.02350999  1
  O2-  O359  1  0.92920938  0.92972634  0.52056914  1
