# generated using pymatgen
data_Sr7Ca15Pr50Mn72O216
_symmetry_space_group_name_H-M   'P 1'
_cell_length_a   16.55973194
_cell_length_b   16.60109884
_cell_length_c   15.59628019
_cell_angle_alpha   90.00790295
_cell_angle_beta   90.00624198
_cell_angle_gamma   90.01257731
_symmetry_Int_Tables_number   1
_chemical_formula_structural   Sr7Ca15Pr50Mn72O216
_chemical_formula_sum   'Sr7 Ca15 Pr50 Mn72 O216'
_cell_volume   4287.56926727
_cell_formula_units_Z   1
loop_
 _symmetry_equiv_pos_site_id
 _symmetry_equiv_pos_as_xyz
  1  'x, y, z'
loop_
 _atom_type_symbol
 _atom_type_oxidation_number
  Sr2+  2.0
  Ca2+  2.0
  Pr3+  3.0
  Mn3.30+  3.3
  O2-  -2.0
loop_
 _atom_site_type_symbol
 _atom_site_label
 _atom_site_symmetry_multiplicity
 _atom_site_fract_x
 _atom_site_fract_y
 _atom_site_fract_z
 _atom_site_occupancy
  Sr2+  Sr0  1  0.33079898  0.01195154  0.12760316  1
  Sr2+  Sr1  1  0.33112116  0.34123237  0.62781942  1
  Sr2+  Sr2  1  1.00221956  0.32068552  0.37437804  1
  Sr2+  Sr3  1  0.50117317  0.82640446  0.37555321  1
  Sr2+  Sr4  1  0.16757587  0.17644101  0.62493908  1
  Sr2+  Sr5  1  0.66543302  0.67682081  0.62418613  1
  Sr2+  Sr6  1  0.49677708  0.15828700  0.87481967  1
  Ca2+  Ca7  1  0.33503086  0.31483725  0.87311003  1
  Ca2+  Ca8  1  0.49726361  0.82185928  0.87450364  1
  Ca2+  Ca9  1  1.00474662  0.65214618  0.87310977  1
  Ca2+  Ca10  1  0.16408043  0.15475318  0.37533283  1
  Ca2+  Ca11  1  0.84006690  0.18095134  0.62341726  1
  Ca2+  Ca12  1  0.66093997  0.68323670  0.12615540  1
  Ca2+  Ca13  1  0.33363629  0.98751188  0.37545586  1
  Ca2+  Ca14  1  0.16830132  0.15537194  0.87424261  1
  Ca2+  Ca15  1  -0.00570557  0.68182276  0.62588744  1
  Ca2+  Ca16  1  0.82901476  0.15180542  0.87344674  1
  Ca2+  Ca17  1  0.66982861  0.65499345  0.37559082  1
  Ca2+  Ca18  1  0.16353220  0.82226344  0.37405219  1
  Ca2+  Ca19  1  0.67006164  0.98514273  0.37491100  1
  Ca2+  Ca20  1  0.82966265  0.14907299  0.37652661  1
  Ca2+  Ca21  1  0.17029588  0.17770210  0.12584551  1
  Pr3+  Pr22  1  0.49455516  0.48503868  0.87391239  1
  Pr3+  Pr23  1  0.83246211  0.48763499  0.87473556  1
  Pr3+  Pr24  1  0.00104083  0.34448275  0.12594199  1
  Pr3+  Pr25  1  0.83328359  0.84790783  0.12513582  1
  Pr3+  Pr26  1  0.67400148  0.31888212  0.37470682  1
  Pr3+  Pr27  1  0.50372926  0.84570310  0.62500002  1
  Pr3+  Pr28  1  0.50273583  0.51273131  0.62523798  1
  Pr3+  Pr29  1  0.16719371  0.84520948  0.62300794  1
  Pr3+  Pr30  1  0.16288828  0.48623799  0.37454316  1
  Pr3+  Pr31  1  0.16786208  0.50972126  0.62399692  1
  Pr3+  Pr32  1  0.50097683  0.84709218  0.12556245  1
  Pr3+  Pr33  1  0.00059629  0.01451169  0.12581835  1
  Pr3+  Pr34  1  0.33401880  0.32068034  0.37683909  1
  Pr3+  Pr35  1  1.00313772  0.99022019  0.37539042  1
  Pr3+  Pr36  1  0.50117166  0.49266870  0.37603406  1
  Pr3+  Pr37  1  0.66641303  0.65574451  0.87496672  1
  Pr3+  Pr38  1  1.00212742  0.65637662  0.37579711  1
  Pr3+  Pr39  1  0.82632866  0.82014461  0.37506904  1
  Pr3+  Pr40  1  0.16193774  0.82019923  0.87537291  1
  Pr3+  Pr41  1  0.66311677  0.34516622  0.12485934  1
  Pr3+  Pr42  1  0.33109217  0.67822813  0.62394852  1
  Pr3+  Pr43  1  0.66822787  0.98845225  0.87550673  1
  Pr3+  Pr44  1  0.83492286  0.51405708  0.12496328  1
  Pr3+  Pr45  1  1.00371221  0.31684355  0.87536068  1
  Pr3+  Pr46  1  0.16470072  0.48567180  0.87551146  1
  Pr3+  Pr47  1  0.50471547  0.51571455  0.12435687  1
  Pr3+  Pr48  1  0.83648082  0.84534843  0.62443211  1
  Pr3+  Pr49  1  0.83875464  0.51580812  0.62561185  1
  Pr3+  Pr50  1  0.67111249  0.31611809  0.87469010  1
  Pr3+  Pr51  1  0.49609415  0.15160484  0.37568916  1
  Pr3+  Pr52  1  0.17176164  0.84904480  0.12670431  1
  Pr3+  Pr53  1  0.83685404  0.17808127  0.12620652  1
  Pr3+  Pr54  1  0.33072944  0.34006515  0.12237027  1
  Pr3+  Pr55  1  0.50096424  0.17858977  0.12485773  1
  Pr3+  Pr56  1  0.33719189  0.65603348  0.87530585  1
  Pr3+  Pr57  1  0.83207405  0.82169143  0.87505360  1
  Pr3+  Pr58  1  0.66571538  0.01190520  0.62242066  1
  Pr3+  Pr59  1  0.33113643  0.01154496  0.62209826  1
  Pr3+  Pr60  1  -0.00315629  0.68153603  0.12341739  1
  Pr3+  Pr61  1  0.33026623  0.68196566  0.12607914  1
  Pr3+  Pr62  1  0.50173626  0.17922678  0.62548088  1
  Pr3+  Pr63  1  0.66173155  0.01237512  0.12808831  1
  Pr3+  Pr64  1  0.82949049  0.48951785  0.37556762  1
  Pr3+  Pr65  1  0.16997163  0.51180569  0.12599353  1
  Pr3+  Pr66  1  0.33527777  0.65675291  0.37462847  1
  Pr3+  Pr67  1  -0.00422937  0.01757579  0.62382915  1
  Pr3+  Pr68  1  0.66570139  0.34461161  0.62508374  1
  Pr3+  Pr69  1  -0.00176557  0.34257082  0.62449726  1
  Pr3+  Pr70  1  0.33664189  0.99003850  0.87382413  1
  Pr3+  Pr71  1  1.00306561  0.99173124  0.87393285  1
  Mn3.30+  Mn72  1  0.16857410  0.00353206  -0.00062632  1
  Mn3.30+  Mn73  1  0.16668934  0.00048786  0.49744488  1
  Mn3.30+  Mn74  1  0.16788568  0.32908691  -0.00161024  1
  Mn3.30+  Mn75  1  0.16607530  0.33066010  0.49996079  1
  Mn3.30+  Mn76  1  0.16545732  0.66649166  -0.00081025  1
  Mn3.30+  Mn77  1  0.16435977  0.66792454  0.50046413  1
  Mn3.30+  Mn78  1  0.49910894  0.00076647  -0.00040911  1
  Mn3.30+  Mn79  1  0.49998256  -0.00060015  0.49784241  1
  Mn3.30+  Mn80  1  0.49788051  0.33242278  -0.00112790  1
  Mn3.30+  Mn81  1  0.50181776  0.33372948  0.49944338  1
  Mn3.30+  Mn82  1  0.50059916  0.66906774  0.00074500  1
  Mn3.30+  Mn83  1  0.50157260  0.66813662  0.49808895  1
  Mn3.30+  Mn84  1  0.83359933  0.00198263  -0.00005575  1
  Mn3.30+  Mn85  1  0.83234275  0.00167789  0.49898942  1
  Mn3.30+  Mn86  1  0.83407029  0.33166733  0.00019730  1
  Mn3.30+  Mn87  1  0.83410156  0.33097958  0.49912551  1
  Mn3.30+  Mn88  1  0.83251999  0.66759206  -0.00046202  1
  Mn3.30+  Mn89  1  0.83373328  0.66788797  0.50084252  1
  Mn3.30+  Mn90  1  0.00229152  0.16698590  0.25139656  1
  Mn3.30+  Mn91  1  -0.00159826  0.16709429  0.75123943  1
  Mn3.30+  Mn92  1  -0.00042404  0.50078614  0.24897038  1
  Mn3.30+  Mn93  1  0.00069065  0.50079334  0.75122397  1
  Mn3.30+  Mn94  1  0.00022858  0.83513665  0.25075101  1
  Mn3.30+  Mn95  1  0.00030665  0.83274500  0.74986507  1
  Mn3.30+  Mn96  1  0.33026109  0.16477309  0.25214426  1
  Mn3.30+  Mn97  1  0.33224403  0.16658494  0.75033377  1
  Mn3.30+  Mn98  1  0.33444246  0.49892296  0.24973881  1
  Mn3.30+  Mn99  1  0.33190386  0.49857859  0.75030528  1
  Mn3.30+  Mn100  1  0.33258576  0.83587021  0.25410740  1
  Mn3.30+  Mn101  1  0.33376237  0.83322483  0.74953598  1
  Mn3.30+  Mn102  1  0.66811986  0.16468755  0.25284216  1
  Mn3.30+  Mn103  1  0.67069881  0.16530306  0.74800858  1
  Mn3.30+  Mn104  1  0.66684758  0.50298013  0.24889020  1
  Mn3.30+  Mn105  1  0.66682692  0.49981512  0.75130627  1
  Mn3.30+  Mn106  1  0.66612902  0.83205501  0.25079690  1
  Mn3.30+  Mn107  1  0.66600719  0.83284681  0.75118517  1
  Mn3.30+  Mn108  1  0.16848050  0.00241232  0.25320544  1
  Mn3.30+  Mn109  1  0.16721004  0.00139660  0.74917236  1
  Mn3.30+  Mn110  1  0.16673486  0.32935236  0.24984407  1
  Mn3.30+  Mn111  1  0.16793340  0.33029500  0.75193568  1
  Mn3.30+  Mn112  1  0.16587449  0.66863343  0.25105763  1
  Mn3.30+  Mn113  1  0.16367718  0.66607264  0.74861137  1
  Mn3.30+  Mn114  1  0.49837977  -0.00024893  0.25250787  1
  Mn3.30+  Mn115  1  0.50074620  0.00056301  0.75034142  1
  Mn3.30+  Mn116  1  0.50057301  0.33399542  0.25210393  1
  Mn3.30+  Mn117  1  0.49837758  0.33247167  0.74953390  1
  Mn3.30+  Mn118  1  0.50223208  0.66862176  0.25139366  1
  Mn3.30+  Mn119  1  0.49994812  0.66841181  0.75030518  1
  Mn3.30+  Mn120  1  0.83223918  0.00098835  0.25132600  1
  Mn3.30+  Mn121  1  0.83391833  0.00242697  0.74990539  1
  Mn3.30+  Mn122  1  0.83388052  0.33209337  0.25077843  1
  Mn3.30+  Mn123  1  0.83386538  0.33084097  0.75017224  1
  Mn3.30+  Mn124  1  0.82994801  0.66789912  0.24752433  1
  Mn3.30+  Mn125  1  0.83652530  0.66769518  0.75221532  1
  Mn3.30+  Mn126  1  0.00196491  0.16612547  -0.00041108  1
  Mn3.30+  Mn127  1  -0.00153217  0.16789720  0.49726624  1
  Mn3.30+  Mn128  1  0.00037348  0.50090191  -0.00037741  1
  Mn3.30+  Mn129  1  -0.00021927  0.50067328  0.50053994  1
  Mn3.30+  Mn130  1  0.00029577  0.83444759  -0.00030878  1
  Mn3.30+  Mn131  1  0.00020322  0.83386984  0.49865003  1
  Mn3.30+  Mn132  1  0.33137898  0.16565234  -0.00038972  1
  Mn3.30+  Mn133  1  0.33053380  0.16550438  0.49816153  1
  Mn3.30+  Mn134  1  0.33360087  0.49845002  0.00038391  1
  Mn3.30+  Mn135  1  0.33293019  0.49926649  0.49997649  1
  Mn3.30+  Mn136  1  0.33362741  0.83501491  -0.00140850  1
  Mn3.30+  Mn137  1  0.33293859  0.83407977  0.49769456  1
  Mn3.30+  Mn138  1  0.66818859  0.16523089  -0.00072133  1
  Mn3.30+  Mn139  1  0.67041509  0.16484735  0.49971915  1
  Mn3.30+  Mn140  1  0.66608879  0.50087780  -0.00058986  1
  Mn3.30+  Mn141  1  0.66788686  0.50141587  0.50050025  1
  Mn3.30+  Mn142  1  0.66485155  0.83274383  -0.00067325  1
  Mn3.30+  Mn143  1  0.66725186  0.83245646  0.49940682  1
  O2-  O144  1  0.02760697  0.16236493  0.12457228  1
  O2-  O145  1  0.01793280  0.16668643  0.62473975  1
  O2-  O146  1  0.02537208  0.49591134  0.12405290  1
  O2-  O147  1  0.02430049  0.49059110  0.62792817  1
  O2-  O148  1  0.02687468  0.82889277  0.12398940  1
  O2-  O149  1  0.02327000  0.82708204  0.62354067  1
  O2-  O150  1  0.35765174  0.16862805  0.12830639  1
  O2-  O151  1  0.35781395  0.16061421  0.62189470  1
  O2-  O152  1  0.36121914  0.49000575  0.12452650  1
  O2-  O153  1  0.35848721  0.49850211  0.62334439  1
  O2-  O154  1  0.35502985  0.82973497  0.12605530  1
  O2-  O155  1  0.35910168  0.82671108  0.62473442  1
  O2-  O156  1  0.69177130  0.16145664  0.12750461  1
  O2-  O157  1  0.69831115  0.15990224  0.62334949  1
  O2-  O158  1  0.69149029  0.49148795  0.12255445  1
  O2-  O159  1  0.69306733  0.49347529  0.62834343  1
  O2-  O160  1  0.69047124  0.82796627  0.12307867  1
  O2-  O161  1  0.69173697  0.83152630  0.62615190  1
  O2-  O162  1  0.14409154  0.32418435  0.12380984  1
  O2-  O163  1  0.14256026  0.33347098  0.62719042  1
  O2-  O164  1  0.14097220  0.66110425  0.12559210  1
  O2-  O165  1  0.13639277  0.65868187  0.62500299  1
  O2-  O166  1  0.14359406  0.99332481  0.12614050  1
  O2-  O167  1  0.14075618  0.99248663  0.62381732  1
  O2-  O168  1  0.47679469  0.32867690  0.12685167  1
  O2-  O169  1  0.48210527  0.32855453  0.62255661  1
  O2-  O170  1  0.47357377  0.66238184  0.12566040  1
  O2-  O171  1  0.47552025  0.66108409  0.62325853  1
  O2-  O172  1  0.48106755  0.99600297  0.12515818  1
  O2-  O173  1  0.47635776  0.99511434  0.62385257  1
  O2-  O174  1  0.80686928  0.32581175  0.12425828  1
  O2-  O175  1  0.80942388  0.32662504  0.62343594  1
  O2-  O176  1  0.80281651  0.66200621  0.12284646  1
  O2-  O177  1  0.81461809  0.66455010  0.62932516  1
  O2-  O178  1  0.80660561  0.99664306  0.12660788  1
  O2-  O179  1  0.80905088  0.99153334  0.62598333  1
  O2-  O180  1  0.30646819  0.17497257  0.37541522  1
  O2-  O181  1  0.31166215  0.16712995  0.87494100  1
  O2-  O182  1  0.30668595  0.50783784  0.37464134  1
  O2-  O183  1  0.30745219  0.51134409  0.87716921  1
  O2-  O184  1  0.30589425  0.83636166  0.37677239  1
  O2-  O185  1  0.30622241  0.83798780  0.87246773  1
  O2-  O186  1  0.63969956  0.17390581  0.37572132  1
  O2-  O187  1  0.64683388  0.16848672  0.87318343  1
  O2-  O188  1  0.64617024  0.50699468  0.37315533  1
  O2-  O189  1  0.64035922  0.50593042  0.87603016  1
  O2-  O190  1  0.65040145  0.84129465  0.37553037  1
  O2-  O191  1  0.63947653  0.84027397  0.87598178  1
  O2-  O192  1  0.97224223  0.16369657  0.37406957  1
  O2-  O193  1  0.97042503  0.16871708  0.87612904  1
  O2-  O194  1  0.97405445  0.50757625  0.37236912  1
  O2-  O195  1  0.97583224  0.50568246  0.87646751  1
  O2-  O196  1  0.97102195  0.84002187  0.37434005  1
  O2-  O197  1  0.97548754  0.84457446  0.87683800  1
  O2-  O198  1  0.19157977  0.01091507  0.37562924  1
  O2-  O199  1  0.19081483  0.00636403  0.87354405  1
  O2-  O200  1  0.19047344  0.34126624  0.37402881  1
  O2-  O201  1  0.19379593  0.34073935  0.87571695  1
  O2-  O202  1  0.19123464  0.67295239  0.37501964  1
  O2-  O203  1  0.19372762  0.67194730  0.87392413  1
  O2-  O204  1  0.52794889  0.00517621  0.37666321  1
  O2-  O205  1  0.52489221  0.00550985  0.87498183  1
  O2-  O206  1  0.52970587  0.34118612  0.37572823  1
  O2-  O207  1  0.52623317  0.33693390  0.87463941  1
  O2-  O208  1  0.52667330  0.66519426  0.37402942  1
  O2-  O209  1  0.52211172  0.67377063  0.87731745  1
  O2-  O210  1  0.85846189  0.00264352  0.37318473  1
  O2-  O211  1  0.85884841  0.00589668  0.87417999  1
  O2-  O212  1  0.85257947  0.34431579  0.37499389  1
  O2-  O213  1  0.85971118  0.34131243  0.87773261  1
  O2-  O214  1  0.85834667  0.66998398  0.37194554  1
  O2-  O215  1  0.86303837  0.67286809  0.87623320  1
  O2-  O216  1  0.23550865  0.09768661  0.01830348  1
  O2-  O217  1  0.24179864  0.08896406  0.52086540  1
  O2-  O218  1  0.23781562  0.42747264  0.02224188  1
  O2-  O219  1  0.23771142  0.42953923  0.51529402  1
  O2-  O220  1  0.23603920  0.76114970  0.01957776  1
  O2-  O221  1  0.23830930  0.75723726  0.52432469  1
  O2-  O222  1  0.57339568  0.09341184  0.02301247  1
  O2-  O223  1  0.57235620  0.09562126  0.52157409  1
  O2-  O224  1  0.57002122  0.42776736  0.01939059  1
  O2-  O225  1  0.57464996  0.42802605  0.52067095  1
  O2-  O226  1  0.56886186  0.76235695  0.02036130  1
  O2-  O227  1  0.57057912  0.76199471  0.51904174  1
  O2-  O228  1  0.90772167  0.09465149  0.02396863  1
  O2-  O229  1  0.90271442  0.09418863  0.52058119  1
  O2-  O230  1  0.90471464  0.42668631  0.02181805  1
  O2-  O231  1  0.90467631  0.42846920  0.52107237  1
  O2-  O232  1  0.90300371  0.76190092  0.02243788  1
  O2-  O233  1  0.90364703  0.76440812  0.51543484  1
  O2-  O234  1  0.26604039  0.26494600  0.23456630  1
  O2-  O235  1  0.25969468  0.25904213  0.73632300  1
  O2-  O236  1  0.26173419  0.59259320  0.22838568  1
  O2-  O237  1  0.26003116  0.59459849  0.72800381  1
  O2-  O238  1  0.25665314  0.92619018  0.23323952  1
  O2-  O239  1  0.26258220  0.92511631  0.72797914  1
  O2-  O240  1  0.59555679  0.26161694  0.23030097  1
  O2-  O241  1  0.59973752  0.25849110  0.72938848  1
  O2-  O242  1  0.59575372  0.59375477  0.22509869  1
  O2-  O243  1  0.59231462  0.59167288  0.73412833  1
  O2-  O244  1  0.59430288  0.92446200  0.22974990  1
  O2-  O245  1  0.59498321  0.92845621  0.72919272  1
  O2-  O246  1  0.92995085  0.25901514  0.22682792  1
  O2-  O247  1  0.93135129  0.26514159  0.73461581  1
  O2-  O248  1  0.92558390  0.59760357  0.22630815  1
  O2-  O249  1  0.92968465  0.59382311  0.72886081  1
  O2-  O250  1  0.92840524  0.92807410  0.22753729  1
  O2-  O251  1  0.92783142  0.92983758  0.72922392  1
  O2-  O252  1  0.09724754  0.23599127  0.26991961  1
  O2-  O253  1  0.09255146  0.23852215  0.77439532  1
  O2-  O254  1  0.09383133  0.57384608  0.27043565  1
  O2-  O255  1  0.09714238  0.56910192  0.77062209  1
  O2-  O256  1  0.09545723  0.90733487  0.27217994  1
  O2-  O257  1  0.09484202  0.90512889  0.76943372  1
  O2-  O258  1  0.42819087  0.23844567  0.27245297  1
  O2-  O259  1  0.42755468  0.23918856  0.76166097  1
  O2-  O260  1  0.42966886  0.57288036  0.26903836  1
  O2-  O261  1  0.42697697  0.57280893  0.76992312  1
  O2-  O262  1  0.42564218  0.90646702  0.26597173  1
  O2-  O263  1  0.42745333  0.90394550  0.77065859  1
  O2-  O264  1  0.76157876  0.23527025  0.27144222  1
  O2-  O265  1  0.76276186  0.23836856  0.77312620  1
  O2-  O266  1  0.76494447  0.56903301  0.26580138  1
  O2-  O267  1  0.76310356  0.57342312  0.77208471  1
  O2-  O268  1  0.76433265  0.90250801  0.26420593  1
  O2-  O269  1  0.76203979  0.90634801  0.77211033  1
  O2-  O270  1  0.06771942  0.07108370  0.48513688  1
  O2-  O271  1  0.06883029  0.06924415  0.98259208  1
  O2-  O272  1  0.07450279  0.40828482  0.48232240  1
  O2-  O273  1  0.07437934  0.40181226  0.98112645  1
  O2-  O274  1  0.07082014  0.74030189  0.47837408  1
  O2-  O275  1  0.06955215  0.73819397  0.97810629  1
  O2-  O276  1  0.40595917  0.07292127  0.47786493  1
  O2-  O277  1  0.40311118  0.07108684  0.98310934  1
  O2-  O278  1  0.40820708  0.41032595  0.47566793  1
  O2-  O279  1  0.40293561  0.40530341  0.97596202  1
  O2-  O280  1  0.40272745  0.73695486  0.48193386  1
  O2-  O281  1  0.40175008  0.73661139  0.98417617  1
  O2-  O282  1  0.73431130  0.06702736  0.47940707  1
  O2-  O283  1  0.73798941  0.06976021  0.98302803  1
  O2-  O284  1  0.73887065  0.40436047  0.48200822  1
  O2-  O285  1  0.73956236  0.40321914  0.97876738  1
  O2-  O286  1  0.73925611  0.73813193  0.47853748  1
  O2-  O287  1  0.74007349  0.73985874  0.97469645  1
  O2-  O288  1  0.09484735  0.23770237  0.48054250  1
  O2-  O289  1  0.09381094  0.23725478  0.97387990  1
  O2-  O290  1  0.09517569  0.57347116  0.47752869  1
  O2-  O291  1  0.09800399  0.57125957  0.98199197  1
  O2-  O292  1  0.09430285  0.90526485  0.47675858  1
  O2-  O293  1  0.09626196  0.90742987  0.98002597  1
  O2-  O294  1  0.42908666  0.23960968  0.47889697  1
  O2-  O295  1  0.42706330  0.23855104  0.98797343  1
  O2-  O296  1  0.42560119  0.57424098  0.47887238  1
  O2-  O297  1  0.43040391  0.57192988  0.98110466  1
  O2-  O298  1  0.42563361  0.90729945  0.48559097  1
  O2-  O299  1  0.42870983  0.90537415  0.97818962  1
  O2-  O300  1  0.76208322  0.23746759  0.47490037  1
  O2-  O301  1  0.76406856  0.23728141  0.97950540  1
  O2-  O302  1  0.76426355  0.57024054  0.48568484  1
  O2-  O303  1  0.76225189  0.57294673  0.97656891  1
  O2-  O304  1  0.76501027  0.90353239  0.48477652  1
  O2-  O305  1  0.76117453  0.90598805  0.98006574  1
  O2-  O306  1  0.06878114  0.06884055  0.26664947  1
  O2-  O307  1  0.06785171  0.07217003  0.76498359  1
  O2-  O308  1  0.07658868  0.40638670  0.26389946  1
  O2-  O309  1  0.07116224  0.40435163  0.77276485  1
  O2-  O310  1  0.06733174  0.73936069  0.26786754  1
  O2-  O311  1  0.07283746  0.73842685  0.77393677  1
  O2-  O312  1  0.40385699  0.07463159  0.27487604  1
  O2-  O313  1  0.40515874  0.07022835  0.76450005  1
  O2-  O314  1  0.40772271  0.40704006  0.27453504  1
  O2-  O315  1  0.40300445  0.40872409  0.77374309  1
  O2-  O316  1  0.40208896  0.73718289  0.26715163  1
  O2-  O317  1  0.40054016  0.73702479  0.76659642  1
  O2-  O318  1  0.73517297  0.06803210  0.26967639  1
  O2-  O319  1  0.73677094  0.06855923  0.76849683  1
  O2-  O320  1  0.73652131  0.40623786  0.26716792  1
  O2-  O321  1  0.73893920  0.40414505  0.77142951  1
  O2-  O322  1  0.73730369  0.73750626  0.27211166  1
  O2-  O323  1  0.74010585  0.74046930  0.77512070  1
  O2-  O324  1  0.23558203  0.09829444  0.23082166  1
  O2-  O325  1  0.24338533  0.08903343  0.72964943  1
  O2-  O326  1  0.23972392  0.42583905  0.22907483  1
  O2-  O327  1  0.23525420  0.43171962  0.73395378  1
  O2-  O328  1  0.23889304  0.75978838  0.22853335  1
  O2-  O329  1  0.23610870  0.76031074  0.72759330  1
  O2-  O330  1  0.57124376  0.09614797  0.23127310  1
  O2-  O331  1  0.57662929  0.09436663  0.72443187  1
  O2-  O332  1  0.57299977  0.43043361  0.22972335  1
  O2-  O333  1  0.57091060  0.42663975  0.73087924  1
  O2-  O334  1  0.57021657  0.76184832  0.22897247  1
  O2-  O335  1  0.56949930  0.76133379  0.73263371  1
  O2-  O336  1  0.90654603  0.09322836  0.22717766  1
  O2-  O337  1  0.90394964  0.09551962  0.72714515  1
  O2-  O338  1  0.90646109  0.42870090  0.22765467  1
  O2-  O339  1  0.90463891  0.42898980  0.73144403  1
  O2-  O340  1  0.90184816  0.76130237  0.22736155  1
  O2-  O341  1  0.90405406  0.76520180  0.73413545  1
  O2-  O342  1  0.26265215  0.26156492  0.01725218  1
  O2-  O343  1  0.26198255  0.26238050  0.51383162  1
  O2-  O344  1  0.26311970  0.59314537  0.02354264  1
  O2-  O345  1  0.25926829  0.59355793  0.52035606  1
  O2-  O346  1  0.25950751  0.92731119  0.01539187  1
  O2-  O347  1  0.25893021  0.92353089  0.52268253  1
  O2-  O348  1  0.59620757  0.26041432  0.01918002  1
  O2-  O349  1  0.59871669  0.25923053  0.52069699  1
  O2-  O350  1  0.59410600  0.59865683  0.02087182  1
  O2-  O351  1  0.58966425  0.58985320  0.51918307  1
  O2-  O352  1  0.59451104  0.92848489  0.02082448  1
  O2-  O353  1  0.59358356  0.92545664  0.52157997  1
  O2-  O354  1  0.93037348  0.26138923  0.02226838  1
  O2-  O355  1  0.92867207  0.26323014  0.51774615  1
  O2-  O356  1  0.92344771  0.59559554  0.02391351  1
  O2-  O357  1  0.92952028  0.59651984  0.52037917  1
  O2-  O358  1  0.92668232  0.92898056  0.02208937  1
  O2-  O359  1  0.92935631  0.92902133  0.52031291  1
