# generated using pymatgen
data_Sr7Ca15Pr50Mn72O216
_symmetry_space_group_name_H-M   'P 1'
_cell_length_a   16.55875705
_cell_length_b   16.60556144
_cell_length_c   15.59340229
_cell_angle_alpha   89.99763020
_cell_angle_beta   90.00162689
_cell_angle_gamma   90.00076243
_symmetry_Int_Tables_number   1
_chemical_formula_structural   Sr7Ca15Pr50Mn72O216
_chemical_formula_sum   'Sr7 Ca15 Pr50 Mn72 O216'
_cell_volume   4287.67817439
_cell_formula_units_Z   1
loop_
 _symmetry_equiv_pos_site_id
 _symmetry_equiv_pos_as_xyz
  1  'x, y, z'
loop_
 _atom_type_symbol
 _atom_type_oxidation_number
  Sr2+  2.0
  Ca2+  2.0
  Pr3+  3.0
  Mn3.30+  3.3
  O2-  -2.0
loop_
 _atom_site_type_symbol
 _atom_site_label
 _atom_site_symmetry_multiplicity
 _atom_site_fract_x
 _atom_site_fract_y
 _atom_site_fract_z
 _atom_site_occupancy
  Sr2+  Sr0  1  0.33984041  0.99028721  0.87262547  1
  Sr2+  Sr1  1  0.16280108  0.82611780  0.37586565  1
  Sr2+  Sr2  1  0.49726942  0.17382419  0.62757956  1
  Sr2+  Sr3  1  0.99849627  0.98801463  0.37645336  1
  Sr2+  Sr4  1  0.83202582  0.15620447  0.37704484  1
  Sr2+  Sr5  1  0.66483258  0.34274583  0.12621823  1
  Sr2+  Sr6  1  0.66656946  0.67744067  0.12244533  1
  Ca2+  Ca7  1  0.49600021  0.15232625  0.87226489  1
  Ca2+  Ca8  1  0.16387846  0.48489397  0.87399088  1
  Ca2+  Ca9  1  0.66862021  0.65418679  0.87554115  1
  Ca2+  Ca10  1  0.32939018  0.34868555  0.62445644  1
  Ca2+  Ca11  1  0.83166761  0.82137799  0.37415133  1
  Ca2+  Ca12  1  0.49671721  0.81848447  0.87575559  1
  Ca2+  Ca13  1  0.49729678  0.48528217  0.37464633  1
  Ca2+  Ca14  1  -0.00293491  0.68243188  0.62433099  1
  Ca2+  Ca15  1  0.66323142  0.01643224  0.62462601  1
  Ca2+  Ca16  1  0.16331797  0.48665974  0.37548998  1
  Ca2+  Ca17  1  0.83522850  0.17830758  0.62409310  1
  Ca2+  Ca18  1  0.16977357  0.18119620  0.12493103  1
  Ca2+  Ca19  1  0.33165177  0.01347872  0.62752541  1
  Ca2+  Ca20  1  0.82694732  0.81635600  0.87546382  1
  Ca2+  Ca21  1  0.83509151  0.84646761  0.12573270  1
  Pr3+  Pr22  1  0.49968177  0.15530199  0.37678628  1
  Pr3+  Pr23  1  0.32912852  0.01530110  0.12418358  1
  Pr3+  Pr24  1  0.83973237  0.51638067  0.62504733  1
  Pr3+  Pr25  1  0.83110954  0.48842844  0.37541209  1
  Pr3+  Pr26  1  0.33514547  0.98785387  0.37774814  1
  Pr3+  Pr27  1  0.33743063  0.32009575  0.87303242  1
  Pr3+  Pr28  1  0.33517973  0.32280248  0.37729522  1
  Pr3+  Pr29  1  0.50543983  0.84967974  0.62738260  1
  Pr3+  Pr30  1  0.50114955  0.49068137  0.87510889  1
  Pr3+  Pr31  1  0.82900477  0.48943830  0.87475171  1
  Pr3+  Pr32  1  1.00394526  0.65770104  0.37654506  1
  Pr3+  Pr33  1  0.17076590  0.51295387  0.62450086  1
  Pr3+  Pr34  1  0.67411103  0.98592767  0.37737193  1
  Pr3+  Pr35  1  0.50510799  0.84571004  0.12278438  1
  Pr3+  Pr36  1  0.83025030  0.15353992  0.87354403  1
  Pr3+  Pr37  1  -0.00200232  0.34668197  0.12537884  1
  Pr3+  Pr38  1  0.16864798  0.84784286  0.62513500  1
  Pr3+  Pr39  1  -0.00307387  0.01385564  0.62414763  1
  Pr3+  Pr40  1  0.16520608  0.82242737  0.87461361  1
  Pr3+  Pr41  1  0.50512232  0.51196655  0.12592652  1
  Pr3+  Pr42  1  0.66388382  0.67882041  0.62762501  1
  Pr3+  Pr43  1  0.66747010  0.31894514  0.87467661  1
  Pr3+  Pr44  1  0.16994562  0.51366308  0.12490799  1
  Pr3+  Pr45  1  0.66602411  0.98654886  0.87147614  1
  Pr3+  Pr46  1  0.66653013  0.00830550  0.12409518  1
  Pr3+  Pr47  1  0.83519689  0.17870986  0.12532639  1
  Pr3+  Pr48  1  0.33549625  0.65529253  0.87475288  1
  Pr3+  Pr49  1  0.67046590  0.65483712  0.37511827  1
  Pr3+  Pr50  1  1.00413253  0.32068055  0.37511218  1
  Pr3+  Pr51  1  0.33522299  0.65202205  0.37545544  1
  Pr3+  Pr52  1  0.33232712  0.68022567  0.12425069  1
  Pr3+  Pr53  1  0.17492947  0.18083622  0.62483554  1
  Pr3+  Pr54  1  0.33128224  0.67933250  0.62599862  1
  Pr3+  Pr55  1  0.49760791  0.82054424  0.37532474  1
  Pr3+  Pr56  1  0.50404882  0.17913295  0.12286840  1
  Pr3+  Pr57  1  -0.00671740  0.68276816  0.12492748  1
  Pr3+  Pr58  1  0.83500892  0.84477121  0.62600332  1
  Pr3+  Pr59  1  0.16699496  0.84546025  0.12565294  1
  Pr3+  Pr60  1  1.00152320  0.98561081  0.87371522  1
  Pr3+  Pr61  1  -0.00264331  0.34475458  0.62454574  1
  Pr3+  Pr62  1  1.00323557  0.65279751  0.87272386  1
  Pr3+  Pr63  1  0.83494377  0.51410836  0.12510595  1
  Pr3+  Pr64  1  0.66573967  0.33995820  0.62421617  1
  Pr3+  Pr65  1  0.33073161  0.34533335  0.12515101  1
  Pr3+  Pr66  1  0.49988097  0.50785461  0.62441080  1
  Pr3+  Pr67  1  1.00458896  0.32109041  0.87456996  1
  Pr3+  Pr68  1  0.66807896  0.31953462  0.37528714  1
  Pr3+  Pr69  1  -0.00390087  0.01063737  0.12569707  1
  Pr3+  Pr70  1  0.16090962  0.15269142  0.37414774  1
  Pr3+  Pr71  1  0.16544841  0.15303352  0.87586189  1
  Mn3.30+  Mn72  1  0.16683373  0.00040781  -0.00037585  1
  Mn3.30+  Mn73  1  0.16654078  0.00052288  0.50138931  1
  Mn3.30+  Mn74  1  0.16755233  0.33351954  -0.00031923  1
  Mn3.30+  Mn75  1  0.16813582  0.33555415  0.49973587  1
  Mn3.30+  Mn76  1  0.16565943  0.66616269  -0.00084938  1
  Mn3.30+  Mn77  1  0.16566774  0.66753308  0.50054871  1
  Mn3.30+  Mn78  1  0.49900208  -0.00017575  -0.00175753  1
  Mn3.30+  Mn79  1  0.50199733  0.00103400  0.50192033  1
  Mn3.30+  Mn80  1  0.50013396  0.33252884  -0.00148339  1
  Mn3.30+  Mn81  1  0.49827085  0.33311871  0.50226466  1
  Mn3.30+  Mn82  1  0.50187619  0.66753087  -0.00212015  1
  Mn3.30+  Mn83  1  0.50012086  0.66488267  0.50049422  1
  Mn3.30+  Mn84  1  0.83221602  -0.00368850  -0.00218438  1
  Mn3.30+  Mn85  1  0.83169413  -0.00002234  0.50231036  1
  Mn3.30+  Mn86  1  0.83375403  0.33404481  -0.00005009  1
  Mn3.30+  Mn87  1  0.83354216  0.33219868  0.50065641  1
  Mn3.30+  Mn88  1  0.83178093  0.66931098  -0.00153941  1
  Mn3.30+  Mn89  1  0.83512233  0.66936214  0.50002738  1
  Mn3.30+  Mn90  1  0.00137977  0.16593636  0.24864318  1
  Mn3.30+  Mn91  1  -0.00051603  0.16671918  0.74912956  1
  Mn3.30+  Mn92  1  0.00224493  0.50178010  0.25093894  1
  Mn3.30+  Mn93  1  0.00205658  0.50081989  0.74962248  1
  Mn3.30+  Mn94  1  -0.00280448  0.83418073  0.25134429  1
  Mn3.30+  Mn95  1  -0.00237512  0.83169260  0.75041218  1
  Mn3.30+  Mn96  1  0.33169605  0.16788590  0.25060758  1
  Mn3.30+  Mn97  1  0.33500813  0.16645124  0.74912498  1
  Mn3.30+  Mn98  1  0.33361765  0.49972503  0.25149712  1
  Mn3.30+  Mn99  1  0.33174113  0.49925787  0.75128276  1
  Mn3.30+  Mn100  1  0.33334962  0.83336047  0.25083121  1
  Mn3.30+  Mn101  1  0.33604939  0.83540546  0.75005403  1
  Mn3.30+  Mn102  1  0.66701472  0.16493488  0.24970941  1
  Mn3.30+  Mn103  1  0.66527480  0.16468767  0.74877811  1
  Mn3.30+  Mn104  1  0.66507162  0.49975742  0.25175947  1
  Mn3.30+  Mn105  1  0.66796569  0.49961849  0.74875256  1
  Mn3.30+  Mn106  1  0.66899720  0.83254707  0.24829453  1
  Mn3.30+  Mn107  1  0.66673391  0.83239435  0.75295736  1
  Mn3.30+  Mn108  1  0.16501834  0.00048559  0.24890625  1
  Mn3.30+  Mn109  1  0.16851480  0.00037102  0.75073231  1
  Mn3.30+  Mn110  1  0.16711554  0.33423249  0.24933799  1
  Mn3.30+  Mn111  1  0.16864911  0.33458861  0.75046763  1
  Mn3.30+  Mn112  1  0.16607255  0.66712076  0.25105922  1
  Mn3.30+  Mn113  1  0.16530897  0.66631934  0.74923228  1
  Mn3.30+  Mn114  1  0.50051696  -0.00016849  0.25086959  1
  Mn3.30+  Mn115  1  0.50066862  0.00103493  0.74894322  1
  Mn3.30+  Mn116  1  0.49939849  0.33400119  0.25176907  1
  Mn3.30+  Mn117  1  0.49881718  0.33212102  0.74804969  1
  Mn3.30+  Mn118  1  0.50118304  0.66521500  0.25084128  1
  Mn3.30+  Mn119  1  0.50057953  0.66706354  0.75136493  1
  Mn3.30+  Mn120  1  0.83293707  -0.00250518  0.25117690  1
  Mn3.30+  Mn121  1  0.83137403  -0.00073322  0.74824059  1
  Mn3.30+  Mn122  1  0.83325114  0.33378492  0.24978691  1
  Mn3.30+  Mn123  1  0.83401317  0.33224386  0.74967870  1
  Mn3.30+  Mn124  1  0.83358700  0.67026977  0.25038049  1
  Mn3.30+  Mn125  1  0.83324652  0.66824572  0.75132871  1
  Mn3.30+  Mn126  1  0.00104547  0.16618962  0.00088189  1
  Mn3.30+  Mn127  1  -0.00029811  0.16641815  0.50109463  1
  Mn3.30+  Mn128  1  0.00172063  0.50096732  -0.00119128  1
  Mn3.30+  Mn129  1  0.00244558  0.50195700  0.49994529  1
  Mn3.30+  Mn130  1  -0.00422883  0.83282988  -0.00247600  1
  Mn3.30+  Mn131  1  -0.00111880  0.83291298  0.50093152  1
  Mn3.30+  Mn132  1  0.33430936  0.16739475  -0.00000417  1
  Mn3.30+  Mn133  1  0.33262840  0.16686600  0.50068435  1
  Mn3.30+  Mn134  1  0.33269839  0.49995516  -0.00127797  1
  Mn3.30+  Mn135  1  0.33304308  0.49914115  0.49881704  1
  Mn3.30+  Mn136  1  0.33549231  0.83462917  -0.00126707  1
  Mn3.30+  Mn137  1  0.33372445  0.83416156  0.50139362  1
  Mn3.30+  Mn138  1  0.66502700  0.16461445  -0.00246470  1
  Mn3.30+  Mn139  1  0.66691503  0.16511201  0.50344209  1
  Mn3.30+  Mn140  1  0.66699251  0.50019081  0.00006011  1
  Mn3.30+  Mn141  1  0.66624921  0.49909599  0.50001030  1
  Mn3.30+  Mn142  1  0.66782748  0.83147288  -0.00303172  1
  Mn3.30+  Mn143  1  0.66802749  0.83362928  0.50109396  1
  O2-  O144  1  0.02695895  0.16001477  0.12278487  1
  O2-  O145  1  0.02877444  0.16414601  0.62558359  1
  O2-  O146  1  0.02603771  0.49622117  0.12360979  1
  O2-  O147  1  0.02710422  0.49171696  0.62417903  1
  O2-  O148  1  0.02307032  0.82983200  0.12151399  1
  O2-  O149  1  0.02373450  0.82778848  0.62802770  1
  O2-  O150  1  0.36028390  0.16471549  0.12752209  1
  O2-  O151  1  0.34771792  0.15864894  0.62325695  1
  O2-  O152  1  0.36080924  0.49437267  0.12585257  1
  O2-  O153  1  0.35612159  0.49698424  0.62649159  1
  O2-  O154  1  0.36006701  0.82831210  0.12527994  1
  O2-  O155  1  0.36115485  0.82582453  0.62468687  1
  O2-  O156  1  0.69099926  0.15892632  0.12147078  1
  O2-  O157  1  0.69303486  0.16673955  0.62661482  1
  O2-  O158  1  0.69024381  0.49680556  0.12533840  1
  O2-  O159  1  0.69522201  0.49149672  0.62335770  1
  O2-  O160  1  0.69199450  0.83476205  0.12159789  1
  O2-  O161  1  0.69186514  0.82419110  0.62738752  1
  O2-  O162  1  0.14172831  0.32717670  0.12438811  1
  O2-  O163  1  0.14101490  0.32782824  0.62602264  1
  O2-  O164  1  0.13902524  0.66049893  0.12229190  1
  O2-  O165  1  0.13952630  0.65891712  0.62531015  1
  O2-  O166  1  0.14116459  0.99326094  0.12241361  1
  O2-  O167  1  0.14261837  0.99815549  0.62807597  1
  O2-  O168  1  0.47468642  0.32698879  0.12492932  1
  O2-  O169  1  0.47185674  0.33275313  0.62577054  1
  O2-  O170  1  0.47570970  0.66005503  0.12379920  1
  O2-  O171  1  0.47467947  0.65751023  0.62386844  1
  O2-  O172  1  0.47396865  0.99320764  0.12656626  1
  O2-  O173  1  0.47368548  0.99467694  0.62401230  1
  O2-  O174  1  0.81478702  0.32911765  0.12335819  1
  O2-  O175  1  0.81087258  0.32754347  0.62566998  1
  O2-  O176  1  0.81568855  0.65941419  0.12460955  1
  O2-  O177  1  0.80824220  0.66291565  0.62614678  1
  O2-  O178  1  0.80943293  0.99192805  0.12122017  1
  O2-  O179  1  0.80390288  0.98960791  0.62732728  1
  O2-  O180  1  0.30494807  0.17382025  0.37438275  1
  O2-  O181  1  0.30862444  0.17241769  0.87454096  1
  O2-  O182  1  0.30446015  0.50515608  0.37304099  1
  O2-  O183  1  0.30469791  0.50727927  0.87430323  1
  O2-  O184  1  0.31352902  0.83918170  0.37715017  1
  O2-  O185  1  0.30865183  0.83432987  0.87402324  1
  O2-  O186  1  0.64452035  0.16945751  0.37698421  1
  O2-  O187  1  0.63972166  0.17072201  0.87503688  1
  O2-  O188  1  0.64049746  0.50736370  0.37812646  1
  O2-  O189  1  0.64591249  0.50490606  0.87348506  1
  O2-  O190  1  0.64034851  0.83880797  0.37675066  1
  O2-  O191  1  0.63625425  0.84104898  0.87347584  1
  O2-  O192  1  0.98266610  0.17284808  0.37581479  1
  O2-  O193  1  0.97454174  0.17242342  0.87572729  1
  O2-  O194  1  0.97455164  0.50712958  0.37700376  1
  O2-  O195  1  0.97320340  0.50426606  0.87464231  1
  O2-  O196  1  0.97549745  0.83124580  0.37628684  1
  O2-  O197  1  0.97105036  0.83866375  0.87340208  1
  O2-  O198  1  0.19035948  0.00418857  0.37422341  1
  O2-  O199  1  0.18836511  0.00335501  0.87591760  1
  O2-  O200  1  0.19131465  0.34121784  0.37378928  1
  O2-  O201  1  0.19263387  0.33995242  0.87491824  1
  O2-  O202  1  0.19174568  0.67383373  0.37643821  1
  O2-  O203  1  0.19190236  0.67543157  0.87565423  1
  O2-  O204  1  0.52803578  0.00605663  0.37528323  1
  O2-  O205  1  0.52244937  0.00896949  0.87464864  1
  O2-  O206  1  0.52391051  0.33790604  0.37753360  1
  O2-  O207  1  0.52474229  0.34281602  0.87256794  1
  O2-  O208  1  0.52667146  0.67421056  0.37802564  1
  O2-  O209  1  0.52514737  0.66991331  0.87442862  1
  O2-  O210  1  0.85020320  0.00451405  0.37767517  1
  O2-  O211  1  0.85995931  0.00895052  0.87294253  1
  O2-  O212  1  0.85908318  0.33913945  0.37528110  1
  O2-  O213  1  0.86010432  0.33951256  0.87563148  1
  O2-  O214  1  0.85915744  0.67285865  0.37524672  1
  O2-  O215  1  0.85983650  0.66852070  0.87431801  1
  O2-  O216  1  0.23925961  0.09816690  0.02129874  1
  O2-  O217  1  0.23600581  0.09777880  0.51343322  1
  O2-  O218  1  0.23967539  0.42752247  0.02338001  1
  O2-  O219  1  0.23680191  0.42885545  0.51993975  1
  O2-  O220  1  0.23803651  0.76112862  0.02044474  1
  O2-  O221  1  0.23879770  0.75976975  0.52525702  1
  O2-  O222  1  0.57346662  0.09082472  0.02324290  1
  O2-  O223  1  0.57137612  0.09480255  0.51670871  1
  O2-  O224  1  0.56835602  0.42763680  0.01611173  1
  O2-  O225  1  0.57395414  0.42464449  0.52378690  1
  O2-  O226  1  0.57054241  0.76241736  0.01860346  1
  O2-  O227  1  0.57098111  0.76085025  0.52199482  1
  O2-  O228  1  0.90375725  0.09427176  0.02066500  1
  O2-  O229  1  0.90584394  0.09288208  0.52547772  1
  O2-  O230  1  0.90732511  0.43081832  0.02095401  1
  O2-  O231  1  0.90574653  0.42901882  0.52001160  1
  O2-  O232  1  0.90297294  0.76269987  0.02115719  1
  O2-  O233  1  0.90420933  0.76217567  0.52116507  1
  O2-  O234  1  0.26279007  0.26396520  0.23152916  1
  O2-  O235  1  0.26320202  0.26408640  0.73011078  1
  O2-  O236  1  0.26297133  0.59454611  0.22782095  1
  O2-  O237  1  0.26152680  0.59529273  0.72918698  1
  O2-  O238  1  0.25995846  0.92926485  0.22997546  1
  O2-  O239  1  0.26246541  0.92619497  0.72704041  1
  O2-  O240  1  0.58991716  0.25713717  0.23465406  1
  O2-  O241  1  0.59737636  0.26281914  0.73305669  1
  O2-  O242  1  0.59297459  0.59303833  0.23230434  1
  O2-  O243  1  0.59279083  0.58960576  0.72758474  1
  O2-  O244  1  0.59594811  0.92662462  0.22978806  1
  O2-  O245  1  0.59792821  0.92896561  0.72810583  1
  O2-  O246  1  0.92947956  0.25904680  0.22942604  1
  O2-  O247  1  0.93072794  0.26287859  0.73307393  1
  O2-  O248  1  0.92948675  0.59567692  0.23143857  1
  O2-  O249  1  0.93182407  0.59606684  0.72889925  1
  O2-  O250  1  0.92698034  0.92805513  0.23020458  1
  O2-  O251  1  0.92805742  0.92946139  0.72867738  1
  O2-  O252  1  0.09607724  0.24252015  0.27073018  1
  O2-  O253  1  0.09796138  0.23972802  0.77192026  1
  O2-  O254  1  0.09724499  0.57149074  0.27142816  1
  O2-  O255  1  0.09577693  0.56937776  0.77282485  1
  O2-  O256  1  0.09157344  0.90359773  0.26131443  1
  O2-  O257  1  0.09418542  0.90524248  0.76951251  1
  O2-  O258  1  0.42658499  0.23929108  0.27255736  1
  O2-  O259  1  0.42712599  0.24036676  0.77347181  1
  O2-  O260  1  0.42722231  0.57029641  0.27260158  1
  O2-  O261  1  0.42621017  0.57253552  0.77100890  1
  O2-  O262  1  0.42917044  0.90745555  0.27217995  1
  O2-  O263  1  0.43386306  0.90113569  0.76713777  1
  O2-  O264  1  0.75778930  0.24067503  0.26524138  1
  O2-  O265  1  0.75909483  0.23916159  0.77362374  1
  O2-  O266  1  0.76330252  0.57439356  0.27085870  1
  O2-  O267  1  0.76617566  0.57045480  0.76511365  1
  O2-  O268  1  0.76057076  0.90467429  0.27215172  1
  O2-  O269  1  0.76207471  0.90220261  0.77383346  1
  O2-  O270  1  0.07287102  0.07447983  0.48362178  1
  O2-  O271  1  0.07084539  0.07188419  0.97771554  1
  O2-  O272  1  0.06979485  0.40388012  0.48140818  1
  O2-  O273  1  0.06945156  0.40449329  0.98259317  1
  O2-  O274  1  0.07051263  0.73731629  0.48433031  1
  O2-  O275  1  0.06853854  0.73923960  0.97864803  1
  O2-  O276  1  0.40647941  0.07454662  0.47601107  1
  O2-  O277  1  0.40502284  0.07255090  0.98863163  1
  O2-  O278  1  0.40511778  0.40663967  0.48059559  1
  O2-  O279  1  0.40481321  0.40547073  0.97866821  1
  O2-  O280  1  0.40549596  0.73707073  0.47974921  1
  O2-  O281  1  0.40375263  0.73571203  0.98248514  1
  O2-  O282  1  0.73616816  0.06952230  0.48580304  1
  O2-  O283  1  0.73875678  0.07019154  0.97760104  1
  O2-  O284  1  0.73873490  0.40682988  0.47762488  1
  O2-  O285  1  0.74037898  0.40641719  0.97744505  1
  O2-  O286  1  0.73435308  0.73647029  0.48344483  1
  O2-  O287  1  0.73590120  0.73746858  0.97539409  1
  O2-  O288  1  0.09786545  0.24090486  0.48008479  1
  O2-  O289  1  0.09492582  0.24047400  0.97675773  1
  O2-  O290  1  0.09689423  0.57105416  0.47748111  1
  O2-  O291  1  0.09622104  0.57025084  0.97604724  1
  O2-  O292  1  0.09312389  0.90571575  0.49059910  1
  O2-  O293  1  0.09166899  0.90269855  0.97848336  1
  O2-  O294  1  0.42543582  0.23966335  0.47707102  1
  O2-  O295  1  0.42976377  0.23843663  0.97790941  1
  O2-  O296  1  0.42885646  0.57104366  0.47777206  1
  O2-  O297  1  0.42664822  0.57229668  0.97819200  1
  O2-  O298  1  0.43123641  0.90711510  0.47970380  1
  O2-  O299  1  0.43190395  0.90256584  0.98217525  1
  O2-  O300  1  0.75630233  0.24284012  0.48202181  1
  O2-  O301  1  0.76049892  0.23704385  0.97928953  1
  O2-  O302  1  0.76361698  0.57304967  0.48035005  1
  O2-  O303  1  0.76519691  0.57160682  0.98363654  1
  O2-  O304  1  0.76259314  0.90152977  0.47978141  1
  O2-  O305  1  0.75924249  0.90571582  0.97253990  1
  O2-  O306  1  0.07379475  0.07346310  0.26780111  1
  O2-  O307  1  0.06970601  0.07280488  0.77067477  1
  O2-  O308  1  0.07054255  0.40438685  0.26663532  1
  O2-  O309  1  0.07036053  0.40330119  0.76835599  1
  O2-  O310  1  0.06752743  0.73677252  0.26382966  1
  O2-  O311  1  0.07291211  0.74022468  0.77292805  1
  O2-  O312  1  0.40344464  0.07342796  0.27207453  1
  O2-  O313  1  0.40746344  0.07499400  0.76344482  1
  O2-  O314  1  0.40194480  0.40344155  0.26904128  1
  O2-  O315  1  0.40666828  0.40968198  0.77296052  1
  O2-  O316  1  0.40631690  0.73643283  0.27023857  1
  O2-  O317  1  0.40255851  0.73669721  0.76729997  1
  O2-  O318  1  0.73632288  0.06746198  0.26341080  1
  O2-  O319  1  0.73994857  0.07268649  0.77315155  1
  O2-  O320  1  0.73870876  0.40924656  0.27380677  1
  O2-  O321  1  0.73951505  0.40441887  0.77052459  1
  O2-  O322  1  0.73746007  0.73861766  0.27100733  1
  O2-  O323  1  0.73413309  0.73487331  0.77025921  1
  O2-  O324  1  0.23945097  0.09715457  0.22812885  1
  O2-  O325  1  0.23583517  0.09848033  0.73626724  1
  O2-  O326  1  0.23893231  0.42712195  0.22550065  1
  O2-  O327  1  0.23752959  0.42878416  0.72954872  1
  O2-  O328  1  0.23883786  0.75879839  0.22623166  1
  O2-  O329  1  0.23865580  0.76175887  0.72889707  1
  O2-  O330  1  0.57050870  0.09333744  0.22903573  1
  O2-  O331  1  0.57611114  0.09147484  0.73126563  1
  O2-  O332  1  0.56824156  0.42657381  0.23327652  1
  O2-  O333  1  0.57274855  0.42576824  0.72861060  1
  O2-  O334  1  0.57087950  0.76418048  0.23319415  1
  O2-  O335  1  0.57247738  0.75983344  0.72670313  1
  O2-  O336  1  0.90468109  0.09136904  0.22652639  1
  O2-  O337  1  0.90344546  0.09470425  0.72678580  1
  O2-  O338  1  0.90699849  0.42983691  0.23052686  1
  O2-  O339  1  0.90691530  0.43000478  0.72901208  1
  O2-  O340  1  0.90425751  0.76244570  0.22704437  1
  O2-  O341  1  0.90284525  0.76117599  0.73109350  1
  O2-  O342  1  0.26553164  0.26320462  0.01667205  1
  O2-  O343  1  0.26209581  0.26459336  0.52035359  1
  O2-  O344  1  0.26250873  0.59460647  0.02241498  1
  O2-  O345  1  0.26230137  0.59591520  0.52013851  1
  O2-  O346  1  0.25967699  0.92654919  0.02316573  1
  O2-  O347  1  0.26240548  0.93039578  0.52149535  1
  O2-  O348  1  0.59270300  0.25904126  0.01725915  1
  O2-  O349  1  0.59425773  0.26155614  0.51656571  1
  O2-  O350  1  0.58996592  0.58989666  0.01708496  1
  O2-  O351  1  0.59534888  0.59296666  0.52319257  1
  O2-  O352  1  0.59474182  0.92804537  0.01899309  1
  O2-  O353  1  0.59737546  0.92757749  0.52240950  1
  O2-  O354  1  0.92903600  0.26055591  0.02044561  1
  O2-  O355  1  0.93131713  0.26126909  0.51703539  1
  O2-  O356  1  0.93096899  0.59545456  0.01805180  1
  O2-  O357  1  0.93082908  0.59514624  0.52193271  1
  O2-  O358  1  0.93056712  0.93085434  0.01554135  1
  O2-  O359  1  0.92576211  0.92710233  0.52444575  1
