# generated using pymatgen
data_Sr7Ca15Pr50Mn72O216
_symmetry_space_group_name_H-M   'P 1'
_cell_length_a   16.55815415
_cell_length_b   16.60623496
_cell_length_c   15.59309162
_cell_angle_alpha   89.98963275
_cell_angle_beta   89.99849996
_cell_angle_gamma   90.00156539
_symmetry_Int_Tables_number   1
_chemical_formula_structural   Sr7Ca15Pr50Mn72O216
_chemical_formula_sum   'Sr7 Ca15 Pr50 Mn72 O216'
_cell_volume   4287.61047093
_cell_formula_units_Z   1
loop_
 _symmetry_equiv_pos_site_id
 _symmetry_equiv_pos_as_xyz
  1  'x, y, z'
loop_
 _atom_type_symbol
 _atom_type_oxidation_number
  Sr2+  2.0
  Ca2+  2.0
  Pr3+  3.0
  Mn3.30+  3.3
  O2-  -2.0
loop_
 _atom_site_type_symbol
 _atom_site_label
 _atom_site_symmetry_multiplicity
 _atom_site_fract_x
 _atom_site_fract_y
 _atom_site_fract_z
 _atom_site_occupancy
  Sr2+  Sr0  1  0.66349392  0.67772797  0.12468967  1
  Sr2+  Sr1  1  1.00072114  0.32396478  0.87223208  1
  Sr2+  Sr2  1  0.49692372  0.15447019  0.37430677  1
  Sr2+  Sr3  1  0.83360206  0.48993520  0.87381666  1
  Sr2+  Sr4  1  0.50444336  0.51039220  0.12575083  1
  Sr2+  Sr5  1  0.50318489  0.17580198  0.12485894  1
  Sr2+  Sr6  1  0.83463101  0.84046691  0.12410257  1
  Ca2+  Ca7  1  -0.00709728  0.35120413  0.62830216  1
  Ca2+  Ca8  1  0.17030833  0.84848669  0.62609629  1
  Ca2+  Ca9  1  0.33936957  0.98621369  0.37516540  1
  Ca2+  Ca10  1  0.66207105  0.01593342  0.62634604  1
  Ca2+  Ca11  1  0.66637167  0.67813824  0.62548099  1
  Ca2+  Ca12  1  0.50552947  0.84709804  0.12424780  1
  Ca2+  Ca13  1  0.33671555  0.98516864  0.87479371  1
  Ca2+  Ca14  1  0.83730407  0.51451476  0.62715647  1
  Ca2+  Ca15  1  0.83131302  0.15420286  0.87373659  1
  Ca2+  Ca16  1  0.33096847  0.34746426  0.62465310  1
  Ca2+  Ca17  1  1.00108830  0.65215244  0.87605454  1
  Ca2+  Ca18  1  0.66959116  0.65391152  0.37444353  1
  Ca2+  Ca19  1  0.99940661  0.98739244  0.87438601  1
  Ca2+  Ca20  1  0.67555681  0.31716913  0.87596773  1
  Ca2+  Ca21  1  -0.00742929  0.68183904  0.12125814  1
  Pr3+  Pr22  1  0.66574271  0.34715674  0.62691964  1
  Pr3+  Pr23  1  0.50192337  0.49022947  0.37398822  1
  Pr3+  Pr24  1  0.16364270  0.48616828  0.37586853  1
  Pr3+  Pr25  1  0.32833794  0.01178709  0.62525100  1
  Pr3+  Pr26  1  0.66338140  0.34614382  0.12304289  1
  Pr3+  Pr27  1  0.33555912  0.32270842  0.87313880  1
  Pr3+  Pr28  1  0.82840833  0.48808768  0.37691659  1
  Pr3+  Pr29  1  0.66808985  0.31982070  0.37545718  1
  Pr3+  Pr30  1  0.50361506  0.51537883  0.62525186  1
  Pr3+  Pr31  1  -0.00609622  0.00987109  0.12232999  1
  Pr3+  Pr32  1  0.00051537  0.01003490  0.62842025  1
  Pr3+  Pr33  1  0.83208962  0.84373361  0.62647566  1
  Pr3+  Pr34  1  0.82673197  0.81725298  0.37463662  1
  Pr3+  Pr35  1  0.16573786  0.84432483  0.12513255  1
  Pr3+  Pr36  1  0.83632646  0.51509109  0.12250281  1
  Pr3+  Pr37  1  0.50171109  0.48839845  0.87649976  1
  Pr3+  Pr38  1  0.16941332  0.51406846  0.12349176  1
  Pr3+  Pr39  1  0.83485810  0.17741678  0.12242551  1
  Pr3+  Pr40  1  0.83408791  0.82136106  0.87515913  1
  Pr3+  Pr41  1  0.50197621  0.17973463  0.62480393  1
  Pr3+  Pr42  1  0.16095982  0.82079505  0.87314332  1
  Pr3+  Pr43  1  0.33412929  0.68069936  0.12459707  1
  Pr3+  Pr44  1  0.83623715  0.18019532  0.62786015  1
  Pr3+  Pr45  1  0.16093854  0.14958201  0.87428687  1
  Pr3+  Pr46  1  0.16974605  0.18196892  0.62607566  1
  Pr3+  Pr47  1  0.32733883  0.68308889  0.62533713  1
  Pr3+  Pr48  1  0.16625326  0.82213088  0.37718113  1
  Pr3+  Pr49  1  0.33831946  0.32096169  0.37627989  1
  Pr3+  Pr50  1  0.67049341  0.98882193  0.87324394  1
  Pr3+  Pr51  1  0.16023656  0.48728887  0.87365074  1
  Pr3+  Pr52  1  1.00281816  0.31914498  0.37848969  1
  Pr3+  Pr53  1  0.33486726  0.34492790  0.12493490  1
  Pr3+  Pr54  1  0.66689780  0.98802442  0.37662898  1
  Pr3+  Pr55  1  1.00110098  0.98616971  0.37619393  1
  Pr3+  Pr56  1  0.49653572  0.82182153  0.87664183  1
  Pr3+  Pr57  1  -0.00389032  0.34482077  0.12311518  1
  Pr3+  Pr58  1  0.16901421  0.17803232  0.12344841  1
  Pr3+  Pr59  1  0.82904177  0.15262652  0.37671890  1
  Pr3+  Pr60  1  0.16590227  0.15150268  0.37565312  1
  Pr3+  Pr61  1  0.50376446  0.84891095  0.62628821  1
  Pr3+  Pr62  1  0.16791460  0.50981026  0.62646151  1
  Pr3+  Pr63  1  0.49807649  0.15358928  0.87510676  1
  Pr3+  Pr64  1  0.33756737  0.65467207  0.37532527  1
  Pr3+  Pr65  1  1.00018131  0.65405633  0.37292096  1
  Pr3+  Pr66  1  0.33340439  0.01163467  0.12395543  1
  Pr3+  Pr67  1  -0.00350803  0.67731833  0.62658391  1
  Pr3+  Pr68  1  0.66338925  0.00858660  0.12382254  1
  Pr3+  Pr69  1  0.33545815  0.65423138  0.87466159  1
  Pr3+  Pr70  1  0.49757550  0.82340402  0.37398110  1
  Pr3+  Pr71  1  0.67032974  0.65526472  0.87467369  1
  Mn3.30+  Mn72  1  0.16530598  -0.00195713  -0.00136056  1
  Mn3.30+  Mn73  1  0.16847471  -0.00155397  0.49929089  1
  Mn3.30+  Mn74  1  0.16623642  0.33255119  -0.00074037  1
  Mn3.30+  Mn75  1  0.16683744  0.33315305  0.50240786  1
  Mn3.30+  Mn76  1  0.16347083  0.66783285  0.00113293  1
  Mn3.30+  Mn77  1  0.16597289  0.66697982  0.49992260  1
  Mn3.30+  Mn78  1  0.49913498  -0.00061973  -0.00160370  1
  Mn3.30+  Mn79  1  0.49881160  0.00110452  0.50106402  1
  Mn3.30+  Mn80  1  0.50382452  0.33241095  -0.00328049  1
  Mn3.30+  Mn81  1  0.49899722  0.33479430  0.50292504  1
  Mn3.30+  Mn82  1  0.50130516  0.66725013  0.00088459  1
  Mn3.30+  Mn83  1  0.50263231  0.66862274  0.50056084  1
  Mn3.30+  Mn84  1  0.83378995  -0.00012057  -0.00333685  1
  Mn3.30+  Mn85  1  0.83168124  -0.00108530  0.50406854  1
  Mn3.30+  Mn86  1  0.83191454  0.33192546  -0.00360338  1
  Mn3.30+  Mn87  1  0.83514453  0.33485538  0.50283416  1
  Mn3.30+  Mn88  1  0.83544288  0.66731518  -0.00134187  1
  Mn3.30+  Mn89  1  0.83036719  0.66543559  0.50219793  1
  Mn3.30+  Mn90  1  -0.00027001  0.16521558  0.25034860  1
  Mn3.30+  Mn91  1  -0.00080480  0.16692212  0.75121819  1
  Mn3.30+  Mn92  1  -0.00050834  0.50023351  0.24934827  1
  Mn3.30+  Mn93  1  -0.00188165  0.49984268  0.74950182  1
  Mn3.30+  Mn94  1  -0.00138606  0.83158700  0.25079307  1
  Mn3.30+  Mn95  1  0.00107882  0.83300297  0.74887635  1
  Mn3.30+  Mn96  1  0.33416369  0.16559998  0.24932192  1
  Mn3.30+  Mn97  1  0.33265121  0.16679768  0.75095280  1
  Mn3.30+  Mn98  1  0.33369650  0.50100275  0.24942301  1
  Mn3.30+  Mn99  1  0.33424961  0.49962503  0.74932011  1
  Mn3.30+  Mn100  1  0.33503805  0.83520211  0.24800369  1
  Mn3.30+  Mn101  1  0.33153410  0.83496023  0.75139540  1
  Mn3.30+  Mn102  1  0.66629337  0.16492799  0.25039840  1
  Mn3.30+  Mn103  1  0.66807411  0.16731848  0.75036559  1
  Mn3.30+  Mn104  1  0.66760872  0.50170217  0.25101605  1
  Mn3.30+  Mn105  1  0.66997271  0.50039780  0.74851564  1
  Mn3.30+  Mn106  1  0.66449610  0.83209103  0.24918418  1
  Mn3.30+  Mn107  1  0.66578179  0.83341769  0.74896546  1
  Mn3.30+  Mn108  1  0.16741944  -0.00099306  0.25048583  1
  Mn3.30+  Mn109  1  0.16672349  -0.00211750  0.75146499  1
  Mn3.30+  Mn110  1  0.16650110  0.33238561  0.25017465  1
  Mn3.30+  Mn111  1  0.16635272  0.33324976  0.74756245  1
  Mn3.30+  Mn112  1  0.16567853  0.66754412  0.24876567  1
  Mn3.30+  Mn113  1  0.16439575  0.66756249  0.75013884  1
  Mn3.30+  Mn114  1  0.49897927  -0.00075213  0.25015466  1
  Mn3.30+  Mn115  1  0.49913746  0.00102175  0.75036851  1
  Mn3.30+  Mn116  1  0.50123322  0.33284974  0.24952738  1
  Mn3.30+  Mn117  1  0.50175381  0.33415682  0.75060330  1
  Mn3.30+  Mn118  1  0.50319164  0.66806385  0.25061461  1
  Mn3.30+  Mn119  1  0.50087015  0.66798509  0.74868967  1
  Mn3.30+  Mn120  1  0.83274179  -0.00224068  0.24984023  1
  Mn3.30+  Mn121  1  0.83270172  0.00100062  0.74974053  1
  Mn3.30+  Mn122  1  0.83381822  0.33286073  0.25006243  1
  Mn3.30+  Mn123  1  0.83334314  0.33367406  0.75145171  1
  Mn3.30+  Mn124  1  0.83296846  0.66657138  0.24891170  1
  Mn3.30+  Mn125  1  0.83314115  0.66543048  0.74946346  1
  Mn3.30+  Mn126  1  -0.00099875  0.16525033  -0.00391204  1
  Mn3.30+  Mn127  1  -0.00006330  0.16673084  0.50305861  1
  Mn3.30+  Mn128  1  0.00033525  0.50100801  -0.00064959  1
  Mn3.30+  Mn129  1  -0.00256977  0.49959285  0.50129822  1
  Mn3.30+  Mn130  1  -0.00046752  0.83243213  -0.00222235  1
  Mn3.30+  Mn131  1  -0.00016533  0.83233077  0.50221949  1
  Mn3.30+  Mn132  1  0.33319546  0.16622297  -0.00180150  1
  Mn3.30+  Mn133  1  0.33386511  0.16628008  0.50047679  1
  Mn3.30+  Mn134  1  0.33365644  0.50066346  -0.00015730  1
  Mn3.30+  Mn135  1  0.33396350  0.49979276  0.50122892  1
  Mn3.30+  Mn136  1  0.33322373  0.83493618  0.00062328  1
  Mn3.30+  Mn137  1  0.33257990  0.83525018  0.50000977  1
  Mn3.30+  Mn138  1  0.66813799  0.16651538  -0.00233462  1
  Mn3.30+  Mn139  1  0.66618299  0.16563502  0.50200544  1
  Mn3.30+  Mn140  1  0.66815189  0.49935906  -0.00184170  1
  Mn3.30+  Mn141  1  0.66868153  0.50323811  0.50334285  1
  Mn3.30+  Mn142  1  0.66542089  0.83355370  0.00033038  1
  Mn3.30+  Mn143  1  0.66509348  0.83204979  0.50184039  1
  O2-  O144  1  0.02489424  0.15839817  0.12231154  1
  O2-  O145  1  0.02666675  0.15686606  0.62506527  1
  O2-  O146  1  0.02672336  0.49040525  0.12686539  1
  O2-  O147  1  0.02447269  0.49830751  0.62270390  1
  O2-  O148  1  0.02169568  0.82829700  0.12482200  1
  O2-  O149  1  0.02818103  0.82482670  0.62448143  1
  O2-  O150  1  0.35265001  0.16032504  0.12412636  1
  O2-  O151  1  0.35833437  0.15750695  0.62867006  1
  O2-  O152  1  0.35464035  0.49423841  0.12520687  1
  O2-  O153  1  0.35974532  0.49407857  0.62696784  1
  O2-  O154  1  0.36239138  0.82771402  0.12435219  1
  O2-  O155  1  0.35841483  0.82956289  0.62725879  1
  O2-  O156  1  0.69081343  0.15893638  0.12456831  1
  O2-  O157  1  0.69071011  0.16186234  0.62552581  1
  O2-  O158  1  0.69076957  0.49345385  0.12475316  1
  O2-  O159  1  0.69571180  0.49282519  0.62566934  1
  O2-  O160  1  0.68509481  0.83690038  0.12292842  1
  O2-  O161  1  0.68955446  0.82276259  0.62511903  1
  O2-  O162  1  0.14021146  0.32595983  0.12622646  1
  O2-  O163  1  0.13686935  0.32886414  0.62393325  1
  O2-  O164  1  0.13643074  0.66285147  0.12599631  1
  O2-  O165  1  0.14069680  0.65775144  0.62367327  1
  O2-  O166  1  0.13766378  0.99424093  0.12497142  1
  O2-  O167  1  0.14476642  0.99527712  0.62446344  1
  O2-  O168  1  0.47930274  0.33174440  0.12192723  1
  O2-  O169  1  0.47324120  0.32930592  0.62676628  1
  O2-  O170  1  0.47650917  0.66213299  0.12514380  1
  O2-  O171  1  0.47100390  0.66320587  0.62550711  1
  O2-  O172  1  0.47750910  0.99428910  0.12256202  1
  O2-  O173  1  0.47209920  0.99688840  0.62680390  1
  O2-  O174  1  0.80806201  0.32607805  0.12323946  1
  O2-  O175  1  0.80777081  0.32644627  0.62609453  1
  O2-  O176  1  0.81437914  0.66383462  0.12376316  1
  O2-  O177  1  0.80837589  0.66280984  0.62524478  1
  O2-  O178  1  0.80950931  0.99798546  0.12256564  1
  O2-  O179  1  0.80379053  0.99175963  0.62551186  1
  O2-  O180  1  0.30791056  0.17511055  0.37344168  1
  O2-  O181  1  0.30453893  0.17667591  0.87298014  1
  O2-  O182  1  0.30731761  0.50647190  0.37371308  1
  O2-  O183  1  0.30571159  0.50547262  0.87419120  1
  O2-  O184  1  0.30928739  0.83929311  0.37194695  1
  O2-  O185  1  0.30605920  0.83716324  0.87605582  1
  O2-  O186  1  0.64819176  0.17131919  0.37740312  1
  O2-  O187  1  0.64178177  0.17170393  0.87268630  1
  O2-  O188  1  0.64611929  0.50554538  0.37984023  1
  O2-  O189  1  0.64421226  0.50838601  0.87082484  1
  O2-  O190  1  0.64111301  0.84188544  0.37840626  1
  O2-  O191  1  0.64058179  0.83976981  0.87327093  1
  O2-  O192  1  0.97322461  0.17162531  0.37974806  1
  O2-  O193  1  0.97429782  0.17083179  0.87409325  1
  O2-  O194  1  0.97305472  0.50528331  0.37489258  1
  O2-  O195  1  0.98427113  0.50574115  0.87426493  1
  O2-  O196  1  0.97237247  0.83935926  0.37930141  1
  O2-  O197  1  0.97770668  0.84266676  0.87123253  1
  O2-  O198  1  0.19570522  0.00376298  0.37484706  1
  O2-  O199  1  0.19412435  0.00261448  0.87559452  1
  O2-  O200  1  0.19350843  0.33799590  0.37541437  1
  O2-  O201  1  0.19134990  0.33933918  0.87312043  1
  O2-  O202  1  0.19351776  0.67221563  0.37480523  1
  O2-  O203  1  0.19253026  0.67207839  0.87562854  1
  O2-  O204  1  0.52297542  -0.00177515  0.37812630  1
  O2-  O205  1  0.52593318  0.00460249  0.87298745  1
  O2-  O206  1  0.52338523  0.34001686  0.37843203  1
  O2-  O207  1  0.53092693  0.33972873  0.87221376  1
  O2-  O208  1  0.52672695  0.67554946  0.37715296  1
  O2-  O209  1  0.52436848  0.67342532  0.87285731  1
  O2-  O210  1  0.85777386  0.00507464  0.37967167  1
  O2-  O211  1  0.85838976  0.00673253  0.87239072  1
  O2-  O212  1  0.86000371  0.33933308  0.37765835  1
  O2-  O213  1  0.85373479  0.33656712  0.87415603  1
  O2-  O214  1  0.85667665  0.66827840  0.37607626  1
  O2-  O215  1  0.85848973  0.67221917  0.87384535  1
  O2-  O216  1  0.23421828  0.09179516  0.01975322  1
  O2-  O217  1  0.23748628  0.09685659  0.51993584  1
  O2-  O218  1  0.24054458  0.42734933  0.02046802  1
  O2-  O219  1  0.23459495  0.42769110  0.51849333  1
  O2-  O220  1  0.23713985  0.76028246  0.02270660  1
  O2-  O221  1  0.23721018  0.76281944  0.52027644  1
  O2-  O222  1  0.57382345  0.09236344  0.01447070  1
  O2-  O223  1  0.56897125  0.09428449  0.52059779  1
  O2-  O224  1  0.57412437  0.42673614  0.01519279  1
  O2-  O225  1  0.57392732  0.43091085  0.52159279  1
  O2-  O226  1  0.56760944  0.76462445  0.01489447  1
  O2-  O227  1  0.56707788  0.76492526  0.51950045  1
  O2-  O228  1  0.90618764  0.09286030  0.02162381  1
  O2-  O229  1  0.90411077  0.09231044  0.52330795  1
  O2-  O230  1  0.90756882  0.42586143  0.02172736  1
  O2-  O231  1  0.90180097  0.43231825  0.51973893  1
  O2-  O232  1  0.90641260  0.76169584  0.01178522  1
  O2-  O233  1  0.90278965  0.76029262  0.52100067  1
  O2-  O234  1  0.26095821  0.26063588  0.22791464  1
  O2-  O235  1  0.26290798  0.26317704  0.72596796  1
  O2-  O236  1  0.26028094  0.59534793  0.22771399  1
  O2-  O237  1  0.26150529  0.59578095  0.72930738  1
  O2-  O238  1  0.26008890  0.92563881  0.22385676  1
  O2-  O239  1  0.26230894  0.92836578  0.73114855  1
  O2-  O240  1  0.59823447  0.26172433  0.23475789  1
  O2-  O241  1  0.59316913  0.26030147  0.72564357  1
  O2-  O242  1  0.59386112  0.59473910  0.23865888  1
  O2-  O243  1  0.59397440  0.59730669  0.72747384  1
  O2-  O244  1  0.59589711  0.92907109  0.23478802  1
  O2-  O245  1  0.59503879  0.93027171  0.72758957  1
  O2-  O246  1  0.92872183  0.26103960  0.23072180  1
  O2-  O247  1  0.92812360  0.26044548  0.72602626  1
  O2-  O248  1  0.93176509  0.59394286  0.22857042  1
  O2-  O249  1  0.92804733  0.59442230  0.73000607  1
  O2-  O250  1  0.92967854  0.93018101  0.23492106  1
  O2-  O251  1  0.92594839  0.92500870  0.72577291  1
  O2-  O252  1  0.09471290  0.23695078  0.27150145  1
  O2-  O253  1  0.09991245  0.23502624  0.76668035  1
  O2-  O254  1  0.09460042  0.56985849  0.27202347  1
  O2-  O255  1  0.09763331  0.57126278  0.76560986  1
  O2-  O256  1  0.09455256  0.90501171  0.27197439  1
  O2-  O257  1  0.09638438  0.90422272  0.76604154  1
  O2-  O258  1  0.42268494  0.24301670  0.26720160  1
  O2-  O259  1  0.42790915  0.23894901  0.77196763  1
  O2-  O260  1  0.42737349  0.57612846  0.27410976  1
  O2-  O261  1  0.42964320  0.57333744  0.77112044  1
  O2-  O262  1  0.42724411  0.90585505  0.26866476  1
  O2-  O263  1  0.43040761  0.90492171  0.76897772  1
  O2-  O264  1  0.76359739  0.23774291  0.27018497  1
  O2-  O265  1  0.76423696  0.23512568  0.76674544  1
  O2-  O266  1  0.76526706  0.56906709  0.26478816  1
  O2-  O267  1  0.75830738  0.57630705  0.77017865  1
  O2-  O268  1  0.75898696  0.90601837  0.27288206  1
  O2-  O269  1  0.76287153  0.90646560  0.77075261  1
  O2-  O270  1  0.07515247  0.06949320  0.47884718  1
  O2-  O271  1  0.07030133  0.06873113  0.97703544  1
  O2-  O272  1  0.07244106  0.40633242  0.47702129  1
  O2-  O273  1  0.07516316  0.40630081  0.98349205  1
  O2-  O274  1  0.06965148  0.73872796  0.47724026  1
  O2-  O275  1  0.07255046  0.73819187  0.97580420  1
  O2-  O276  1  0.40089246  0.06837863  0.48267705  1
  O2-  O277  1  0.40450047  0.07269232  0.97783391  1
  O2-  O278  1  0.40676046  0.40924656  0.47783847  1
  O2-  O279  1  0.40771761  0.40545491  0.97798837  1
  O2-  O280  1  0.40249130  0.73945186  0.48039788  1
  O2-  O281  1  0.40359167  0.73806745  0.97922724  1
  O2-  O282  1  0.73998644  0.07217547  0.48002521  1
  O2-  O283  1  0.73746785  0.07088080  0.98077820  1
  O2-  O284  1  0.73844129  0.40331550  0.47989116  1
  O2-  O285  1  0.73737126  0.40065177  0.98392773  1
  O2-  O286  1  0.73776064  0.73824762  0.47725122  1
  O2-  O287  1  0.73936951  0.74236341  0.97746664  1
  O2-  O288  1  0.09808296  0.23869729  0.47847420  1
  O2-  O289  1  0.09696866  0.23392955  0.98278216  1
  O2-  O290  1  0.09405865  0.57160069  0.47774336  1
  O2-  O291  1  0.09894833  0.56964360  0.98393910  1
  O2-  O292  1  0.09392104  0.90656236  0.47795082  1
  O2-  O293  1  0.09766343  0.90149427  0.98349167  1
  O2-  O294  1  0.42437872  0.23920241  0.48335571  1
  O2-  O295  1  0.42944592  0.24309320  0.97517783  1
  O2-  O296  1  0.43220779  0.57525665  0.47889037  1
  O2-  O297  1  0.42515750  0.57423367  0.97652251  1
  O2-  O298  1  0.42993118  0.90351836  0.48479066  1
  O2-  O299  1  0.42707659  0.90791064  0.97817727  1
  O2-  O300  1  0.76405622  0.23979909  0.48160973  1
  O2-  O301  1  0.76524683  0.23323468  0.98220505  1
  O2-  O302  1  0.76336195  0.57076218  0.48177424  1
  O2-  O303  1  0.76044681  0.57416053  0.98388327  1
  O2-  O304  1  0.76164349  0.90365957  0.48083469  1
  O2-  O305  1  0.76060647  0.90812492  0.97481105  1
  O2-  O306  1  0.07168139  0.07148291  0.27322794  1
  O2-  O307  1  0.07143168  0.06902094  0.77075017  1
  O2-  O308  1  0.07058713  0.40427144  0.27294209  1
  O2-  O309  1  0.07596886  0.40923619  0.76587950  1
  O2-  O310  1  0.07573885  0.74159420  0.27506471  1
  O2-  O311  1  0.06974506  0.73589561  0.77241186  1
  O2-  O312  1  0.40141471  0.06951738  0.26585009  1
  O2-  O313  1  0.40330582  0.07172575  0.77399288  1
  O2-  O314  1  0.40622941  0.40761992  0.26988604  1
  O2-  O315  1  0.40968981  0.40784873  0.77529428  1
  O2-  O316  1  0.40465752  0.73885503  0.27114203  1
  O2-  O317  1  0.40198860  0.73924929  0.77059453  1
  O2-  O318  1  0.74026331  0.07100153  0.27087638  1
  O2-  O319  1  0.73735591  0.07227100  0.76831859  1
  O2-  O320  1  0.74036838  0.40383794  0.27152547  1
  O2-  O321  1  0.73480215  0.39984092  0.76686624  1
  O2-  O322  1  0.73668388  0.74025625  0.27158238  1
  O2-  O323  1  0.74164410  0.74180780  0.77171615  1
  O2-  O324  1  0.23679155  0.09462243  0.22928602  1
  O2-  O325  1  0.23630591  0.09518616  0.73034038  1
  O2-  O326  1  0.23760182  0.42678598  0.22949145  1
  O2-  O327  1  0.23880878  0.42751831  0.73021995  1
  O2-  O328  1  0.24182585  0.76200301  0.22799672  1
  O2-  O329  1  0.23484708  0.76117922  0.72854751  1
  O2-  O330  1  0.57503663  0.08881544  0.23299021  1
  O2-  O331  1  0.56813593  0.09760447  0.73266843  1
  O2-  O332  1  0.57678651  0.42627689  0.23662262  1
  O2-  O333  1  0.57270862  0.43114667  0.72723706  1
  O2-  O334  1  0.56732598  0.76652988  0.23326696  1
  O2-  O335  1  0.56738023  0.76335633  0.73283211  1
  O2-  O336  1  0.90511315  0.09409850  0.23166700  1
  O2-  O337  1  0.90587385  0.09119690  0.72491869  1
  O2-  O338  1  0.90492834  0.42800462  0.22816795  1
  O2-  O339  1  0.90514219  0.42817991  0.72953503  1
  O2-  O340  1  0.90631626  0.76008728  0.23940666  1
  O2-  O341  1  0.90528310  0.76056227  0.72834707  1
  O2-  O342  1  0.26194423  0.26235955  0.02044600  1
  O2-  O343  1  0.26165782  0.26284157  0.52238729  1
  O2-  O344  1  0.25978647  0.59711999  0.02183185  1
  O2-  O345  1  0.26289176  0.59378839  0.52097306  1
  O2-  O346  1  0.25919576  0.92616526  0.02489183  1
  O2-  O347  1  0.26137947  0.92813901  0.51950934  1
  O2-  O348  1  0.59859224  0.26098871  0.01764426  1
  O2-  O349  1  0.59421377  0.26236052  0.52077882  1
  O2-  O350  1  0.59293036  0.59555000  0.01009501  1
  O2-  O351  1  0.59490655  0.59571110  0.52565591  1
  O2-  O352  1  0.59553246  0.92970137  0.01447075  1
  O2-  O353  1  0.59520195  0.92994822  0.52355708  1
  O2-  O354  1  0.92737839  0.25898797  0.02279939  1
  O2-  O355  1  0.92890259  0.26552723  0.52287539  1
  O2-  O356  1  0.92942316  0.59211170  0.02149481  1
  O2-  O357  1  0.93061345  0.59768430  0.51707754  1
  O2-  O358  1  0.92901441  0.92830171  0.01508258  1
  O2-  O359  1  0.92836979  0.92690093  0.52410967  1
