# generated using pymatgen
data_Sr7Ca15Pr50Mn72O216
_symmetry_space_group_name_H-M   'P 1'
_cell_length_a   16.55963302
_cell_length_b   16.60445384
_cell_length_c   15.59285314
_cell_angle_alpha   90.00288128
_cell_angle_beta   89.99499457
_cell_angle_gamma   90.00897417
_symmetry_Int_Tables_number   1
_chemical_formula_structural   Sr7Ca15Pr50Mn72O216
_chemical_formula_sum   'Sr7 Ca15 Pr50 Mn72 O216'
_cell_volume   4287.46792873
_cell_formula_units_Z   1
loop_
 _symmetry_equiv_pos_site_id
 _symmetry_equiv_pos_as_xyz
  1  'x, y, z'
loop_
 _atom_type_symbol
 _atom_type_oxidation_number
  Sr2+  2.0
  Ca2+  2.0
  Pr3+  3.0
  Mn3.30+  3.3
  O2-  -2.0
loop_
 _atom_site_type_symbol
 _atom_site_label
 _atom_site_symmetry_multiplicity
 _atom_site_fract_x
 _atom_site_fract_y
 _atom_site_fract_z
 _atom_site_occupancy
  Sr2+  Sr0  1  0.50105316  0.50936022  0.62246116  1
  Sr2+  Sr1  1  -0.00206879  0.00868367  0.62510517  1
  Sr2+  Sr2  1  0.49848050  0.83931574  0.62304068  1
  Sr2+  Sr3  1  0.83336350  0.15627915  0.87543121  1
  Sr2+  Sr4  1  0.16812610  0.51103117  0.12667321  1
  Sr2+  Sr5  1  0.49991335  0.82151111  0.37681517  1
  Sr2+  Sr6  1  0.66957440  0.65567161  0.87363584  1
  Ca2+  Ca7  1  0.83188676  0.48791175  0.37455681  1
  Ca2+  Ca8  1  0.33624217  0.31941127  0.87488811  1
  Ca2+  Ca9  1  1.00306102  0.65083836  0.37487222  1
  Ca2+  Ca10  1  0.49827942  0.48917287  0.37726306  1
  Ca2+  Ca11  1  1.00310107  0.98554551  0.37512251  1
  Ca2+  Ca12  1  0.16986269  0.18288226  0.12477753  1
  Ca2+  Ca13  1  0.82976548  0.48738555  0.87575044  1
  Ca2+  Ca14  1  0.66915763  0.64897878  0.37684160  1
  Ca2+  Ca15  1  1.00262867  0.98608376  0.87478497  1
  Ca2+  Ca16  1  0.33094575  0.34902454  0.62475620  1
  Ca2+  Ca17  1  0.33490656  0.68109856  0.62037573  1
  Ca2+  Ca18  1  0.32686661  0.01757050  0.12653387  1
  Ca2+  Ca19  1  0.34023786  0.65142703  0.37775124  1
  Ca2+  Ca20  1  0.83865684  0.51436123  0.12605823  1
  Ca2+  Ca21  1  0.66664278  0.98416923  0.37497217  1
  Pr3+  Pr22  1  0.67016263  0.32230472  0.87402776  1
  Pr3+  Pr23  1  0.83611774  0.17680591  0.62564401  1
  Pr3+  Pr24  1  0.17056366  0.84811250  0.12628111  1
  Pr3+  Pr25  1  0.17438922  0.51596829  0.62350986  1
  Pr3+  Pr26  1  -0.00207566  0.34479423  0.62541968  1
  Pr3+  Pr27  1  0.66791522  0.32566899  0.37619503  1
  Pr3+  Pr28  1  0.17003732  0.18170565  0.62484455  1
  Pr3+  Pr29  1  -0.00227717  0.67679464  0.12824899  1
  Pr3+  Pr30  1  0.83635444  0.84413646  0.12526340  1
  Pr3+  Pr31  1  0.16258389  0.82186794  0.87450020  1
  Pr3+  Pr32  1  0.66444599  0.01224772  0.12816644  1
  Pr3+  Pr33  1  0.33594298  0.98712508  0.87698875  1
  Pr3+  Pr34  1  1.00252743  0.65335444  0.87412096  1
  Pr3+  Pr35  1  0.49485274  0.15515862  0.87615438  1
  Pr3+  Pr36  1  0.66125032  0.00923089  0.62262599  1
  Pr3+  Pr37  1  -0.00308130  0.01369545  0.12540855  1
  Pr3+  Pr38  1  0.49968372  0.18030498  0.12593301  1
  Pr3+  Pr39  1  0.66649384  0.67622811  0.12745895  1
  Pr3+  Pr40  1  -0.00243665  0.34954403  0.12467819  1
  Pr3+  Pr41  1  0.32880129  0.34820902  0.12436142  1
  Pr3+  Pr42  1  0.16598434  0.49083651  0.37412788  1
  Pr3+  Pr43  1  0.50039118  0.17847173  0.62443485  1
  Pr3+  Pr44  1  0.83303641  0.82300951  0.87422914  1
  Pr3+  Pr45  1  0.50185706  0.84465948  0.12705280  1
  Pr3+  Pr46  1  0.17060030  0.84763564  0.62342236  1
  Pr3+  Pr47  1  1.00126585  0.32232229  0.87528801  1
  Pr3+  Pr48  1  0.66598317  0.34823579  0.12473277  1
  Pr3+  Pr49  1  1.00247980  0.32408472  0.37471981  1
  Pr3+  Pr50  1  0.33584635  0.98656692  0.37291535  1
  Pr3+  Pr51  1  0.83411151  0.84511847  0.62481923  1
  Pr3+  Pr52  1  -0.00195118  0.68025201  0.62171862  1
  Pr3+  Pr53  1  0.16098217  0.15408831  0.37288829  1
  Pr3+  Pr54  1  0.50381388  0.51207520  0.12767154  1
  Pr3+  Pr55  1  0.66885844  0.98762861  0.87623647  1
  Pr3+  Pr56  1  0.33648124  0.32444257  0.37487770  1
  Pr3+  Pr57  1  0.49753926  0.48516879  0.87383033  1
  Pr3+  Pr58  1  0.49762740  0.81842218  0.87398468  1
  Pr3+  Pr59  1  0.33787163  0.65494797  0.87288092  1
  Pr3+  Pr60  1  0.16207023  0.81863035  0.37525013  1
  Pr3+  Pr61  1  0.16582989  0.48661453  0.87575621  1
  Pr3+  Pr62  1  0.83494199  0.51209771  0.62435216  1
  Pr3+  Pr63  1  0.49671760  0.15418439  0.37376931  1
  Pr3+  Pr64  1  0.32957838  0.01114415  0.62279262  1
  Pr3+  Pr65  1  0.82987678  0.15039288  0.37468917  1
  Pr3+  Pr66  1  0.33034184  0.67722342  0.12842707  1
  Pr3+  Pr67  1  0.82861664  0.81909487  0.37517184  1
  Pr3+  Pr68  1  0.16164765  0.15365857  0.87725929  1
  Pr3+  Pr69  1  0.83668263  0.18101505  0.12404742  1
  Pr3+  Pr70  1  0.66161134  0.67822972  0.62263946  1
  Pr3+  Pr71  1  0.66290151  0.34637627  0.62528993  1
  Mn3.30+  Mn72  1  0.16673950  0.00164157  0.00170486  1
  Mn3.30+  Mn73  1  0.16409375  0.00112918  0.49795431  1
  Mn3.30+  Mn74  1  0.16853336  0.33301850  -0.00046792  1
  Mn3.30+  Mn75  1  0.16866630  0.33524646  0.50031053  1
  Mn3.30+  Mn76  1  0.16739170  0.66646329  0.00064944  1
  Mn3.30+  Mn77  1  0.16881764  0.66717788  0.49794248  1
  Mn3.30+  Mn78  1  0.49784961  0.00003434  0.00328346  1
  Mn3.30+  Mn79  1  0.49922528  -0.00185328  0.49813298  1
  Mn3.30+  Mn80  1  0.49860141  0.33322742  -0.00019512  1
  Mn3.30+  Mn81  1  0.49863591  0.33525520  0.50065648  1
  Mn3.30+  Mn82  1  0.50052103  0.66493012  0.00029658  1
  Mn3.30+  Mn83  1  0.50004771  0.66498190  0.49745832  1
  Mn3.30+  Mn84  1  0.83432779  0.00030119  -0.00094392  1
  Mn3.30+  Mn85  1  0.83214577  -0.00182639  0.49818067  1
  Mn3.30+  Mn86  1  0.83335057  0.33659427  0.00004294  1
  Mn3.30+  Mn87  1  0.83373015  0.33354210  0.49924113  1
  Mn3.30+  Mn88  1  0.83346342  0.66446594  0.00016159  1
  Mn3.30+  Mn89  1  0.83297213  0.66408753  0.49666585  1
  Mn3.30+  Mn90  1  0.00048896  0.16700178  0.24931021  1
  Mn3.30+  Mn91  1  0.00052627  0.16472410  0.75074836  1
  Mn3.30+  Mn92  1  -0.00218466  0.50195741  0.25177840  1
  Mn3.30+  Mn93  1  0.00065973  0.49983561  0.74957415  1
  Mn3.30+  Mn94  1  0.00008592  0.83304506  0.25220495  1
  Mn3.30+  Mn95  1  -0.00002492  0.83421682  0.74930650  1
  Mn3.30+  Mn96  1  0.32974426  0.16691032  0.24870786  1
  Mn3.30+  Mn97  1  0.33202929  0.16892090  0.75052917  1
  Mn3.30+  Mn98  1  0.33575265  0.50223917  0.25246626  1
  Mn3.30+  Mn99  1  0.33382328  0.49977133  0.74789278  1
  Mn3.30+  Mn100  1  0.33375794  0.83245138  0.25116494  1
  Mn3.30+  Mn101  1  0.33256209  0.83305585  0.74860833  1
  Mn3.30+  Mn102  1  0.66664649  0.16670877  0.25105332  1
  Mn3.30+  Mn103  1  0.66613473  0.16560469  0.75004671  1
  Mn3.30+  Mn104  1  0.67005453  0.50118742  0.25181923  1
  Mn3.30+  Mn105  1  0.66745410  0.50033689  0.75071071  1
  Mn3.30+  Mn106  1  0.66686629  0.83121141  0.25192056  1
  Mn3.30+  Mn107  1  0.66588157  0.83268297  0.74986741  1
  Mn3.30+  Mn108  1  0.16590629  0.00164906  0.24932750  1
  Mn3.30+  Mn109  1  0.16523047  0.00155519  0.75061915  1
  Mn3.30+  Mn110  1  0.16741277  0.33405463  0.24916161  1
  Mn3.30+  Mn111  1  0.17024796  0.33414992  0.75049601  1
  Mn3.30+  Mn112  1  0.16684176  0.66606972  0.25279821  1
  Mn3.30+  Mn113  1  0.16937131  0.66791474  0.74833980  1
  Mn3.30+  Mn114  1  0.49792481  -0.00058906  0.24899627  1
  Mn3.30+  Mn115  1  0.49883385  -0.00094884  0.74977853  1
  Mn3.30+  Mn116  1  0.50024151  0.33549766  0.25074246  1
  Mn3.30+  Mn117  1  0.49693355  0.33292168  0.74919757  1
  Mn3.30+  Mn118  1  0.49984598  0.66530528  0.25454247  1
  Mn3.30+  Mn119  1  0.50039014  0.66445853  0.74755427  1
  Mn3.30+  Mn120  1  0.83348317  -0.00175381  0.25173768  1
  Mn3.30+  Mn121  1  0.83339861  0.00044916  0.75134205  1
  Mn3.30+  Mn122  1  0.83411470  0.33591916  0.25099448  1
  Mn3.30+  Mn123  1  0.83277386  0.33401784  0.75006655  1
  Mn3.30+  Mn124  1  0.83294695  0.66316295  0.25361542  1
  Mn3.30+  Mn125  1  0.83329232  0.66514763  0.74959642  1
  Mn3.30+  Mn126  1  0.00184561  0.16640387  0.00055296  1
  Mn3.30+  Mn127  1  -0.00080683  0.16499222  0.49935869  1
  Mn3.30+  Mn128  1  -0.00214892  0.50119131  -0.00058084  1
  Mn3.30+  Mn129  1  0.00048049  0.50082164  0.49894002  1
  Mn3.30+  Mn130  1  0.00123187  0.83357659  0.00078295  1
  Mn3.30+  Mn131  1  -0.00148606  0.83372552  0.49746258  1
  Mn3.30+  Mn132  1  0.33011045  0.16716167  0.00110782  1
  Mn3.30+  Mn133  1  0.33207302  0.16882104  0.49921893  1
  Mn3.30+  Mn134  1  0.33352947  0.49996066  -0.00104750  1
  Mn3.30+  Mn135  1  0.33594227  0.50249100  0.50064710  1
  Mn3.30+  Mn136  1  0.33292259  0.83433032  0.00178016  1
  Mn3.30+  Mn137  1  0.33321211  0.83113299  0.49826834  1
  Mn3.30+  Mn138  1  0.66634947  0.16707661  0.00116399  1
  Mn3.30+  Mn139  1  0.66641324  0.16492617  0.49824881  1
  Mn3.30+  Mn140  1  0.67041360  0.50146962  0.00028511  1
  Mn3.30+  Mn141  1  0.66738615  0.50032346  0.49686865  1
  Mn3.30+  Mn142  1  0.66721370  0.83202356  0.00169865  1
  Mn3.30+  Mn143  1  0.66567980  0.83171171  0.49696502  1
  O2-  O144  1  0.02695043  0.16108630  0.12577104  1
  O2-  O145  1  0.02485923  0.16480728  0.62628293  1
  O2-  O146  1  0.01942990  0.49841977  0.12497730  1
  O2-  O147  1  0.02888074  0.49396671  0.62518906  1
  O2-  O148  1  0.02617404  0.82484187  0.12762773  1
  O2-  O149  1  0.02587092  0.82771562  0.62223774  1
  O2-  O150  1  0.35719772  0.16107139  0.12547009  1
  O2-  O151  1  0.35711200  0.15701625  0.62414576  1
  O2-  O152  1  0.35873075  0.49635011  0.12593645  1
  O2-  O153  1  0.35216814  0.49136247  0.62543378  1
  O2-  O154  1  0.35815296  0.82387607  0.12636008  1
  O2-  O155  1  0.34803542  0.83151107  0.62371991  1
  O2-  O156  1  0.69267608  0.16093786  0.12713718  1
  O2-  O157  1  0.69213238  0.15758299  0.62218789  1
  O2-  O158  1  0.69563197  0.49620367  0.12565609  1
  O2-  O159  1  0.69110030  0.49452645  0.62366515  1
  O2-  O160  1  0.69198048  0.82555980  0.12596445  1
  O2-  O161  1  0.68949039  0.82896640  0.62169669  1
  O2-  O162  1  0.14268206  0.33051108  0.12546224  1
  O2-  O163  1  0.14149602  0.33023914  0.62526079  1
  O2-  O164  1  0.14269308  0.66608974  0.12685637  1
  O2-  O165  1  0.14149344  0.66388368  0.62355709  1
  O2-  O166  1  0.13913975  0.99402767  0.12588494  1
  O2-  O167  1  0.14817611  0.99683323  0.62233913  1
  O2-  O168  1  0.47316193  0.33056475  0.12554712  1
  O2-  O169  1  0.47265599  0.32559872  0.62475211  1
  O2-  O170  1  0.47475299  0.65959579  0.12625941  1
  O2-  O171  1  0.47827803  0.66455493  0.62423965  1
  O2-  O172  1  0.47023326  0.99304568  0.12511947  1
  O2-  O173  1  0.47411427  0.99891852  0.62299603  1
  O2-  O174  1  0.80927859  0.32705621  0.12537974  1
  O2-  O175  1  0.80778877  0.32509690  0.62309842  1
  O2-  O176  1  0.81021170  0.66008670  0.12794262  1
  O2-  O177  1  0.80685747  0.65991667  0.62347428  1
  O2-  O178  1  0.80864055  0.99454442  0.12558926  1
  O2-  O179  1  0.80515163  0.99470468  0.62460757  1
  O2-  O180  1  0.30546803  0.17601370  0.37386520  1
  O2-  O181  1  0.30643394  0.17344878  0.87642915  1
  O2-  O182  1  0.30936170  0.50443486  0.37686582  1
  O2-  O183  1  0.30846006  0.50988490  0.87184849  1
  O2-  O184  1  0.30612954  0.84119332  0.37323595  1
  O2-  O185  1  0.30748728  0.83882299  0.87682518  1
  O2-  O186  1  0.64043901  0.17663366  0.37409088  1
  O2-  O187  1  0.63907073  0.17269369  0.87707278  1
  O2-  O188  1  0.64102348  0.49850282  0.37474641  1
  O2-  O189  1  0.64197407  0.49958092  0.87622267  1
  O2-  O190  1  0.64900470  0.84117713  0.37349017  1
  O2-  O191  1  0.64153804  0.83968000  0.87894340  1
  O2-  O192  1  0.97368783  0.17716762  0.37278717  1
  O2-  O193  1  0.98221738  0.17551441  0.87526095  1
  O2-  O194  1  0.97473934  0.50271121  0.37650575  1
  O2-  O195  1  0.97309549  0.50542497  0.87324742  1
  O2-  O196  1  0.97309639  0.84295905  0.37410434  1
  O2-  O197  1  0.97779720  0.83831849  0.87555924  1
  O2-  O198  1  0.19246667  0.00710637  0.37329244  1
  O2-  O199  1  0.19323695  0.00459863  0.87799829  1
  O2-  O200  1  0.19163526  0.34010792  0.37527656  1
  O2-  O201  1  0.19373347  0.33908293  0.87392391  1
  O2-  O202  1  0.19586986  0.67086348  0.37579518  1
  O2-  O203  1  0.19307444  0.67354705  0.87342332  1
  O2-  O204  1  0.52347291  0.00716399  0.37318229  1
  O2-  O205  1  0.52450826  0.00684438  0.87871267  1
  O2-  O206  1  0.52345397  0.33663971  0.37424532  1
  O2-  O207  1  0.52578925  0.33467471  0.87545510  1
  O2-  O208  1  0.52799178  0.66930723  0.37380160  1
  O2-  O209  1  0.51849441  0.67028246  0.87510308  1
  O2-  O210  1  0.86125245  0.00367725  0.37278556  1
  O2-  O211  1  0.85876196  -0.00061275  0.87692096  1
  O2-  O212  1  0.85929631  0.34102996  0.37587372  1
  O2-  O213  1  0.85714734  0.34141244  0.87584111  1
  O2-  O214  1  0.86337895  0.67462055  0.37599513  1
  O2-  O215  1  0.85993378  0.67659833  0.87302972  1
  O2-  O216  1  0.23276847  0.09954787  0.01897185  1
  O2-  O217  1  0.23721102  0.09698779  0.51780965  1
  O2-  O218  1  0.24068352  0.42817128  0.01661733  1
  O2-  O219  1  0.23636896  0.43164216  0.51553483  1
  O2-  O220  1  0.23889095  0.76348949  0.02040773  1
  O2-  O221  1  0.23342719  0.76514454  0.51539762  1
  O2-  O222  1  0.57017553  0.09365663  0.02435503  1
  O2-  O223  1  0.56998198  0.09412143  0.51915599  1
  O2-  O224  1  0.57329841  0.42815397  0.02067321  1
  O2-  O225  1  0.57650442  0.42182200  0.51892766  1
  O2-  O226  1  0.57239126  0.76020823  0.02073770  1
  O2-  O227  1  0.57560251  0.75697053  0.51814868  1
  O2-  O228  1  0.90648940  0.09453125  0.02318336  1
  O2-  O229  1  0.89773671  0.09510078  0.51596859  1
  O2-  O230  1  0.90571191  0.42865194  0.02239414  1
  O2-  O231  1  0.90738143  0.42389605  0.52442316  1
  O2-  O232  1  0.90605772  0.75960581  0.02060720  1
  O2-  O233  1  0.90333704  0.75941482  0.52168905  1
  O2-  O234  1  0.26415902  0.26296508  0.23043556  1
  O2-  O235  1  0.26165422  0.26327246  0.72508884  1
  O2-  O236  1  0.26449940  0.59444482  0.23345061  1
  O2-  O237  1  0.26375191  0.59985780  0.72719588  1
  O2-  O238  1  0.26114656  0.93190908  0.22849374  1
  O2-  O239  1  0.26121420  0.93136475  0.73223569  1
  O2-  O240  1  0.59218260  0.26230634  0.22808256  1
  O2-  O241  1  0.59279956  0.25886649  0.72795386  1
  O2-  O242  1  0.59674919  0.59230631  0.22793845  1
  O2-  O243  1  0.59772907  0.59337826  0.73156402  1
  O2-  O244  1  0.59272746  0.92519436  0.22711012  1
  O2-  O245  1  0.59504393  0.92964170  0.73431397  1
  O2-  O246  1  0.92907164  0.26236612  0.22777684  1
  O2-  O247  1  0.92714896  0.26044353  0.73121212  1
  O2-  O248  1  0.92868342  0.59575239  0.23184897  1
  O2-  O249  1  0.93115750  0.59512233  0.72733007  1
  O2-  O250  1  0.92797931  0.92663846  0.22595473  1
  O2-  O251  1  0.92145804  0.92282910  0.73073636  1
  O2-  O252  1  0.09284357  0.24151292  0.27208002  1
  O2-  O253  1  0.09772985  0.24111937  0.76885864  1
  O2-  O254  1  0.09327420  0.57315074  0.27137977  1
  O2-  O255  1  0.09804898  0.57325048  0.77037452  1
  O2-  O256  1  0.09752188  0.90425958  0.26792610  1
  O2-  O257  1  0.09611577  0.90539205  0.76682587  1
  O2-  O258  1  0.42676198  0.23836687  0.26905938  1
  O2-  O259  1  0.42910686  0.23546851  0.76880140  1
  O2-  O260  1  0.43376645  0.56758502  0.26884738  1
  O2-  O261  1  0.42775947  0.57142375  0.77115356  1
  O2-  O262  1  0.42574296  0.90511010  0.26834509  1
  O2-  O263  1  0.42669635  0.90694545  0.77334171  1
  O2-  O264  1  0.76451688  0.24082988  0.27128048  1
  O2-  O265  1  0.75743102  0.24082346  0.76757938  1
  O2-  O266  1  0.76332103  0.56967919  0.27462417  1
  O2-  O267  1  0.76840521  0.56919614  0.76711444  1
  O2-  O268  1  0.76516649  0.90181077  0.26485874  1
  O2-  O269  1  0.75938427  0.90650545  0.77091130  1
  O2-  O270  1  0.07139932  0.07361774  0.47527424  1
  O2-  O271  1  0.07089961  0.06840886  0.97855247  1
  O2-  O272  1  0.07286926  0.40587799  0.47939466  1
  O2-  O273  1  0.07104334  0.40694762  0.97968505  1
  O2-  O274  1  0.06964969  0.73795498  0.47714215  1
  O2-  O275  1  0.07301311  0.73904456  0.97837360  1
  O2-  O276  1  0.40415666  0.07366009  0.47716264  1
  O2-  O277  1  0.40230105  0.07447045  0.97879306  1
  O2-  O278  1  0.40498228  0.40614920  0.48061017  1
  O2-  O279  1  0.40576830  0.40441653  0.97761411  1
  O2-  O280  1  0.40264356  0.73773857  0.48245401  1
  O2-  O281  1  0.40547386  0.73879189  0.98060048  1
  O2-  O282  1  0.73631594  0.06869978  0.47543771  1
  O2-  O283  1  0.73516661  0.07095035  0.98392602  1
  O2-  O284  1  0.73848254  0.40263814  0.48331609  1
  O2-  O285  1  0.73557828  0.40378325  0.98246078  1
  O2-  O286  1  0.73977848  0.73494733  0.47832668  1
  O2-  O287  1  0.74245404  0.74121156  0.98323474  1
  O2-  O288  1  0.09728572  0.24166881  0.48043835  1
  O2-  O289  1  0.09466022  0.24161666  0.97950041  1
  O2-  O290  1  0.09923518  0.57255550  0.48177996  1
  O2-  O291  1  0.09344468  0.57321620  0.97670368  1
  O2-  O292  1  0.09603008  0.90571003  0.48041426  1
  O2-  O293  1  0.09898581  0.90396951  0.98425896  1
  O2-  O294  1  0.42784717  0.23873856  0.47810611  1
  O2-  O295  1  0.42832348  0.23545711  0.98391806  1
  O2-  O296  1  0.43059229  0.57100779  0.47869391  1
  O2-  O297  1  0.42908825  0.56983227  0.98040613  1
  O2-  O298  1  0.42213699  0.90943943  0.48006016  1
  O2-  O299  1  0.42885642  0.90374247  0.97922225  1
  O2-  O300  1  0.76210078  0.23840325  0.47803154  1
  O2-  O301  1  0.75938559  0.24264441  0.98303580  1
  O2-  O302  1  0.76662105  0.56702712  0.48056853  1
  O2-  O303  1  0.76522744  0.57082170  0.97971855  1
  O2-  O304  1  0.76280839  0.90231450  0.48282608  1
  O2-  O305  1  0.76080229  0.90507607  0.98082928  1
  O2-  O306  1  0.06849766  0.07042280  0.27195898  1
  O2-  O307  1  0.07332932  0.07192630  0.77370388  1
  O2-  O308  1  0.07147408  0.40822691  0.26917144  1
  O2-  O309  1  0.07225678  0.40503238  0.77194343  1
  O2-  O310  1  0.07029321  0.73935379  0.27462162  1
  O2-  O311  1  0.07248542  0.73834079  0.76950311  1
  O2-  O312  1  0.40216945  0.07535363  0.27144596  1
  O2-  O313  1  0.40401095  0.07204793  0.77134118  1
  O2-  O314  1  0.40568903  0.40488838  0.26830897  1
  O2-  O315  1  0.40589980  0.40476039  0.77396157  1
  O2-  O316  1  0.40261165  0.73353711  0.26804676  1
  O2-  O317  1  0.40650440  0.74094387  0.76890270  1
  O2-  O318  1  0.73818758  0.06849326  0.27184932  1
  O2-  O319  1  0.73532669  0.06966766  0.76918688  1
  O2-  O320  1  0.73620619  0.40295009  0.26821597  1
  O2-  O321  1  0.73730766  0.40406352  0.76576472  1
  O2-  O322  1  0.73918214  0.73403197  0.27159527  1
  O2-  O323  1  0.74389934  0.74254355  0.76609306  1
  O2-  O324  1  0.23237571  0.09984491  0.23147961  1
  O2-  O325  1  0.23754169  0.09714125  0.73130229  1
  O2-  O326  1  0.24314326  0.42690229  0.23437606  1
  O2-  O327  1  0.23472847  0.43275947  0.73355866  1
  O2-  O328  1  0.23789414  0.76370728  0.23074705  1
  O2-  O329  1  0.23421894  0.76551408  0.73361156  1
  O2-  O330  1  0.56883772  0.09330034  0.22798128  1
  O2-  O331  1  0.57043824  0.09401319  0.72984142  1
  O2-  O332  1  0.57645429  0.42694002  0.22685137  1
  O2-  O333  1  0.57282493  0.42293369  0.73334580  1
  O2-  O334  1  0.57213291  0.75791894  0.22691572  1
  O2-  O335  1  0.57493268  0.75839904  0.73495913  1
  O2-  O336  1  0.90349482  0.09605369  0.22906906  1
  O2-  O337  1  0.90190892  0.09333251  0.73074721  1
  O2-  O338  1  0.90604530  0.42693391  0.22842728  1
  O2-  O339  1  0.90731562  0.42497577  0.72548117  1
  O2-  O340  1  0.90422619  0.76065953  0.22965833  1
  O2-  O341  1  0.90702942  0.75883230  0.72768711  1
  O2-  O342  1  0.26345808  0.26167452  0.02149070  1
  O2-  O343  1  0.26226135  0.26485047  0.52206095  1
  O2-  O344  1  0.26387234  0.59827844  0.01607396  1
  O2-  O345  1  0.26377646  0.59600382  0.52284667  1
  O2-  O346  1  0.26280068  0.93237852  0.02304402  1
  O2-  O347  1  0.25987064  0.93002367  0.51626049  1
  O2-  O348  1  0.59312119  0.26076620  0.02322921  1
  O2-  O349  1  0.59305344  0.25916288  0.52150351  1
  O2-  O350  1  0.59618914  0.59179496  0.02305559  1
  O2-  O351  1  0.59922387  0.59419069  0.51643193  1
  O2-  O352  1  0.59537013  0.92630295  0.02382570  1
  O2-  O353  1  0.59340261  0.92822675  0.51589886  1
  O2-  O354  1  0.92791169  0.26321391  0.02008629  1
  O2-  O355  1  0.92787263  0.26052992  0.52021189  1
  O2-  O356  1  0.93222681  0.59877427  0.01620312  1
  O2-  O357  1  0.92819703  0.59274045  0.52356617  1
  O2-  O358  1  0.92825610  0.92479101  0.02349852  1
  O2-  O359  1  0.92272973  0.92361537  0.52053084  1
