# generated using pymatgen
data_Sr7Ca15Pr50Mn72O216
_symmetry_space_group_name_H-M   'P 1'
_cell_length_a   16.55928515
_cell_length_b   16.60569228
_cell_length_c   15.59119250
_cell_angle_alpha   89.99836970
_cell_angle_beta   90.00400981
_cell_angle_gamma   90.01036489
_symmetry_Int_Tables_number   1
_chemical_formula_structural   Sr7Ca15Pr50Mn72O216
_chemical_formula_sum   'Sr7 Ca15 Pr50 Mn72 O216'
_cell_volume   4287.24098466
_cell_formula_units_Z   1
loop_
 _symmetry_equiv_pos_site_id
 _symmetry_equiv_pos_as_xyz
  1  'x, y, z'
loop_
 _atom_type_symbol
 _atom_type_oxidation_number
  Sr2+  2.0
  Ca2+  2.0
  Pr3+  3.0
  Mn3.30+  3.3
  O2-  -2.0
loop_
 _atom_site_type_symbol
 _atom_site_label
 _atom_site_symmetry_multiplicity
 _atom_site_fract_x
 _atom_site_fract_y
 _atom_site_fract_z
 _atom_site_occupancy
  Sr2+  Sr0  1  0.66577437  0.00745840  0.12786556  1
  Sr2+  Sr1  1  0.83206328  0.84150402  0.12525488  1
  Sr2+  Sr2  1  0.33256808  0.98854315  0.87479542  1
  Sr2+  Sr3  1  0.16905210  0.49101140  0.37449555  1
  Sr2+  Sr4  1  0.83163390  0.17376677  0.12875356  1
  Sr2+  Sr5  1  0.83045302  0.50694541  0.12631937  1
  Sr2+  Sr6  1  0.83054463  0.15471710  0.37412908  1
  Ca2+  Ca7  1  0.17045940  0.18033668  0.62142820  1
  Ca2+  Ca8  1  0.82850286  0.48498395  0.37292435  1
  Ca2+  Ca9  1  0.33710584  0.65347005  0.37467326  1
  Ca2+  Ca10  1  0.66725485  0.34384152  0.12749932  1
  Ca2+  Ca11  1  0.49579282  0.48554316  0.87750697  1
  Ca2+  Ca12  1  0.66334269  0.68533586  0.12523338  1
  Ca2+  Ca13  1  0.49820177  0.15285641  0.37296874  1
  Ca2+  Ca14  1  0.33730339  0.31407168  0.37492950  1
  Ca2+  Ca15  1  0.66874442  0.98926821  0.37118940  1
  Ca2+  Ca16  1  0.16254492  0.15355992  0.37815358  1
  Ca2+  Ca17  1  0.16242268  0.81580960  0.87440719  1
  Ca2+  Ca18  1  0.17090041  0.84856580  0.62599000  1
  Ca2+  Ca19  1  0.00035248  0.01486612  0.62336003  1
  Ca2+  Ca20  1  0.50640657  0.84926144  0.12524637  1
  Ca2+  Ca21  1  1.00225772  0.65409026  0.87787331  1
  Pr3+  Pr22  1  0.16834331  0.84524514  0.12469125  1
  Pr3+  Pr23  1  0.83353026  0.48889284  0.87602192  1
  Pr3+  Pr24  1  0.17041602  0.51268148  0.62356829  1
  Pr3+  Pr25  1  0.32716932  0.01500628  0.62436840  1
  Pr3+  Pr26  1  0.33704094  0.32115362  0.87525399  1
  Pr3+  Pr27  1  -0.00542092  0.67760146  0.12408532  1
  Pr3+  Pr28  1  0.50772252  0.18029426  0.12650294  1
  Pr3+  Pr29  1  0.99930829  0.65359649  0.37334017  1
  Pr3+  Pr30  1  0.66744651  0.32279340  0.87689092  1
  Pr3+  Pr31  1  0.66428196  0.01394383  0.62292136  1
  Pr3+  Pr32  1  0.83946686  0.84967617  0.62512281  1
  Pr3+  Pr33  1  0.49983800  0.84697339  0.62532324  1
  Pr3+  Pr34  1  0.33668557  0.65377917  0.87606665  1
  Pr3+  Pr35  1  0.00139515  0.34462503  0.62296306  1
  Pr3+  Pr36  1  0.00005589  0.67904026  0.62565184  1
  Pr3+  Pr37  1  0.66883927  0.98786968  0.87583311  1
  Pr3+  Pr38  1  1.00218579  0.31960248  0.37446049  1
  Pr3+  Pr39  1  1.00332273  0.31968175  0.87535742  1
  Pr3+  Pr40  1  0.32846404  0.34514175  0.62209670  1
  Pr3+  Pr41  1  0.33456087  0.99103889  0.37571196  1
  Pr3+  Pr42  1  0.66786759  0.65403993  0.87760046  1
  Pr3+  Pr43  1  0.16834763  0.51302539  0.12704499  1
  Pr3+  Pr44  1  1.00191848  0.99022257  0.37518693  1
  Pr3+  Pr45  1  0.66404406  0.34622783  0.62297541  1
  Pr3+  Pr46  1  0.50942160  0.51517552  0.12482954  1
  Pr3+  Pr47  1  0.33190818  0.34581156  0.12769032  1
  Pr3+  Pr48  1  0.83769992  0.17843933  0.62224494  1
  Pr3+  Pr49  1  0.82893094  0.82600996  0.37298179  1
  Pr3+  Pr50  1  0.16890960  0.17740354  0.12777051  1
  Pr3+  Pr51  1  0.83629160  0.51306631  0.62317757  1
  Pr3+  Pr52  1  0.66369181  0.68054732  0.62516914  1
  Pr3+  Pr53  1  0.33558170  0.01025722  0.12547965  1
  Pr3+  Pr54  1  0.49501546  0.82400418  0.87784411  1
  Pr3+  Pr55  1  0.67057684  0.32152631  0.37257976  1
  Pr3+  Pr56  1  0.83247068  0.15422752  0.87526122  1
  Pr3+  Pr57  1  0.67239944  0.65339900  0.37256405  1
  Pr3+  Pr58  1  -0.00582726  0.34442308  0.12647695  1
  Pr3+  Pr59  1  -0.00717300  0.01193449  0.12581192  1
  Pr3+  Pr60  1  0.83180659  0.81949359  0.87668932  1
  Pr3+  Pr61  1  0.49377179  0.48537200  0.37413557  1
  Pr3+  Pr62  1  0.49798999  0.82166500  0.37300018  1
  Pr3+  Pr63  1  0.16298932  0.48831062  0.87592926  1
  Pr3+  Pr64  1  0.32632395  0.68198140  0.62283228  1
  Pr3+  Pr65  1  0.33288787  0.67994029  0.12795818  1
  Pr3+  Pr66  1  1.00655119  0.98418030  0.87429286  1
  Pr3+  Pr67  1  0.50149659  0.51335586  0.62549890  1
  Pr3+  Pr68  1  0.16458918  0.82125930  0.37599156  1
  Pr3+  Pr69  1  0.50044270  0.17954063  0.62328119  1
  Pr3+  Pr70  1  0.16441427  0.15243172  0.87342083  1
  Pr3+  Pr71  1  0.49568140  0.15266114  0.87500095  1
  Mn3.30+  Mn72  1  0.16649882  -0.00241613  -0.00015191  1
  Mn3.30+  Mn73  1  0.16548863  0.00125035  0.50199970  1
  Mn3.30+  Mn74  1  0.16697830  0.33278474  0.00224710  1
  Mn3.30+  Mn75  1  0.16861804  0.33175473  0.49561145  1
  Mn3.30+  Mn76  1  0.16603501  0.66739667  0.00020937  1
  Mn3.30+  Mn77  1  0.16659218  0.66763240  0.49801468  1
  Mn3.30+  Mn78  1  0.50016265  -0.00052097  0.00090031  1
  Mn3.30+  Mn79  1  0.50000229  0.00160620  0.49812413  1
  Mn3.30+  Mn80  1  0.50121852  0.33524160  0.00023661  1
  Mn3.30+  Mn81  1  0.49776405  0.33097710  0.49761377  1
  Mn3.30+  Mn82  1  0.50157829  0.66826990  0.00099873  1
  Mn3.30+  Mn83  1  0.49838509  0.66719589  0.49913029  1
  Mn3.30+  Mn84  1  0.83428394  -0.00093273  0.00012634  1
  Mn3.30+  Mn85  1  0.83363341  0.00100125  0.49993100  1
  Mn3.30+  Mn86  1  0.83269468  0.33239594  0.00102349  1
  Mn3.30+  Mn87  1  0.83319387  0.33425350  0.49909453  1
  Mn3.30+  Mn88  1  0.83269933  0.66527645  0.00101983  1
  Mn3.30+  Mn89  1  0.83304673  0.66760140  0.49997088  1
  Mn3.30+  Mn90  1  0.00128631  0.16583521  0.25252703  1
  Mn3.30+  Mn91  1  0.00231088  0.16532815  0.74627316  1
  Mn3.30+  Mn92  1  -0.00182304  0.49841732  0.25202712  1
  Mn3.30+  Mn93  1  0.00126546  0.50134349  0.74939103  1
  Mn3.30+  Mn94  1  -0.00106845  0.83300084  0.25093062  1
  Mn3.30+  Mn95  1  0.00433337  0.83271794  0.74880622  1
  Mn3.30+  Mn96  1  0.33491344  0.16642506  0.25215915  1
  Mn3.30+  Mn97  1  0.33125561  0.16707495  0.74857877  1
  Mn3.30+  Mn98  1  0.33583216  0.49975788  0.25119197  1
  Mn3.30+  Mn99  1  0.33426423  0.50042845  0.75095787  1
  Mn3.30+  Mn100  1  0.33526364  0.83300713  0.24998508  1
  Mn3.30+  Mn101  1  0.32881110  0.83373348  0.75205668  1
  Mn3.30+  Mn102  1  0.66553601  0.16611565  0.25110822  1
  Mn3.30+  Mn103  1  0.66675238  0.16768980  0.74964854  1
  Mn3.30+  Mn104  1  0.66675158  0.50050209  0.24870610  1
  Mn3.30+  Mn105  1  0.66520501  0.50042380  0.75177926  1
  Mn3.30+  Mn106  1  0.66390569  0.83449931  0.24958247  1
  Mn3.30+  Mn107  1  0.66679005  0.83378985  0.75006493  1
  Mn3.30+  Mn108  1  0.16692716  0.00078840  0.25036841  1
  Mn3.30+  Mn109  1  0.16530302  -0.00207473  0.74766261  1
  Mn3.30+  Mn110  1  0.16802824  0.33239462  0.25322374  1
  Mn3.30+  Mn111  1  0.16758133  0.33224259  0.74894046  1
  Mn3.30+  Mn112  1  0.16717142  0.66657649  0.25156930  1
  Mn3.30+  Mn113  1  0.16543920  0.66835254  0.75150844  1
  Mn3.30+  Mn114  1  0.50187503  0.00086326  0.25284169  1
  Mn3.30+  Mn115  1  0.49817484  0.00010535  0.74857927  1
  Mn3.30+  Mn116  1  0.49980372  0.33218762  0.25141834  1
  Mn3.30+  Mn117  1  0.49930984  0.33475278  0.74983636  1
  Mn3.30+  Mn118  1  0.50209495  0.66810435  0.25009435  1
  Mn3.30+  Mn119  1  0.49806404  0.66678601  0.75072410  1
  Mn3.30+  Mn120  1  0.83137904  -0.00032691  0.25043867  1
  Mn3.30+  Mn121  1  0.83673562  0.00088716  0.74934408  1
  Mn3.30+  Mn122  1  0.83196390  0.33316023  0.24964312  1
  Mn3.30+  Mn123  1  0.83403606  0.33359448  0.74939591  1
  Mn3.30+  Mn124  1  0.83147685  0.66509216  0.24811483  1
  Mn3.30+  Mn125  1  0.83463332  0.66694689  0.75114606  1
  Mn3.30+  Mn126  1  -0.00030476  0.16574354  0.00004348  1
  Mn3.30+  Mn127  1  0.00334764  0.16538406  0.50077776  1
  Mn3.30+  Mn128  1  -0.00041308  0.50043607  0.00038099  1
  Mn3.30+  Mn129  1  -0.00012756  0.49966790  0.49748778  1
  Mn3.30+  Mn130  1  0.00128187  0.83074004  -0.00170409  1
  Mn3.30+  Mn131  1  0.00187202  0.83540991  0.50262894  1
  Mn3.30+  Mn132  1  0.33450423  0.16601800  0.00195240  1
  Mn3.30+  Mn133  1  0.33165987  0.16705397  0.49636084  1
  Mn3.30+  Mn134  1  0.33562116  0.50033442  0.00193890  1
  Mn3.30+  Mn135  1  0.33415300  0.49982413  0.49700144  1
  Mn3.30+  Mn136  1  0.33291937  0.83346298  0.00091649  1
  Mn3.30+  Mn137  1  0.33153955  0.83398442  0.49906919  1
  Mn3.30+  Mn138  1  0.66643422  0.16740370  0.00105224  1
  Mn3.30+  Mn139  1  0.66586126  0.16575085  0.49703070  1
  Mn3.30+  Mn140  1  0.66536717  0.49974039  0.00004227  1
  Mn3.30+  Mn141  1  0.66640336  0.50078978  0.49896391  1
  Mn3.30+  Mn142  1  0.66410707  0.83344334  0.00110445  1
  Mn3.30+  Mn143  1  0.66674270  0.83532055  0.50028868  1
  O2-  O144  1  0.02448236  0.16129057  0.12744495  1
  O2-  O145  1  0.02851259  0.16219149  0.62439710  1
  O2-  O146  1  0.02442246  0.49288549  0.12750697  1
  O2-  O147  1  0.02626814  0.49480523  0.62430516  1
  O2-  O148  1  0.02472401  0.82576611  0.12533357  1
  O2-  O149  1  0.03069916  0.82277324  0.62579913  1
  O2-  O150  1  0.36171181  0.16095434  0.12601238  1
  O2-  O151  1  0.35688854  0.16483134  0.62260910  1
  O2-  O152  1  0.36299212  0.49387621  0.12654495  1
  O2-  O153  1  0.35778118  0.49407296  0.62262068  1
  O2-  O154  1  0.36230667  0.82811937  0.12798616  1
  O2-  O155  1  0.35685008  0.82808854  0.62404571  1
  O2-  O156  1  0.68212287  0.16293334  0.12374074  1
  O2-  O157  1  0.69297761  0.16213195  0.62534612  1
  O2-  O158  1  0.68165039  0.48912212  0.12227764  1
  O2-  O159  1  0.69207149  0.49514227  0.62596986  1
  O2-  O160  1  0.68279871  0.83058101  0.12234927  1
  O2-  O161  1  0.69334555  0.82780951  0.62613017  1
  O2-  O162  1  0.13929314  0.32552644  0.12656064  1
  O2-  O163  1  0.14528781  0.32808460  0.62207125  1
  O2-  O164  1  0.13994239  0.66267666  0.12654194  1
  O2-  O165  1  0.14340760  0.65895138  0.62430680  1
  O2-  O166  1  0.13776239  0.99299960  0.12599385  1
  O2-  O167  1  0.14021909  0.98998878  0.62506442  1
  O2-  O168  1  0.47503171  0.32760813  0.12545413  1
  O2-  O169  1  0.47292516  0.32779436  0.62261220  1
  O2-  O170  1  0.47534993  0.66043655  0.12454218  1
  O2-  O171  1  0.47166030  0.66117786  0.62585373  1
  O2-  O172  1  0.47911314  0.99605511  0.12776220  1
  O2-  O173  1  0.47326838  0.99559420  0.62404865  1
  O2-  O174  1  0.81074540  0.32984853  0.12176476  1
  O2-  O175  1  0.80857801  0.32805535  0.62516024  1
  O2-  O176  1  0.80742118  0.66313451  0.12403667  1
  O2-  O177  1  0.80689671  0.66139993  0.62598568  1
  O2-  O178  1  0.81759561  0.99861301  0.12329430  1
  O2-  O179  1  0.80793171  0.99764214  0.62634945  1
  O2-  O180  1  0.30509977  0.16683807  0.37358922  1
  O2-  O181  1  0.30886570  0.17296393  0.87629197  1
  O2-  O182  1  0.31774234  0.51037793  0.37354723  1
  O2-  O183  1  0.30666767  0.50527213  0.87813218  1
  O2-  O184  1  0.30740960  0.84261081  0.37403785  1
  O2-  O185  1  0.30583395  0.83323343  0.87547784  1
  O2-  O186  1  0.63901262  0.17635865  0.37628234  1
  O2-  O187  1  0.63936204  0.17429483  0.87335522  1
  O2-  O188  1  0.63829063  0.50701837  0.37672790  1
  O2-  O189  1  0.63737169  0.50707116  0.87403247  1
  O2-  O190  1  0.64340476  0.83816541  0.37940560  1
  O2-  O191  1  0.64038244  0.83880670  0.87279980  1
  O2-  O192  1  0.98033582  0.17021061  0.37703701  1
  O2-  O193  1  0.97718433  0.17198915  0.87109877  1
  O2-  O194  1  0.97112328  0.50517613  0.37559074  1
  O2-  O195  1  0.97842683  0.50551449  0.87202246  1
  O2-  O196  1  0.97374703  0.84027085  0.37748469  1
  O2-  O197  1  0.97437178  0.83922952  0.87190897  1
  O2-  O198  1  0.19103703  0.00587067  0.37433411  1
  O2-  O199  1  0.18492814  0.00787720  0.87376674  1
  O2-  O200  1  0.19625115  0.33861145  0.37342294  1
  O2-  O201  1  0.19243296  0.33944592  0.87775261  1
  O2-  O202  1  0.19430728  0.67383799  0.37411156  1
  O2-  O203  1  0.19325863  0.66900750  0.87630572  1
  O2-  O204  1  0.52547332  0.00694303  0.37844708  1
  O2-  O205  1  0.52297766  0.00411069  0.87100212  1
  O2-  O206  1  0.52743949  0.33969843  0.37624514  1
  O2-  O207  1  0.52341902  0.33908127  0.87472159  1
  O2-  O208  1  0.52828773  0.67343527  0.37536095  1
  O2-  O209  1  0.52433941  0.67743591  0.87522549  1
  O2-  O210  1  0.85681644  -0.00526575  0.37717741  1
  O2-  O211  1  0.86081426  0.00545251  0.87248226  1
  O2-  O212  1  0.85638124  0.33940249  0.37822407  1
  O2-  O213  1  0.85946254  0.33837242  0.87293987  1
  O2-  O214  1  0.85592771  0.67740719  0.37595761  1
  O2-  O215  1  0.85903238  0.67084952  0.87381420  1
  O2-  O216  1  0.23827699  0.09261716  0.02137530  1
  O2-  O217  1  0.23767175  0.09437950  0.52324077  1
  O2-  O218  1  0.23863266  0.42802616  0.02366703  1
  O2-  O219  1  0.23950383  0.42671257  0.52095719  1
  O2-  O220  1  0.24084357  0.75930061  0.02528047  1
  O2-  O221  1  0.23582005  0.76335855  0.52018487  1
  O2-  O222  1  0.56983277  0.09921359  0.01235517  1
  O2-  O223  1  0.57185748  0.09428057  0.52465530  1
  O2-  O224  1  0.56773401  0.43022595  0.01453591  1
  O2-  O225  1  0.57099360  0.42917383  0.52146375  1
  O2-  O226  1  0.56707160  0.76551013  0.01684092  1
  O2-  O227  1  0.57040245  0.76128900  0.52205008  1
  O2-  O228  1  0.90782836  0.09405560  0.01536978  1
  O2-  O229  1  0.90517948  0.09438105  0.51934163  1
  O2-  O230  1  0.90732971  0.42522891  0.01504253  1
  O2-  O231  1  0.90775071  0.42677571  0.52396673  1
  O2-  O232  1  0.90662939  0.75886582  0.01616211  1
  O2-  O233  1  0.90745394  0.76291536  0.52288847  1
  O2-  O234  1  0.26161449  0.25783875  0.22619757  1
  O2-  O235  1  0.26318317  0.26430956  0.73338841  1
  O2-  O236  1  0.25988047  0.59234126  0.22705315  1
  O2-  O237  1  0.26301189  0.59584954  0.73034503  1
  O2-  O238  1  0.26004412  0.92708888  0.22794145  1
  O2-  O239  1  0.26159658  0.92921351  0.72879453  1
  O2-  O240  1  0.59448264  0.26498480  0.22972423  1
  O2-  O241  1  0.59522275  0.26135306  0.72834200  1
  O2-  O242  1  0.59982764  0.59868126  0.22870914  1
  O2-  O243  1  0.59548869  0.59477855  0.72831041  1
  O2-  O244  1  0.59119733  0.92801713  0.23850647  1
  O2-  O245  1  0.59501395  0.92835880  0.72856709  1
  O2-  O246  1  0.93139960  0.26036235  0.23598718  1
  O2-  O247  1  0.93159310  0.25952091  0.72754859  1
  O2-  O248  1  0.92873287  0.59529996  0.23324984  1
  O2-  O249  1  0.92627369  0.59315458  0.72581360  1
  O2-  O250  1  0.93057870  0.92572654  0.23358867  1
  O2-  O251  1  0.93344874  0.92795455  0.72669708  1
  O2-  O252  1  0.09758057  0.23724856  0.27158192  1
  O2-  O253  1  0.09459304  0.23883905  0.77175096  1
  O2-  O254  1  0.09065736  0.57421855  0.26849112  1
  O2-  O255  1  0.09916197  0.56956019  0.76651289  1
  O2-  O256  1  0.09500554  0.90577580  0.27112323  1
  O2-  O257  1  0.09628321  0.90208961  0.77442026  1
  O2-  O258  1  0.43034595  0.23509000  0.26958721  1
  O2-  O259  1  0.42886631  0.24020974  0.76991505  1
  O2-  O260  1  0.43513291  0.57204884  0.26592643  1
  O2-  O261  1  0.42907526  0.57077555  0.77264644  1
  O2-  O262  1  0.42555806  0.90836053  0.27426192  1
  O2-  O263  1  0.42773908  0.90151621  0.76580144  1
  O2-  O264  1  0.75694533  0.24260451  0.26907906  1
  O2-  O265  1  0.76107663  0.23923317  0.77041106  1
  O2-  O266  1  0.76135711  0.57239664  0.27423278  1
  O2-  O267  1  0.76025662  0.57165787  0.77120195  1
  O2-  O268  1  0.75821087  0.90517867  0.26740719  1
  O2-  O269  1  0.76367917  0.90645739  0.77064162  1
  O2-  O270  1  0.07198005  0.07057606  0.48073797  1
  O2-  O271  1  0.07166551  0.07099489  0.98142706  1
  O2-  O272  1  0.07169197  0.40231595  0.48190071  1
  O2-  O273  1  0.07229498  0.40496345  0.98019271  1
  O2-  O274  1  0.07132485  0.73879403  0.47702150  1
  O2-  O275  1  0.06985013  0.73578514  0.98087926  1
  O2-  O276  1  0.40089196  0.07087382  0.48338433  1
  O2-  O277  1  0.40715398  0.07322375  0.98292865  1
  O2-  O278  1  0.40539192  0.40137251  0.47773979  1
  O2-  O279  1  0.40230981  0.40335916  0.98231622  1
  O2-  O280  1  0.40451633  0.73755963  0.47847333  1
  O2-  O281  1  0.40346961  0.73790079  0.98037992  1
  O2-  O282  1  0.73298420  0.06969311  0.48239655  1
  O2-  O283  1  0.74012127  0.07536196  0.97515374  1
  O2-  O284  1  0.73444719  0.40591818  0.48272488  1
  O2-  O285  1  0.74162322  0.40748378  0.97487481  1
  O2-  O286  1  0.73740410  0.73878912  0.48142958  1
  O2-  O287  1  0.73842177  0.74109395  0.97770144  1
  O2-  O288  1  0.09591617  0.24040054  0.47700167  1
  O2-  O289  1  0.09534828  0.23665213  0.97997243  1
  O2-  O290  1  0.09082934  0.57540180  0.48067483  1
  O2-  O291  1  0.09830893  0.56904549  0.98466615  1
  O2-  O292  1  0.09426839  0.90693153  0.47565395  1
  O2-  O293  1  0.09716070  0.90109883  0.97927571  1
  O2-  O294  1  0.43020771  0.23386440  0.47924374  1
  O2-  O295  1  0.42995325  0.24050494  0.97919323  1
  O2-  O296  1  0.43256343  0.57082968  0.48390028  1
  O2-  O297  1  0.43064333  0.57274371  0.97912406  1
  O2-  O298  1  0.42877300  0.90556698  0.48003665  1
  O2-  O299  1  0.42591586  0.90437822  0.98282617  1
  O2-  O300  1  0.75759933  0.24051459  0.48322409  1
  O2-  O301  1  0.75958748  0.24065122  0.97504571  1
  O2-  O302  1  0.76103406  0.57027022  0.47921926  1
  O2-  O303  1  0.75996666  0.57283675  0.97550632  1
  O2-  O304  1  0.76426112  0.90257777  0.48665344  1
  O2-  O305  1  0.75935253  0.90714000  0.97618983  1
  O2-  O306  1  0.07303209  0.07111042  0.26796055  1
  O2-  O307  1  0.07181418  0.07147030  0.77006593  1
  O2-  O308  1  0.07075434  0.40295929  0.26899518  1
  O2-  O309  1  0.07336338  0.40364232  0.76893653  1
  O2-  O310  1  0.07234313  0.74125532  0.27313376  1
  O2-  O311  1  0.06807533  0.73253219  0.77053856  1
  O2-  O312  1  0.40351811  0.06969415  0.26797677  1
  O2-  O313  1  0.40619129  0.07560870  0.76569046  1
  O2-  O314  1  0.40461093  0.40035362  0.27177486  1
  O2-  O315  1  0.40264111  0.40487424  0.76821819  1
  O2-  O316  1  0.40407448  0.73715905  0.27322423  1
  O2-  O317  1  0.40194226  0.73901267  0.76975700  1
  O2-  O318  1  0.73638121  0.07363105  0.26930647  1
  O2-  O319  1  0.73738788  0.07448495  0.77119471  1
  O2-  O320  1  0.73636241  0.40795191  0.26879112  1
  O2-  O321  1  0.73629449  0.40824567  0.77145590  1
  O2-  O322  1  0.73882021  0.74103277  0.26942074  1
  O2-  O323  1  0.73846901  0.73897662  0.77184595  1
  O2-  O324  1  0.24200805  0.09084000  0.22416756  1
  O2-  O325  1  0.23581379  0.09513959  0.72846546  1
  O2-  O326  1  0.23887305  0.42496624  0.22557012  1
  O2-  O327  1  0.23852484  0.42952714  0.73039361  1
  O2-  O328  1  0.23956088  0.76189989  0.22863550  1
  O2-  O329  1  0.23685314  0.76084678  0.72721473  1
  O2-  O330  1  0.56864804  0.09832831  0.23507706  1
  O2-  O331  1  0.57315285  0.09609964  0.72863736  1
  O2-  O332  1  0.56735528  0.43199393  0.23614261  1
  O2-  O333  1  0.57263825  0.42630682  0.72617008  1
  O2-  O334  1  0.56767176  0.76535137  0.23356851  1
  O2-  O335  1  0.57057378  0.76059518  0.72742326  1
  O2-  O336  1  0.91101474  0.08945607  0.23558524  1
  O2-  O337  1  0.90436003  0.09808592  0.73048199  1
  O2-  O338  1  0.90828542  0.42279664  0.23154405  1
  O2-  O339  1  0.90613008  0.42826488  0.72884079  1
  O2-  O340  1  0.90794956  0.75697472  0.23279614  1
  O2-  O341  1  0.90606450  0.76326026  0.72837204  1
  O2-  O342  1  0.26198591  0.26031487  0.02265489  1
  O2-  O343  1  0.26372063  0.26185607  0.51710840  1
  O2-  O344  1  0.26364576  0.59414288  0.02340704  1
  O2-  O345  1  0.25870426  0.59444777  0.52040225  1
  O2-  O346  1  0.26073538  0.92539722  0.02546440  1
  O2-  O347  1  0.26148808  0.93175643  0.51710071  1
  O2-  O348  1  0.59598210  0.26574299  0.01884785  1
  O2-  O349  1  0.59330912  0.26158015  0.52273358  1
  O2-  O350  1  0.59696368  0.60050545  0.02048636  1
  O2-  O351  1  0.59555950  0.59593964  0.52221820  1
  O2-  O352  1  0.59398449  0.93002555  0.01075136  1
  O2-  O353  1  0.59345235  0.92567646  0.52466179  1
  O2-  O354  1  0.93051751  0.26232234  0.01431027  1
  O2-  O355  1  0.93010843  0.25948680  0.52079465  1
  O2-  O356  1  0.92957927  0.59311452  0.01788705  1
  O2-  O357  1  0.92668558  0.59607500  0.52079788  1
  O2-  O358  1  0.93326488  0.92711254  0.01421319  1
  O2-  O359  1  0.93156437  0.92778643  0.52463591  1
