# generated using pymatgen
data_Sr7Ca15Pr50Mn72O216
_symmetry_space_group_name_H-M   'P 1'
_cell_length_a   16.56052551
_cell_length_b   16.60494234
_cell_length_c   15.59179645
_cell_angle_alpha   89.99502687
_cell_angle_beta   90.00097222
_cell_angle_gamma   90.00642474
_symmetry_Int_Tables_number   1
_chemical_formula_structural   Sr7Ca15Pr50Mn72O216
_chemical_formula_sum   'Sr7 Ca15 Pr50 Mn72 O216'
_cell_volume   4287.53460016
_cell_formula_units_Z   1
loop_
 _symmetry_equiv_pos_site_id
 _symmetry_equiv_pos_as_xyz
  1  'x, y, z'
loop_
 _atom_type_symbol
 _atom_type_oxidation_number
  Sr2+  2.0
  Ca2+  2.0
  Pr3+  3.0
  Mn3.30+  3.3
  O2-  -2.0
loop_
 _atom_site_type_symbol
 _atom_site_label
 _atom_site_symmetry_multiplicity
 _atom_site_fract_x
 _atom_site_fract_y
 _atom_site_fract_z
 _atom_site_occupancy
  Sr2+  Sr0  1  0.66027624  0.34453539  0.12439922  1
  Sr2+  Sr1  1  1.00200204  0.98685274  0.37575319  1
  Sr2+  Sr2  1  0.16205501  0.48787610  0.87398159  1
  Sr2+  Sr3  1  0.33330902  0.34294654  0.12683221  1
  Sr2+  Sr4  1  0.83415540  0.15834013  0.87260044  1
  Sr2+  Sr5  1  0.83451214  0.17414675  0.62789146  1
  Sr2+  Sr6  1  0.67077809  0.99370758  0.87377815  1
  Ca2+  Ca7  1  0.50278733  0.18341521  0.12415098  1
  Ca2+  Ca8  1  0.33739482  0.98532382  0.87480769  1
  Ca2+  Ca9  1  0.33708938  0.31827272  0.37495561  1
  Ca2+  Ca10  1  0.16234534  0.81674518  0.87385249  1
  Ca2+  Ca11  1  0.83911365  0.84736362  0.62442985  1
  Ca2+  Ca12  1  0.83116391  0.81813481  0.37776387  1
  Ca2+  Ca13  1  0.33648869  0.65311159  0.37592397  1
  Ca2+  Ca14  1  0.16413469  0.81926348  0.37597705  1
  Ca2+  Ca15  1  1.00563321  0.65165946  0.87353954  1
  Ca2+  Ca16  1  1.00341789  0.31881708  0.87221745  1
  Ca2+  Ca17  1  0.83718152  0.51376741  0.62432272  1
  Ca2+  Ca18  1  0.16956246  0.18080285  0.62455846  1
  Ca2+  Ca19  1  0.50229049  0.51540128  0.62536321  1
  Ca2+  Ca20  1  0.50134405  0.51227495  0.12498868  1
  Ca2+  Ca21  1  0.50433204  0.18121789  0.62587063  1
  Pr3+  Pr22  1  0.32970689  0.01645031  0.62558375  1
  Pr3+  Pr23  1  -0.00420443  0.68000059  0.62688334  1
  Pr3+  Pr24  1  0.66294160  0.67724464  0.12477003  1
  Pr3+  Pr25  1  0.66578785  0.01540760  0.62665096  1
  Pr3+  Pr26  1  0.82939130  0.15364218  0.37680493  1
  Pr3+  Pr27  1  0.67326469  0.98531970  0.37576417  1
  Pr3+  Pr28  1  0.49823587  0.82371300  0.87441848  1
  Pr3+  Pr29  1  0.33370330  0.65425328  0.87392416  1
  Pr3+  Pr30  1  0.66307873  0.34597177  0.62627689  1
  Pr3+  Pr31  1  0.33315104  0.32186992  0.87535548  1
  Pr3+  Pr32  1  -0.00440993  0.34543733  0.12323975  1
  Pr3+  Pr33  1  0.66783521  0.32093637  0.87519870  1
  Pr3+  Pr34  1  0.83379237  0.51173480  0.12513986  1
  Pr3+  Pr35  1  1.00104525  0.65830569  0.37557584  1
  Pr3+  Pr36  1  -0.00128869  0.01159200  0.62445335  1
  Pr3+  Pr37  1  0.16785208  0.51289480  0.62582851  1
  Pr3+  Pr38  1  0.49561371  0.15656096  0.37447495  1
  Pr3+  Pr39  1  0.16795399  0.48775156  0.37551753  1
  Pr3+  Pr40  1  0.83296011  0.48834181  0.87234935  1
  Pr3+  Pr41  1  0.33530018  0.98799219  0.37503752  1
  Pr3+  Pr42  1  0.83157876  0.82169854  0.87292404  1
  Pr3+  Pr43  1  0.67022949  0.65349488  0.37607936  1
  Pr3+  Pr44  1  0.49504242  0.48782396  0.87448340  1
  Pr3+  Pr45  1  0.16966527  0.17980727  0.12610871  1
  Pr3+  Pr46  1  0.82767251  0.48676546  0.37739774  1
  Pr3+  Pr47  1  0.66921902  0.65474427  0.87400322  1
  Pr3+  Pr48  1  0.33057758  0.67855424  0.62425045  1
  Pr3+  Pr49  1  0.66693898  0.32085688  0.37523634  1
  Pr3+  Pr50  1  0.33023716  0.34471015  0.62304479  1
  Pr3+  Pr51  1  0.17016414  0.84542544  0.62459322  1
  Pr3+  Pr52  1  -0.00102220  0.67853873  0.12270029  1
  Pr3+  Pr53  1  1.00053519  0.32027935  0.37622145  1
  Pr3+  Pr54  1  0.66204211  0.01647111  0.12323326  1
  Pr3+  Pr55  1  -0.00088987  0.01213735  0.12536215  1
  Pr3+  Pr56  1  0.33216682  0.01403883  0.12412590  1
  Pr3+  Pr57  1  1.00367241  0.98781531  0.87348978  1
  Pr3+  Pr58  1  0.16973652  0.51121443  0.12389535  1
  Pr3+  Pr59  1  0.50227577  0.84612845  0.62508442  1
  Pr3+  Pr60  1  0.49497110  0.15257610  0.87572037  1
  Pr3+  Pr61  1  -0.00515405  0.34556514  0.62664092  1
  Pr3+  Pr62  1  0.33176110  0.67484756  0.12573223  1
  Pr3+  Pr63  1  0.83411357  0.17938902  0.12258834  1
  Pr3+  Pr64  1  0.17109138  0.84452869  0.12526528  1
  Pr3+  Pr65  1  0.16392743  0.15741839  0.87419399  1
  Pr3+  Pr66  1  0.49634114  0.81762081  0.37588722  1
  Pr3+  Pr67  1  0.83675514  0.84551373  0.12590943  1
  Pr3+  Pr68  1  0.66721861  0.67963716  0.62565066  1
  Pr3+  Pr69  1  0.16621447  0.15526159  0.37549729  1
  Pr3+  Pr70  1  0.50282392  0.84520135  0.12526752  1
  Pr3+  Pr71  1  0.49334756  0.48720115  0.37566566  1
  Mn3.30+  Mn72  1  0.16943237  -0.00174732  -0.00301358  1
  Mn3.30+  Mn73  1  0.16667801  -0.00035379  0.49996912  1
  Mn3.30+  Mn74  1  0.16462795  0.33372675  -0.00025979  1
  Mn3.30+  Mn75  1  0.16701423  0.33233766  0.49949603  1
  Mn3.30+  Mn76  1  0.16496514  0.66651933  -0.00152966  1
  Mn3.30+  Mn77  1  0.16726808  0.66751884  0.49790361  1
  Mn3.30+  Mn78  1  0.49856280  0.00031142  -0.00061585  1
  Mn3.30+  Mn79  1  0.50112902  0.00163208  0.50040121  1
  Mn3.30+  Mn80  1  0.49948930  0.33422878  0.00120001  1
  Mn3.30+  Mn81  1  0.49762295  0.33422027  0.50161978  1
  Mn3.30+  Mn82  1  0.49971098  0.66632917  -0.00064026  1
  Mn3.30+  Mn83  1  0.49958280  0.66565299  0.50156671  1
  Mn3.30+  Mn84  1  0.83339782  0.00051877  -0.00046812  1
  Mn3.30+  Mn85  1  0.83496673  -0.00320910  0.50001333  1
  Mn3.30+  Mn86  1  0.83288363  0.33420426  -0.00198248  1
  Mn3.30+  Mn87  1  0.83195292  0.33279757  0.50266890  1
  Mn3.30+  Mn88  1  0.83488745  0.66628785  -0.00207802  1
  Mn3.30+  Mn89  1  0.83398997  0.66759300  0.50175447  1
  Mn3.30+  Mn90  1  -0.00048269  0.16589493  0.25052484  1
  Mn3.30+  Mn91  1  0.00216037  0.16693858  0.74896333  1
  Mn3.30+  Mn92  1  -0.00039922  0.50029586  0.25152731  1
  Mn3.30+  Mn93  1  -0.00127128  0.49964866  0.75012728  1
  Mn3.30+  Mn94  1  0.00179288  0.83266965  0.25206691  1
  Mn3.30+  Mn95  1  0.00145597  0.83225828  0.75077064  1
  Mn3.30+  Mn96  1  0.33479370  0.16834154  0.24967237  1
  Mn3.30+  Mn97  1  0.33312030  0.16702744  0.74842893  1
  Mn3.30+  Mn98  1  0.33444332  0.49966156  0.25007800  1
  Mn3.30+  Mn99  1  0.33329260  0.49951646  0.74861890  1
  Mn3.30+  Mn100  1  0.33309753  0.83123047  0.25179273  1
  Mn3.30+  Mn101  1  0.33173756  0.83474523  0.75202477  1
  Mn3.30+  Mn102  1  0.66329607  0.16785041  0.24984066  1
  Mn3.30+  Mn103  1  0.66555820  0.16781385  0.74944504  1
  Mn3.30+  Mn104  1  0.66256762  0.49968536  0.24977759  1
  Mn3.30+  Mn105  1  0.66620931  0.50073688  0.74821906  1
  Mn3.30+  Mn106  1  0.66830702  0.83262449  0.25115686  1
  Mn3.30+  Mn107  1  0.66939722  0.83543465  0.74873180  1
  Mn3.30+  Mn108  1  0.16680017  -0.00223578  0.25059872  1
  Mn3.30+  Mn109  1  0.16974295  -0.00015917  0.75195247  1
  Mn3.30+  Mn110  1  0.16772377  0.33376576  0.25216871  1
  Mn3.30+  Mn111  1  0.16425107  0.33230357  0.74815385  1
  Mn3.30+  Mn112  1  0.16826345  0.66694795  0.25263443  1
  Mn3.30+  Mn113  1  0.16391857  0.66711306  0.75056667  1
  Mn3.30+  Mn114  1  0.50131830  0.00104885  0.25029390  1
  Mn3.30+  Mn115  1  0.49828094  0.00123811  0.74989295  1
  Mn3.30+  Mn116  1  0.49825481  0.33492266  0.24936157  1
  Mn3.30+  Mn117  1  0.49868021  0.33368585  0.74839730  1
  Mn3.30+  Mn118  1  0.49884999  0.66484078  0.25077556  1
  Mn3.30+  Mn119  1  0.50042508  0.66712708  0.74880253  1
  Mn3.30+  Mn120  1  0.83342775  -0.00167131  0.25084806  1
  Mn3.30+  Mn121  1  0.83480430  -0.00050121  0.74935382  1
  Mn3.30+  Mn122  1  0.83109994  0.33333284  0.24930709  1
  Mn3.30+  Mn123  1  0.83378088  0.33369330  0.74986444  1
  Mn3.30+  Mn124  1  0.83309670  0.66728000  0.25034994  1
  Mn3.30+  Mn125  1  0.83587356  0.66615421  0.75004244  1
  Mn3.30+  Mn126  1  0.00071682  0.16705501  -0.00112635  1
  Mn3.30+  Mn127  1  0.00099958  0.16561697  0.50122026  1
  Mn3.30+  Mn128  1  0.00041307  0.49929437  -0.00147823  1
  Mn3.30+  Mn129  1  -0.00167850  0.50055844  0.49953455  1
  Mn3.30+  Mn130  1  0.00264529  0.83227952  -0.00160539  1
  Mn3.30+  Mn131  1  0.00056541  0.83287296  0.49867515  1
  Mn3.30+  Mn132  1  0.33334571  0.16670623  0.00039458  1
  Mn3.30+  Mn133  1  0.33395685  0.16838793  0.50147071  1
  Mn3.30+  Mn134  1  0.33312921  0.49878735  0.00077842  1
  Mn3.30+  Mn135  1  0.33421434  0.50039639  0.50049251  1
  Mn3.30+  Mn136  1  0.33215767  0.83340029  -0.00189647  1
  Mn3.30+  Mn137  1  0.33287889  0.83285755  0.49821110  1
  Mn3.30+  Mn138  1  0.66500323  0.16797076  -0.00067056  1
  Mn3.30+  Mn139  1  0.66387687  0.16764235  0.50156856  1
  Mn3.30+  Mn140  1  0.66433757  0.49996074  -0.00055485  1
  Mn3.30+  Mn141  1  0.66461970  0.50036883  0.50361270  1
  Mn3.30+  Mn142  1  0.66774136  0.83445272  -0.00119534  1
  Mn3.30+  Mn143  1  0.66980761  0.83367371  0.50143821  1
  O2-  O144  1  0.02497130  0.16197891  0.12600567  1
  O2-  O145  1  0.02745634  0.16002937  0.62428158  1
  O2-  O146  1  0.02495428  0.49301131  0.12806768  1
  O2-  O147  1  0.02445664  0.49380807  0.62237009  1
  O2-  O148  1  0.02744270  0.82685466  0.12377020  1
  O2-  O149  1  0.02752874  0.82772030  0.62592829  1
  O2-  O150  1  0.36028802  0.16085132  0.12592898  1
  O2-  O151  1  0.36326138  0.16206367  0.62544827  1
  O2-  O152  1  0.35774511  0.50115031  0.12502253  1
  O2-  O153  1  0.35938607  0.49353532  0.62518261  1
  O2-  O154  1  0.35944344  0.82471119  0.12631893  1
  O2-  O155  1  0.35818384  0.82712265  0.62386686  1
  O2-  O156  1  0.68933049  0.16504166  0.12590193  1
  O2-  O157  1  0.68429684  0.16586278  0.62472871  1
  O2-  O158  1  0.69027266  0.50158941  0.12149121  1
  O2-  O159  1  0.69529700  0.49332745  0.62612984  1
  O2-  O160  1  0.69151630  0.82551219  0.12414356  1
  O2-  O161  1  0.69541683  0.82740797  0.62458574  1
  O2-  O162  1  0.13979630  0.32929295  0.12813013  1
  O2-  O163  1  0.13967580  0.32834812  0.62216944  1
  O2-  O164  1  0.14334945  0.66067019  0.12568975  1
  O2-  O165  1  0.14146059  0.66235182  0.62279094  1
  O2-  O166  1  0.14231841  0.99203114  0.12375885  1
  O2-  O167  1  0.14240495  0.99128068  0.62512046  1
  O2-  O168  1  0.48161623  0.32634672  0.12532841  1
  O2-  O169  1  0.47302299  0.32380073  0.62463901  1
  O2-  O170  1  0.47655574  0.66309492  0.12286069  1
  O2-  O171  1  0.47488580  0.66512410  0.62463204  1
  O2-  O172  1  0.47491199  0.99106817  0.12549080  1
  O2-  O173  1  0.47299714  0.99219779  0.62444568  1
  O2-  O174  1  0.81179442  0.32922838  0.12456468  1
  O2-  O175  1  0.80792730  0.32862892  0.62448554  1
  O2-  O176  1  0.80658524  0.66025929  0.12319796  1
  O2-  O177  1  0.80888449  0.65728713  0.62542727  1
  O2-  O178  1  0.80821914  0.99318289  0.12685332  1
  O2-  O179  1  0.81113853  0.99238001  0.62277785  1
  O2-  O180  1  0.30998927  0.16980549  0.37523274  1
  O2-  O181  1  0.30731962  0.17438853  0.87366852  1
  O2-  O182  1  0.31027359  0.50977093  0.37619641  1
  O2-  O183  1  0.31342900  0.50433629  0.87352544  1
  O2-  O184  1  0.30656853  0.84196502  0.37465165  1
  O2-  O185  1  0.30559867  0.83999233  0.87527764  1
  O2-  O186  1  0.64067373  0.17030424  0.37630562  1
  O2-  O187  1  0.64116105  0.16977790  0.87305033  1
  O2-  O188  1  0.63895273  0.50588578  0.37906441  1
  O2-  O189  1  0.63889156  0.50650990  0.87344833  1
  O2-  O190  1  0.64003855  0.83775572  0.37708001  1
  O2-  O191  1  0.64296959  0.83555992  0.87439116  1
  O2-  O192  1  0.97307057  0.17190981  0.37414729  1
  O2-  O193  1  0.98460892  0.16980479  0.87546746  1
  O2-  O194  1  0.97144781  0.50797371  0.37500165  1
  O2-  O195  1  0.97601690  0.50824716  0.87401716  1
  O2-  O196  1  0.97356701  0.82892032  0.37439236  1
  O2-  O197  1  0.97419648  0.84106809  0.87529625  1
  O2-  O198  1  0.19285121  0.00831996  0.37590741  1
  O2-  O199  1  0.19774033  0.01178237  0.87510496  1
  O2-  O200  1  0.19396285  0.33899307  0.37589213  1
  O2-  O201  1  0.18849872  0.33156016  0.87331448  1
  O2-  O202  1  0.19402734  0.67304115  0.37559631  1
  O2-  O203  1  0.19038519  0.67064836  0.87570663  1
  O2-  O204  1  0.52870035  0.00825504  0.37542634  1
  O2-  O205  1  0.52091190  0.00308653  0.87471904  1
  O2-  O206  1  0.52425192  0.34107380  0.37728668  1
  O2-  O207  1  0.52326337  0.34162448  0.87332629  1
  O2-  O208  1  0.52646457  0.67041451  0.37848667  1
  O2-  O209  1  0.52483290  0.67493984  0.87433638  1
  O2-  O210  1  0.85156784  0.00860439  0.37401266  1
  O2-  O211  1  0.85790908  0.00079213  0.87645414  1
  O2-  O212  1  0.85538745  0.33833270  0.37595791  1
  O2-  O213  1  0.86053668  0.34156445  0.87453769  1
  O2-  O214  1  0.85698915  0.67227263  0.37635219  1
  O2-  O215  1  0.86298531  0.67405172  0.87488932  1
  O2-  O216  1  0.23852281  0.09353178  0.02396339  1
  O2-  O217  1  0.24006203  0.09555814  0.52158937  1
  O2-  O218  1  0.23516993  0.42674301  0.01809289  1
  O2-  O219  1  0.23776979  0.42912793  0.52037427  1
  O2-  O220  1  0.24073180  0.75867974  0.02175943  1
  O2-  O221  1  0.23938841  0.75937491  0.52305596  1
  O2-  O222  1  0.56899287  0.09497798  0.02045481  1
  O2-  O223  1  0.57033578  0.09647500  0.52243615  1
  O2-  O224  1  0.56763974  0.43307323  0.01571253  1
  O2-  O225  1  0.56831349  0.42921795  0.52467478  1
  O2-  O226  1  0.57169626  0.76121836  0.01967421  1
  O2-  O227  1  0.57338086  0.76308245  0.52096781  1
  O2-  O228  1  0.90873270  0.09237069  0.02301905  1
  O2-  O229  1  0.90864485  0.09123013  0.51698446  1
  O2-  O230  1  0.90381078  0.42885041  0.02094783  1
  O2-  O231  1  0.90433315  0.42949535  0.51907315  1
  O2-  O232  1  0.90451959  0.76057661  0.02214209  1
  O2-  O233  1  0.90584848  0.75963247  0.52452093  1
  O2-  O234  1  0.25638291  0.25560895  0.23163342  1
  O2-  O235  1  0.26382012  0.26268647  0.73005225  1
  O2-  O236  1  0.25989256  0.59280668  0.22889403  1
  O2-  O237  1  0.26092291  0.59416864  0.72957334  1
  O2-  O238  1  0.26491017  0.92675299  0.22863899  1
  O2-  O239  1  0.26217085  0.92801928  0.72660283  1
  O2-  O240  1  0.59405194  0.26333831  0.24003742  1
  O2-  O241  1  0.59322258  0.26553877  0.73344003  1
  O2-  O242  1  0.59664772  0.59752370  0.23323867  1
  O2-  O243  1  0.59856355  0.59571463  0.73086720  1
  O2-  O244  1  0.59718795  0.92867486  0.23012636  1
  O2-  O245  1  0.59268230  0.92818907  0.72625148  1
  O2-  O246  1  0.92796422  0.25976377  0.23012954  1
  O2-  O247  1  0.92889837  0.26135938  0.73214523  1
  O2-  O248  1  0.92741461  0.59394733  0.22845370  1
  O2-  O249  1  0.92771707  0.59405563  0.72958549  1
  O2-  O250  1  0.93105591  0.92466109  0.22705619  1
  O2-  O251  1  0.93336156  0.92743052  0.73230675  1
  O2-  O252  1  0.09219614  0.23953985  0.27250772  1
  O2-  O253  1  0.09698234  0.23696127  0.76574405  1
  O2-  O254  1  0.09571724  0.57333439  0.27242265  1
  O2-  O255  1  0.09335731  0.57068539  0.76183261  1
  O2-  O256  1  0.09894441  0.90048289  0.26827539  1
  O2-  O257  1  0.09795634  0.90404890  0.77271066  1
  O2-  O258  1  0.42754919  0.24025767  0.27053977  1
  O2-  O259  1  0.42655001  0.23966298  0.77403766  1
  O2-  O260  1  0.42847532  0.57187682  0.26881728  1
  O2-  O261  1  0.42783454  0.57571217  0.76993137  1
  O2-  O262  1  0.42973374  0.90435278  0.27157345  1
  O2-  O263  1  0.42918333  0.90348818  0.76763741  1
  O2-  O264  1  0.76074772  0.23750371  0.27026595  1
  O2-  O265  1  0.75719083  0.24628298  0.77029560  1
  O2-  O266  1  0.76067753  0.57129360  0.27066354  1
  O2-  O267  1  0.76102445  0.57491337  0.77411859  1
  O2-  O268  1  0.76259169  0.90169868  0.27171485  1
  O2-  O269  1  0.76313896  0.90474413  0.76797376  1
  O2-  O270  1  0.07570292  0.07377104  0.48063981  1
  O2-  O271  1  0.07473060  0.06933548  0.98136174  1
  O2-  O272  1  0.07013483  0.40737749  0.47749303  1
  O2-  O273  1  0.06633401  0.39978573  0.98353100  1
  O2-  O274  1  0.07025094  0.73705631  0.48193299  1
  O2-  O275  1  0.06936852  0.73549662  0.98129625  1
  O2-  O276  1  0.40408082  0.07267527  0.47860014  1
  O2-  O277  1  0.40373691  0.06966285  0.97899491  1
  O2-  O278  1  0.40216207  0.40403157  0.47881144  1
  O2-  O279  1  0.40565791  0.40612494  0.97865476  1
  O2-  O280  1  0.40465553  0.73968096  0.47834399  1
  O2-  O281  1  0.40449759  0.73978235  0.97758915  1
  O2-  O282  1  0.73658568  0.07240685  0.48359387  1
  O2-  O283  1  0.73940655  0.07398690  0.99001134  1
  O2-  O284  1  0.73478792  0.40677387  0.47980920  1
  O2-  O285  1  0.73931889  0.40960634  0.97578735  1
  O2-  O286  1  0.73669252  0.73682946  0.48227188  1
  O2-  O287  1  0.74062826  0.73801261  0.97829300  1
  O2-  O288  1  0.09298953  0.23997293  0.47509542  1
  O2-  O289  1  0.09684251  0.23577684  0.98642021  1
  O2-  O290  1  0.09493330  0.57228207  0.47817073  1
  O2-  O291  1  0.09365073  0.57107892  0.98734923  1
  O2-  O292  1  0.09958858  0.90105522  0.48213684  1
  O2-  O293  1  0.09947054  0.90472741  0.97609764  1
  O2-  O294  1  0.42866267  0.23896395  0.47876009  1
  O2-  O295  1  0.42562070  0.24074125  0.97714468  1
  O2-  O296  1  0.42786088  0.57156528  0.48310025  1
  O2-  O297  1  0.42733502  0.57604427  0.97736614  1
  O2-  O298  1  0.43053187  0.90595738  0.47822557  1
  O2-  O299  1  0.42935448  0.90219013  0.98301922  1
  O2-  O300  1  0.75766273  0.23874739  0.47731995  1
  O2-  O301  1  0.75960023  0.24345449  0.98117943  1
  O2-  O302  1  0.76082842  0.57367987  0.47832207  1
  O2-  O303  1  0.76166660  0.57324612  0.97648381  1
  O2-  O304  1  0.76181619  0.90424710  0.47596659  1
  O2-  O305  1  0.76507259  0.90290209  0.98426248  1
  O2-  O306  1  0.07430095  0.07482287  0.26669023  1
  O2-  O307  1  0.07668104  0.06952641  0.77059870  1
  O2-  O308  1  0.07052539  0.40676072  0.27369350  1
  O2-  O309  1  0.06586255  0.40171103  0.76526477  1
  O2-  O310  1  0.07123585  0.73605346  0.26668090  1
  O2-  O311  1  0.06866578  0.73671776  0.76904574  1
  O2-  O312  1  0.40576232  0.07175738  0.27151978  1
  O2-  O313  1  0.40255361  0.07111070  0.77184139  1
  O2-  O314  1  0.40353339  0.40574979  0.27383811  1
  O2-  O315  1  0.40431247  0.40436627  0.76932656  1
  O2-  O316  1  0.40470325  0.73752186  0.27275706  1
  O2-  O317  1  0.40341455  0.74176140  0.77091143  1
  O2-  O318  1  0.73442033  0.07317973  0.26827197  1
  O2-  O319  1  0.74128824  0.07426031  0.75902305  1
  O2-  O320  1  0.73583417  0.40828637  0.27157214  1
  O2-  O321  1  0.73649663  0.40815655  0.77193969  1
  O2-  O322  1  0.73692254  0.73640393  0.26804208  1
  O2-  O323  1  0.74092364  0.73774490  0.77066126  1
  O2-  O324  1  0.24107744  0.09228832  0.22959144  1
  O2-  O325  1  0.23892719  0.09688647  0.72527236  1
  O2-  O326  1  0.23621877  0.43146565  0.23395259  1
  O2-  O327  1  0.23665858  0.42470052  0.72714519  1
  O2-  O328  1  0.24014871  0.75879026  0.22682869  1
  O2-  O329  1  0.24038425  0.76020030  0.72927687  1
  O2-  O330  1  0.57029049  0.09717179  0.22628820  1
  O2-  O331  1  0.56868092  0.09463328  0.73033439  1
  O2-  O332  1  0.56610953  0.43315457  0.23376618  1
  O2-  O333  1  0.56949467  0.42928131  0.72745989  1
  O2-  O334  1  0.57093821  0.76168926  0.23167422  1
  O2-  O335  1  0.57366770  0.76196796  0.72911772  1
  O2-  O336  1  0.90523336  0.09485062  0.22848522  1
  O2-  O337  1  0.91385632  0.08926858  0.73188369  1
  O2-  O338  1  0.90369189  0.42716889  0.23104632  1
  O2-  O339  1  0.90227439  0.42992660  0.72807586  1
  O2-  O340  1  0.90804722  0.75851376  0.22599033  1
  O2-  O341  1  0.90429387  0.76215029  0.72781187  1
  O2-  O342  1  0.25736486  0.25937394  0.01860719  1
  O2-  O343  1  0.26255030  0.25957864  0.52059792  1
  O2-  O344  1  0.26070292  0.59440450  0.01862150  1
  O2-  O345  1  0.25984980  0.59254651  0.52338563  1
  O2-  O346  1  0.26272969  0.92637863  0.02454168  1
  O2-  O347  1  0.26386888  0.92948263  0.52054718  1
  O2-  O348  1  0.59238422  0.26285948  0.01066156  1
  O2-  O349  1  0.59557626  0.26598057  0.51603891  1
  O2-  O350  1  0.59689623  0.59791813  0.01513967  1
  O2-  O351  1  0.59788299  0.59584729  0.52263415  1
  O2-  O352  1  0.59276589  0.92778766  0.02235603  1
  O2-  O353  1  0.59791896  0.92841696  0.52146205  1
  O2-  O354  1  0.92523801  0.25929779  0.02132838  1
  O2-  O355  1  0.93089103  0.26149572  0.51662819  1
  O2-  O356  1  0.92500108  0.59206282  0.02362899  1
  O2-  O357  1  0.93052203  0.59657031  0.51782935  1
  O2-  O358  1  0.93126450  0.92671040  0.02129982  1
  O2-  O359  1  0.93260477  0.92570339  0.51951560  1
