# generated using pymatgen
data_Sr7Ca15Pr50Mn72O216
_symmetry_space_group_name_H-M   'P 1'
_cell_length_a   16.55905365
_cell_length_b   16.60542049
_cell_length_c   15.59375502
_cell_angle_alpha   89.99440964
_cell_angle_beta   89.99931703
_cell_angle_gamma   89.99544963
_symmetry_Int_Tables_number   1
_chemical_formula_structural   Sr7Ca15Pr50Mn72O216
_chemical_formula_sum   'Sr7 Ca15 Pr50 Mn72 O216'
_cell_volume   4287.81554514
_cell_formula_units_Z   1
loop_
 _symmetry_equiv_pos_site_id
 _symmetry_equiv_pos_as_xyz
  1  'x, y, z'
loop_
 _atom_type_symbol
 _atom_type_oxidation_number
  Sr2+  2.0
  Ca2+  2.0
  Pr3+  3.0
  Mn3.30+  3.3
  O2-  -2.0
loop_
 _atom_site_type_symbol
 _atom_site_label
 _atom_site_symmetry_multiplicity
 _atom_site_fract_x
 _atom_site_fract_y
 _atom_site_fract_z
 _atom_site_occupancy
  Sr2+  Sr0  1  0.66487641  0.00709983  0.62572483  1
  Sr2+  Sr1  1  0.49919350  0.82399167  0.37725552  1
  Sr2+  Sr2  1  0.33348545  0.32602780  0.37878981  1
  Sr2+  Sr3  1  1.00083805  0.98988324  0.37519346  1
  Sr2+  Sr4  1  0.16682521  0.17635331  0.12566536  1
  Sr2+  Sr5  1  0.16652843  0.48903660  0.37784237  1
  Sr2+  Sr6  1  0.83600350  0.50909605  0.62528494  1
  Ca2+  Ca7  1  0.82966269  0.48301067  0.87155155  1
  Ca2+  Ca8  1  0.32998855  0.68117766  0.12623460  1
  Ca2+  Ca9  1  0.66327114  0.68031449  0.12700093  1
  Ca2+  Ca10  1  0.83200469  0.48659977  0.37903112  1
  Ca2+  Ca11  1  -0.00223648  0.35050514  0.62486307  1
  Ca2+  Ca12  1  0.16687717  0.51125996  0.62321757  1
  Ca2+  Ca13  1  0.16124812  0.81775548  0.87377993  1
  Ca2+  Ca14  1  0.67186739  0.32121872  0.86976993  1
  Ca2+  Ca15  1  0.67144573  0.64929245  0.37463723  1
  Ca2+  Ca16  1  0.66534383  0.35001950  0.62642361  1
  Ca2+  Ca17  1  1.00535490  0.98137051  0.87407092  1
  Ca2+  Ca18  1  0.17017980  0.18361525  0.62431748  1
  Ca2+  Ca19  1  0.50439139  0.84770732  0.62425424  1
  Ca2+  Ca20  1  0.32833764  0.34993520  0.62425215  1
  Ca2+  Ca21  1  -0.00180118  0.67607270  0.62418070  1
  Pr3+  Pr22  1  0.33350334  0.98648558  0.87425909  1
  Pr3+  Pr23  1  -0.00168370  0.01331561  0.12337997  1
  Pr3+  Pr24  1  0.33268192  0.67734435  0.62408969  1
  Pr3+  Pr25  1  0.49796266  0.48900792  0.37605559  1
  Pr3+  Pr26  1  -0.00547323  0.01196551  0.62601516  1
  Pr3+  Pr27  1  0.66386127  0.01319201  0.12438099  1
  Pr3+  Pr28  1  0.33531778  0.32031870  0.87139984  1
  Pr3+  Pr29  1  0.16404996  0.15762872  0.37744734  1
  Pr3+  Pr30  1  -0.00196182  0.34566444  0.12445660  1
  Pr3+  Pr31  1  0.49902664  0.15468940  0.87305284  1
  Pr3+  Pr32  1  1.00201852  0.65164237  0.37736528  1
  Pr3+  Pr33  1  0.50509265  0.50960726  0.62352901  1
  Pr3+  Pr34  1  0.49889290  0.48651165  0.87407040  1
  Pr3+  Pr35  1  0.83756589  0.18041668  0.12462637  1
  Pr3+  Pr36  1  0.49983659  0.84413859  0.12534746  1
  Pr3+  Pr37  1  0.49582656  0.15647992  0.37722767  1
  Pr3+  Pr38  1  0.66406688  0.34706261  0.12404772  1
  Pr3+  Pr39  1  0.67310232  0.65106739  0.87646507  1
  Pr3+  Pr40  1  0.33738141  0.65438152  0.37494356  1
  Pr3+  Pr41  1  0.83602385  0.18326450  0.62491497  1
  Pr3+  Pr42  1  0.50145075  0.18007143  0.12472620  1
  Pr3+  Pr43  1  0.17086901  0.51375177  0.12560229  1
  Pr3+  Pr44  1  0.49746204  0.82068956  0.87220113  1
  Pr3+  Pr45  1  0.83645075  0.51239160  0.12516904  1
  Pr3+  Pr46  1  0.32862202  0.01349320  0.12523660  1
  Pr3+  Pr47  1  0.50431118  0.51671147  0.12604593  1
  Pr3+  Pr48  1  0.83544407  0.84508033  0.12424173  1
  Pr3+  Pr49  1  1.00011162  0.32370717  0.87017774  1
  Pr3+  Pr50  1  0.16315646  0.82072683  0.37639155  1
  Pr3+  Pr51  1  0.50483372  0.18297353  0.62574803  1
  Pr3+  Pr52  1  0.16397965  0.48708108  0.87165595  1
  Pr3+  Pr53  1  0.83146241  0.15419599  0.37703822  1
  Pr3+  Pr54  1  0.33488231  0.65395882  0.87482856  1
  Pr3+  Pr55  1  0.67017491  0.32353961  0.37919153  1
  Pr3+  Pr56  1  0.17103303  0.84533850  0.12412451  1
  Pr3+  Pr57  1  0.33534755  0.98897376  0.37554249  1
  Pr3+  Pr58  1  0.66948021  0.98605380  0.37685623  1
  Pr3+  Pr59  1  1.00387270  0.32551144  0.38012477  1
  Pr3+  Pr60  1  0.33032593  0.01247670  0.62426638  1
  Pr3+  Pr61  1  0.83742927  0.84146171  0.62545736  1
  Pr3+  Pr62  1  0.66382684  0.67750546  0.62360254  1
  Pr3+  Pr63  1  0.66886783  0.98587445  0.87336418  1
  Pr3+  Pr64  1  0.83192369  0.82008690  0.87444967  1
  Pr3+  Pr65  1  0.83126872  0.15484461  0.87297236  1
  Pr3+  Pr66  1  0.82678652  0.81721694  0.37580257  1
  Pr3+  Pr67  1  0.16471716  0.84261754  0.62624943  1
  Pr3+  Pr68  1  0.16051625  0.15256643  0.87279455  1
  Pr3+  Pr69  1  0.32920799  0.34479428  0.12523060  1
  Pr3+  Pr70  1  -0.00145645  0.67935415  0.12584307  1
  Pr3+  Pr71  1  1.00211473  0.65398772  0.87273328  1
  Mn3.30+  Mn72  1  0.16504017  -0.00174060  -0.00281437  1
  Mn3.30+  Mn73  1  0.16482407  0.00132054  0.50250036  1
  Mn3.30+  Mn74  1  0.16626587  0.33272104  -0.00115939  1
  Mn3.30+  Mn75  1  0.16718543  0.33453822  0.50430267  1
  Mn3.30+  Mn76  1  0.16814412  0.66742943  -0.00125939  1
  Mn3.30+  Mn77  1  0.16574506  0.66441037  0.50279711  1
  Mn3.30+  Mn78  1  0.49897167  0.00009288  -0.00075092  1
  Mn3.30+  Mn79  1  0.50011010  -0.00030990  0.50161090  1
  Mn3.30+  Mn80  1  0.50116962  0.33354653  -0.00227713  1
  Mn3.30+  Mn81  1  0.50066344  0.33457028  0.50297747  1
  Mn3.30+  Mn82  1  0.50097711  0.66748018  0.00134987  1
  Mn3.30+  Mn83  1  0.50231057  0.66800013  0.49820432  1
  Mn3.30+  Mn84  1  0.83463414  0.00003585  -0.00265653  1
  Mn3.30+  Mn85  1  0.83271191  -0.00087909  0.50131402  1
  Mn3.30+  Mn86  1  0.83061205  0.33443771  -0.00229882  1
  Mn3.30+  Mn87  1  0.83513789  0.33616649  0.50235714  1
  Mn3.30+  Mn88  1  0.83273036  0.66456305  0.00119133  1
  Mn3.30+  Mn89  1  0.83285647  0.66342296  0.49987638  1
  Mn3.30+  Mn90  1  0.00001743  0.16799753  0.25074824  1
  Mn3.30+  Mn91  1  0.00133324  0.16760118  0.74748566  1
  Mn3.30+  Mn92  1  -0.00002611  0.49972613  0.25130340  1
  Mn3.30+  Mn93  1  -0.00113156  0.50049903  0.74787788  1
  Mn3.30+  Mn94  1  -0.00065834  0.83345631  0.25076181  1
  Mn3.30+  Mn95  1  0.00126421  0.83146838  0.75095629  1
  Mn3.30+  Mn96  1  0.33232776  0.16866481  0.25149986  1
  Mn3.30+  Mn97  1  0.33097773  0.16777550  0.74743850  1
  Mn3.30+  Mn98  1  0.33477393  0.50092438  0.24979159  1
  Mn3.30+  Mn99  1  0.33225097  0.49929577  0.74773244  1
  Mn3.30+  Mn100  1  0.33372565  0.83193581  0.25042206  1
  Mn3.30+  Mn101  1  0.33191269  0.83280124  0.74927642  1
  Mn3.30+  Mn102  1  0.66647821  0.16773068  0.25082181  1
  Mn3.30+  Mn103  1  0.66711522  0.16852415  0.74879424  1
  Mn3.30+  Mn104  1  0.66909023  0.50201500  0.25106704  1
  Mn3.30+  Mn105  1  0.66949727  0.49815813  0.74995674  1
  Mn3.30+  Mn106  1  0.66602095  0.83012806  0.24953429  1
  Mn3.30+  Mn107  1  0.66533003  0.83153042  0.74941361  1
  Mn3.30+  Mn108  1  0.16621485  0.00039294  0.25112136  1
  Mn3.30+  Mn109  1  0.16349471  -0.00062130  0.74914616  1
  Mn3.30+  Mn110  1  0.16639787  0.33355305  0.25155054  1
  Mn3.30+  Mn111  1  0.16710456  0.33395481  0.74512389  1
  Mn3.30+  Mn112  1  0.16775011  0.66641839  0.25044482  1
  Mn3.30+  Mn113  1  0.16602650  0.66598950  0.74799478  1
  Mn3.30+  Mn114  1  0.49938933  0.00068419  0.25000675  1
  Mn3.30+  Mn115  1  0.49942099  -0.00074954  0.74888786  1
  Mn3.30+  Mn116  1  0.49959785  0.33446529  0.25014292  1
  Mn3.30+  Mn117  1  0.50213172  0.33410862  0.74966784  1
  Mn3.30+  Mn118  1  0.50225750  0.66861099  0.25025264  1
  Mn3.30+  Mn119  1  0.50121346  0.66620149  0.75001721  1
  Mn3.30+  Mn120  1  0.83284437  -0.00071144  0.25005410  1
  Mn3.30+  Mn121  1  0.83496104  -0.00053556  0.75091984  1
  Mn3.30+  Mn122  1  0.83304957  0.33477460  0.25202074  1
  Mn3.30+  Mn123  1  0.83305562  0.33552533  0.74817762  1
  Mn3.30+  Mn124  1  0.83057125  0.66413277  0.25003659  1
  Mn3.30+  Mn125  1  0.83512954  0.66388944  0.74917815  1
  Mn3.30+  Mn126  1  -0.00067705  0.16680155  -0.00247711  1
  Mn3.30+  Mn127  1  0.00157908  0.16860725  0.50381991  1
  Mn3.30+  Mn128  1  -0.00091027  0.49996518  -0.00228071  1
  Mn3.30+  Mn129  1  -0.00001554  0.50035512  0.50295734  1
  Mn3.30+  Mn130  1  0.00246948  0.83337331  -0.00083041  1
  Mn3.30+  Mn131  1  -0.00161337  0.83192829  0.49930425  1
  Mn3.30+  Mn132  1  0.33173232  0.16667022  -0.00223524  1
  Mn3.30+  Mn133  1  0.33164299  0.16972106  0.50325744  1
  Mn3.30+  Mn134  1  0.33411212  0.50095248  -0.00006161  1
  Mn3.30+  Mn135  1  0.33315778  0.49925095  0.50210066  1
  Mn3.30+  Mn136  1  0.33140478  0.83119980  -0.00260504  1
  Mn3.30+  Mn137  1  0.33423767  0.83367267  0.50258845  1
  Mn3.30+  Mn138  1  0.66734671  0.16874304  -0.00182997  1
  Mn3.30+  Mn139  1  0.66616429  0.16735853  0.50292766  1
  Mn3.30+  Mn140  1  0.66887832  0.49950058  -0.00030086  1
  Mn3.30+  Mn141  1  0.66981057  0.50055784  0.49986154  1
  Mn3.30+  Mn142  1  0.66620132  0.83124220  0.00129897  1
  Mn3.30+  Mn143  1  0.66481713  0.83051823  0.49972802  1
  O2-  O144  1  0.01691452  0.16220991  0.12265788  1
  O2-  O145  1  0.02855219  0.15629182  0.62676542  1
  O2-  O146  1  0.02568765  0.49411883  0.12232637  1
  O2-  O147  1  0.02524974  0.49464166  0.62664059  1
  O2-  O148  1  0.02682575  0.82721825  0.12530388  1
  O2-  O149  1  0.02054427  0.82452593  0.62574474  1
  O2-  O150  1  0.35736936  0.16160033  0.12141400  1
  O2-  O151  1  0.36137050  0.15826949  0.62571446  1
  O2-  O152  1  0.35966967  0.49153367  0.12315193  1
  O2-  O153  1  0.36077750  0.49805854  0.62608874  1
  O2-  O154  1  0.35612830  0.82777385  0.12157508  1
  O2-  O155  1  0.36196099  0.82704730  0.62568302  1
  O2-  O156  1  0.69344430  0.16092956  0.12294904  1
  O2-  O157  1  0.69245035  0.15967009  0.62523894  1
  O2-  O158  1  0.69399922  0.49185584  0.12496987  1
  O2-  O159  1  0.68545150  0.49778246  0.62606833  1
  O2-  O160  1  0.69153317  0.82824083  0.12410090  1
  O2-  O161  1  0.69266897  0.82642017  0.62521054  1
  O2-  O162  1  0.14255333  0.33197356  0.12389628  1
  O2-  O163  1  0.13803815  0.32574319  0.62638864  1
  O2-  O164  1  0.14209933  0.66201263  0.12357877  1
  O2-  O165  1  0.14066257  0.66179924  0.62559337  1
  O2-  O166  1  0.14250923  0.99376801  0.12269857  1
  O2-  O167  1  0.13704430  0.98988151  0.62651643  1
  O2-  O168  1  0.47401935  0.32772005  0.12196497  1
  O2-  O169  1  0.47286412  0.33134904  0.62665909  1
  O2-  O170  1  0.47250944  0.66328352  0.12461288  1
  O2-  O171  1  0.47648542  0.65627928  0.62665471  1
  O2-  O172  1  0.47342781  0.99594581  0.12196207  1
  O2-  O173  1  0.47564209  0.99447348  0.62568013  1
  O2-  O174  1  0.80757367  0.32737691  0.12388319  1
  O2-  O175  1  0.80633157  0.32962445  0.62507377  1
  O2-  O176  1  0.80525241  0.65874869  0.12536904  1
  O2-  O177  1  0.80817024  0.66762335  0.62555842  1
  O2-  O178  1  0.80773981  0.99566994  0.12301728  1
  O2-  O179  1  0.81498417  0.99226465  0.62712497  1
  O2-  O180  1  0.30862174  0.16914800  0.38060742  1
  O2-  O181  1  0.30567901  0.17245729  0.87232523  1
  O2-  O182  1  0.31643924  0.50656069  0.37596822  1
  O2-  O183  1  0.30849361  0.50570948  0.87452724  1
  O2-  O184  1  0.30697441  0.84002555  0.37905559  1
  O2-  O185  1  0.30311982  0.83845502  0.87316309  1
  O2-  O186  1  0.64042804  0.17499327  0.37851311  1
  O2-  O187  1  0.64220145  0.17582793  0.87449796  1
  O2-  O188  1  0.64172939  0.50279406  0.37302720  1
  O2-  O189  1  0.64113315  0.50683527  0.87626576  1
  O2-  O190  1  0.64830691  0.83984159  0.37323009  1
  O2-  O191  1  0.64221846  0.83646888  0.87697783  1
  O2-  O192  1  0.97520124  0.17562377  0.37814939  1
  O2-  O193  1  0.97444435  0.17639942  0.87197760  1
  O2-  O194  1  0.97537136  0.50404583  0.37592736  1
  O2-  O195  1  0.97349446  0.50646708  0.87527840  1
  O2-  O196  1  0.97241719  0.83540201  0.37246287  1
  O2-  O197  1  0.97510659  0.83618409  0.87658967  1
  O2-  O198  1  0.19147206  0.00648488  0.37892955  1
  O2-  O199  1  0.19148830  0.00654847  0.87196266  1
  O2-  O200  1  0.18410984  0.33183112  0.37729322  1
  O2-  O201  1  0.19206630  0.33939785  0.87231096  1
  O2-  O202  1  0.19240883  0.67252870  0.37749074  1
  O2-  O203  1  0.19170463  0.67158633  0.87356622  1
  O2-  O204  1  0.52489489  0.00830741  0.37586895  1
  O2-  O205  1  0.52428321  0.00530236  0.87638752  1
  O2-  O206  1  0.52560717  0.33774807  0.37705571  1
  O2-  O207  1  0.52860058  0.33812988  0.87538998  1
  O2-  O208  1  0.52766947  0.66860851  0.37348597  1
  O2-  O209  1  0.52836070  0.67298258  0.87436914  1
  O2-  O210  1  0.85077398  0.00427600  0.37544549  1
  O2-  O211  1  0.86171023  0.00540788  0.87419323  1
  O2-  O212  1  0.85850820  0.33662126  0.37717785  1
  O2-  O213  1  0.85624269  0.33524760  0.87393942  1
  O2-  O214  1  0.85927442  0.67244518  0.37329203  1
  O2-  O215  1  0.85784117  0.67359220  0.87616251  1
  O2-  O216  1  0.24056529  0.09218260  0.01591496  1
  O2-  O217  1  0.23815178  0.09448116  0.52432447  1
  O2-  O218  1  0.23822088  0.42835691  0.01923549  1
  O2-  O219  1  0.23884611  0.42709863  0.52207455  1
  O2-  O220  1  0.23799090  0.76082920  0.01972611  1
  O2-  O221  1  0.23881930  0.76039633  0.52220857  1
  O2-  O222  1  0.57392277  0.09612980  0.01970555  1
  O2-  O223  1  0.56865837  0.09771351  0.51837976  1
  O2-  O224  1  0.57205981  0.43117741  0.02180272  1
  O2-  O225  1  0.57314183  0.42932353  0.51632322  1
  O2-  O226  1  0.56818198  0.76306634  0.01895953  1
  O2-  O227  1  0.57185793  0.76026766  0.52477509  1
  O2-  O228  1  0.90368858  0.09476755  0.01915168  1
  O2-  O229  1  0.90676677  0.09640286  0.51981261  1
  O2-  O230  1  0.90406014  0.42528868  0.02079858  1
  O2-  O231  1  0.90843520  0.42709966  0.51690427  1
  O2-  O232  1  0.90625742  0.76130403  0.02175538  1
  O2-  O233  1  0.90026399  0.76203745  0.51465947  1
  O2-  O234  1  0.26112397  0.26209986  0.23183502  1
  O2-  O235  1  0.26548509  0.26559764  0.73010441  1
  O2-  O236  1  0.26300126  0.59466834  0.22874664  1
  O2-  O237  1  0.26293192  0.59642299  0.73207414  1
  O2-  O238  1  0.26118699  0.92741034  0.23019200  1
  O2-  O239  1  0.25977528  0.92881018  0.72689227  1
  O2-  O240  1  0.59455124  0.26174258  0.22891556  1
  O2-  O241  1  0.59584792  0.26300102  0.72580022  1
  O2-  O242  1  0.59626227  0.59433559  0.22617437  1
  O2-  O243  1  0.59657693  0.59452352  0.73199754  1
  O2-  O244  1  0.59339266  0.92942122  0.22907117  1
  O2-  O245  1  0.59300581  0.92483633  0.73763828  1
  O2-  O246  1  0.92614277  0.26144094  0.22914582  1
  O2-  O247  1  0.92945540  0.26270523  0.72704584  1
  O2-  O248  1  0.92801394  0.59513462  0.22857461  1
  O2-  O249  1  0.93209818  0.59905951  0.73193777  1
  O2-  O250  1  0.92729084  0.92630023  0.22510128  1
  O2-  O251  1  0.92935559  0.92468197  0.73099720  1
  O2-  O252  1  0.09245221  0.24072833  0.27080579  1
  O2-  O253  1  0.09504887  0.23966383  0.77187191  1
  O2-  O254  1  0.09356172  0.57435858  0.26621481  1
  O2-  O255  1  0.09390107  0.57327002  0.77307848  1
  O2-  O256  1  0.09767377  0.90454161  0.26802619  1
  O2-  O257  1  0.09684856  0.90124506  0.76833887  1
  O2-  O258  1  0.43036580  0.23733060  0.26587876  1
  O2-  O259  1  0.43131182  0.23949991  0.77117100  1
  O2-  O260  1  0.43160319  0.57420039  0.26890273  1
  O2-  O261  1  0.42939560  0.57351370  0.77249324  1
  O2-  O262  1  0.42492874  0.90887610  0.26654365  1
  O2-  O263  1  0.42232572  0.90614693  0.77350341  1
  O2-  O264  1  0.76139223  0.23782272  0.27131040  1
  O2-  O265  1  0.76486503  0.23602637  0.76612664  1
  O2-  O266  1  0.76631394  0.56572033  0.27002869  1
  O2-  O267  1  0.76210360  0.57207824  0.77305513  1
  O2-  O268  1  0.76095726  0.90406753  0.26677665  1
  O2-  O269  1  0.75957958  0.90398597  0.77151002  1
  O2-  O270  1  0.07383922  0.07471320  0.48125386  1
  O2-  O271  1  0.07017956  0.06983689  0.97826220  1
  O2-  O272  1  0.07156212  0.40573073  0.48422794  1
  O2-  O273  1  0.07089163  0.40588039  0.97717947  1
  O2-  O274  1  0.07240652  0.74104107  0.47780316  1
  O2-  O275  1  0.06962121  0.73557820  0.98219716  1
  O2-  O276  1  0.40441464  0.07367938  0.48034309  1
  O2-  O277  1  0.40431206  0.07292892  0.97741940  1
  O2-  O278  1  0.41114739  0.41108200  0.48287053  1
  O2-  O279  1  0.40566683  0.40519621  0.97682242  1
  O2-  O280  1  0.40369807  0.73666807  0.48243861  1
  O2-  O281  1  0.40494645  0.74119721  0.97432558  1
  O2-  O282  1  0.73808237  0.07406900  0.47871940  1
  O2-  O283  1  0.73648020  0.07310364  0.97704783  1
  O2-  O284  1  0.73952202  0.40578182  0.48078491  1
  O2-  O285  1  0.73404396  0.39960029  0.98117063  1
  O2-  O286  1  0.73694981  0.73450424  0.47932443  1
  O2-  O287  1  0.74085752  0.73864127  0.97912615  1
  O2-  O288  1  0.09379362  0.23981407  0.48077022  1
  O2-  O289  1  0.09284679  0.23996139  0.97693867  1
  O2-  O290  1  0.09182020  0.57497879  0.48099551  1
  O2-  O291  1  0.09762813  0.57271049  0.97917392  1
  O2-  O292  1  0.09559977  0.90349351  0.48360503  1
  O2-  O293  1  0.09762448  0.90065227  0.98052118  1
  O2-  O294  1  0.43208415  0.23788008  0.48485882  1
  O2-  O295  1  0.42706153  0.23742754  0.97715618  1
  O2-  O296  1  0.42980712  0.57509826  0.48018783  1
  O2-  O297  1  0.43101474  0.57272553  0.97874544  1
  O2-  O298  1  0.42167035  0.91190318  0.48077570  1
  O2-  O299  1  0.42508675  0.90361381  0.97746724  1
  O2-  O300  1  0.76292545  0.23860997  0.48060639  1
  O2-  O301  1  0.76417713  0.23538368  0.98219544  1
  O2-  O302  1  0.76337619  0.57078904  0.47922877  1
  O2-  O303  1  0.76399503  0.56640016  0.97777609  1
  O2-  O304  1  0.75894965  0.90263668  0.48230403  1
  O2-  O305  1  0.76145642  0.90623519  0.97886514  1
  O2-  O306  1  0.07461460  0.07565741  0.26631027  1
  O2-  O307  1  0.06902301  0.06925989  0.77344423  1
  O2-  O308  1  0.07003607  0.40311074  0.26617331  1
  O2-  O309  1  0.07334516  0.40738777  0.77228131  1
  O2-  O310  1  0.07092217  0.73863465  0.27078401  1
  O2-  O311  1  0.07217093  0.73874976  0.77020284  1
  O2-  O312  1  0.40600376  0.07372726  0.26985100  1
  O2-  O313  1  0.40284570  0.07296306  0.77064487  1
  O2-  O314  1  0.40929955  0.40796987  0.26736991  1
  O2-  O315  1  0.40712993  0.40666732  0.77281932  1
  O2-  O316  1  0.40386662  0.73919470  0.26928850  1
  O2-  O317  1  0.40589346  0.73784879  0.77214224  1
  O2-  O318  1  0.73616232  0.07218418  0.26957245  1
  O2-  O319  1  0.73933290  0.07321485  0.77418799  1
  O2-  O320  1  0.73629059  0.40180604  0.26805263  1
  O2-  O321  1  0.73692809  0.40462132  0.76965683  1
  O2-  O322  1  0.73964566  0.73494403  0.27177026  1
  O2-  O323  1  0.73801865  0.73734972  0.77035939  1
  O2-  O324  1  0.24193522  0.09133849  0.23340488  1
  O2-  O325  1  0.23413294  0.09466305  0.72740179  1
  O2-  O326  1  0.23988991  0.42641357  0.22888085  1
  O2-  O327  1  0.23492875  0.43013885  0.72966505  1
  O2-  O328  1  0.23608692  0.76262026  0.23377758  1
  O2-  O329  1  0.24107535  0.75897774  0.72526570  1
  O2-  O330  1  0.57201537  0.09569057  0.22846805  1
  O2-  O331  1  0.57077494  0.09892042  0.73517731  1
  O2-  O332  1  0.57320434  0.42910326  0.22897070  1
  O2-  O333  1  0.56931499  0.43075338  0.73353640  1
  O2-  O334  1  0.57024504  0.76228439  0.22721408  1
  O2-  O335  1  0.57056370  0.76091331  0.72794509  1
  O2-  O336  1  0.90478317  0.09411638  0.23231035  1
  O2-  O337  1  0.90584911  0.09731760  0.72805658  1
  O2-  O338  1  0.90658367  0.42639178  0.22723236  1
  O2-  O339  1  0.90713067  0.42641626  0.73570175  1
  O2-  O340  1  0.90313021  0.75945055  0.22721643  1
  O2-  O341  1  0.90243081  0.76303171  0.73629404  1
  O2-  O342  1  0.26461751  0.26335041  0.01524791  1
  O2-  O343  1  0.26207628  0.26201190  0.52428057  1
  O2-  O344  1  0.26294821  0.59588685  0.02106208  1
  O2-  O345  1  0.26377632  0.59476573  0.51889406  1
  O2-  O346  1  0.26279861  0.92787368  0.01986797  1
  O2-  O347  1  0.25856680  0.92761768  0.52305744  1
  O2-  O348  1  0.59311387  0.25899203  0.02407827  1
  O2-  O349  1  0.59679894  0.26349940  0.52400013  1
  O2-  O350  1  0.59898429  0.59580906  0.02180388  1
  O2-  O351  1  0.59479661  0.59331948  0.51928770  1
  O2-  O352  1  0.59410935  0.92784762  0.02079930  1
  O2-  O353  1  0.59230628  0.92667073  0.51320115  1
  O2-  O354  1  0.92629387  0.26254139  0.01855226  1
  O2-  O355  1  0.92870740  0.26202825  0.52441760  1
  O2-  O356  1  0.92905424  0.59526190  0.02228983  1
  O2-  O357  1  0.93144799  0.59870480  0.51743514  1
  O2-  O358  1  0.92955636  0.92535401  0.02238021  1
  O2-  O359  1  0.92739638  0.92477759  0.52113308  1
