# generated using pymatgen
data_Sr7Ca15Pr50Mn72O216
_symmetry_space_group_name_H-M   'P 1'
_cell_length_a   16.55364245
_cell_length_b   16.60207397
_cell_length_c   15.58957491
_cell_angle_alpha   90.00131911
_cell_angle_beta   89.99417937
_cell_angle_gamma   89.99954116
_symmetry_Int_Tables_number   1
_chemical_formula_structural   Sr7Ca15Pr50Mn72O216
_chemical_formula_sum   'Sr7 Ca15 Pr50 Mn72 O216'
_cell_volume   4284.40172823
_cell_formula_units_Z   1
loop_
 _symmetry_equiv_pos_site_id
 _symmetry_equiv_pos_as_xyz
  1  'x, y, z'
loop_
 _atom_type_symbol
 _atom_type_oxidation_number
  Sr2+  2.0
  Ca2+  2.0
  Pr3+  3.0
  Mn3.30+  3.3
  O2-  -2.0
loop_
 _atom_site_type_symbol
 _atom_site_label
 _atom_site_symmetry_multiplicity
 _atom_site_fract_x
 _atom_site_fract_y
 _atom_site_fract_z
 _atom_site_occupancy
  Sr2+  Sr0  1  0.33269502  0.67783203  0.62479013  1
  Sr2+  Sr1  1  0.66693187  0.01162437  0.62454435  1
  Sr2+  Sr2  1  0.66707646  0.00951152  0.12593165  1
  Sr2+  Sr3  1  -0.00287982  0.01031839  0.12790671  1
  Sr2+  Sr4  1  1.00337469  0.65539301  0.87399098  1
  Sr2+  Sr5  1  1.00611732  0.65577802  0.37569365  1
  Sr2+  Sr6  1  0.49972579  0.50938026  0.12368085  1
  Ca2+  Ca7  1  0.16407010  0.18120973  0.12747356  1
  Ca2+  Ca8  1  0.83449816  0.15410419  0.37468269  1
  Ca2+  Ca9  1  0.16628819  0.18117889  0.62261447  1
  Ca2+  Ca10  1  0.49703517  0.48566353  0.87630300  1
  Ca2+  Ca11  1  1.00440820  0.31806594  0.87656328  1
  Ca2+  Ca12  1  0.83958658  0.51265940  0.12553459  1
  Ca2+  Ca13  1  0.32959983  0.68032620  0.12566633  1
  Ca2+  Ca14  1  -0.00233974  0.34794676  0.12642021  1
  Ca2+  Ca15  1  0.16180863  0.81852006  0.37480806  1
  Ca2+  Ca16  1  0.15887308  0.48230736  0.37394022  1
  Ca2+  Ca17  1  1.00300488  0.31959707  0.37343642  1
  Ca2+  Ca18  1  1.00336743  0.98329562  0.37411442  1
  Ca2+  Ca19  1  0.32311654  0.01753426  0.12654286  1
  Ca2+  Ca20  1  0.83728936  0.18219086  0.62254387  1
  Ca2+  Ca21  1  0.00043225  0.68040339  0.62336694  1
  Pr3+  Pr22  1  0.16022776  0.48358743  0.87549241  1
  Pr3+  Pr23  1  0.84021338  0.51474264  0.62425173  1
  Pr3+  Pr24  1  0.66767976  0.34213027  0.62492950  1
  Pr3+  Pr25  1  0.50217327  0.51197595  0.62607413  1
  Pr3+  Pr26  1  0.49794829  0.82160904  0.37476586  1
  Pr3+  Pr27  1  0.83423701  0.15751096  0.87353043  1
  Pr3+  Pr28  1  0.66817869  0.32279728  0.87708449  1
  Pr3+  Pr29  1  0.33361758  0.98791099  0.87711520  1
  Pr3+  Pr30  1  0.83840647  0.84819067  0.12592719  1
  Pr3+  Pr31  1  0.66960678  0.98994998  0.37437348  1
  Pr3+  Pr32  1  0.33786205  0.65149746  0.87559715  1
  Pr3+  Pr33  1  0.66686955  0.34545655  0.12527195  1
  Pr3+  Pr34  1  0.33129304  0.32188326  0.37311468  1
  Pr3+  Pr35  1  0.67325240  0.65337536  0.37429876  1
  Pr3+  Pr36  1  0.84043598  0.18014317  0.12650532  1
  Pr3+  Pr37  1  0.83572454  0.48666382  0.87707520  1
  Pr3+  Pr38  1  0.15855544  0.15324746  0.37492422  1
  Pr3+  Pr39  1  0.33118865  0.65617585  0.37421123  1
  Pr3+  Pr40  1  0.83910789  0.84552043  0.62399466  1
  Pr3+  Pr41  1  0.66843100  0.98876075  0.87575284  1
  Pr3+  Pr42  1  0.16079217  0.15562284  0.87528388  1
  Pr3+  Pr43  1  0.66387629  0.67984708  0.62462502  1
  Pr3+  Pr44  1  0.16926645  0.51337788  0.62272758  1
  Pr3+  Pr45  1  0.32829087  0.34457850  0.12593266  1
  Pr3+  Pr46  1  -0.00179304  0.34325867  0.62416441  1
  Pr3+  Pr47  1  0.83437395  0.82302682  0.37325525  1
  Pr3+  Pr48  1  0.67094850  0.65184348  0.87586124  1
  Pr3+  Pr49  1  0.83504162  0.48734576  0.37270761  1
  Pr3+  Pr50  1  0.32622235  0.01413316  0.62376617  1
  Pr3+  Pr51  1  1.00280613  0.98755382  0.87624344  1
  Pr3+  Pr52  1  0.17118710  0.51267330  0.12726710  1
  Pr3+  Pr53  1  0.49549646  0.15393589  0.87629662  1
  Pr3+  Pr54  1  0.83172150  0.82076994  0.87671791  1
  Pr3+  Pr55  1  0.49718583  0.82198082  0.87527018  1
  Pr3+  Pr56  1  0.16383133  0.81888795  0.87538095  1
  Pr3+  Pr57  1  0.16598501  0.84140559  0.62232207  1
  Pr3+  Pr58  1  0.17062786  0.84617554  0.12791799  1
  Pr3+  Pr59  1  0.33259956  0.98605708  0.37309799  1
  Pr3+  Pr60  1  0.50185659  0.17788957  0.12573563  1
  Pr3+  Pr61  1  0.66490925  0.67704447  0.12550935  1
  Pr3+  Pr62  1  -0.00633105  0.01554528  0.62215774  1
  Pr3+  Pr63  1  0.50251537  0.84702502  0.62437557  1
  Pr3+  Pr64  1  0.49904267  0.84423921  0.12573326  1
  Pr3+  Pr65  1  0.67376895  0.31822289  0.37307019  1
  Pr3+  Pr66  1  -0.00119857  0.67772538  0.12533819  1
  Pr3+  Pr67  1  0.33499336  0.32170349  0.87661209  1
  Pr3+  Pr68  1  0.50342723  0.17912231  0.62419113  1
  Pr3+  Pr69  1  0.32718633  0.34525661  0.62382771  1
  Pr3+  Pr70  1  0.49883289  0.48837094  0.37378183  1
  Pr3+  Pr71  1  0.49637919  0.15357096  0.37401017  1
  Mn3.30+  Mn72  1  0.16701961  0.00234139  0.00308484  1
  Mn3.30+  Mn73  1  0.16221589  -0.00078782  0.49877265  1
  Mn3.30+  Mn74  1  0.16296212  0.33189253  0.00281784  1
  Mn3.30+  Mn75  1  0.16319724  0.33225633  0.49835650  1
  Mn3.30+  Mn76  1  0.16851547  0.66533336  0.00060790  1
  Mn3.30+  Mn77  1  0.16573308  0.66608632  0.49958320  1
  Mn3.30+  Mn78  1  0.49693747  0.00010775  0.00333100  1
  Mn3.30+  Mn79  1  0.49886630  0.00080289  0.49953609  1
  Mn3.30+  Mn80  1  0.49983691  0.33436582  0.00050036  1
  Mn3.30+  Mn81  1  0.49965369  0.33327790  0.49865146  1
  Mn3.30+  Mn82  1  0.49921784  0.66489255  0.00115773  1
  Mn3.30+  Mn83  1  0.50051876  0.66652760  0.49904056  1
  Mn3.30+  Mn84  1  0.83412737  0.00226507  0.00041368  1
  Mn3.30+  Mn85  1  0.83493394  0.00322796  0.49807782  1
  Mn3.30+  Mn86  1  0.83824151  0.33428358  0.00050994  1
  Mn3.30+  Mn87  1  0.83624588  0.33139329  0.49827656  1
  Mn3.30+  Mn88  1  0.83473963  0.66413340  0.00106850  1
  Mn3.30+  Mn89  1  0.83741852  0.66702536  0.49940464  1
  Mn3.30+  Mn90  1  -0.00036105  0.16724839  0.25139375  1
  Mn3.30+  Mn91  1  -0.00028020  0.16811502  0.74785880  1
  Mn3.30+  Mn92  1  0.00186927  0.49804848  0.24989337  1
  Mn3.30+  Mn93  1  0.00141367  0.49943562  0.74981648  1
  Mn3.30+  Mn94  1  0.00335819  0.83373669  0.25158218  1
  Mn3.30+  Mn95  1  0.00068693  0.83248637  0.74957372  1
  Mn3.30+  Mn96  1  0.32867838  0.16592159  0.24890920  1
  Mn3.30+  Mn97  1  0.33029413  0.16729201  0.74904340  1
  Mn3.30+  Mn98  1  0.33098953  0.50133692  0.25118379  1
  Mn3.30+  Mn99  1  0.33343176  0.49928460  0.75062359  1
  Mn3.30+  Mn100  1  0.33100244  0.83288192  0.25032019  1
  Mn3.30+  Mn101  1  0.33234900  0.83344950  0.74905195  1
  Mn3.30+  Mn102  1  0.66954058  0.16562112  0.24964724  1
  Mn3.30+  Mn103  1  0.66717239  0.16733731  0.74914360  1
  Mn3.30+  Mn104  1  0.66878454  0.49932669  0.24770480  1
  Mn3.30+  Mn105  1  0.66771260  0.49875780  0.75122287  1
  Mn3.30+  Mn106  1  0.66642157  0.83391767  0.24940983  1
  Mn3.30+  Mn107  1  0.66699366  0.83391973  0.75034514  1
  Mn3.30+  Mn108  1  0.16458797  0.00075384  0.25011465  1
  Mn3.30+  Mn109  1  0.16475337  0.00121084  0.74815927  1
  Mn3.30+  Mn110  1  0.16156609  0.33293000  0.24964468  1
  Mn3.30+  Mn111  1  0.16468777  0.33137675  0.74933474  1
  Mn3.30+  Mn112  1  0.16701011  0.66604509  0.25079282  1
  Mn3.30+  Mn113  1  0.16734460  0.66520189  0.74909744  1
  Mn3.30+  Mn114  1  0.49683055  -0.00006068  0.24764956  1
  Mn3.30+  Mn115  1  0.49874681  0.00091667  0.74969528  1
  Mn3.30+  Mn116  1  0.50066852  0.33342490  0.25048564  1
  Mn3.30+  Mn117  1  0.49884297  0.33444088  0.75013851  1
  Mn3.30+  Mn118  1  0.49892642  0.66587122  0.24859309  1
  Mn3.30+  Mn119  1  0.50084459  0.66560734  0.75103364  1
  Mn3.30+  Mn120  1  0.83594308  0.00280709  0.25293150  1
  Mn3.30+  Mn121  1  0.83353585  0.00221140  0.74865135  1
  Mn3.30+  Mn122  1  0.83880664  0.33345410  0.25008952  1
  Mn3.30+  Mn123  1  0.83553466  0.33269149  0.75080709  1
  Mn3.30+  Mn124  1  0.83609969  0.66487594  0.24901182  1
  Mn3.30+  Mn125  1  0.83599182  0.66662556  0.75011057  1
  Mn3.30+  Mn126  1  0.00132310  0.16848316  0.00305536  1
  Mn3.30+  Mn127  1  -0.00226421  0.16703977  0.49787739  1
  Mn3.30+  Mn128  1  0.00059355  0.49754467  0.00159298  1
  Mn3.30+  Mn129  1  0.00291580  0.49942705  0.49827516  1
  Mn3.30+  Mn130  1  0.00134022  0.83314803  0.00051148  1
  Mn3.30+  Mn131  1  0.00247865  0.83293664  0.49853377  1
  Mn3.30+  Mn132  1  0.32903535  0.16624217  0.00249478  1
  Mn3.30+  Mn133  1  0.32964157  0.16677168  0.49910804  1
  Mn3.30+  Mn134  1  0.33365074  0.50066582  0.00105405  1
  Mn3.30+  Mn135  1  0.33084606  0.50037475  0.49709060  1
  Mn3.30+  Mn136  1  0.33220830  0.83344773  0.00180770  1
  Mn3.30+  Mn137  1  0.33100674  0.83285530  0.49896777  1
  Mn3.30+  Mn138  1  0.66734303  0.16642031  0.00099780  1
  Mn3.30+  Mn139  1  0.66991177  0.16641104  0.49997109  1
  Mn3.30+  Mn140  1  0.66748856  0.49927383  0.00057891  1
  Mn3.30+  Mn141  1  0.66903946  0.49844481  0.50025755  1
  Mn3.30+  Mn142  1  0.66565896  0.83342269  0.00123750  1
  Mn3.30+  Mn143  1  0.66793334  0.83435462  0.49929747  1
  O2-  O144  1  0.02369561  0.16021738  0.12670139  1
  O2-  O145  1  0.02582690  0.16106151  0.62347194  1
  O2-  O146  1  0.02759751  0.49291395  0.12596662  1
  O2-  O147  1  0.02583154  0.48949205  0.62437424  1
  O2-  O148  1  0.02396485  0.82932760  0.12539521  1
  O2-  O149  1  0.02065980  0.83049763  0.62499248  1
  O2-  O150  1  0.35845375  0.16370472  0.12647392  1
  O2-  O151  1  0.35941389  0.16247633  0.62342089  1
  O2-  O152  1  0.35057198  0.49163277  0.12642530  1
  O2-  O153  1  0.35820792  0.49288571  0.62228128  1
  O2-  O154  1  0.35711397  0.82413321  0.12564236  1
  O2-  O155  1  0.35931271  0.83327717  0.62377165  1
  O2-  O156  1  0.69412988  0.16527202  0.12436325  1
  O2-  O157  1  0.69241398  0.16923961  0.62443317  1
  O2-  O158  1  0.69578557  0.49473127  0.12400682  1
  O2-  O159  1  0.69483967  0.49211981  0.62459713  1
  O2-  O160  1  0.69363433  0.82684289  0.12509204  1
  O2-  O161  1  0.69340357  0.82799626  0.62388389  1
  O2-  O162  1  0.13988030  0.32765161  0.12601335  1
  O2-  O163  1  0.14288649  0.32748816  0.62394428  1
  O2-  O164  1  0.14362619  0.66092081  0.12475273  1
  O2-  O165  1  0.14351358  0.66075896  0.62515624  1
  O2-  O166  1  0.14446472  0.99126161  0.12684994  1
  O2-  O167  1  0.13722944  0.98840269  0.62209501  1
  O2-  O168  1  0.47449050  0.32647159  0.12580279  1
  O2-  O169  1  0.47211806  0.32673589  0.62257868  1
  O2-  O170  1  0.47255626  0.66483099  0.12523062  1
  O2-  O171  1  0.48187215  0.65949482  0.62541129  1
  O2-  O172  1  0.46717594  0.99285648  0.12597815  1
  O2-  O173  1  0.47222348  0.99581412  0.62438623  1
  O2-  O174  1  0.80894314  0.32622935  0.12492193  1
  O2-  O175  1  0.81011712  0.32895751  0.62474844  1
  O2-  O176  1  0.80868337  0.66019652  0.12463572  1
  O2-  O177  1  0.80751675  0.66363077  0.62465125  1
  O2-  O178  1  0.81707386  0.99674304  0.12693960  1
  O2-  O179  1  0.81496412  0.99111308  0.62462181  1
  O2-  O180  1  0.30490620  0.17235194  0.37381311  1
  O2-  O181  1  0.30578068  0.17228039  0.87594747  1
  O2-  O182  1  0.30362271  0.50704245  0.37403498  1
  O2-  O183  1  0.30597204  0.50283468  0.87739819  1
  O2-  O184  1  0.30498730  0.83890651  0.37492036  1
  O2-  O185  1  0.30737164  0.84086690  0.87577321  1
  O2-  O186  1  0.64048094  0.17074735  0.37486005  1
  O2-  O187  1  0.63966709  0.17304289  0.87620311  1
  O2-  O188  1  0.64386266  0.50460002  0.37554853  1
  O2-  O189  1  0.63969378  0.50389934  0.87578171  1
  O2-  O190  1  0.64244814  0.83918156  0.37446460  1
  O2-  O191  1  0.64158515  0.83939993  0.87690617  1
  O2-  O192  1  0.97430067  0.17774055  0.37575939  1
  O2-  O193  1  0.97803007  0.17192003  0.87417105  1
  O2-  O194  1  0.97646179  0.50469328  0.37463319  1
  O2-  O195  1  0.97838983  0.50394668  0.87472561  1
  O2-  O196  1  0.97788380  0.83461678  0.37469497  1
  O2-  O197  1  0.97718629  0.83795658  0.87494663  1
  O2-  O198  1  0.19137518  0.00801295  0.37501776  1
  O2-  O199  1  0.19112226  0.00811807  0.87639466  1
  O2-  O200  1  0.18883913  0.33625792  0.37465606  1
  O2-  O201  1  0.19126025  0.33615224  0.87523241  1
  O2-  O202  1  0.18848358  0.67472128  0.37499124  1
  O2-  O203  1  0.19222057  0.67006948  0.87555096  1
  O2-  O204  1  0.52378766  0.00502496  0.37389721  1
  O2-  O205  1  0.52289982  0.00542636  0.87590440  1
  O2-  O206  1  0.52802712  0.33925326  0.37491910  1
  O2-  O207  1  0.52332487  0.33819282  0.87687556  1
  O2-  O208  1  0.52935739  0.67281761  0.37464615  1
  O2-  O209  1  0.52796273  0.67574362  0.87519591  1
  O2-  O210  1  0.86008241  0.00655865  0.37624713  1
  O2-  O211  1  0.85831195  0.00718889  0.87269221  1
  O2-  O212  1  0.86168982  0.34271305  0.37404262  1
  O2-  O213  1  0.86285800  0.33917510  0.87611067  1
  O2-  O214  1  0.85472555  0.67306121  0.37454171  1
  O2-  O215  1  0.85373260  0.67276553  0.87579900  1
  O2-  O216  1  0.23456957  0.09906546  0.02157897  1
  O2-  O217  1  0.23394174  0.09358474  0.52245073  1
  O2-  O218  1  0.23541414  0.42593710  0.01974358  1
  O2-  O219  1  0.23839151  0.42477653  0.52048612  1
  O2-  O220  1  0.23838831  0.76523939  0.01703117  1
  O2-  O221  1  0.23946931  0.76163924  0.51914987  1
  O2-  O222  1  0.56624428  0.09379234  0.01877002  1
  O2-  O223  1  0.56874686  0.09748690  0.51661026  1
  O2-  O224  1  0.57909253  0.42358134  0.02095135  1
  O2-  O225  1  0.57098947  0.42665455  0.52150337  1
  O2-  O226  1  0.57205113  0.76043188  0.02233531  1
  O2-  O227  1  0.57250914  0.76038237  0.52078825  1
  O2-  O228  1  0.90478475  0.10089847  0.01375084  1
  O2-  O229  1  0.90375390  0.09657118  0.52335068  1
  O2-  O230  1  0.90236296  0.43217160  0.01904690  1
  O2-  O231  1  0.90488011  0.42920544  0.51992320  1
  O2-  O232  1  0.90514738  0.76036319  0.02087947  1
  O2-  O233  1  0.90339293  0.76392309  0.51626479  1
  O2-  O234  1  0.26195654  0.26330512  0.23295359  1
  O2-  O235  1  0.26334975  0.26307751  0.73195755  1
  O2-  O236  1  0.26380854  0.59778193  0.22994013  1
  O2-  O237  1  0.26263018  0.59215996  0.73313124  1
  O2-  O238  1  0.26286682  0.93037117  0.23022027  1
  O2-  O239  1  0.25964178  0.92980932  0.72976915  1
  O2-  O240  1  0.59680448  0.25902578  0.22993270  1
  O2-  O241  1  0.59298496  0.26164554  0.72959245  1
  O2-  O242  1  0.59622901  0.59595815  0.23261215  1
  O2-  O243  1  0.59880653  0.59346110  0.72958691  1
  O2-  O244  1  0.58890894  0.92443491  0.23093328  1
  O2-  O245  1  0.59174177  0.92528442  0.73263157  1
  O2-  O246  1  0.92988235  0.26316289  0.22576433  1
  O2-  O247  1  0.92857302  0.26025445  0.73001852  1
  O2-  O248  1  0.93175157  0.59347385  0.22935445  1
  O2-  O249  1  0.92975385  0.59440530  0.72616688  1
  O2-  O250  1  0.92441352  0.92300040  0.23571503  1
  O2-  O251  1  0.92836360  0.92975156  0.73225269  1
  O2-  O252  1  0.09545597  0.23570076  0.26929844  1
  O2-  O253  1  0.09603013  0.23710271  0.76714614  1
  O2-  O254  1  0.10039163  0.56622733  0.26552432  1
  O2-  O255  1  0.09794424  0.56604811  0.76560134  1
  O2-  O256  1  0.09842178  0.90241942  0.26891207  1
  O2-  O257  1  0.09533453  0.90668806  0.77207766  1
  O2-  O258  1  0.42661900  0.23982551  0.27106187  1
  O2-  O259  1  0.42783249  0.23951842  0.77128326  1
  O2-  O260  1  0.42780750  0.57500800  0.27552344  1
  O2-  O261  1  0.43188912  0.57184234  0.77141338  1
  O2-  O262  1  0.42632291  0.90466710  0.27209334  1
  O2-  O263  1  0.42605329  0.90612048  0.77052268  1
  O2-  O264  1  0.76637699  0.24072930  0.27193899  1
  O2-  O265  1  0.75879957  0.24328287  0.77425988  1
  O2-  O266  1  0.76147645  0.57367505  0.27174499  1
  O2-  O267  1  0.76425447  0.57203570  0.77044755  1
  O2-  O268  1  0.76053794  0.90878774  0.27013356  1
  O2-  O269  1  0.76128694  0.90693868  0.77223225  1
  O2-  O270  1  0.06590334  0.06920831  0.47804849  1
  O2-  O271  1  0.07155710  0.07306864  0.97814902  1
  O2-  O272  1  0.06845495  0.39962818  0.48181814  1
  O2-  O273  1  0.07101893  0.40333556  0.97741774  1
  O2-  O274  1  0.07369283  0.73800156  0.48890931  1
  O2-  O275  1  0.07547222  0.73982615  0.98355493  1
  O2-  O276  1  0.40179524  0.07287906  0.47825387  1
  O2-  O277  1  0.40263559  0.07411973  0.97823543  1
  O2-  O278  1  0.40410175  0.40797070  0.47554567  1
  O2-  O279  1  0.40334908  0.40566191  0.98337180  1
  O2-  O280  1  0.40656372  0.74162671  0.47630604  1
  O2-  O281  1  0.40737378  0.74046406  0.97616683  1
  O2-  O282  1  0.73636558  0.07153884  0.47982457  1
  O2-  O283  1  0.73857727  0.07491876  0.97691558  1
  O2-  O284  1  0.74012982  0.40396824  0.47905662  1
  O2-  O285  1  0.74093870  0.40502714  0.97824980  1
  O2-  O286  1  0.73955013  0.73943366  0.47963120  1
  O2-  O287  1  0.73775046  0.73996759  0.98019881  1
  O2-  O288  1  0.09482433  0.23542868  0.48285013  1
  O2-  O289  1  0.09588399  0.23701115  0.98101495  1
  O2-  O290  1  0.09967828  0.56490719  0.48348909  1
  O2-  O291  1  0.09850092  0.56626148  0.98542769  1
  O2-  O292  1  0.09743125  0.90115191  0.47948250  1
  O2-  O293  1  0.09629192  0.90712546  0.97948555  1
  O2-  O294  1  0.42817628  0.24032577  0.47682312  1
  O2-  O295  1  0.42535980  0.23829249  0.98036345  1
  O2-  O296  1  0.42920063  0.57302969  0.47818121  1
  O2-  O297  1  0.42976757  0.57269111  0.97468772  1
  O2-  O298  1  0.42566836  0.90581054  0.47810346  1
  O2-  O299  1  0.42674808  0.90496861  0.97936918  1
  O2-  O300  1  0.76194291  0.23982295  0.47528357  1
  O2-  O301  1  0.76390844  0.24239530  0.97791040  1
  O2-  O302  1  0.76491238  0.57297995  0.48032975  1
  O2-  O303  1  0.76004756  0.57224645  0.97635301  1
  O2-  O304  1  0.76246068  0.90773410  0.47740652  1
  O2-  O305  1  0.75821798  0.90662221  0.98054823  1
  O2-  O306  1  0.06899148  0.07135493  0.27530777  1
  O2-  O307  1  0.06884723  0.07121307  0.76919800  1
  O2-  O308  1  0.06875110  0.40235450  0.27062766  1
  O2-  O309  1  0.07087991  0.40166654  0.77054954  1
  O2-  O310  1  0.07313386  0.73665699  0.26140050  1
  O2-  O311  1  0.07723087  0.74156892  0.76658713  1
  O2-  O312  1  0.40320734  0.07364628  0.27293497  1
  O2-  O313  1  0.40150476  0.07316935  0.77048109  1
  O2-  O314  1  0.40544987  0.40843511  0.27183080  1
  O2-  O315  1  0.40310995  0.40467468  0.76811705  1
  O2-  O316  1  0.40809029  0.74102849  0.27473345  1
  O2-  O317  1  0.40689051  0.74051519  0.77260657  1
  O2-  O318  1  0.73759288  0.07248188  0.27046062  1
  O2-  O319  1  0.73855149  0.07355453  0.77259353  1
  O2-  O320  1  0.74121560  0.40352171  0.26994595  1
  O2-  O321  1  0.73922658  0.40598133  0.77224429  1
  O2-  O322  1  0.73971745  0.74031938  0.26952795  1
  O2-  O323  1  0.73752800  0.73928855  0.77034042  1
  O2-  O324  1  0.23368433  0.09757834  0.23081294  1
  O2-  O325  1  0.23464954  0.09467458  0.72591353  1
  O2-  O326  1  0.23709879  0.42404454  0.23098280  1
  O2-  O327  1  0.23631686  0.42565892  0.72933611  1
  O2-  O328  1  0.23957954  0.76136486  0.23094768  1
  O2-  O329  1  0.23900504  0.76436852  0.73316645  1
  O2-  O330  1  0.56644940  0.09418426  0.23168142  1
  O2-  O331  1  0.56814841  0.09678765  0.73285787  1
  O2-  O332  1  0.57601131  0.42495508  0.23132212  1
  O2-  O333  1  0.57279630  0.42522815  0.72627936  1
  O2-  O334  1  0.57145543  0.75936155  0.22853154  1
  O2-  O335  1  0.57177374  0.76061432  0.72874417  1
  O2-  O336  1  0.90348540  0.09942312  0.23440365  1
  O2-  O337  1  0.90345029  0.09727226  0.72900879  1
  O2-  O338  1  0.90237021  0.43223879  0.23102190  1
  O2-  O339  1  0.90539194  0.42926266  0.72944470  1
  O2-  O340  1  0.90566800  0.76029162  0.22854840  1
  O2-  O341  1  0.90192064  0.76375419  0.73411213  1
  O2-  O342  1  0.26245716  0.26420584  0.01856111  1
  O2-  O343  1  0.26258338  0.26278534  0.51609320  1
  O2-  O344  1  0.26551397  0.59638370  0.02026940  1
  O2-  O345  1  0.26142534  0.59388171  0.51730186  1
  O2-  O346  1  0.26279359  0.93105362  0.02066054  1
  O2-  O347  1  0.26076744  0.92860011  0.52017372  1
  O2-  O348  1  0.59437742  0.25939402  0.02145655  1
  O2-  O349  1  0.59638295  0.26067445  0.51964477  1
  O2-  O350  1  0.59816968  0.59690793  0.01844884  1
  O2-  O351  1  0.59765884  0.59245835  0.51984265  1
  O2-  O352  1  0.59028366  0.92438641  0.01949168  1
  O2-  O353  1  0.59108456  0.92520513  0.51796844  1
  O2-  O354  1  0.92981516  0.26257597  0.02312433  1
  O2-  O355  1  0.92827172  0.26164742  0.52175352  1
  O2-  O356  1  0.93120746  0.59277853  0.01996442  1
  O2-  O357  1  0.92962829  0.59457431  0.52345931  1
  O2-  O358  1  0.92538753  0.92474282  0.01404969  1
  O2-  O359  1  0.92820577  0.92710144  0.51771169  1
