# generated using pymatgen
data_Sr7Ca15Pr50Mn72O216
_symmetry_space_group_name_H-M   'P 1'
_cell_length_a   16.55534688
_cell_length_b   16.60119962
_cell_length_c   15.59025088
_cell_angle_alpha   90.00610748
_cell_angle_beta   89.99801932
_cell_angle_gamma   90.01032593
_symmetry_Int_Tables_number   1
_chemical_formula_structural   Sr7Ca15Pr50Mn72O216
_chemical_formula_sum   'Sr7 Ca15 Pr50 Mn72 O216'
_cell_volume   4284.80291489
_cell_formula_units_Z   1
loop_
 _symmetry_equiv_pos_site_id
 _symmetry_equiv_pos_as_xyz
  1  'x, y, z'
loop_
 _atom_type_symbol
 _atom_type_oxidation_number
  Sr2+  2.0
  Ca2+  2.0
  Pr3+  3.0
  Mn3.30+  3.3
  O2-  -2.0
loop_
 _atom_site_type_symbol
 _atom_site_label
 _atom_site_symmetry_multiplicity
 _atom_site_fract_x
 _atom_site_fract_y
 _atom_site_fract_z
 _atom_site_occupancy
  Sr2+  Sr0  1  0.66533031  0.01056593  0.62299466  1
  Sr2+  Sr1  1  0.83177021  0.82428655  0.37275326  1
  Sr2+  Sr2  1  -0.00183086  0.00723513  0.12505592  1
  Sr2+  Sr3  1  0.67146551  0.32177880  0.87703430  1
  Sr2+  Sr4  1  -0.00209742  0.34339962  0.62488308  1
  Sr2+  Sr5  1  0.33732618  0.32084234  0.87591666  1
  Sr2+  Sr6  1  0.32998561  0.00910214  0.12588683  1
  Ca2+  Ca7  1  -0.00553626  0.68404439  0.12409765  1
  Ca2+  Ca8  1  0.82916476  0.48276295  0.87565613  1
  Ca2+  Ca9  1  0.16224734  0.82018074  0.37168723  1
  Ca2+  Ca10  1  0.33469602  0.98242013  0.37378353  1
  Ca2+  Ca11  1  0.49514437  0.81849778  0.87554067  1
  Ca2+  Ca12  1  0.50163852  0.84850910  0.12363157  1
  Ca2+  Ca13  1  0.33001672  0.01334909  0.62437701  1
  Ca2+  Ca14  1  0.82983429  0.15330904  0.87511612  1
  Ca2+  Ca15  1  0.33841667  0.65314833  0.87540298  1
  Ca2+  Ca16  1  -0.00162854  0.34523985  0.12426395  1
  Ca2+  Ca17  1  0.83774697  0.84796943  0.12500262  1
  Ca2+  Ca18  1  0.66470851  0.34887096  0.12230450  1
  Ca2+  Ca19  1  0.16819249  0.17849277  0.12427075  1
  Ca2+  Ca20  1  -0.00440112  0.01407708  0.62502792  1
  Ca2+  Ca21  1  0.66321913  0.68241430  0.62650643  1
  Pr3+  Pr22  1  0.66774860  0.99038022  0.87368078  1
  Pr3+  Pr23  1  0.50487070  0.51172278  0.12257450  1
  Pr3+  Pr24  1  0.17147323  0.84993976  0.62478793  1
  Pr3+  Pr25  1  0.33828573  0.98709909  0.87500169  1
  Pr3+  Pr26  1  0.83337457  0.15335346  0.37489842  1
  Pr3+  Pr27  1  0.49441736  0.14951965  0.37392098  1
  Pr3+  Pr28  1  0.32978867  0.34565770  0.62633922  1
  Pr3+  Pr29  1  0.66280889  0.68332529  0.12334592  1
  Pr3+  Pr30  1  0.49796776  0.48831384  0.37425285  1
  Pr3+  Pr31  1  1.00486720  0.98151197  0.37487937  1
  Pr3+  Pr32  1  0.83713370  0.17800032  0.62766686  1
  Pr3+  Pr33  1  0.50557121  0.51530036  0.62700097  1
  Pr3+  Pr34  1  0.16519509  0.82221769  0.87759544  1
  Pr3+  Pr35  1  0.49722866  0.15549406  0.87603778  1
  Pr3+  Pr36  1  0.83500189  0.84815522  0.62548459  1
  Pr3+  Pr37  1  0.32992695  0.34332475  0.12350465  1
  Pr3+  Pr38  1  0.16707760  0.51135492  0.12363973  1
  Pr3+  Pr39  1  0.50450543  0.17981571  0.12532614  1
  Pr3+  Pr40  1  0.82992451  0.82413239  0.87737973  1
  Pr3+  Pr41  1  0.66927790  0.98509800  0.37655018  1
  Pr3+  Pr42  1  1.00332783  0.31935246  0.37327357  1
  Pr3+  Pr43  1  0.67244341  0.65726015  0.37569077  1
  Pr3+  Pr44  1  0.66492469  0.00883240  0.12661783  1
  Pr3+  Pr45  1  0.16646138  0.15539433  0.87713463  1
  Pr3+  Pr46  1  -0.00202404  0.67853360  0.62706013  1
  Pr3+  Pr47  1  0.67039604  0.65262901  0.87408221  1
  Pr3+  Pr48  1  0.16698913  0.48649871  0.87617275  1
  Pr3+  Pr49  1  0.49751305  0.48550200  0.87571102  1
  Pr3+  Pr50  1  0.16817982  0.84558700  0.12574856  1
  Pr3+  Pr51  1  0.49842688  0.82319573  0.37366994  1
  Pr3+  Pr52  1  1.00019725  0.32108663  0.87678014  1
  Pr3+  Pr53  1  0.16388804  0.15129863  0.37334441  1
  Pr3+  Pr54  1  0.33286126  0.65820297  0.37415680  1
  Pr3+  Pr55  1  0.50268097  0.17668081  0.62486363  1
  Pr3+  Pr56  1  0.32986584  0.67999207  0.62713080  1
  Pr3+  Pr57  1  0.16185868  0.48771482  0.37440343  1
  Pr3+  Pr58  1  0.66650352  0.34423322  0.62598162  1
  Pr3+  Pr59  1  1.00211919  0.65866753  0.37210322  1
  Pr3+  Pr60  1  0.67033188  0.32094762  0.37254579  1
  Pr3+  Pr61  1  0.16820478  0.51227028  0.62697904  1
  Pr3+  Pr62  1  1.00079411  0.98966000  0.87559054  1
  Pr3+  Pr63  1  0.83690635  0.51182955  0.12139755  1
  Pr3+  Pr64  1  0.16763329  0.17721830  0.62571851  1
  Pr3+  Pr65  1  0.33220849  0.68001787  0.12225936  1
  Pr3+  Pr66  1  0.83238293  0.48924873  0.37375690  1
  Pr3+  Pr67  1  0.33531869  0.31897478  0.37382066  1
  Pr3+  Pr68  1  0.83676109  0.51204208  0.62817017  1
  Pr3+  Pr69  1  0.50201539  0.84719321  0.62574092  1
  Pr3+  Pr70  1  0.83867283  0.18059233  0.12287889  1
  Pr3+  Pr71  1  1.00084659  0.65316017  0.87854047  1
  Mn3.30+  Mn72  1  0.16756372  0.00131466  0.00142495  1
  Mn3.30+  Mn73  1  0.16796255  -0.00134851  0.49980864  1
  Mn3.30+  Mn74  1  0.16539292  0.33132338  0.00131302  1
  Mn3.30+  Mn75  1  0.16664713  0.33295725  0.50058185  1
  Mn3.30+  Mn76  1  0.16666063  0.66644452  0.00019784  1
  Mn3.30+  Mn77  1  0.16601983  0.66832625  0.50001568  1
  Mn3.30+  Mn78  1  0.49997845  -0.00145386  0.00166718  1
  Mn3.30+  Mn79  1  0.49592969  -0.00119134  0.49955920  1
  Mn3.30+  Mn80  1  0.50244503  0.33233379  0.00086909  1
  Mn3.30+  Mn81  1  0.50008635  0.33292323  0.49946686  1
  Mn3.30+  Mn82  1  0.49955619  0.66935567  -0.00179158  1
  Mn3.30+  Mn83  1  0.50113044  0.66781119  0.50057324  1
  Mn3.30+  Mn84  1  0.83273609  0.00061209  -0.00008504  1
  Mn3.30+  Mn85  1  0.83533887  -0.00003510  0.50095587  1
  Mn3.30+  Mn86  1  0.83318738  0.33316306  0.00121490  1
  Mn3.30+  Mn87  1  0.83426981  0.33352387  0.49857425  1
  Mn3.30+  Mn88  1  0.83368840  0.66738677  0.00038641  1
  Mn3.30+  Mn89  1  0.83248074  0.66816745  0.50223529  1
  Mn3.30+  Mn90  1  0.00127952  0.16566233  0.24606399  1
  Mn3.30+  Mn91  1  -0.00131601  0.16593578  0.75231798  1
  Mn3.30+  Mn92  1  -0.00086894  0.50085944  0.24678514  1
  Mn3.30+  Mn93  1  -0.00173262  0.49907750  0.75334774  1
  Mn3.30+  Mn94  1  -0.00110834  0.83160517  0.24868086  1
  Mn3.30+  Mn95  1  0.00040992  0.83445938  0.75016736  1
  Mn3.30+  Mn96  1  0.33122033  0.16401902  0.24862052  1
  Mn3.30+  Mn97  1  0.33401623  0.16449249  0.74882864  1
  Mn3.30+  Mn98  1  0.33295950  0.50042598  0.24960682  1
  Mn3.30+  Mn99  1  0.33566858  0.50135548  0.75097610  1
  Mn3.30+  Mn100  1  0.33247832  0.83381325  0.25040819  1
  Mn3.30+  Mn101  1  0.33494230  0.83318163  0.75114653  1
  Mn3.30+  Mn102  1  0.66750668  0.16718171  0.24931951  1
  Mn3.30+  Mn103  1  0.66808229  0.16673156  0.75051861  1
  Mn3.30+  Mn104  1  0.66762437  0.50086771  0.24880748  1
  Mn3.30+  Mn105  1  0.66919306  0.50015188  0.75055115  1
  Mn3.30+  Mn106  1  0.66685701  0.83365108  0.24705217  1
  Mn3.30+  Mn107  1  0.66358571  0.83325836  0.75160581  1
  Mn3.30+  Mn108  1  0.16793947  -0.00110077  0.25052931  1
  Mn3.30+  Mn109  1  0.16708724  0.00086959  0.74909851  1
  Mn3.30+  Mn110  1  0.16537150  0.33189064  0.24714299  1
  Mn3.30+  Mn111  1  0.16652316  0.33260024  0.75149044  1
  Mn3.30+  Mn112  1  0.16519477  0.66745259  0.24675864  1
  Mn3.30+  Mn113  1  0.16764217  0.66708518  0.75413163  1
  Mn3.30+  Mn114  1  0.49728112  -0.00194324  0.24890312  1
  Mn3.30+  Mn115  1  0.49934504  -0.00040455  0.74915380  1
  Mn3.30+  Mn116  1  0.50182839  0.33349238  0.24943983  1
  Mn3.30+  Mn117  1  0.50060082  0.33228930  0.74987887  1
  Mn3.30+  Mn118  1  0.50099226  0.66844328  0.24899455  1
  Mn3.30+  Mn119  1  0.50001464  0.66860444  0.75141720  1
  Mn3.30+  Mn120  1  0.83395084  -0.00132709  0.24943136  1
  Mn3.30+  Mn121  1  0.83417314  0.00185650  0.74978754  1
  Mn3.30+  Mn122  1  0.83416794  0.33418142  0.24689870  1
  Mn3.30+  Mn123  1  0.83334155  0.33262656  0.75223328  1
  Mn3.30+  Mn124  1  0.83477515  0.66860830  0.24678758  1
  Mn3.30+  Mn125  1  0.83155589  0.66686413  0.75112641  1
  Mn3.30+  Mn126  1  -0.00081956  0.16660880  0.00131741  1
  Mn3.30+  Mn127  1  0.00031017  0.16430440  0.50017464  1
  Mn3.30+  Mn128  1  -0.00136763  0.49904907  0.00032242  1
  Mn3.30+  Mn129  1  -0.00059043  0.50101121  0.50057173  1
  Mn3.30+  Mn130  1  -0.00266180  0.83331274  0.00096998  1
  Mn3.30+  Mn131  1  0.00226175  0.83258882  0.50132690  1
  Mn3.30+  Mn132  1  0.33253938  0.16527939  0.00234738  1
  Mn3.30+  Mn133  1  0.33284524  0.16287639  0.49912617  1
  Mn3.30+  Mn134  1  0.33502162  0.50052896  0.00004936  1
  Mn3.30+  Mn135  1  0.33345391  0.50119437  0.49966922  1
  Mn3.30+  Mn136  1  0.33607472  0.83285979  -0.00011280  1
  Mn3.30+  Mn137  1  0.33093743  0.83459131  0.49803249  1
  Mn3.30+  Mn138  1  0.66929501  0.16740710  0.00068716  1
  Mn3.30+  Mn139  1  0.66610620  0.16643647  0.49875227  1
  Mn3.30+  Mn140  1  0.66974592  0.49919225  -0.00062230  1
  Mn3.30+  Mn141  1  0.66735748  0.50200941  0.50100080  1
  Mn3.30+  Mn142  1  0.66343589  0.83456586  -0.00097121  1
  Mn3.30+  Mn143  1  0.66652334  0.83203072  0.50211559  1
  O2-  O144  1  0.02643690  0.16070444  0.12471453  1
  O2-  O145  1  0.02369141  0.16068866  0.62672495  1
  O2-  O146  1  0.02524768  0.48992802  0.12435935  1
  O2-  O147  1  0.02463728  0.50022499  0.62935125  1
  O2-  O148  1  0.02384436  0.83020107  0.12327012  1
  O2-  O149  1  0.02825350  0.82507529  0.62744789  1
  O2-  O150  1  0.35959234  0.16554527  0.12668622  1
  O2-  O151  1  0.35865971  0.15852865  0.62135983  1
  O2-  O152  1  0.35975793  0.49358015  0.12596051  1
  O2-  O153  1  0.35944626  0.49579797  0.62357446  1
  O2-  O154  1  0.36001806  0.82669794  0.12394828  1
  O2-  O155  1  0.35867507  0.82529332  0.62545430  1
  O2-  O156  1  0.69442270  0.15564156  0.12665116  1
  O2-  O157  1  0.69173387  0.16761981  0.62177818  1
  O2-  O158  1  0.69140319  0.49653291  0.12352847  1
  O2-  O159  1  0.69334896  0.49208855  0.62426137  1
  O2-  O160  1  0.69390178  0.83129807  0.12266587  1
  O2-  O161  1  0.69012620  0.82774413  0.62795039  1
  O2-  O162  1  0.14092627  0.32740506  0.12425467  1
  O2-  O163  1  0.14777097  0.32799933  0.62614090  1
  O2-  O164  1  0.13813767  0.65953468  0.12283211  1
  O2-  O165  1  0.14199449  0.65961963  0.63099638  1
  O2-  O166  1  0.14722190  0.99161318  0.12488208  1
  O2-  O167  1  0.13800601  0.99625990  0.62476655  1
  O2-  O168  1  0.47482018  0.33013698  0.12761486  1
  O2-  O169  1  0.47419751  0.32686874  0.62384160  1
  O2-  O170  1  0.47556832  0.65774564  0.12344015  1
  O2-  O171  1  0.47305704  0.66133127  0.62594336  1
  O2-  O172  1  0.47962651  0.99419759  0.12629548  1
  O2-  O173  1  0.47198442  0.99519840  0.62131622  1
  O2-  O174  1  0.80548568  0.32790146  0.12605702  1
  O2-  O175  1  0.81048649  0.32714288  0.62321522  1
  O2-  O176  1  0.80543547  0.65735804  0.12269503  1
  O2-  O177  1  0.80549103  0.65821270  0.63005609  1
  O2-  O178  1  0.80954634  0.99470640  0.12473966  1
  O2-  O179  1  0.81461477  0.99716946  0.62488754  1
  O2-  O180  1  0.30736277  0.17420838  0.37438241  1
  O2-  O181  1  0.31223587  0.16560543  0.87694751  1
  O2-  O182  1  0.30640150  0.50803762  0.37451332  1
  O2-  O183  1  0.31151394  0.50594881  0.87616369  1
  O2-  O184  1  0.30453758  0.83232315  0.37597436  1
  O2-  O185  1  0.30784706  0.84037948  0.87433202  1
  O2-  O186  1  0.63886303  0.17460894  0.37338531  1
  O2-  O187  1  0.64125065  0.16679310  0.87741120  1
  O2-  O188  1  0.64153878  0.50907146  0.37682636  1
  O2-  O189  1  0.64118676  0.50445856  0.87497728  1
  O2-  O190  1  0.64394998  0.83421370  0.37446037  1
  O2-  O191  1  0.63737055  0.84156592  0.87487896  1
  O2-  O192  1  0.97740557  0.17187436  0.37165642  1
  O2-  O193  1  0.97226737  0.17310266  0.87702592  1
  O2-  O194  1  0.97587909  0.51022803  0.37113351  1
  O2-  O195  1  0.97117597  0.50666450  0.87664431  1
  O2-  O196  1  0.98153739  0.83086831  0.37646436  1
  O2-  O197  1  0.97505204  0.83928655  0.87381719  1
  O2-  O198  1  0.19388253  0.00578832  0.37560931  1
  O2-  O199  1  0.19378373  0.00578448  0.87520853  1
  O2-  O200  1  0.19116473  0.33958843  0.37444396  1
  O2-  O201  1  0.18847563  0.33669300  0.87569704  1
  O2-  O202  1  0.18913092  0.67217822  0.37092882  1
  O2-  O203  1  0.19573573  0.67316725  0.87636673  1
  O2-  O204  1  0.52475546  0.00156549  0.37406973  1
  O2-  O205  1  0.52387874  0.00945574  0.87708301  1
  O2-  O206  1  0.52583597  0.33970770  0.37378831  1
  O2-  O207  1  0.52031403  0.33545507  0.87431008  1
  O2-  O208  1  0.52799923  0.67422997  0.37442544  1
  O2-  O209  1  0.52694320  0.67329973  0.87568681  1
  O2-  O210  1  0.85889945  0.00458024  0.37693298  1
  O2-  O211  1  0.85647116  0.00456432  0.87379847  1
  O2-  O212  1  0.85937288  0.34015620  0.37217887  1
  O2-  O213  1  0.85729949  0.33942346  0.87748721  1
  O2-  O214  1  0.85767988  0.66852797  0.37231487  1
  O2-  O215  1  0.85854345  0.67767783  0.87538701  1
  O2-  O216  1  0.23562741  0.09737085  0.01805044  1
  O2-  O217  1  0.23452236  0.09688502  0.51868372  1
  O2-  O218  1  0.23842140  0.42573461  0.02040053  1
  O2-  O219  1  0.23891866  0.42855309  0.52072648  1
  O2-  O220  1  0.23798956  0.76059001  0.02205801  1
  O2-  O221  1  0.23930152  0.76033331  0.52378021  1
  O2-  O222  1  0.57282617  0.09470304  0.02223997  1
  O2-  O223  1  0.56898503  0.09682019  0.51440768  1
  O2-  O224  1  0.57297317  0.42974248  0.01737071  1
  O2-  O225  1  0.57395670  0.43044138  0.52014493  1
  O2-  O226  1  0.57025672  0.76253142  0.02395771  1
  O2-  O227  1  0.56883982  0.76181952  0.51973967  1
  O2-  O228  1  0.90489066  0.09610447  0.01825569  1
  O2-  O229  1  0.90468511  0.09617196  0.51723007  1
  O2-  O230  1  0.90584041  0.42684709  0.02043476  1
  O2-  O231  1  0.90353043  0.43228366  0.51582508  1
  O2-  O232  1  0.90062613  0.76272042  0.01870249  1
  O2-  O233  1  0.90570854  0.76039048  0.52581113  1
  O2-  O234  1  0.26468457  0.26363794  0.23295423  1
  O2-  O235  1  0.26263024  0.25700219  0.72860509  1
  O2-  O236  1  0.26055024  0.59415788  0.22733260  1
  O2-  O237  1  0.25990494  0.59331085  0.72910798  1
  O2-  O238  1  0.25776268  0.92297374  0.23128249  1
  O2-  O239  1  0.26253007  0.92937639  0.72885341  1
  O2-  O240  1  0.59835685  0.26214778  0.22701389  1
  O2-  O241  1  0.59406853  0.26098957  0.72771283  1
  O2-  O242  1  0.59551599  0.59576562  0.22876007  1
  O2-  O243  1  0.59610987  0.59673065  0.72971025  1
  O2-  O244  1  0.59440909  0.92778548  0.23463266  1
  O2-  O245  1  0.59046629  0.92839990  0.73017896  1
  O2-  O246  1  0.92907455  0.26389696  0.22872321  1
  O2-  O247  1  0.92632624  0.25997688  0.73273918  1
  O2-  O248  1  0.92914583  0.59588696  0.22537918  1
  O2-  O249  1  0.92846487  0.59549103  0.73207703  1
  O2-  O250  1  0.92776282  0.92561297  0.23866251  1
  O2-  O251  1  0.92856844  0.92820406  0.72938783  1
  O2-  O252  1  0.09428277  0.23963335  0.27209643  1
  O2-  O253  1  0.09246476  0.23862818  0.77092870  1
  O2-  O254  1  0.09581820  0.57181630  0.26881394  1
  O2-  O255  1  0.09481442  0.57254493  0.77511668  1
  O2-  O256  1  0.09442128  0.90389627  0.26976091  1
  O2-  O257  1  0.09736448  0.90705386  0.77232658  1
  O2-  O258  1  0.42888427  0.23815163  0.27039467  1
  O2-  O259  1  0.43129760  0.23549314  0.76437285  1
  O2-  O260  1  0.42847132  0.57375818  0.27165242  1
  O2-  O261  1  0.43321108  0.57074067  0.76836571  1
  O2-  O262  1  0.42483352  0.90384329  0.27166544  1
  O2-  O263  1  0.42824757  0.90253603  0.77138028  1
  O2-  O264  1  0.76306071  0.23898550  0.27184467  1
  O2-  O265  1  0.76415300  0.23552048  0.76664202  1
  O2-  O266  1  0.76228255  0.57302453  0.26958446  1
  O2-  O267  1  0.76353756  0.57104885  0.77439495  1
  O2-  O268  1  0.75512210  0.91002536  0.26907097  1
  O2-  O269  1  0.76111526  0.90741238  0.76905896  1
  O2-  O270  1  0.07330879  0.07026340  0.47705813  1
  O2-  O271  1  0.07254911  0.07474578  0.97540242  1
  O2-  O272  1  0.07178616  0.40782691  0.47781374  1
  O2-  O273  1  0.07331366  0.40804408  0.97742771  1
  O2-  O274  1  0.06891005  0.73483869  0.48542694  1
  O2-  O275  1  0.07345020  0.74053008  0.97741819  1
  O2-  O276  1  0.40283402  0.07040354  0.47368411  1
  O2-  O277  1  0.40691857  0.07185903  0.98099334  1
  O2-  O278  1  0.40508927  0.40578866  0.47842025  1
  O2-  O279  1  0.40886847  0.40756039  0.98407137  1
  O2-  O280  1  0.40341739  0.73883524  0.47883919  1
  O2-  O281  1  0.40155258  0.73461565  0.98034095  1
  O2-  O282  1  0.73793575  0.07615316  0.47622162  1
  O2-  O283  1  0.73651290  0.06972690  0.98242454  1
  O2-  O284  1  0.73792902  0.40614386  0.47841398  1
  O2-  O285  1  0.74158100  0.40721607  0.98483161  1
  O2-  O286  1  0.73857973  0.73711218  0.48401566  1
  O2-  O287  1  0.73363276  0.73995380  0.97884177  1
  O2-  O288  1  0.09416472  0.23813821  0.48042254  1
  O2-  O289  1  0.09181820  0.24017551  0.97670854  1
  O2-  O290  1  0.09469162  0.57204311  0.48102438  1
  O2-  O291  1  0.09584950  0.57134380  0.97758409  1
  O2-  O292  1  0.09933044  0.90229964  0.47877923  1
  O2-  O293  1  0.09313736  0.90818065  0.97974008  1
  O2-  O294  1  0.42628346  0.23583395  0.47826409  1
  O2-  O295  1  0.43023219  0.23551603  0.98673141  1
  O2-  O296  1  0.42956389  0.57365615  0.47872215  1
  O2-  O297  1  0.43274869  0.57187931  0.98146786  1
  O2-  O298  1  0.42618412  0.90149756  0.47872600  1
  O2-  O299  1  0.42824457  0.90512244  0.97664673  1
  O2-  O300  1  0.75933086  0.24061415  0.47601645  1
  O2-  O301  1  0.76648681  0.23408087  0.98342162  1
  O2-  O302  1  0.76218710  0.57153258  0.47972035  1
  O2-  O303  1  0.76347878  0.57243570  0.97669321  1
  O2-  O304  1  0.75860871  0.90832513  0.48545646  1
  O2-  O305  1  0.75641479  0.90739618  0.97588034  1
  O2-  O306  1  0.07322018  0.06969988  0.27342991  1
  O2-  O307  1  0.07347013  0.07461414  0.77454368  1
  O2-  O308  1  0.07171872  0.40757446  0.27225012  1
  O2-  O309  1  0.07207320  0.40907884  0.77415263  1
  O2-  O310  1  0.07144723  0.73754614  0.26508914  1
  O2-  O311  1  0.07230851  0.73825468  0.77412890  1
  O2-  O312  1  0.40421494  0.07199889  0.27259226  1
  O2-  O313  1  0.40616096  0.07131122  0.76938157  1
  O2-  O314  1  0.40429377  0.40653762  0.27235427  1
  O2-  O315  1  0.40907065  0.40603808  0.76551832  1
  O2-  O316  1  0.40459504  0.73855247  0.27087339  1
  O2-  O317  1  0.40129759  0.73401451  0.76873778  1
  O2-  O318  1  0.73766141  0.07340669  0.27354136  1
  O2-  O319  1  0.73866443  0.07284996  0.76778548  1
  O2-  O320  1  0.73928298  0.40773721  0.27239314  1
  O2-  O321  1  0.73990705  0.40319267  0.76330707  1
  O2-  O322  1  0.73491472  0.73593000  0.26406978  1
  O2-  O323  1  0.73936893  0.74093026  0.77449429  1
  O2-  O324  1  0.23416143  0.09925880  0.23234035  1
  O2-  O325  1  0.23577877  0.09519332  0.73114423  1
  O2-  O326  1  0.23702575  0.42698755  0.22847226  1
  O2-  O327  1  0.24051758  0.42791017  0.73086548  1
  O2-  O328  1  0.24055269  0.75760947  0.22470199  1
  O2-  O329  1  0.23755242  0.76339407  0.73023850  1
  O2-  O330  1  0.57210658  0.09502958  0.23150440  1
  O2-  O331  1  0.57104406  0.09720911  0.73215563  1
  O2-  O332  1  0.57080424  0.43151912  0.23329145  1
  O2-  O333  1  0.57280388  0.42746789  0.72907428  1
  O2-  O334  1  0.57063862  0.76366993  0.22650961  1
  O2-  O335  1  0.56822418  0.76091261  0.72983886  1
  O2-  O336  1  0.90304359  0.09769937  0.23349682  1
  O2-  O337  1  0.90652525  0.09454664  0.73157024  1
  O2-  O338  1  0.90220344  0.43158166  0.23170366  1
  O2-  O339  1  0.90431573  0.42826572  0.73257845  1
  O2-  O340  1  0.90307977  0.76082883  0.22669542  1
  O2-  O341  1  0.90385961  0.76099051  0.72865426  1
  O2-  O342  1  0.26091094  0.25984399  0.02008862  1
  O2-  O343  1  0.26376505  0.26016431  0.51968574  1
  O2-  O344  1  0.25982458  0.59189400  0.02342385  1
  O2-  O345  1  0.26031887  0.59533262  0.52035239  1
  O2-  O346  1  0.25955796  0.92359265  0.01563725  1
  O2-  O347  1  0.26153683  0.92871265  0.52526702  1
  O2-  O348  1  0.59641261  0.25985414  0.02483897  1
  O2-  O349  1  0.59483777  0.26156991  0.51945976  1
  O2-  O350  1  0.59654072  0.59594666  0.01813331  1
  O2-  O351  1  0.59655235  0.59511546  0.52344606  1
  O2-  O352  1  0.59643222  0.93027153  0.01928161  1
  O2-  O353  1  0.58975806  0.92513300  0.51543019  1
  O2-  O354  1  0.92982592  0.26313958  0.02320097  1
  O2-  O355  1  0.92549134  0.25867092  0.51436038  1
  O2-  O356  1  0.93158634  0.59558857  0.02156450  1
  O2-  O357  1  0.92726959  0.59607989  0.52138560  1
  O2-  O358  1  0.92368700  0.92773227  0.01244617  1
  O2-  O359  1  0.93346359  0.92583953  0.51997186  1
