# generated using pymatgen
data_Sr7Ca15Pr50Mn72O216
_symmetry_space_group_name_H-M   'P 1'
_cell_length_a   16.56025776
_cell_length_b   16.60497170
_cell_length_c   15.59200541
_cell_angle_alpha   89.98897723
_cell_angle_beta   89.99732307
_cell_angle_gamma   89.98478005
_symmetry_Int_Tables_number   1
_chemical_formula_structural   Sr7Ca15Pr50Mn72O216
_chemical_formula_sum   'Sr7 Ca15 Pr50 Mn72 O216'
_cell_volume   4287.53012920
_cell_formula_units_Z   1
loop_
 _symmetry_equiv_pos_site_id
 _symmetry_equiv_pos_as_xyz
  1  'x, y, z'
loop_
 _atom_type_symbol
 _atom_type_oxidation_number
  Sr2+  2.0
  Ca2+  2.0
  Pr3+  3.0
  Mn3.30+  3.3
  O2-  -2.0
loop_
 _atom_site_type_symbol
 _atom_site_label
 _atom_site_symmetry_multiplicity
 _atom_site_fract_x
 _atom_site_fract_y
 _atom_site_fract_z
 _atom_site_occupancy
  Sr2+  Sr0  1  0.17132442  0.51166244  0.62501065  1
  Sr2+  Sr1  1  0.16419106  0.15724848  0.87144040  1
  Sr2+  Sr2  1  0.49674292  0.15657657  0.37647958  1
  Sr2+  Sr3  1  0.67040113  0.98753409  0.87482788  1
  Sr2+  Sr4  1  0.66847944  0.65473507  0.37719163  1
  Sr2+  Sr5  1  0.16321605  0.15559842  0.37857783  1
  Sr2+  Sr6  1  0.49692119  0.82007187  0.37876634  1
  Ca2+  Ca7  1  1.00592633  0.98656327  0.37838415  1
  Ca2+  Ca8  1  0.83607964  0.51325626  0.62299940  1
  Ca2+  Ca9  1  0.33819343  0.65437723  0.38082910  1
  Ca2+  Ca10  1  0.49789257  0.48470348  0.87317916  1
  Ca2+  Ca11  1  0.33507433  0.98502284  0.87150032  1
  Ca2+  Ca12  1  0.00071014  0.01400791  0.62400764  1
  Ca2+  Ca13  1  1.00557396  0.31733977  0.87177898  1
  Ca2+  Ca14  1  0.16973146  0.84682799  0.62401560  1
  Ca2+  Ca15  1  0.50074525  0.84497442  0.62391061  1
  Ca2+  Ca16  1  0.66234353  0.01413271  0.12503527  1
  Ca2+  Ca17  1  0.82733824  0.48590597  0.37916489  1
  Ca2+  Ca18  1  0.32826459  0.68409457  0.62287344  1
  Ca2+  Ca19  1  0.66363489  0.34950634  0.62479244  1
  Ca2+  Ca20  1  0.16667275  0.17774994  0.62528086  1
  Ca2+  Ca21  1  0.82869353  0.82107103  0.87263007  1
  Pr3+  Pr22  1  0.66427053  0.68009678  0.62385982  1
  Pr3+  Pr23  1  0.50243291  0.51111772  0.62693154  1
  Pr3+  Pr24  1  0.66997252  0.32341553  0.37716992  1
  Pr3+  Pr25  1  0.49693680  0.82342040  0.87160250  1
  Pr3+  Pr26  1  0.16762495  0.82437804  0.87181953  1
  Pr3+  Pr27  1  1.00242457  0.65673108  0.87313132  1
  Pr3+  Pr28  1  0.33843133  0.65194895  0.87229330  1
  Pr3+  Pr29  1  0.49308889  0.14856842  0.87335113  1
  Pr3+  Pr30  1  0.16138001  0.48552366  0.87199490  1
  Pr3+  Pr31  1  0.50416568  0.18128610  0.62467186  1
  Pr3+  Pr32  1  0.83395938  0.84680775  0.12464647  1
  Pr3+  Pr33  1  0.66385943  0.68007912  0.12651175  1
  Pr3+  Pr34  1  0.83288210  0.17764561  0.12319329  1
  Pr3+  Pr35  1  0.33066899  0.01241504  0.12441928  1
  Pr3+  Pr36  1  0.33658396  0.98732090  0.37662859  1
  Pr3+  Pr37  1  -0.00121116  0.34525620  0.62637832  1
  Pr3+  Pr38  1  0.66370503  0.34668958  0.12415161  1
  Pr3+  Pr39  1  0.33541228  0.32030249  0.87192063  1
  Pr3+  Pr40  1  1.00205992  0.98935727  0.87298255  1
  Pr3+  Pr41  1  0.33204200  0.68012104  0.12694330  1
  Pr3+  Pr42  1  -0.00244246  0.68130385  0.12533918  1
  Pr3+  Pr43  1  0.16837746  0.17997934  0.12499153  1
  Pr3+  Pr44  1  0.49915948  0.49203647  0.37654999  1
  Pr3+  Pr45  1  0.83287668  0.48738169  0.87169169  1
  Pr3+  Pr46  1  0.33641054  0.31946590  0.37771643  1
  Pr3+  Pr47  1  0.33090313  0.34504517  0.12520152  1
  Pr3+  Pr48  1  0.83591067  0.51278320  0.12563685  1
  Pr3+  Pr49  1  0.17010000  0.51295006  0.12485620  1
  Pr3+  Pr50  1  0.66854292  0.65757796  0.87332878  1
  Pr3+  Pr51  1  0.50566677  0.84864135  0.12654092  1
  Pr3+  Pr52  1  0.83013077  0.15351556  0.37591316  1
  Pr3+  Pr53  1  0.83834144  0.84802611  0.62564112  1
  Pr3+  Pr54  1  0.99983435  0.32258465  0.37736184  1
  Pr3+  Pr55  1  -0.00143683  0.01384171  0.12588583  1
  Pr3+  Pr56  1  0.16652782  0.48919500  0.37796884  1
  Pr3+  Pr57  1  0.32848934  0.34351925  0.62418552  1
  Pr3+  Pr58  1  0.16564514  0.82237284  0.37750068  1
  Pr3+  Pr59  1  0.32921153  0.00964954  0.62535462  1
  Pr3+  Pr60  1  0.66292026  0.00984405  0.62558684  1
  Pr3+  Pr61  1  0.50412493  0.51363320  0.12316582  1
  Pr3+  Pr62  1  0.66709487  0.98725493  0.37527395  1
  Pr3+  Pr63  1  -0.00289640  0.34365709  0.12348261  1
  Pr3+  Pr64  1  1.00223952  0.65367372  0.37676428  1
  Pr3+  Pr65  1  0.50403271  0.17803933  0.12509618  1
  Pr3+  Pr66  1  0.66710415  0.32125447  0.87251058  1
  Pr3+  Pr67  1  0.83235006  0.15428233  0.87367274  1
  Pr3+  Pr68  1  0.83495889  0.17694259  0.62630788  1
  Pr3+  Pr69  1  0.16964234  0.84780728  0.12511777  1
  Pr3+  Pr70  1  -0.00038196  0.67916429  0.62516080  1
  Pr3+  Pr71  1  0.83101919  0.82107036  0.37678122  1
  Mn3.30+  Mn72  1  0.16756773  0.00119792  -0.00333162  1
  Mn3.30+  Mn73  1  0.16415686  0.00019493  0.50271533  1
  Mn3.30+  Mn74  1  0.16504685  0.33361540  -0.00087801  1
  Mn3.30+  Mn75  1  0.16614738  0.33231745  0.50077872  1
  Mn3.30+  Mn76  1  0.16805642  0.66780216  -0.00103726  1
  Mn3.30+  Mn77  1  0.17036191  0.66782972  0.50086932  1
  Mn3.30+  Mn78  1  0.49996512  -0.00151380  -0.00127444  1
  Mn3.30+  Mn79  1  0.49885824  -0.00130778  0.50122581  1
  Mn3.30+  Mn80  1  0.49920691  0.33335779  -0.00199747  1
  Mn3.30+  Mn81  1  0.50134848  0.33477615  0.50155482  1
  Mn3.30+  Mn82  1  0.50035911  0.66685104  -0.00165053  1
  Mn3.30+  Mn83  1  0.49650475  0.66692873  0.50297695  1
  Mn3.30+  Mn84  1  0.83117364  -0.00092967  0.00056939  1
  Mn3.30+  Mn85  1  0.83725059  0.00016574  0.49896295  1
  Mn3.30+  Mn86  1  0.83425763  0.33323537  -0.00379160  1
  Mn3.30+  Mn87  1  0.83187509  0.33508590  0.50429260  1
  Mn3.30+  Mn88  1  0.83297925  0.66835824  -0.00143944  1
  Mn3.30+  Mn89  1  0.83341170  0.66455134  0.50123327  1
  Mn3.30+  Mn90  1  -0.00064031  0.16587645  0.25199145  1
  Mn3.30+  Mn91  1  0.00134536  0.16628480  0.74756660  1
  Mn3.30+  Mn92  1  -0.00118642  0.49967831  0.25208626  1
  Mn3.30+  Mn93  1  -0.00071819  0.50049905  0.74785282  1
  Mn3.30+  Mn94  1  0.00003418  0.83548022  0.25152283  1
  Mn3.30+  Mn95  1  0.00037608  0.83552252  0.74876717  1
  Mn3.30+  Mn96  1  0.33331666  0.16591177  0.25089392  1
  Mn3.30+  Mn97  1  0.33118901  0.16383216  0.74889223  1
  Mn3.30+  Mn98  1  0.33444022  0.50138588  0.25075213  1
  Mn3.30+  Mn99  1  0.33449712  0.50046645  0.75001610  1
  Mn3.30+  Mn100  1  0.33499721  0.83228293  0.25142189  1
  Mn3.30+  Mn101  1  0.33254587  0.83296386  0.74713993  1
  Mn3.30+  Mn102  1  0.66606185  0.16597292  0.25054479  1
  Mn3.30+  Mn103  1  0.66590532  0.16691644  0.74962864  1
  Mn3.30+  Mn104  1  0.66872275  0.50045749  0.25146825  1
  Mn3.30+  Mn105  1  0.66717291  0.50016371  0.74937990  1
  Mn3.30+  Mn106  1  0.66687328  0.83356242  0.25158520  1
  Mn3.30+  Mn107  1  0.66661572  0.83366512  0.74883453  1
  Mn3.30+  Mn108  1  0.16543575  0.00115637  0.25231700  1
  Mn3.30+  Mn109  1  0.16590302  0.00016546  0.74776470  1
  Mn3.30+  Mn110  1  0.16557158  0.33380236  0.25135211  1
  Mn3.30+  Mn111  1  0.16549480  0.33169190  0.74879925  1
  Mn3.30+  Mn112  1  0.16835330  0.66725286  0.25247675  1
  Mn3.30+  Mn113  1  0.17021645  0.66816778  0.74771034  1
  Mn3.30+  Mn114  1  0.50055770  0.00054861  0.25067890  1
  Mn3.30+  Mn115  1  0.49814633  -0.00295226  0.74895783  1
  Mn3.30+  Mn116  1  0.49969934  0.33433683  0.25039042  1
  Mn3.30+  Mn117  1  0.50104087  0.33428976  0.74972432  1
  Mn3.30+  Mn118  1  0.49836425  0.66660207  0.25300931  1
  Mn3.30+  Mn119  1  0.49847744  0.66683304  0.74728891  1
  Mn3.30+  Mn120  1  0.83389248  0.00027203  0.25055469  1
  Mn3.30+  Mn121  1  0.83443611  -0.00068629  0.74952800  1
  Mn3.30+  Mn122  1  0.83276067  0.33380358  0.25024907  1
  Mn3.30+  Mn123  1  0.83311625  0.33430697  0.74872038  1
  Mn3.30+  Mn124  1  0.83304085  0.66534341  0.25138011  1
  Mn3.30+  Mn125  1  0.83360882  0.66741049  0.74919830  1
  Mn3.30+  Mn126  1  0.00035844  0.16755036  -0.00144159  1
  Mn3.30+  Mn127  1  0.00049383  0.16461318  0.50139382  1
  Mn3.30+  Mn128  1  0.00082874  0.49960763  -0.00088699  1
  Mn3.30+  Mn129  1  -0.00245113  0.50064294  0.50078161  1
  Mn3.30+  Mn130  1  -0.00167656  0.83465485  -0.00271082  1
  Mn3.30+  Mn131  1  0.00207416  0.83599242  0.50174718  1
  Mn3.30+  Mn132  1  0.33313631  0.16470794  -0.00181865  1
  Mn3.30+  Mn133  1  0.33174804  0.16485823  0.50180744  1
  Mn3.30+  Mn134  1  0.33520923  0.49946260  -0.00163676  1
  Mn3.30+  Mn135  1  0.33360936  0.50267757  0.50128506  1
  Mn3.30+  Mn136  1  0.33490884  0.83381979  -0.00070984  1
  Mn3.30+  Mn137  1  0.33297278  0.83172150  0.50271202  1
  Mn3.30+  Mn138  1  0.66555824  0.16512240  -0.00131766  1
  Mn3.30+  Mn139  1  0.66642519  0.16726202  0.50039530  1
  Mn3.30+  Mn140  1  0.66638211  0.50080436  -0.00381904  1
  Mn3.30+  Mn141  1  0.66935740  0.49971193  0.50330770  1
  Mn3.30+  Mn142  1  0.66760599  0.83496961  -0.00104993  1
  Mn3.30+  Mn143  1  0.66596390  0.83273146  0.50068835  1
  O2-  O144  1  0.02392912  0.16265362  0.12636967  1
  O2-  O145  1  0.02403821  0.16025961  0.62395481  1
  O2-  O146  1  0.02636084  0.49294990  0.12450140  1
  O2-  O147  1  0.02221942  0.49557318  0.62485306  1
  O2-  O148  1  0.02623690  0.82833150  0.12330128  1
  O2-  O149  1  0.02828384  0.82462826  0.62473330  1
  O2-  O150  1  0.35909385  0.16169705  0.12291757  1
  O2-  O151  1  0.36015976  0.16033356  0.62579597  1
  O2-  O152  1  0.36013677  0.49164795  0.12258722  1
  O2-  O153  1  0.35836249  0.48921776  0.62601720  1
  O2-  O154  1  0.36008650  0.82706002  0.12577778  1
  O2-  O155  1  0.35896862  0.82915747  0.62538776  1
  O2-  O156  1  0.68884423  0.16184999  0.12503079  1
  O2-  O157  1  0.69048481  0.15744489  0.62475999  1
  O2-  O158  1  0.69180495  0.49517457  0.12132807  1
  O2-  O159  1  0.69420973  0.49464769  0.62740078  1
  O2-  O160  1  0.68998821  0.82678542  0.12686257  1
  O2-  O161  1  0.69297996  0.83093763  0.62458222  1
  O2-  O162  1  0.14227899  0.33185686  0.12598764  1
  O2-  O163  1  0.14505585  0.33030879  0.62365402  1
  O2-  O164  1  0.14129397  0.66127867  0.12647987  1
  O2-  O165  1  0.14212485  0.66325172  0.62484025  1
  O2-  O166  1  0.14250482  0.99530484  0.12425173  1
  O2-  O167  1  0.13988350  0.98912057  0.62515193  1
  O2-  O168  1  0.47500300  0.32801215  0.12250981  1
  O2-  O169  1  0.47349110  0.33103226  0.62584573  1
  O2-  O170  1  0.47593508  0.66095435  0.12461163  1
  O2-  O171  1  0.46984019  0.65604050  0.62720788  1
  O2-  O172  1  0.47507269  0.99644618  0.12338093  1
  O2-  O173  1  0.47579556  0.99423130  0.62537764  1
  O2-  O174  1  0.80678049  0.32652777  0.12024423  1
  O2-  O175  1  0.80294637  0.32254837  0.62723715  1
  O2-  O176  1  0.80882317  0.65992885  0.12407274  1
  O2-  O177  1  0.80985396  0.66078923  0.62513083  1
  O2-  O178  1  0.80482564  0.99506740  0.12546255  1
  O2-  O179  1  0.80735871  0.99716559  0.62447976  1
  O2-  O180  1  0.31393119  0.17099722  0.37670976  1
  O2-  O181  1  0.31362059  0.17365427  0.87439804  1
  O2-  O182  1  0.31031976  0.50871531  0.37612253  1
  O2-  O183  1  0.30589244  0.50479200  0.87526677  1
  O2-  O184  1  0.30915596  0.84091332  0.37523075  1
  O2-  O185  1  0.31166951  0.83825314  0.87423647  1
  O2-  O186  1  0.64613757  0.17446254  0.37635369  1
  O2-  O187  1  0.63840827  0.17344547  0.87297135  1
  O2-  O188  1  0.64345005  0.49730730  0.37762578  1
  O2-  O189  1  0.63912123  0.50831035  0.87418826  1
  O2-  O190  1  0.64786706  0.83914739  0.37556515  1
  O2-  O191  1  0.64186687  0.83061617  0.87308204  1
  O2-  O192  1  0.97259309  0.17616513  0.37549053  1
  O2-  O193  1  0.97630974  0.17142948  0.87419891  1
  O2-  O194  1  0.97023988  0.50519424  0.37649976  1
  O2-  O195  1  0.97651614  0.50937779  0.87423011  1
  O2-  O196  1  0.97426549  0.84045496  0.37691319  1
  O2-  O197  1  0.97003190  0.84188627  0.87449826  1
  O2-  O198  1  0.19244709  0.00150296  0.37561560  1
  O2-  O199  1  0.19278336  0.00134805  0.87496857  1
  O2-  O200  1  0.19090314  0.33891458  0.37520554  1
  O2-  O201  1  0.19055147  0.33701132  0.87492348  1
  O2-  O202  1  0.19557571  0.67374357  0.37484017  1
  O2-  O203  1  0.19436438  0.67545421  0.87315669  1
  O2-  O204  1  0.52247934  0.00292156  0.37716598  1
  O2-  O205  1  0.52031846  0.00054366  0.87404954  1
  O2-  O206  1  0.52549172  0.34075597  0.37693812  1
  O2-  O207  1  0.52366297  0.33796217  0.87504512  1
  O2-  O208  1  0.51820087  0.66116727  0.37667473  1
  O2-  O209  1  0.52522993  0.67639192  0.87241193  1
  O2-  O210  1  0.86367419  0.00637140  0.37447028  1
  O2-  O211  1  0.85813018  0.00663465  0.87510651  1
  O2-  O212  1  0.85623394  0.33979054  0.37848814  1
  O2-  O213  1  0.86397298  0.34016903  0.87364741  1
  O2-  O214  1  0.85885664  0.67437021  0.37626498  1
  O2-  O215  1  0.85783445  0.67490840  0.87530220  1
  O2-  O216  1  0.23868791  0.09410021  0.02346805  1
  O2-  O217  1  0.23629209  0.09185566  0.52485581  1
  O2-  O218  1  0.23816739  0.42956953  0.01970859  1
  O2-  O219  1  0.24360219  0.42670710  0.51460508  1
  O2-  O220  1  0.23888971  0.76112811  0.02093531  1
  O2-  O221  1  0.23437151  0.76619261  0.51856816  1
  O2-  O222  1  0.56615143  0.09523437  0.01532276  1
  O2-  O223  1  0.57260722  0.09304165  0.52205395  1
  O2-  O224  1  0.57365146  0.42623165  0.02028886  1
  O2-  O225  1  0.57157407  0.42975415  0.52072647  1
  O2-  O226  1  0.57248208  0.76345892  0.02090376  1
  O2-  O227  1  0.56940509  0.75628572  0.52385374  1
  O2-  O228  1  0.90656432  0.09477345  0.02039034  1
  O2-  O229  1  0.90162433  0.09816794  0.51781337  1
  O2-  O230  1  0.90385107  0.42717553  0.02101504  1
  O2-  O231  1  0.90398634  0.42435568  0.52600017  1
  O2-  O232  1  0.90603221  0.76012014  0.02379505  1
  O2-  O233  1  0.90764637  0.76178471  0.52065938  1
  O2-  O234  1  0.25994881  0.25994415  0.22961450  1
  O2-  O235  1  0.26366080  0.25996415  0.73184709  1
  O2-  O236  1  0.26070202  0.59211776  0.22533961  1
  O2-  O237  1  0.26822776  0.59843858  0.73261057  1
  O2-  O238  1  0.26240064  0.92678189  0.22920677  1
  O2-  O239  1  0.26057639  0.92731159  0.73141414  1
  O2-  O240  1  0.59346137  0.26251640  0.22902504  1
  O2-  O241  1  0.59532933  0.26262011  0.72767350  1
  O2-  O242  1  0.59497528  0.59266483  0.22933975  1
  O2-  O243  1  0.59572653  0.59547718  0.72770630  1
  O2-  O244  1  0.59572800  0.92941021  0.23035514  1
  O2-  O245  1  0.59613859  0.92612136  0.73057495  1
  O2-  O246  1  0.92618988  0.26099174  0.22947146  1
  O2-  O247  1  0.92557548  0.25982971  0.72636340  1
  O2-  O248  1  0.93027680  0.59471868  0.22839159  1
  O2-  O249  1  0.93008629  0.59706205  0.73369224  1
  O2-  O250  1  0.92576075  0.92706405  0.22520086  1
  O2-  O251  1  0.93049288  0.93030464  0.72594805  1
  O2-  O252  1  0.08942904  0.24087382  0.26738585  1
  O2-  O253  1  0.09054415  0.24102115  0.76359221  1
  O2-  O254  1  0.09510488  0.57246141  0.27268334  1
  O2-  O255  1  0.09665557  0.57633101  0.77166330  1
  O2-  O256  1  0.09689853  0.90442651  0.26721597  1
  O2-  O257  1  0.09260489  0.90726286  0.77474401  1
  O2-  O258  1  0.42503081  0.24275564  0.26671806  1
  O2-  O259  1  0.42958217  0.23749712  0.76757491  1
  O2-  O260  1  0.43156033  0.56834478  0.26325735  1
  O2-  O261  1  0.43074579  0.56919343  0.77400795  1
  O2-  O262  1  0.42705645  0.90507660  0.26662501  1
  O2-  O263  1  0.42673843  0.90366944  0.76698999  1
  O2-  O264  1  0.76169080  0.23894399  0.26846936  1
  O2-  O265  1  0.76190084  0.24086727  0.77381886  1
  O2-  O266  1  0.76547808  0.56659263  0.26697512  1
  O2-  O267  1  0.75920982  0.57351582  0.77368990  1
  O2-  O268  1  0.76428933  0.90691327  0.27212429  1
  O2-  O269  1  0.76638236  0.90302804  0.76589791  1
  O2-  O270  1  0.06844637  0.07023302  0.48098510  1
  O2-  O271  1  0.06926346  0.07029390  0.98369676  1
  O2-  O272  1  0.07127481  0.40871376  0.47931482  1
  O2-  O273  1  0.07064889  0.40545430  0.97740807  1
  O2-  O274  1  0.07214878  0.73922625  0.47757533  1
  O2-  O275  1  0.06961025  0.74270020  0.97774766  1
  O2-  O276  1  0.40214964  0.07023081  0.48497837  1
  O2-  O277  1  0.40352875  0.06661331  0.97878866  1
  O2-  O278  1  0.40649807  0.40641566  0.47857795  1
  O2-  O279  1  0.40081438  0.40203215  0.98081148  1
  O2-  O280  1  0.40036037  0.73627730  0.48338312  1
  O2-  O281  1  0.40551289  0.73611544  0.98007552  1
  O2-  O282  1  0.73988997  0.07090681  0.47825043  1
  O2-  O283  1  0.74192640  0.07727900  0.98042591  1
  O2-  O284  1  0.73704071  0.40335370  0.48268571  1
  O2-  O285  1  0.74006574  0.40533124  0.97598654  1
  O2-  O286  1  0.74306531  0.73989735  0.48471762  1
  O2-  O287  1  0.73468719  0.73617971  0.98466244  1
  O2-  O288  1  0.08652870  0.24281630  0.48221028  1
  O2-  O289  1  0.09251068  0.23843158  0.98746958  1
  O2-  O290  1  0.09570924  0.57575347  0.47640315  1
  O2-  O291  1  0.09775610  0.57359097  0.97936598  1
  O2-  O292  1  0.09532178  0.90521501  0.47831973  1
  O2-  O293  1  0.09420647  0.90644556  0.97853158  1
  O2-  O294  1  0.42650671  0.24280313  0.48583153  1
  O2-  O295  1  0.42856886  0.23670980  0.97920632  1
  O2-  O296  1  0.43101771  0.56777289  0.48519325  1
  O2-  O297  1  0.43001156  0.56782846  0.97774849  1
  O2-  O298  1  0.42373183  0.90750154  0.48277715  1
  O2-  O299  1  0.43301165  0.90110260  0.98486113  1
  O2-  O300  1  0.76224122  0.23899828  0.48004835  1
  O2-  O301  1  0.76172252  0.24153933  0.97601851  1
  O2-  O302  1  0.76392478  0.56948478  0.48255670  1
  O2-  O303  1  0.76345566  0.57234287  0.97775791  1
  O2-  O304  1  0.76585715  0.90855184  0.48012909  1
  O2-  O305  1  0.76463522  0.89938417  0.98203027  1
  O2-  O306  1  0.06576980  0.07018435  0.26755556  1
  O2-  O307  1  0.07049297  0.07064788  0.76819730  1
  O2-  O308  1  0.07099759  0.40781177  0.27301618  1
  O2-  O309  1  0.07023952  0.40688844  0.76965241  1
  O2-  O310  1  0.07188751  0.73958796  0.27159481  1
  O2-  O311  1  0.07193293  0.74131827  0.77245596  1
  O2-  O312  1  0.40269193  0.06973806  0.26537723  1
  O2-  O313  1  0.40215395  0.07063663  0.76985737  1
  O2-  O314  1  0.40486512  0.40606101  0.27163371  1
  O2-  O315  1  0.40479432  0.40376732  0.76923212  1
  O2-  O316  1  0.40035096  0.73307360  0.26760305  1
  O2-  O317  1  0.40519186  0.73961475  0.77213535  1
  O2-  O318  1  0.74114930  0.07219707  0.27364115  1
  O2-  O319  1  0.74139610  0.07480257  0.76727345  1
  O2-  O320  1  0.73588597  0.40178668  0.26473284  1
  O2-  O321  1  0.73978029  0.40729220  0.77578944  1
  O2-  O322  1  0.74183946  0.73961537  0.26676162  1
  O2-  O323  1  0.73665182  0.73743566  0.76498932  1
  O2-  O324  1  0.23818800  0.09328133  0.22784873  1
  O2-  O325  1  0.23670146  0.09234278  0.72445665  1
  O2-  O326  1  0.24007244  0.42888493  0.23079073  1
  O2-  O327  1  0.24146325  0.42565629  0.73487236  1
  O2-  O328  1  0.23849486  0.76282408  0.22802482  1
  O2-  O329  1  0.23670447  0.76547240  0.73089774  1
  O2-  O330  1  0.57214782  0.09536174  0.23112608  1
  O2-  O331  1  0.56923337  0.09337556  0.73069576  1
  O2-  O332  1  0.57217360  0.42844294  0.22827999  1
  O2-  O333  1  0.57380295  0.42885112  0.73180902  1
  O2-  O334  1  0.57103206  0.75826386  0.23042728  1
  O2-  O335  1  0.57069830  0.76064153  0.72561396  1
  O2-  O336  1  0.90287890  0.09569702  0.22716562  1
  O2-  O337  1  0.90423727  0.09653304  0.73392810  1
  O2-  O338  1  0.90620583  0.42463674  0.22548348  1
  O2-  O339  1  0.90121389  0.42785563  0.72734215  1
  O2-  O340  1  0.90681622  0.76115998  0.22982261  1
  O2-  O341  1  0.90862005  0.76176707  0.72708843  1
  O2-  O342  1  0.26019702  0.26208969  0.02109876  1
  O2-  O343  1  0.26211902  0.25923822  0.51740994  1
  O2-  O344  1  0.26602840  0.59298728  0.02106238  1
  O2-  O345  1  0.26474705  0.59721546  0.51966771  1
  O2-  O346  1  0.26020448  0.92601127  0.02189905  1
  O2-  O347  1  0.26201448  0.92900080  0.51772978  1
  O2-  O348  1  0.59499584  0.26042802  0.02012738  1
  O2-  O349  1  0.59408701  0.26325573  0.52275432  1
  O2-  O350  1  0.59475941  0.59732770  0.02020279  1
  O2-  O351  1  0.59469125  0.59179016  0.52377254  1
  O2-  O352  1  0.59574400  0.92880307  0.02236370  1
  O2-  O353  1  0.59591083  0.92957447  0.51694379  1
  O2-  O354  1  0.92513109  0.25919795  0.02204324  1
  O2-  O355  1  0.92551094  0.26178391  0.52283221  1
  O2-  O356  1  0.93015530  0.59421990  0.02053076  1
  O2-  O357  1  0.93118401  0.59796923  0.51866682  1
  O2-  O358  1  0.92856127  0.92802097  0.02262680  1
  O2-  O359  1  0.92864643  0.92807118  0.52563446  1
