# generated using pymatgen
data_Sr7Ca15Pr50Mn72O216
_symmetry_space_group_name_H-M   'P 1'
_cell_length_a   16.55981682
_cell_length_b   16.60426669
_cell_length_c   15.59367901
_cell_angle_alpha   90.00374150
_cell_angle_beta   89.99700036
_cell_angle_gamma   90.00207853
_symmetry_Int_Tables_number   1
_chemical_formula_structural   Sr7Ca15Pr50Mn72O216
_chemical_formula_sum   'Sr7 Ca15 Pr50 Mn72 O216'
_cell_volume   4287.69433094
_cell_formula_units_Z   1
loop_
 _symmetry_equiv_pos_site_id
 _symmetry_equiv_pos_as_xyz
  1  'x, y, z'
loop_
 _atom_type_symbol
 _atom_type_oxidation_number
  Sr2+  2.0
  Ca2+  2.0
  Pr3+  3.0
  Mn3.30+  3.3
  O2-  -2.0
loop_
 _atom_site_type_symbol
 _atom_site_label
 _atom_site_symmetry_multiplicity
 _atom_site_fract_x
 _atom_site_fract_y
 _atom_site_fract_z
 _atom_site_occupancy
  Sr2+  Sr0  1  0.16823429  0.84259961  0.62381577  1
  Sr2+  Sr1  1  0.16887632  0.51139977  0.62412791  1
  Sr2+  Sr2  1  0.33302786  0.65936786  0.37695250  1
  Sr2+  Sr3  1  0.49837292  0.84240276  0.12709606  1
  Sr2+  Sr4  1  0.17046194  0.51083267  0.12620680  1
  Sr2+  Sr5  1  0.33342629  0.67447809  0.12273900  1
  Sr2+  Sr6  1  0.49712149  0.15722062  0.37613823  1
  Ca2+  Ca7  1  0.83082942  0.81882480  0.37560172  1
  Ca2+  Ca8  1  0.66799990  0.98319774  0.37381420  1
  Ca2+  Ca9  1  0.33163867  0.01480786  0.62359845  1
  Ca2+  Ca10  1  0.33197489  0.01568179  0.12665853  1
  Ca2+  Ca11  1  0.17144748  0.18155481  0.12643674  1
  Ca2+  Ca12  1  0.49418084  0.15158458  0.87467205  1
  Ca2+  Ca13  1  0.50039507  0.17866583  0.62550498  1
  Ca2+  Ca14  1  0.32824590  0.68038479  0.62759425  1
  Ca2+  Ca15  1  0.16320084  0.48577113  0.37297598  1
  Ca2+  Ca16  1  0.82875136  0.48463972  0.87438557  1
  Ca2+  Ca17  1  0.66209069  0.34882418  0.12561438  1
  Ca2+  Ca18  1  0.67214134  0.64782812  0.87594269  1
  Ca2+  Ca19  1  -0.00094891  0.68215899  0.62418479  1
  Ca2+  Ca20  1  0.33418863  0.65363455  0.87262746  1
  Ca2+  Ca21  1  1.00545401  0.32031164  0.37407912  1
  Pr3+  Pr22  1  0.50160185  0.17977462  0.12541933  1
  Pr3+  Pr23  1  0.82801371  0.15232949  0.37402600  1
  Pr3+  Pr24  1  0.49605513  0.48968495  0.37572322  1
  Pr3+  Pr25  1  1.00322676  0.65350972  0.87290566  1
  Pr3+  Pr26  1  0.67047408  0.65599601  0.37472272  1
  Pr3+  Pr27  1  -0.00237524  0.34651642  0.62392531  1
  Pr3+  Pr28  1  0.66086723  0.68024636  0.12384792  1
  Pr3+  Pr29  1  0.83300265  0.48587592  0.37496589  1
  Pr3+  Pr30  1  1.00653104  0.65355712  0.37714936  1
  Pr3+  Pr31  1  0.33132601  0.34388357  0.62392168  1
  Pr3+  Pr32  1  0.16526238  0.15392364  0.87679053  1
  Pr3+  Pr33  1  0.16886747  0.49108629  0.87625472  1
  Pr3+  Pr34  1  1.00414256  0.98597334  0.87521400  1
  Pr3+  Pr35  1  0.82865511  0.81738235  0.87505041  1
  Pr3+  Pr36  1  0.32927840  0.34577244  0.12647557  1
  Pr3+  Pr37  1  0.84155766  0.51591386  0.62620856  1
  Pr3+  Pr38  1  -0.00274560  0.01203637  0.62453806  1
  Pr3+  Pr39  1  0.65978064  0.00882289  0.12686692  1
  Pr3+  Pr40  1  -0.00185820  0.01392034  0.12531792  1
  Pr3+  Pr41  1  0.50034861  0.51415366  0.62467632  1
  Pr3+  Pr42  1  1.00076108  0.32385408  0.87571734  1
  Pr3+  Pr43  1  0.66826323  0.31945375  0.37349364  1
  Pr3+  Pr44  1  0.50271182  0.51238140  0.12513011  1
  Pr3+  Pr45  1  0.49872955  0.82347770  0.37468936  1
  Pr3+  Pr46  1  0.16612875  0.81997845  0.37708519  1
  Pr3+  Pr47  1  0.83266161  0.18058627  0.12454443  1
  Pr3+  Pr48  1  0.83632518  0.51137234  0.12308593  1
  Pr3+  Pr49  1  0.83857701  0.84501041  0.62363513  1
  Pr3+  Pr50  1  0.49891716  0.84529531  0.62360915  1
  Pr3+  Pr51  1  0.83573082  0.17967479  0.62497069  1
  Pr3+  Pr52  1  0.16933701  0.17762307  0.62505184  1
  Pr3+  Pr53  1  0.33635660  0.98918621  0.37606256  1
  Pr3+  Pr54  1  0.00067346  0.34606728  0.12568593  1
  Pr3+  Pr55  1  0.16289648  0.15591830  0.37355259  1
  Pr3+  Pr56  1  0.66087792  0.01350221  0.62338679  1
  Pr3+  Pr57  1  0.83537635  0.84470162  0.12622695  1
  Pr3+  Pr58  1  0.49810739  0.48933036  0.87454640  1
  Pr3+  Pr59  1  0.66351585  0.34553967  0.62429980  1
  Pr3+  Pr60  1  1.00293156  0.98546528  0.37472750  1
  Pr3+  Pr61  1  0.33761149  0.98861484  0.87399641  1
  Pr3+  Pr62  1  0.16613876  0.81942265  0.87301446  1
  Pr3+  Pr63  1  0.33292513  0.32474139  0.37498424  1
  Pr3+  Pr64  1  0.66864026  0.32012033  0.87583417  1
  Pr3+  Pr65  1  0.66346068  0.98807707  0.87509432  1
  Pr3+  Pr66  1  0.49568080  0.81764312  0.87508731  1
  Pr3+  Pr67  1  0.66482692  0.68000594  0.62671608  1
  Pr3+  Pr68  1  0.00136634  0.67720381  0.12438534  1
  Pr3+  Pr69  1  0.17537775  0.84561270  0.12583177  1
  Pr3+  Pr70  1  0.82889839  0.15356678  0.87558542  1
  Pr3+  Pr71  1  0.33929053  0.31893715  0.87585361  1
  Mn3.30+  Mn72  1  0.16955728  0.00127012  0.00195209  1
  Mn3.30+  Mn73  1  0.16831646  0.00010502  0.50137086  1
  Mn3.30+  Mn74  1  0.16847386  0.33291616  -0.00037054  1
  Mn3.30+  Mn75  1  0.16449121  0.33463577  0.49927657  1
  Mn3.30+  Mn76  1  0.16918216  0.66651978  -0.00133343  1
  Mn3.30+  Mn77  1  0.16831519  0.66486232  0.50253927  1
  Mn3.30+  Mn78  1  0.49704479  0.00041576  0.00196466  1
  Mn3.30+  Mn79  1  0.49958175  0.00226531  0.49991468  1
  Mn3.30+  Mn80  1  0.50202560  0.33256427  0.00034117  1
  Mn3.30+  Mn81  1  0.49932435  0.33233693  0.50087809  1
  Mn3.30+  Mn82  1  0.50070976  0.66600602  -0.00297424  1
  Mn3.30+  Mn83  1  0.49854987  0.66821045  0.50189598  1
  Mn3.30+  Mn84  1  0.83184681  -0.00081874  0.00060590  1
  Mn3.30+  Mn85  1  0.83051782  -0.00151230  0.49804680  1
  Mn3.30+  Mn86  1  0.83099586  0.33427761  0.00117647  1
  Mn3.30+  Mn87  1  0.83482976  0.33269907  0.49759900  1
  Mn3.30+  Mn88  1  0.83150685  0.66417984  -0.00083062  1
  Mn3.30+  Mn89  1  0.83601956  0.66773179  0.49933780  1
  Mn3.30+  Mn90  1  -0.00018448  0.16813621  0.24862220  1
  Mn3.30+  Mn91  1  -0.00028501  0.16678675  0.75149547  1
  Mn3.30+  Mn92  1  0.00189474  0.49937127  0.25016820  1
  Mn3.30+  Mn93  1  -0.00019184  0.50156288  0.75075418  1
  Mn3.30+  Mn94  1  0.00068890  0.83268914  0.24995271  1
  Mn3.30+  Mn95  1  -0.00026236  0.83226790  0.74899571  1
  Mn3.30+  Mn96  1  0.33154528  0.16667492  0.24963459  1
  Mn3.30+  Mn97  1  0.33576920  0.16573747  0.74847400  1
  Mn3.30+  Mn98  1  0.33114102  0.50217608  0.25268159  1
  Mn3.30+  Mn99  1  0.33352689  0.50151486  0.74885871  1
  Mn3.30+  Mn100  1  0.33409611  0.83462242  0.24905826  1
  Mn3.30+  Mn101  1  0.33243877  0.83266453  0.74902282  1
  Mn3.30+  Mn102  1  0.66538394  0.16471461  0.25029226  1
  Mn3.30+  Mn103  1  0.66248607  0.16612656  0.75013560  1
  Mn3.30+  Mn104  1  0.66767902  0.49885770  0.24982343  1
  Mn3.30+  Mn105  1  0.66885631  0.50045714  0.75008261  1
  Mn3.30+  Mn106  1  0.66870170  0.83377749  0.25191922  1
  Mn3.30+  Mn107  1  0.66612165  0.83216905  0.75033367  1
  Mn3.30+  Mn108  1  0.16839851  0.00167068  0.24868375  1
  Mn3.30+  Mn109  1  0.16952247  -0.00039124  0.74860300  1
  Mn3.30+  Mn110  1  0.16543932  0.33336179  0.25054448  1
  Mn3.30+  Mn111  1  0.16769198  0.33422139  0.75111221  1
  Mn3.30+  Mn112  1  0.16855987  0.66516590  0.25111773  1
  Mn3.30+  Mn113  1  0.16848822  0.66627514  0.74756254  1
  Mn3.30+  Mn114  1  0.49897274  0.00096435  0.25143553  1
  Mn3.30+  Mn115  1  0.49783553  0.00203313  0.74755633  1
  Mn3.30+  Mn116  1  0.50026350  0.33377937  0.24992900  1
  Mn3.30+  Mn117  1  0.50070816  0.33135361  0.74940348  1
  Mn3.30+  Mn118  1  0.50002641  0.66754212  0.25053739  1
  Mn3.30+  Mn119  1  0.49901168  0.66656507  0.75071778  1
  Mn3.30+  Mn120  1  0.83132351  -0.00187327  0.25080071  1
  Mn3.30+  Mn121  1  0.83172313  -0.00080561  0.75049662  1
  Mn3.30+  Mn122  1  0.83370322  0.33304859  0.24905930  1
  Mn3.30+  Mn123  1  0.83217661  0.33403938  0.75092986  1
  Mn3.30+  Mn124  1  0.83470860  0.66688620  0.24992984  1
  Mn3.30+  Mn125  1  0.83332687  0.66492755  0.75151208  1
  Mn3.30+  Mn126  1  0.00060406  0.16727042  0.00165035  1
  Mn3.30+  Mn127  1  -0.00128759  0.16757991  0.49786008  1
  Mn3.30+  Mn128  1  -0.00100995  0.50052336  -0.00157003  1
  Mn3.30+  Mn129  1  0.00282801  0.50041801  0.49965110  1
  Mn3.30+  Mn130  1  0.00116083  0.83277756  0.00071906  1
  Mn3.30+  Mn131  1  -0.00098279  0.83224244  0.49968378  1
  Mn3.30+  Mn132  1  0.33337876  0.16532954  0.00156763  1
  Mn3.30+  Mn133  1  0.33358318  0.16665995  0.50094122  1
  Mn3.30+  Mn134  1  0.33427081  0.50106109  -0.00081389  1
  Mn3.30+  Mn135  1  0.33045435  0.50241411  0.49962838  1
  Mn3.30+  Mn136  1  0.33387663  0.83331263  0.00005054  1
  Mn3.30+  Mn137  1  0.33292711  0.83387244  0.50220530  1
  Mn3.30+  Mn138  1  0.66308465  0.16624004  -0.00002159  1
  Mn3.30+  Mn139  1  0.66466676  0.16478416  0.49931813  1
  Mn3.30+  Mn140  1  0.66867837  0.49885690  -0.00080684  1
  Mn3.30+  Mn141  1  0.66817144  0.50046874  0.50075758  1
  Mn3.30+  Mn142  1  0.66509284  0.83197502  -0.00137077  1
  Mn3.30+  Mn143  1  0.66935712  0.83399575  0.49970928  1
  O2-  O144  1  0.02820778  0.16078566  0.12422462  1
  O2-  O145  1  0.02377259  0.16053488  0.62716815  1
  O2-  O146  1  0.02064223  0.49577652  0.12380581  1
  O2-  O147  1  0.01926599  0.49162858  0.62523505  1
  O2-  O148  1  0.02888660  0.82651403  0.12468065  1
  O2-  O149  1  0.01674106  0.83098295  0.62602581  1
  O2-  O150  1  0.35792259  0.16325659  0.12479334  1
  O2-  O151  1  0.35763732  0.16284415  0.62527273  1
  O2-  O152  1  0.35776741  0.49434657  0.12599667  1
  O2-  O153  1  0.35790814  0.49044137  0.62520940  1
  O2-  O154  1  0.34906383  0.82790549  0.12317084  1
  O2-  O155  1  0.35693206  0.82403129  0.62670615  1
  O2-  O156  1  0.69075044  0.15526961  0.12493818  1
  O2-  O157  1  0.69356343  0.16120105  0.62285963  1
  O2-  O158  1  0.69290091  0.49359818  0.12414210  1
  O2-  O159  1  0.69644206  0.49384405  0.62318988  1
  O2-  O160  1  0.69101767  0.82937950  0.12502004  1
  O2-  O161  1  0.69451875  0.82805372  0.62669910  1
  O2-  O162  1  0.14432217  0.32777437  0.12274637  1
  O2-  O163  1  0.14110807  0.32624193  0.62625149  1
  O2-  O164  1  0.14531672  0.66794263  0.12359342  1
  O2-  O165  1  0.14005464  0.66474002  0.62574517  1
  O2-  O166  1  0.13973589  0.99099806  0.12547871  1
  O2-  O167  1  0.14019643  1.00232159  0.62562950  1
  O2-  O168  1  0.47390503  0.32961851  0.12561712  1
  O2-  O169  1  0.47556975  0.32641725  0.62553918  1
  O2-  O170  1  0.48460679  0.66075445  0.12392040  1
  O2-  O171  1  0.47315908  0.66290594  0.62585826  1
  O2-  O172  1  0.47551106  0.99758697  0.12554356  1
  O2-  O173  1  0.47318701  0.99154628  0.62400592  1
  O2-  O174  1  0.80436433  0.32902876  0.12504663  1
  O2-  O175  1  0.80830697  0.32757515  0.62498713  1
  O2-  O176  1  0.80507325  0.65908461  0.12424705  1
  O2-  O177  1  0.80838614  0.66175255  0.62744817  1
  O2-  O178  1  0.80520639  0.99296276  0.12497366  1
  O2-  O179  1  0.80626256  0.99370351  0.62364260  1
  O2-  O180  1  0.30651496  0.17438995  0.37533747  1
  O2-  O181  1  0.30880748  0.17069217  0.87565907  1
  O2-  O182  1  0.30761278  0.50120570  0.37689694  1
  O2-  O183  1  0.31361864  0.50378691  0.87240518  1
  O2-  O184  1  0.31017061  0.84178206  0.37582142  1
  O2-  O185  1  0.30874697  0.84371357  0.87390722  1
  O2-  O186  1  0.64654547  0.17431329  0.37498355  1
  O2-  O187  1  0.63706363  0.17262027  0.87699719  1
  O2-  O188  1  0.64133596  0.50716422  0.37789455  1
  O2-  O189  1  0.64185267  0.50347437  0.87404609  1
  O2-  O190  1  0.64348811  0.83532052  0.37695762  1
  O2-  O191  1  0.64057996  0.84118849  0.87267580  1
  O2-  O192  1  0.97204718  0.17313757  0.37152133  1
  O2-  O193  1  0.97288131  0.17279820  0.87632943  1
  O2-  O194  1  0.97441662  0.50760079  0.37481575  1
  O2-  O195  1  0.97063606  0.50565895  0.87524787  1
  O2-  O196  1  0.97360519  0.83839716  0.37310173  1
  O2-  O197  1  0.97393887  0.83900067  0.87613371  1
  O2-  O198  1  0.19095738  0.00722731  0.37424034  1
  O2-  O199  1  0.19264544  0.00635791  0.87534034  1
  O2-  O200  1  0.18854036  0.33560796  0.37618711  1
  O2-  O201  1  0.19372242  0.33996967  0.87519926  1
  O2-  O202  1  0.18368772  0.67312539  0.37701761  1
  O2-  O203  1  0.19046287  0.67079549  0.87357413  1
  O2-  O204  1  0.52497857  0.00226664  0.37746827  1
  O2-  O205  1  0.52086169  0.00709454  0.87358248  1
  O2-  O206  1  0.52517386  0.34085939  0.37490799  1
  O2-  O207  1  0.52649220  0.34178727  0.87424546  1
  O2-  O208  1  0.52642834  0.67096899  0.37776180  1
  O2-  O209  1  0.52957938  0.66864450  0.87245186  1
  O2-  O210  1  0.86006630  0.00703298  0.37424928  1
  O2-  O211  1  0.85931151  0.00593236  0.87698395  1
  O2-  O212  1  0.86155657  0.33713989  0.37263790  1
  O2-  O213  1  0.85650178  0.33556100  0.87586403  1
  O2-  O214  1  0.86101317  0.67231371  0.37181896  1
  O2-  O215  1  0.86037026  0.67249875  0.87562866  1
  O2-  O216  1  0.23278769  0.09931939  0.01893210  1
  O2-  O217  1  0.23579819  0.09772927  0.51722914  1
  O2-  O218  1  0.24287203  0.42546524  0.01658428  1
  O2-  O219  1  0.24214041  0.42260612  0.51861782  1
  O2-  O220  1  0.23505850  0.76675876  0.01188503  1
  O2-  O221  1  0.24026186  0.76129044  0.51267477  1
  O2-  O222  1  0.57042430  0.09431396  0.02180564  1
  O2-  O223  1  0.57055521  0.09453872  0.52515605  1
  O2-  O224  1  0.57179872  0.42923699  0.01898187  1
  O2-  O225  1  0.57297589  0.42735123  0.52221372  1
  O2-  O226  1  0.57367866  0.76052413  0.01653910  1
  O2-  O227  1  0.57533540  0.76190459  0.52231669  1
  O2-  O228  1  0.90415214  0.09432822  0.02221160  1
  O2-  O229  1  0.90269137  0.09460221  0.51994265  1
  O2-  O230  1  0.90802309  0.42572468  0.02113647  1
  O2-  O231  1  0.90404799  0.42958766  0.51857328  1
  O2-  O232  1  0.90366065  0.75918660  0.02125147  1
  O2-  O233  1  0.90392939  0.76144029  0.51876305  1
  O2-  O234  1  0.26194536  0.26186629  0.23258880  1
  O2-  O235  1  0.26366525  0.25956318  0.73054315  1
  O2-  O236  1  0.26090231  0.59451012  0.23430694  1
  O2-  O237  1  0.26366255  0.59648389  0.73238366  1
  O2-  O238  1  0.26246525  0.93124156  0.22990493  1
  O2-  O239  1  0.26437356  0.93313290  0.73092711  1
  O2-  O240  1  0.59532135  0.26129603  0.22944078  1
  O2-  O241  1  0.59690985  0.26368920  0.73037069  1
  O2-  O242  1  0.59747512  0.59289558  0.23107493  1
  O2-  O243  1  0.59536451  0.59277455  0.72614236  1
  O2-  O244  1  0.59748317  0.92708351  0.23552789  1
  O2-  O245  1  0.59264433  0.93058161  0.72959720  1
  O2-  O246  1  0.92658325  0.25899670  0.22234131  1
  O2-  O247  1  0.92719862  0.26126736  0.73050231  1
  O2-  O248  1  0.92739046  0.59437071  0.22798317  1
  O2-  O249  1  0.93141279  0.59821414  0.72830420  1
  O2-  O250  1  0.92973325  0.92760813  0.22716823  1
  O2-  O251  1  0.92721958  0.92881637  0.73071301  1
  O2-  O252  1  0.09251684  0.23848074  0.26885026  1
  O2-  O253  1  0.09440411  0.24068059  0.77273449  1
  O2-  O254  1  0.09188545  0.57166306  0.27041211  1
  O2-  O255  1  0.09434370  0.57236314  0.77384909  1
  O2-  O256  1  0.09667539  0.90649070  0.27158046  1
  O2-  O257  1  0.09418540  0.90877669  0.77190110  1
  O2-  O258  1  0.42588997  0.24379699  0.26701006  1
  O2-  O259  1  0.42833585  0.23880148  0.77380473  1
  O2-  O260  1  0.43029819  0.57082455  0.26709489  1
  O2-  O261  1  0.43230610  0.56910577  0.76589980  1
  O2-  O262  1  0.42682727  0.90864065  0.27319382  1
  O2-  O263  1  0.42983657  0.90411099  0.76899315  1
  O2-  O264  1  0.76176187  0.23666002  0.26852063  1
  O2-  O265  1  0.76018669  0.23638943  0.77056399  1
  O2-  O266  1  0.76358898  0.57200474  0.27137631  1
  O2-  O267  1  0.76760027  0.56773998  0.76826309  1
  O2-  O268  1  0.76570622  0.90030626  0.26884898  1
  O2-  O269  1  0.76143098  0.90503559  0.77188060  1
  O2-  O270  1  0.06901110  0.07319444  0.47877427  1
  O2-  O271  1  0.07106703  0.07083591  0.97885030  1
  O2-  O272  1  0.06796715  0.40202063  0.48231838  1
  O2-  O273  1  0.07282971  0.40818863  0.97816663  1
  O2-  O274  1  0.07310506  0.73976874  0.48124165  1
  O2-  O275  1  0.07112752  0.73862131  0.97863011  1
  O2-  O276  1  0.40203285  0.07298967  0.48112265  1
  O2-  O277  1  0.40233721  0.07131489  0.98246354  1
  O2-  O278  1  0.40644145  0.40876585  0.48002054  1
  O2-  O279  1  0.40839202  0.40387325  0.98005527  1
  O2-  O280  1  0.41267197  0.74600520  0.48027358  1
  O2-  O281  1  0.40593073  0.73921481  0.97520739  1
  O2-  O282  1  0.73599512  0.06872686  0.47793840  1
  O2-  O283  1  0.73535563  0.07282913  0.97747332  1
  O2-  O284  1  0.73972233  0.40351659  0.47701288  1
  O2-  O285  1  0.73728236  0.40456115  0.97860737  1
  O2-  O286  1  0.73729465  0.73577836  0.48301162  1
  O2-  O287  1  0.73922976  0.73503147  0.97866686  1
  O2-  O288  1  0.09470940  0.23723392  0.48217590  1
  O2-  O289  1  0.09262032  0.24236261  0.97611768  1
  O2-  O290  1  0.09562166  0.56968358  0.47714741  1
  O2-  O291  1  0.09090649  0.57445087  0.97720225  1
  O2-  O292  1  0.09271990  0.90758714  0.47879458  1
  O2-  O293  1  0.09739426  0.90683618  0.97841523  1
  O2-  O294  1  0.42088299  0.24485410  0.48046997  1
  O2-  O295  1  0.43083718  0.23728848  0.97984238  1
  O2-  O296  1  0.43112888  0.57076044  0.48407092  1
  O2-  O297  1  0.43173842  0.56998644  0.98331213  1
  O2-  O298  1  0.42956753  0.90676009  0.48069546  1
  O2-  O299  1  0.42760949  0.90568669  0.97702188  1
  O2-  O300  1  0.76277400  0.23707475  0.48003650  1
  O2-  O301  1  0.75987130  0.23584556  0.98003534  1
  O2-  O302  1  0.76504328  0.57257044  0.47922899  1
  O2-  O303  1  0.76557414  0.56691961  0.98006728  1
  O2-  O304  1  0.76472557  0.90079436  0.48065482  1
  O2-  O305  1  0.76020739  0.90354093  0.97942825  1
  O2-  O306  1  0.06872032  0.07138932  0.27022260  1
  O2-  O307  1  0.07165166  0.07273804  0.77221270  1
  O2-  O308  1  0.06882868  0.40287477  0.26651333  1
  O2-  O309  1  0.07107382  0.40771331  0.77245191  1
  O2-  O310  1  0.07171508  0.73842683  0.26956455  1
  O2-  O311  1  0.07230502  0.74024090  0.77137936  1
  O2-  O312  1  0.40059129  0.07440388  0.26868567  1
  O2-  O313  1  0.40331973  0.07140456  0.76818163  1
  O2-  O314  1  0.40644586  0.40762743  0.27119770  1
  O2-  O315  1  0.40783782  0.40399836  0.76943722  1
  O2-  O316  1  0.41162495  0.74522091  0.26892878  1
  O2-  O317  1  0.40716135  0.73857823  0.77477061  1
  O2-  O318  1  0.73644592  0.06995031  0.27162902  1
  O2-  O319  1  0.73647032  0.07148078  0.77104397  1
  O2-  O320  1  0.73933633  0.40701241  0.27396544  1
  O2-  O321  1  0.73594126  0.40182098  0.76807941  1
  O2-  O322  1  0.73975919  0.73627295  0.26764866  1
  O2-  O323  1  0.73806837  0.73327896  0.77262556  1
  O2-  O324  1  0.23268337  0.09813964  0.23155982  1
  O2-  O325  1  0.23576177  0.09803276  0.73378915  1
  O2-  O326  1  0.24303777  0.42400429  0.23336942  1
  O2-  O327  1  0.24164236  0.42574826  0.73297810  1
  O2-  O328  1  0.23726261  0.76583781  0.23869344  1
  O2-  O329  1  0.23795680  0.76286072  0.73619666  1
  O2-  O330  1  0.57099932  0.09391295  0.22831272  1
  O2-  O331  1  0.57100154  0.09473765  0.72559447  1
  O2-  O332  1  0.57073467  0.42808753  0.23201475  1
  O2-  O333  1  0.57231246  0.42738265  0.72715641  1
  O2-  O334  1  0.57823027  0.75900360  0.23462527  1
  O2-  O335  1  0.57067111  0.76139608  0.72749305  1
  O2-  O336  1  0.90372324  0.09447796  0.22736559  1
  O2-  O337  1  0.90326539  0.09345281  0.72983986  1
  O2-  O338  1  0.90519472  0.42848583  0.22890579  1
  O2-  O339  1  0.90669942  0.42710213  0.73008005  1
  O2-  O340  1  0.90693285  0.75778142  0.22339385  1
  O2-  O341  1  0.89964177  0.76258787  0.73492757  1
  O2-  O342  1  0.26646149  0.26157510  0.01677642  1
  O2-  O343  1  0.25850347  0.25999434  0.52118027  1
  O2-  O344  1  0.25884458  0.59359280  0.01092893  1
  O2-  O345  1  0.26421005  0.59677630  0.52268023  1
  O2-  O346  1  0.26283964  0.93259170  0.02152164  1
  O2-  O347  1  0.26490061  0.93111443  0.51798283  1
  O2-  O348  1  0.59594129  0.26274394  0.02432905  1
  O2-  O349  1  0.59751391  0.26151165  0.51660824  1
  O2-  O350  1  0.59807422  0.59121370  0.02005056  1
  O2-  O351  1  0.59509080  0.59559972  0.52273657  1
  O2-  O352  1  0.59442474  0.93188463  0.01479151  1
  O2-  O353  1  0.59510724  0.92581211  0.52203465  1
  O2-  O354  1  0.92652100  0.26122882  0.02202725  1
  O2-  O355  1  0.92714189  0.25986206  0.52305503  1
  O2-  O356  1  0.92770517  0.59545794  0.02158126  1
  O2-  O357  1  0.93124026  0.59633556  0.52037670  1
  O2-  O358  1  0.92963171  0.92588830  0.02224839  1
  O2-  O359  1  0.92727784  0.93051503  0.51954956  1
