# generated using pymatgen
data_Sr7Ca15Pr50Mn72O216
_symmetry_space_group_name_H-M   'P 1'
_cell_length_a   16.56038209
_cell_length_b   16.60509325
_cell_length_c   15.59270847
_cell_angle_alpha   90.00593125
_cell_angle_beta   90.00103112
_cell_angle_gamma   90.00694014
_symmetry_Int_Tables_number   1
_chemical_formula_structural   Sr7Ca15Pr50Mn72O216
_chemical_formula_sum   'Sr7 Ca15 Pr50 Mn72 O216'
_cell_volume   4287.78721635
_cell_formula_units_Z   1
loop_
 _symmetry_equiv_pos_site_id
 _symmetry_equiv_pos_as_xyz
  1  'x, y, z'
loop_
 _atom_type_symbol
 _atom_type_oxidation_number
  Sr2+  2.0
  Ca2+  2.0
  Pr3+  3.0
  Mn3.30+  3.3
  O2-  -2.0
loop_
 _atom_site_type_symbol
 _atom_site_label
 _atom_site_symmetry_multiplicity
 _atom_site_fract_x
 _atom_site_fract_y
 _atom_site_fract_z
 _atom_site_occupancy
  Sr2+  Sr0  1  0.00027712  0.01194458  0.12441838  1
  Sr2+  Sr1  1  0.33491682  0.99114051  0.87752598  1
  Sr2+  Sr2  1  0.50066908  0.82328012  0.37537047  1
  Sr2+  Sr3  1  0.50100978  0.15929713  0.37291936  1
  Sr2+  Sr4  1  0.16715201  0.17344696  0.12582619  1
  Sr2+  Sr5  1  0.33458870  0.32378692  0.87648040  1
  Sr2+  Sr6  1  0.99943054  0.99188900  0.37228882  1
  Ca2+  Ca7  1  1.00014970  0.31902084  0.37501375  1
  Ca2+  Ca8  1  0.33134167  0.68167753  0.12609191  1
  Ca2+  Ca9  1  0.50360818  0.51522484  0.62428411  1
  Ca2+  Ca10  1  0.50127234  0.17873381  0.12485402  1
  Ca2+  Ca11  1  -0.00449242  0.01375423  0.62565926  1
  Ca2+  Ca12  1  0.66132059  0.01783568  0.12628440  1
  Ca2+  Ca13  1  0.33424234  0.68065906  0.62390508  1
  Ca2+  Ca14  1  0.83642616  0.51282988  0.12725898  1
  Ca2+  Ca15  1  1.00666406  0.98692508  0.87781536  1
  Ca2+  Ca16  1  0.32870243  0.01676751  0.12518480  1
  Ca2+  Ca17  1  0.67046524  0.31737278  0.37357100  1
  Ca2+  Ca18  1  0.66876944  0.65154492  0.87594943  1
  Ca2+  Ca19  1  0.82737463  0.48291436  0.37333672  1
  Ca2+  Ca20  1  1.00464773  0.31847138  0.87467011  1
  Ca2+  Ca21  1  0.67055341  0.64981201  0.37326551  1
  Pr3+  Pr22  1  -0.00468854  0.34448418  0.12624923  1
  Pr3+  Pr23  1  0.16299376  0.15456219  0.37344315  1
  Pr3+  Pr24  1  0.83736189  0.17820169  0.12586104  1
  Pr3+  Pr25  1  0.49622285  0.82025287  0.87499712  1
  Pr3+  Pr26  1  0.83499203  0.51338860  0.62283491  1
  Pr3+  Pr27  1  0.17189955  0.84875701  0.12518821  1
  Pr3+  Pr28  1  0.49439503  0.15478713  0.87747995  1
  Pr3+  Pr29  1  0.33810521  0.98829774  0.37253549  1
  Pr3+  Pr30  1  0.66491231  0.01199542  0.62518112  1
  Pr3+  Pr31  1  0.83086589  0.81883584  0.87723661  1
  Pr3+  Pr32  1  0.66898166  0.98779241  0.87764533  1
  Pr3+  Pr33  1  0.50161198  0.84880186  0.12635135  1
  Pr3+  Pr34  1  0.66961022  0.98930403  0.37230534  1
  Pr3+  Pr35  1  0.16767397  0.84671133  0.62477576  1
  Pr3+  Pr36  1  0.16375655  0.82248488  0.37367255  1
  Pr3+  Pr37  1  0.50288316  0.17924417  0.62565842  1
  Pr3+  Pr38  1  0.16506246  0.82248565  0.87637949  1
  Pr3+  Pr39  1  0.33816940  0.65679460  0.37511342  1
  Pr3+  Pr40  1  0.16621299  0.17762172  0.62402281  1
  Pr3+  Pr41  1  0.16282035  0.48336638  0.87518821  1
  Pr3+  Pr42  1  0.83809890  0.84798752  0.62522688  1
  Pr3+  Pr43  1  0.50081678  0.48924929  0.37564248  1
  Pr3+  Pr44  1  0.16323248  0.15302168  0.87604848  1
  Pr3+  Pr45  1  0.82982225  0.15381830  0.37323645  1
  Pr3+  Pr46  1  0.17102654  0.51175151  0.12515994  1
  Pr3+  Pr47  1  0.66897542  0.32012295  0.87545687  1
  Pr3+  Pr48  1  0.66435383  0.67700086  0.12551132  1
  Pr3+  Pr49  1  0.33652307  0.65533987  0.87514810  1
  Pr3+  Pr50  1  0.49861426  0.48851073  0.87532194  1
  Pr3+  Pr51  1  1.00397704  0.65299400  0.87572058  1
  Pr3+  Pr52  1  0.83477896  0.15353431  0.87601901  1
  Pr3+  Pr53  1  0.33614269  0.32054862  0.37467988  1
  Pr3+  Pr54  1  0.50096294  0.84509540  0.62396490  1
  Pr3+  Pr55  1  0.82780320  0.82022915  0.37264318  1
  Pr3+  Pr56  1  0.50061018  0.51116957  0.12558045  1
  Pr3+  Pr57  1  -0.00431879  0.68039862  0.62469896  1
  Pr3+  Pr58  1  -0.00416017  0.67830190  0.12485603  1
  Pr3+  Pr59  1  0.33159994  0.33975784  0.12587086  1
  Pr3+  Pr60  1  0.83505547  0.84677527  0.12450939  1
  Pr3+  Pr61  1  0.83075414  0.48741891  0.87560644  1
  Pr3+  Pr62  1  0.17133434  0.51517260  0.62514937  1
  Pr3+  Pr63  1  0.33192817  0.34611580  0.62452900  1
  Pr3+  Pr64  1  0.16098804  0.48503498  0.37498274  1
  Pr3+  Pr65  1  0.66496279  0.34417014  0.12779886  1
  Pr3+  Pr66  1  0.66199008  0.67697058  0.62432581  1
  Pr3+  Pr67  1  0.33149829  0.01227668  0.62499973  1
  Pr3+  Pr68  1  1.00168123  0.65455745  0.37408098  1
  Pr3+  Pr69  1  -0.00428148  0.34575961  0.62394133  1
  Pr3+  Pr70  1  0.66210935  0.34910111  0.62236375  1
  Pr3+  Pr71  1  0.83760209  0.17828559  0.62375859  1
  Mn3.30+  Mn72  1  0.16860094  0.00068454  -0.00004774  1
  Mn3.30+  Mn73  1  0.16417284  0.00015245  0.50067005  1
  Mn3.30+  Mn74  1  0.16444639  0.33119150  0.00041638  1
  Mn3.30+  Mn75  1  0.16441972  0.33344832  0.49972869  1
  Mn3.30+  Mn76  1  0.16858073  0.66634913  0.00115135  1
  Mn3.30+  Mn77  1  0.16813273  0.66756792  0.50029714  1
  Mn3.30+  Mn78  1  0.49980909  0.00213480  0.00416663  1
  Mn3.30+  Mn79  1  0.50059304  0.00090939  0.49820477  1
  Mn3.30+  Mn80  1  0.50026342  0.33283187  0.00163603  1
  Mn3.30+  Mn81  1  0.50120227  0.33534192  0.49893537  1
  Mn3.30+  Mn82  1  0.50002790  0.66698802  0.00114539  1
  Mn3.30+  Mn83  1  0.50095252  0.66589679  0.49927081  1
  Mn3.30+  Mn84  1  0.83439924  0.00000086  -0.00014520  1
  Mn3.30+  Mn85  1  0.83499325  -0.00084158  0.49997187  1
  Mn3.30+  Mn86  1  0.83437315  0.33388799  -0.00091877  1
  Mn3.30+  Mn87  1  0.83147530  0.33383412  0.49729915  1
  Mn3.30+  Mn88  1  0.83184756  0.66391792  0.00042984  1
  Mn3.30+  Mn89  1  0.83087645  0.66519060  0.49737292  1
  Mn3.30+  Mn90  1  -0.00020378  0.16823358  0.25005900  1
  Mn3.30+  Mn91  1  -0.00001423  0.16466556  0.75037361  1
  Mn3.30+  Mn92  1  -0.00345668  0.49819780  0.25159630  1
  Mn3.30+  Mn93  1  0.00016676  0.49900528  0.74892843  1
  Mn3.30+  Mn94  1  -0.00096214  0.83397495  0.24957697  1
  Mn3.30+  Mn95  1  -0.00019692  0.83549037  0.75139113  1
  Mn3.30+  Mn96  1  0.33481437  0.16621581  0.24889407  1
  Mn3.30+  Mn97  1  0.33293830  0.16784289  0.75046409  1
  Mn3.30+  Mn98  1  0.33259864  0.50082760  0.25122582  1
  Mn3.30+  Mn99  1  0.33529264  0.50201977  0.74769296  1
  Mn3.30+  Mn100  1  0.33483465  0.83345325  0.24882610  1
  Mn3.30+  Mn101  1  0.33265527  0.83320255  0.74964830  1
  Mn3.30+  Mn102  1  0.66539582  0.16669434  0.24857496  1
  Mn3.30+  Mn103  1  0.66758492  0.16646439  0.75097571  1
  Mn3.30+  Mn104  1  0.67004486  0.49931471  0.25037218  1
  Mn3.30+  Mn105  1  0.66547821  0.50112106  0.75041356  1
  Mn3.30+  Mn106  1  0.66572093  0.83264601  0.24888366  1
  Mn3.30+  Mn107  1  0.66713280  0.83144774  0.75134395  1
  Mn3.30+  Mn108  1  0.16902814  0.00096845  0.24949802  1
  Mn3.30+  Mn109  1  0.16343239  -0.00008910  0.74954892  1
  Mn3.30+  Mn110  1  0.16385467  0.33246103  0.25045988  1
  Mn3.30+  Mn111  1  0.16512117  0.33224183  0.74975389  1
  Mn3.30+  Mn112  1  0.16817191  0.66652972  0.24946014  1
  Mn3.30+  Mn113  1  0.16849871  0.66748271  0.74907139  1
  Mn3.30+  Mn114  1  0.50009114  0.00315461  0.24747472  1
  Mn3.30+  Mn115  1  0.50015474  -0.00019829  0.75099305  1
  Mn3.30+  Mn116  1  0.50150673  0.33269609  0.25128677  1
  Mn3.30+  Mn117  1  0.49980405  0.33573190  0.74932109  1
  Mn3.30+  Mn118  1  0.50044147  0.66715365  0.25065893  1
  Mn3.30+  Mn119  1  0.50021747  0.66554343  0.74896650  1
  Mn3.30+  Mn120  1  0.83225520  -0.00004522  0.24659604  1
  Mn3.30+  Mn121  1  0.83685441  -0.00089876  0.75304498  1
  Mn3.30+  Mn122  1  0.83213052  0.33501185  0.25233609  1
  Mn3.30+  Mn123  1  0.83413614  0.33300997  0.75034219  1
  Mn3.30+  Mn124  1  0.83157327  0.66276494  0.25020303  1
  Mn3.30+  Mn125  1  0.83130247  0.66641118  0.75109971  1
  Mn3.30+  Mn126  1  0.00034655  0.16735920  -0.00013944  1
  Mn3.30+  Mn127  1  -0.00033210  0.16601102  0.49899949  1
  Mn3.30+  Mn128  1  -0.00127132  0.49776137  0.00112839  1
  Mn3.30+  Mn129  1  -0.00238369  0.49916986  0.49727735  1
  Mn3.30+  Mn130  1  0.00000095  0.83445104  0.00010656  1
  Mn3.30+  Mn131  1  -0.00106568  0.83531895  0.49875497  1
  Mn3.30+  Mn132  1  0.33368326  0.16671033  0.00142536  1
  Mn3.30+  Mn133  1  0.33371800  0.16711910  0.49983967  1
  Mn3.30+  Mn134  1  0.33317350  0.50047115  0.00053425  1
  Mn3.30+  Mn135  1  0.33434556  0.50243872  0.50123636  1
  Mn3.30+  Mn136  1  0.33434170  0.83432037  0.00120035  1
  Mn3.30+  Mn137  1  0.33338880  0.83278293  0.50050564  1
  Mn3.30+  Mn138  1  0.66564798  0.16606929  0.00143043  1
  Mn3.30+  Mn139  1  0.66748021  0.16735945  0.49930289  1
  Mn3.30+  Mn140  1  0.66824301  0.50028913  0.00190770  1
  Mn3.30+  Mn141  1  0.66740091  0.50002387  0.49706887  1
  Mn3.30+  Mn142  1  0.66547230  0.83312331  0.00087121  1
  Mn3.30+  Mn143  1  0.66761548  0.83125218  0.49926117  1
  O2-  O144  1  0.01626197  0.17055029  0.12584030  1
  O2-  O145  1  0.02209323  0.15856275  0.62437170  1
  O2-  O146  1  0.02705945  0.49378943  0.12785998  1
  O2-  O147  1  0.02593968  0.49464258  0.62376665  1
  O2-  O148  1  0.02530572  0.82537154  0.12519727  1
  O2-  O149  1  0.02334957  0.82506789  0.62632633  1
  O2-  O150  1  0.35747024  0.16612917  0.12572301  1
  O2-  O151  1  0.35808634  0.16157148  0.62430625  1
  O2-  O152  1  0.35601024  0.48843941  0.12850479  1
  O2-  O153  1  0.36143354  0.49152740  0.62425860  1
  O2-  O154  1  0.35859468  0.82373826  0.12464209  1
  O2-  O155  1  0.35702742  0.82864074  0.62543563  1
  O2-  O156  1  0.69376862  0.16474334  0.12229061  1
  O2-  O157  1  0.69334068  0.16064407  0.62633347  1
  O2-  O158  1  0.69535903  0.49210839  0.12569441  1
  O2-  O159  1  0.69233194  0.49635548  0.62225161  1
  O2-  O160  1  0.69217465  0.82364869  0.12297698  1
  O2-  O161  1  0.69399606  0.82496624  0.62411497  1
  O2-  O162  1  0.14047309  0.33324885  0.12515818  1
  O2-  O163  1  0.13982217  0.32902392  0.62365129  1
  O2-  O164  1  0.13996817  0.66001195  0.12505897  1
  O2-  O165  1  0.13875268  0.66227190  0.62450369  1
  O2-  O166  1  0.14918786  0.99637700  0.12455065  1
  O2-  O167  1  0.13690757  0.99522799  0.62501785  1
  O2-  O168  1  0.47664166  0.33014314  0.12733844  1
  O2-  O169  1  0.47575082  0.32695125  0.62418044  1
  O2-  O170  1  0.47307841  0.65890452  0.12581010  1
  O2-  O171  1  0.47559620  0.65924658  0.62445236  1
  O2-  O172  1  0.47011941  0.99442662  0.12511252  1
  O2-  O173  1  0.47728339  0.99493872  0.62432459  1
  O2-  O174  1  0.80803274  0.32489887  0.12412073  1
  O2-  O175  1  0.80618214  0.32675444  0.62500115  1
  O2-  O176  1  0.80832279  0.65853382  0.12473878  1
  O2-  O177  1  0.80735626  0.66216423  0.62381754  1
  O2-  O178  1  0.80546122  0.99630664  0.12205174  1
  O2-  O179  1  0.80836340  0.99589392  0.62888438  1
  O2-  O180  1  0.30772381  0.17263905  0.37769512  1
  O2-  O181  1  0.30968247  0.16969077  0.87307879  1
  O2-  O182  1  0.30494433  0.50893818  0.37566754  1
  O2-  O183  1  0.30695121  0.50808327  0.87228551  1
  O2-  O184  1  0.30797237  0.83957764  0.37564631  1
  O2-  O185  1  0.30984375  0.83493692  0.87419286  1
  O2-  O186  1  0.65073942  0.16822805  0.37606169  1
  O2-  O187  1  0.63929292  0.17156876  0.87558927  1
  O2-  O188  1  0.64218839  0.50741938  0.37372133  1
  O2-  O189  1  0.64241895  0.50416603  0.87783700  1
  O2-  O190  1  0.64960423  0.84302169  0.37516684  1
  O2-  O191  1  0.63924105  0.84194473  0.87841581  1
  O2-  O192  1  0.97475142  0.17207629  0.37531033  1
  O2-  O193  1  0.97662119  0.17609826  0.87414938  1
  O2-  O194  1  0.97077487  0.50948448  0.37516469  1
  O2-  O195  1  0.97498193  0.50712855  0.87281818  1
  O2-  O196  1  0.97335289  0.83521150  0.37257724  1
  O2-  O197  1  0.97533349  0.83898243  0.87549173  1
  O2-  O198  1  0.19297868  0.00336582  0.37604502  1
  O2-  O199  1  0.18633242  0.00268776  0.87412754  1
  O2-  O200  1  0.19199748  0.33811467  0.37737969  1
  O2-  O201  1  0.18552519  0.33623765  0.87383468  1
  O2-  O202  1  0.19316078  0.67319568  0.37505768  1
  O2-  O203  1  0.19204387  0.67229670  0.87521560  1
  O2-  O204  1  0.52565932  0.00359000  0.37394429  1
  O2-  O205  1  0.52521576  0.00597551  0.87741104  1
  O2-  O206  1  0.52701533  0.34069622  0.37573699  1
  O2-  O207  1  0.52548466  0.34036711  0.87412275  1
  O2-  O208  1  0.52681453  0.66761721  0.37375906  1
  O2-  O209  1  0.52702926  0.67315605  0.87616042  1
  O2-  O210  1  0.84843336  0.00324153  0.37202237  1
  O2-  O211  1  0.86325270  0.00475731  0.87580363  1
  O2-  O212  1  0.85917065  0.33878418  0.37636837  1
  O2-  O213  1  0.86134501  0.34094097  0.87405930  1
  O2-  O214  1  0.85965088  0.67506890  0.37420074  1
  O2-  O215  1  0.86036209  0.66996095  0.87595676  1
  O2-  O216  1  0.24080016  0.09404428  0.01287435  1
  O2-  O217  1  0.23857564  0.09343552  0.52171244  1
  O2-  O218  1  0.23615557  0.42685536  0.01706112  1
  O2-  O219  1  0.23822822  0.42904238  0.52073925  1
  O2-  O220  1  0.23738475  0.76304731  0.01797707  1
  O2-  O221  1  0.23597851  0.76296476  0.51816348  1
  O2-  O222  1  0.57053709  0.09800519  0.02003593  1
  O2-  O223  1  0.57558855  0.09350490  0.52302284  1
  O2-  O224  1  0.57436571  0.42792734  0.02186481  1
  O2-  O225  1  0.57043638  0.43063103  0.52109792  1
  O2-  O226  1  0.56992109  0.76077765  0.02284280  1
  O2-  O227  1  0.57252906  0.75923534  0.52325682  1
  O2-  O228  1  0.90348491  0.09795265  0.01584922  1
  O2-  O229  1  0.90334569  0.09549013  0.51545952  1
  O2-  O230  1  0.90358009  0.42958898  0.02282399  1
  O2-  O231  1  0.90316211  0.42562155  0.52377700  1
  O2-  O232  1  0.90324865  0.75860961  0.02005864  1
  O2-  O233  1  0.90367059  0.76172706  0.51974107  1
  O2-  O234  1  0.26244194  0.26227717  0.23496733  1
  O2-  O235  1  0.25915182  0.26055276  0.72545547  1
  O2-  O236  1  0.26241370  0.59484426  0.22772166  1
  O2-  O237  1  0.26488429  0.59558169  0.72582969  1
  O2-  O238  1  0.26417544  0.92775545  0.22979134  1
  O2-  O239  1  0.25801116  0.92755063  0.72630044  1
  O2-  O240  1  0.59681164  0.26002028  0.23204935  1
  O2-  O241  1  0.59420683  0.26412033  0.72936583  1
  O2-  O242  1  0.59495146  0.59097565  0.22644704  1
  O2-  O243  1  0.59583739  0.59513169  0.73141052  1
  O2-  O244  1  0.59336586  0.93034716  0.22788556  1
  O2-  O245  1  0.59663707  0.92668341  0.73021048  1
  O2-  O246  1  0.92461037  0.26275524  0.23159996  1
  O2-  O247  1  0.92776216  0.25897486  0.72649279  1
  O2-  O248  1  0.93132051  0.59642233  0.23115308  1
  O2-  O249  1  0.92904693  0.59467393  0.72867498  1
  O2-  O250  1  0.92244842  0.92445677  0.22839500  1
  O2-  O251  1  0.92849796  0.92771617  0.72631088  1
  O2-  O252  1  0.09347764  0.24121947  0.27199671  1
  O2-  O253  1  0.09536863  0.23329605  0.76417603  1
  O2-  O254  1  0.09497503  0.57096351  0.27136796  1
  O2-  O255  1  0.09773171  0.57208361  0.76960905  1
  O2-  O256  1  0.09807352  0.90527461  0.26541689  1
  O2-  O257  1  0.09668285  0.90222662  0.76840873  1
  O2-  O258  1  0.42290923  0.24424109  0.26999174  1
  O2-  O259  1  0.43192139  0.23938338  0.76593752  1
  O2-  O260  1  0.42827612  0.57216066  0.27128627  1
  O2-  O261  1  0.42888002  0.57422928  0.77444438  1
  O2-  O262  1  0.42712785  0.90719140  0.26775262  1
  O2-  O263  1  0.43081758  0.90358473  0.76589582  1
  O2-  O264  1  0.76366276  0.23751201  0.26695729  1
  O2-  O265  1  0.76165387  0.23877537  0.77291489  1
  O2-  O266  1  0.76415201  0.56841740  0.27093186  1
  O2-  O267  1  0.76350925  0.56932615  0.76764391  1
  O2-  O268  1  0.76024289  0.90369673  0.26568486  1
  O2-  O269  1  0.76550117  0.90562733  0.77222931  1
  O2-  O270  1  0.07602391  0.07592266  0.47830099  1
  O2-  O271  1  0.07280496  0.07428127  0.97982329  1
  O2-  O272  1  0.06896142  0.40555164  0.47727462  1
  O2-  O273  1  0.06915067  0.40410007  0.97945311  1
  O2-  O274  1  0.07009049  0.73976459  0.47930398  1
  O2-  O275  1  0.07201813  0.73824239  0.97909725  1
  O2-  O276  1  0.40207859  0.07263219  0.48317661  1
  O2-  O277  1  0.40965836  0.07613059  0.98111793  1
  O2-  O278  1  0.40314589  0.40819394  0.47754298  1
  O2-  O279  1  0.40869284  0.41056414  0.98341866  1
  O2-  O280  1  0.40566060  0.73768372  0.48272104  1
  O2-  O281  1  0.40622612  0.73991556  0.97773323  1
  O2-  O282  1  0.73824774  0.06938394  0.48301302  1
  O2-  O283  1  0.74017141  0.07386050  0.97583949  1
  O2-  O284  1  0.73323948  0.40064350  0.48139704  1
  O2-  O285  1  0.73966744  0.40402295  0.97769316  1
  O2-  O286  1  0.73725161  0.73554543  0.47666003  1
  O2-  O287  1  0.73899627  0.73589554  0.97842344  1
  O2-  O288  1  0.09499154  0.23699207  0.48334677  1
  O2-  O289  1  0.09449406  0.23817344  0.97996258  1
  O2-  O290  1  0.09624154  0.57317106  0.47917693  1
  O2-  O291  1  0.09595010  0.56987272  0.97980502  1
  O2-  O292  1  0.09655857  0.90303899  0.48183391  1
  O2-  O293  1  0.09763961  0.90487909  0.98423930  1
  O2-  O294  1  0.42562839  0.24321907  0.48298498  1
  O2-  O295  1  0.42865098  0.23985962  0.98251542  1
  O2-  O296  1  0.42812707  0.57397301  0.47582887  1
  O2-  O297  1  0.42963870  0.57405832  0.97887120  1
  O2-  O298  1  0.42435692  0.90844406  0.48346154  1
  O2-  O299  1  0.43273981  0.90259136  0.98348209  1
  O2-  O300  1  0.76431308  0.23573654  0.48256587  1
  O2-  O301  1  0.76147601  0.23937572  0.97670402  1
  O2-  O302  1  0.76574636  0.56687536  0.48064246  1
  O2-  O303  1  0.76233211  0.57081014  0.97938441  1
  O2-  O304  1  0.76414686  0.90288872  0.48416807  1
  O2-  O305  1  0.76104891  0.90502493  0.97794705  1
  O2-  O306  1  0.07771414  0.07702174  0.26758480  1
  O2-  O307  1  0.07051399  0.07161271  0.77370656  1
  O2-  O308  1  0.06780816  0.40607962  0.27374579  1
  O2-  O309  1  0.07065808  0.40427428  0.76942469  1
  O2-  O310  1  0.07242754  0.73813804  0.27044804  1
  O2-  O311  1  0.06987429  0.73929793  0.77121321  1
  O2-  O312  1  0.40542141  0.07292252  0.27034840  1
  O2-  O313  1  0.40853111  0.07489611  0.76574220  1
  O2-  O314  1  0.40481207  0.40899036  0.27347202  1
  O2-  O315  1  0.40744652  0.40863709  0.76873073  1
  O2-  O316  1  0.40367667  0.73911183  0.26962202  1
  O2-  O317  1  0.40705014  0.73826361  0.77048619  1
  O2-  O318  1  0.73787391  0.07288271  0.26674879  1
  O2-  O319  1  0.74142220  0.06902961  0.77285657  1
  O2-  O320  1  0.73508172  0.40054587  0.27016290  1
  O2-  O321  1  0.73720748  0.40588652  0.76956656  1
  O2-  O322  1  0.73886815  0.73468377  0.26918452  1
  O2-  O323  1  0.73632889  0.73792657  0.77396223  1
  O2-  O324  1  0.24210739  0.09398044  0.23746143  1
  O2-  O325  1  0.23673384  0.09284874  0.72840816  1
  O2-  O326  1  0.23656151  0.42745899  0.23297248  1
  O2-  O327  1  0.23961336  0.42929243  0.72893619  1
  O2-  O328  1  0.23704247  0.76384657  0.23216381  1
  O2-  O329  1  0.23561691  0.76238535  0.73165170  1
  O2-  O330  1  0.57140582  0.09613597  0.22685358  1
  O2-  O331  1  0.57422532  0.09384141  0.72977737  1
  O2-  O332  1  0.57284249  0.42900814  0.22907510  1
  O2-  O333  1  0.57181511  0.42983081  0.72842216  1
  O2-  O334  1  0.57313286  0.76017694  0.22660823  1
  O2-  O335  1  0.56881287  0.75945533  0.72770661  1
  O2-  O336  1  0.90335677  0.09603632  0.23483098  1
  O2-  O337  1  0.90264842  0.09677901  0.73302541  1
  O2-  O338  1  0.90346750  0.42766517  0.22618736  1
  O2-  O339  1  0.90367899  0.42754310  0.72666024  1
  O2-  O340  1  0.90304379  0.75847498  0.22781519  1
  O2-  O341  1  0.90381678  0.76158935  0.73165781  1
  O2-  O342  1  0.26110642  0.26206602  0.01937509  1
  O2-  O343  1  0.26104222  0.26083202  0.52149934  1
  O2-  O344  1  0.26322235  0.59483787  0.02233137  1
  O2-  O345  1  0.26382880  0.59504578  0.52390294  1
  O2-  O346  1  0.26376486  0.92593796  0.02218127  1
  O2-  O347  1  0.25870842  0.92876520  0.52235518  1
  O2-  O348  1  0.59804838  0.26359020  0.01696594  1
  O2-  O349  1  0.59462535  0.25875908  0.52253775  1
  O2-  O350  1  0.59299609  0.59254046  0.02351138  1
  O2-  O351  1  0.59630166  0.59438737  0.51825933  1
  O2-  O352  1  0.59446375  0.93182139  0.02417952  1
  O2-  O353  1  0.59676822  0.92522423  0.52086483  1
  O2-  O354  1  0.92569814  0.26210928  0.01976766  1
  O2-  O355  1  0.92709775  0.25984367  0.52230749  1
  O2-  O356  1  0.93120508  0.59550849  0.01759120  1
  O2-  O357  1  0.92816087  0.59622350  0.52121390  1
  O2-  O358  1  0.92377763  0.92367876  0.02100823  1
  O2-  O359  1  0.92826825  0.92814278  0.52262992  1
