# generated using pymatgen
data_Sr7Ca15Pr50Mn72O216
_symmetry_space_group_name_H-M   'P 1'
_cell_length_a   16.55832133
_cell_length_b   16.60493427
_cell_length_c   15.59264344
_cell_angle_alpha   89.99645580
_cell_angle_beta   89.99892892
_cell_angle_gamma   89.99196841
_symmetry_Int_Tables_number   1
_chemical_formula_structural   Sr7Ca15Pr50Mn72O216
_chemical_formula_sum   'Sr7 Ca15 Pr50 Mn72 O216'
_cell_volume   4287.19472689
_cell_formula_units_Z   1
loop_
 _symmetry_equiv_pos_site_id
 _symmetry_equiv_pos_as_xyz
  1  'x, y, z'
loop_
 _atom_type_symbol
 _atom_type_oxidation_number
  Sr2+  2.0
  Ca2+  2.0
  Pr3+  3.0
  Mn3.30+  3.3
  O2-  -2.0
loop_
 _atom_site_type_symbol
 _atom_site_label
 _atom_site_symmetry_multiplicity
 _atom_site_fract_x
 _atom_site_fract_y
 _atom_site_fract_z
 _atom_site_occupancy
  Sr2+  Sr0  1  1.00071134  0.65646869  0.87308282  1
  Sr2+  Sr1  1  0.50003508  0.49127757  0.87493523  1
  Sr2+  Sr2  1  0.83126272  0.82248241  0.37340889  1
  Sr2+  Sr3  1  0.83174764  0.15670288  0.87677369  1
  Sr2+  Sr4  1  0.83193064  0.49045163  0.37479010  1
  Sr2+  Sr5  1  0.83680582  0.17546415  0.62553466  1
  Sr2+  Sr6  1  0.16417185  0.17518492  0.62422131  1
  Ca2+  Ca7  1  0.49801306  0.15143770  0.37438758  1
  Ca2+  Ca8  1  -0.00425347  0.01535792  0.62371118  1
  Ca2+  Ca9  1  0.15807066  0.48026104  0.37594004  1
  Ca2+  Ca10  1  -0.00520081  0.34449268  0.62102672  1
  Ca2+  Ca11  1  0.83647042  0.17839738  0.12561357  1
  Ca2+  Ca12  1  0.67224935  0.65155795  0.87459201  1
  Ca2+  Ca13  1  0.83810470  0.85073726  0.12558501  1
  Ca2+  Ca14  1  -0.00602497  0.68100159  0.62315701  1
  Ca2+  Ca15  1  0.66858475  0.01375746  0.12652779  1
  Ca2+  Ca16  1  0.32840882  0.34866674  0.12592262  1
  Ca2+  Ca17  1  0.67348525  0.65145201  0.37562203  1
  Ca2+  Ca18  1  1.00164361  0.31898667  0.37807893  1
  Ca2+  Ca19  1  0.16043845  0.81950523  0.37574561  1
  Ca2+  Ca20  1  -0.00613789  0.01604563  0.12651632  1
  Ca2+  Ca21  1  0.66711726  0.01566826  0.62332476  1
  Pr3+  Pr22  1  -0.00658313  0.68232180  0.12539178  1
  Pr3+  Pr23  1  0.33682471  0.32197094  0.87585788  1
  Pr3+  Pr24  1  0.50116505  0.82013397  0.87580347  1
  Pr3+  Pr25  1  0.66815787  0.34297650  0.12554816  1
  Pr3+  Pr26  1  0.50060226  0.15514282  0.87604330  1
  Pr3+  Pr27  1  0.82939182  0.48864114  0.87485218  1
  Pr3+  Pr28  1  0.33125661  0.67851730  0.62528373  1
  Pr3+  Pr29  1  1.00075823  0.32020805  0.87400331  1
  Pr3+  Pr30  1  0.83640694  0.51344734  0.12728779  1
  Pr3+  Pr31  1  0.16360797  0.51056219  0.62210565  1
  Pr3+  Pr32  1  0.83494934  0.15738878  0.37358174  1
  Pr3+  Pr33  1  0.16090648  0.15476388  0.37564461  1
  Pr3+  Pr34  1  0.66656661  0.67808418  0.12736854  1
  Pr3+  Pr35  1  0.33567720  0.65271615  0.87471445  1
  Pr3+  Pr36  1  0.83851785  0.84868130  0.62353548  1
  Pr3+  Pr37  1  0.16206137  0.48707050  0.87433845  1
  Pr3+  Pr38  1  0.50569307  0.17805924  0.62291087  1
  Pr3+  Pr39  1  0.33031210  0.01356022  0.62436832  1
  Pr3+  Pr40  1  0.50573450  0.84844433  0.12594401  1
  Pr3+  Pr41  1  0.32987747  0.01283913  0.12535905  1
  Pr3+  Pr42  1  0.16455701  0.84417426  0.62405471  1
  Pr3+  Pr43  1  1.00222389  0.98609821  0.37638538  1
  Pr3+  Pr44  1  0.33106565  0.65431453  0.37493258  1
  Pr3+  Pr45  1  0.16869221  0.51140718  0.12749069  1
  Pr3+  Pr46  1  0.50021836  0.51029603  0.12512906  1
  Pr3+  Pr47  1  0.17002484  0.18209144  0.12584524  1
  Pr3+  Pr48  1  0.67188348  0.98901563  0.37415277  1
  Pr3+  Pr49  1  0.16714301  0.84542614  0.12591474  1
  Pr3+  Pr50  1  -0.00409120  0.34523492  0.12738322  1
  Pr3+  Pr51  1  0.32816218  0.34418501  0.62362233  1
  Pr3+  Pr52  1  0.67484298  0.98933809  0.87585303  1
  Pr3+  Pr53  1  0.99838059  0.99075658  0.87309658  1
  Pr3+  Pr54  1  0.33079420  0.67804647  0.12469642  1
  Pr3+  Pr55  1  1.00375235  0.65332073  0.37718474  1
  Pr3+  Pr56  1  0.50671250  0.85002442  0.62397045  1
  Pr3+  Pr57  1  0.83934949  0.51374153  0.62265606  1
  Pr3+  Pr58  1  0.49905359  0.48979626  0.37500535  1
  Pr3+  Pr59  1  0.33696871  0.98774423  0.87481525  1
  Pr3+  Pr60  1  0.33464015  0.98829664  0.37514481  1
  Pr3+  Pr61  1  0.33543087  0.31871415  0.37389291  1
  Pr3+  Pr62  1  0.16217798  0.15443069  0.87436464  1
  Pr3+  Pr63  1  0.50282007  0.51219134  0.62490644  1
  Pr3+  Pr64  1  0.66583071  0.67868258  0.62279677  1
  Pr3+  Pr65  1  0.16220909  0.81970687  0.87489215  1
  Pr3+  Pr66  1  0.82951113  0.81863003  0.87593480  1
  Pr3+  Pr67  1  0.67046040  0.32041676  0.37426127  1
  Pr3+  Pr68  1  0.50034543  0.82072652  0.37444387  1
  Pr3+  Pr69  1  0.50320594  0.17955928  0.12723526  1
  Pr3+  Pr70  1  0.67018790  0.31930551  0.87624318  1
  Pr3+  Pr71  1  0.66712771  0.34349084  0.62478629  1
  Mn3.30+  Mn72  1  0.16438427  0.00012277  0.00105594  1
  Mn3.30+  Mn73  1  0.16550830  -0.00124097  0.50064317  1
  Mn3.30+  Mn74  1  0.16763134  0.33394514  0.00077219  1
  Mn3.30+  Mn75  1  0.16288610  0.33230638  0.50003793  1
  Mn3.30+  Mn76  1  0.16429529  0.66612874  0.00025876  1
  Mn3.30+  Mn77  1  0.16429944  0.66642168  0.50067327  1
  Mn3.30+  Mn78  1  0.50369360  0.00057813  0.00157101  1
  Mn3.30+  Mn79  1  0.50205166  0.00122297  0.49844100  1
  Mn3.30+  Mn80  1  0.49875467  0.33402145  0.00204535  1
  Mn3.30+  Mn81  1  0.49940659  0.33228490  0.49794913  1
  Mn3.30+  Mn82  1  0.50169033  0.66632679  -0.00010440  1
  Mn3.30+  Mn83  1  0.50103080  0.66705458  0.49802541  1
  Mn3.30+  Mn84  1  0.83473996  0.00085168  0.00390689  1
  Mn3.30+  Mn85  1  0.83444529  0.00146399  0.49990427  1
  Mn3.30+  Mn86  1  0.83403583  0.33218717  0.00175994  1
  Mn3.30+  Mn87  1  0.83589533  0.33307815  0.49881859  1
  Mn3.30+  Mn88  1  0.83173266  0.66760412  -0.00013234  1
  Mn3.30+  Mn89  1  0.83340341  0.66798533  0.49868647  1
  Mn3.30+  Mn90  1  -0.00053481  0.16612110  0.24839348  1
  Mn3.30+  Mn91  1  -0.00112748  0.16672866  0.74824977  1
  Mn3.30+  Mn92  1  0.00171969  0.49856556  0.25311693  1
  Mn3.30+  Mn93  1  -0.00154590  0.50000479  0.74862692  1
  Mn3.30+  Mn94  1  -0.00102235  0.83494018  0.25010445  1
  Mn3.30+  Mn95  1  -0.00135294  0.83367899  0.74887153  1
  Mn3.30+  Mn96  1  0.33401269  0.16691191  0.25008520  1
  Mn3.30+  Mn97  1  0.33339295  0.16699323  0.74990558  1
  Mn3.30+  Mn98  1  0.33014883  0.49853180  0.25289105  1
  Mn3.30+  Mn99  1  0.33244845  0.49958978  0.74824634  1
  Mn3.30+  Mn100  1  0.33200672  0.83305348  0.25150164  1
  Mn3.30+  Mn101  1  0.33426775  0.83328327  0.74916616  1
  Mn3.30+  Mn102  1  0.66704404  0.16548305  0.24966426  1
  Mn3.30+  Mn103  1  0.66859142  0.16569174  0.74818623  1
  Mn3.30+  Mn104  1  0.66742796  0.50026705  0.25054157  1
  Mn3.30+  Mn105  1  0.66753217  0.50017519  0.75047592  1
  Mn3.30+  Mn106  1  0.67024119  0.83426201  0.24865906  1
  Mn3.30+  Mn107  1  0.66822540  0.83387991  0.74954412  1
  Mn3.30+  Mn108  1  0.16398220  -0.00106242  0.24897962  1
  Mn3.30+  Mn109  1  0.16622024  -0.00014882  0.74919133  1
  Mn3.30+  Mn110  1  0.16561615  0.33349791  0.25209309  1
  Mn3.30+  Mn111  1  0.16470034  0.33287863  0.74705124  1
  Mn3.30+  Mn112  1  0.16432967  0.66650063  0.25143391  1
  Mn3.30+  Mn113  1  0.16357806  0.66606821  0.74717161  1
  Mn3.30+  Mn114  1  0.50193888  0.00113471  0.25007532  1
  Mn3.30+  Mn115  1  0.50376286  0.00078160  0.75021631  1
  Mn3.30+  Mn116  1  0.49861281  0.33263273  0.25012375  1
  Mn3.30+  Mn117  1  0.49953334  0.33366523  0.75030664  1
  Mn3.30+  Mn118  1  0.50100134  0.66657551  0.25163589  1
  Mn3.30+  Mn119  1  0.50167517  0.66709799  0.75070216  1
  Mn3.30+  Mn120  1  0.83481854  0.00083374  0.24681765  1
  Mn3.30+  Mn121  1  0.83419905  0.00153250  0.74855980  1
  Mn3.30+  Mn122  1  0.83544124  0.33242448  0.25170467  1
  Mn3.30+  Mn123  1  0.83491131  0.33294372  0.74821612  1
  Mn3.30+  Mn124  1  0.83217408  0.66928075  0.25154723  1
  Mn3.30+  Mn125  1  0.83328423  0.66665403  0.74979172  1
  Mn3.30+  Mn126  1  -0.00120552  0.16513826  0.00164774  1
  Mn3.30+  Mn127  1  -0.00115755  0.16760764  0.50107848  1
  Mn3.30+  Mn128  1  -0.00038933  0.50076672  -0.00016400  1
  Mn3.30+  Mn129  1  0.00053529  0.49755172  0.49870786  1
  Mn3.30+  Mn130  1  -0.00230204  0.83662502  0.00110500  1
  Mn3.30+  Mn131  1  0.00009709  0.83246422  0.49970945  1
  Mn3.30+  Mn132  1  0.33324921  0.16793504  0.00099281  1
  Mn3.30+  Mn133  1  0.33396899  0.16603018  0.49865331  1
  Mn3.30+  Mn134  1  0.33276271  0.49884421  0.00110201  1
  Mn3.30+  Mn135  1  0.33030159  0.49927235  0.49775525  1
  Mn3.30+  Mn136  1  0.33400133  0.83341601  0.00028967  1
  Mn3.30+  Mn137  1  0.33240711  0.83296009  0.49897012  1
  Mn3.30+  Mn138  1  0.66889204  0.16479692  0.00410424  1
  Mn3.30+  Mn139  1  0.66664362  0.16592898  0.49807103  1
  Mn3.30+  Mn140  1  0.66642170  0.50024827  -0.00001629  1
  Mn3.30+  Mn141  1  0.66856606  0.50009991  0.49971280  1
  Mn3.30+  Mn142  1  0.66953943  0.83387769  0.00284392  1
  Mn3.30+  Mn143  1  0.66917102  0.83382299  0.49865994  1
  O2-  O144  1  0.02726121  0.16082386  0.12403457  1
  O2-  O145  1  0.01682240  0.15860322  0.62515217  1
  O2-  O146  1  0.02522652  0.49390126  0.12829159  1
  O2-  O147  1  0.02167172  0.48916882  0.62356679  1
  O2-  O148  1  0.02533819  0.82766224  0.12549271  1
  O2-  O149  1  0.02178870  0.82569861  0.62413170  1
  O2-  O150  1  0.35951736  0.15863921  0.12597012  1
  O2-  O151  1  0.36114969  0.16200193  0.62481572  1
  O2-  O152  1  0.35571823  0.49612340  0.12910601  1
  O2-  O153  1  0.35854322  0.49388961  0.62228243  1
  O2-  O154  1  0.36027917  0.82719588  0.12518868  1
  O2-  O155  1  0.36253577  0.82710093  0.62416080  1
  O2-  O156  1  0.69315222  0.16212440  0.12669164  1
  O2-  O157  1  0.68487367  0.16380416  0.62220596  1
  O2-  O158  1  0.69160263  0.49253724  0.12548320  1
  O2-  O159  1  0.69259982  0.49244687  0.62524865  1
  O2-  O160  1  0.69606727  0.82273130  0.12561305  1
  O2-  O161  1  0.69325689  0.82449239  0.62308086  1
  O2-  O162  1  0.14050618  0.33073604  0.12721561  1
  O2-  O163  1  0.13945843  0.33180249  0.62413006  1
  O2-  O164  1  0.13884686  0.65883591  0.12691943  1
  O2-  O165  1  0.13671652  0.65869928  0.62460424  1
  O2-  O166  1  0.13786677  0.99223621  0.12548870  1
  O2-  O167  1  0.14045588  0.99191914  0.62646484  1
  O2-  O168  1  0.47071854  0.32743778  0.12633802  1
  O2-  O169  1  0.47267108  0.32572992  0.62138421  1
  O2-  O170  1  0.47439299  0.66195026  0.12684231  1
  O2-  O171  1  0.47563335  0.66252353  0.62329579  1
  O2-  O172  1  0.47283505  0.99511826  0.12581359  1
  O2-  O173  1  0.47410073  0.99653337  0.62439411  1
  O2-  O174  1  0.81271783  0.32925865  0.12693872  1
  O2-  O175  1  0.81021403  0.33328577  0.62406048  1
  O2-  O176  1  0.81073349  0.66118252  0.12529689  1
  O2-  O177  1  0.80899702  0.66347456  0.62479128  1
  O2-  O178  1  0.80853557  0.99251913  0.12612017  1
  O2-  O179  1  0.80881253  0.99554025  0.62407500  1
  O2-  O180  1  0.30596547  0.16965954  0.37256240  1
  O2-  O181  1  0.30694395  0.17337683  0.87619652  1
  O2-  O182  1  0.30192148  0.50712005  0.37594437  1
  O2-  O183  1  0.30680815  0.50472245  0.87274300  1
  O2-  O184  1  0.30458834  0.84064979  0.37523759  1
  O2-  O185  1  0.30758168  0.83969040  0.87531356  1
  O2-  O186  1  0.63892692  0.17337069  0.37337173  1
  O2-  O187  1  0.64433903  0.17040521  0.87820413  1
  O2-  O188  1  0.64273866  0.50518182  0.37428571  1
  O2-  O189  1  0.64900977  0.50598715  0.87553759  1
  O2-  O190  1  0.64245520  0.84314657  0.37391474  1
  O2-  O191  1  0.64267667  0.84414869  0.87731930  1
  O2-  O192  1  0.97962603  0.17143045  0.37365549  1
  O2-  O193  1  0.98189336  0.17175384  0.87623391  1
  O2-  O194  1  0.97950456  0.50784378  0.37526167  1
  O2-  O195  1  0.97417769  0.50197923  0.87362123  1
  O2-  O196  1  0.98020414  0.83835531  0.37466045  1
  O2-  O197  1  0.97430051  0.84209227  0.87561360  1
  O2-  O198  1  0.19114185  0.00707390  0.37356726  1
  O2-  O199  1  0.19373816  0.00511244  0.87453686  1
  O2-  O200  1  0.19165726  0.33364919  0.37484098  1
  O2-  O201  1  0.19292664  0.33918725  0.87385479  1
  O2-  O202  1  0.18967517  0.67716339  0.37553248  1
  O2-  O203  1  0.19138741  0.67098417  0.87259478  1
  O2-  O204  1  0.52706379  0.00443641  0.37341451  1
  O2-  O205  1  0.53005771  0.00636571  0.87667138  1
  O2-  O206  1  0.52709209  0.34316255  0.37454781  1
  O2-  O207  1  0.52532066  0.33448745  0.87823247  1
  O2-  O208  1  0.52939370  0.67156816  0.37449762  1
  O2-  O209  1  0.52798551  0.67244845  0.87561525  1
  O2-  O210  1  0.85805472  0.00664067  0.37230900  1
  O2-  O211  1  0.85430614  -0.00020953  0.87674106  1
  O2-  O212  1  0.85802795  0.33229215  0.37357713  1
  O2-  O213  1  0.85575393  0.33967037  0.87576633  1
  O2-  O214  1  0.85918974  0.66861959  0.37438069  1
  O2-  O215  1  0.85269146  0.66963841  0.87551562  1
  O2-  O216  1  0.23787746  0.09405004  0.02143194  1
  O2-  O217  1  0.24149349  0.08968558  0.51822752  1
  O2-  O218  1  0.23575185  0.42952372  0.01866764  1
  O2-  O219  1  0.23766945  0.42469872  0.52136629  1
  O2-  O220  1  0.23824778  0.75924635  0.02053117  1
  O2-  O221  1  0.23853633  0.75801507  0.52562689  1
  O2-  O222  1  0.56953034  0.09691674  0.01996742  1
  O2-  O223  1  0.57074941  0.09455076  0.51741073  1
  O2-  O224  1  0.57311848  0.42522662  0.02405310  1
  O2-  O225  1  0.57007023  0.42719675  0.52055447  1
  O2-  O226  1  0.57263822  0.76299364  0.02192786  1
  O2-  O227  1  0.57088988  0.76356011  0.51930818  1
  O2-  O228  1  0.90405229  0.09652333  0.02110863  1
  O2-  O229  1  0.90548761  0.09501974  0.51087434  1
  O2-  O230  1  0.90563558  0.42869393  0.02062004  1
  O2-  O231  1  0.90408728  0.42881179  0.51736591  1
  O2-  O232  1  0.90467058  0.76570430  0.01919594  1
  O2-  O233  1  0.90374830  0.76261836  0.51868783  1
  O2-  O234  1  0.26343690  0.26281185  0.22886377  1
  O2-  O235  1  0.26236697  0.26351532  0.73192237  1
  O2-  O236  1  0.26146810  0.59564413  0.22974650  1
  O2-  O237  1  0.25953820  0.59450908  0.72768861  1
  O2-  O238  1  0.26096054  0.92828807  0.22758155  1
  O2-  O239  1  0.26210498  0.92613975  0.72861946  1
  O2-  O240  1  0.59571762  0.26015709  0.22751587  1
  O2-  O241  1  0.59288734  0.26076249  0.73097144  1
  O2-  O242  1  0.59093183  0.59074502  0.22665925  1
  O2-  O243  1  0.59366797  0.59266527  0.72681778  1
  O2-  O244  1  0.59540418  0.92850012  0.22716532  1
  O2-  O245  1  0.59802288  0.93011982  0.72671973  1
  O2-  O246  1  0.93017662  0.25949345  0.23006497  1
  O2-  O247  1  0.92981931  0.26689610  0.73453245  1
  O2-  O248  1  0.92829545  0.59571296  0.23072212  1
  O2-  O249  1  0.92855085  0.59498699  0.72583423  1
  O2-  O250  1  0.93272776  0.93263704  0.23309484  1
  O2-  O251  1  0.92881814  0.92907889  0.72795750  1
  O2-  O252  1  0.09961399  0.23445339  0.26416582  1
  O2-  O253  1  0.09506415  0.24078207  0.77189156  1
  O2-  O254  1  0.09733893  0.56933722  0.27204339  1
  O2-  O255  1  0.09678293  0.56858160  0.76603754  1
  O2-  O256  1  0.09762094  0.90223107  0.27083126  1
  O2-  O257  1  0.09581421  0.90660711  0.77165452  1
  O2-  O258  1  0.43052338  0.23860571  0.27365425  1
  O2-  O259  1  0.42808146  0.23892056  0.77161324  1
  O2-  O260  1  0.42450674  0.57201930  0.27264720  1
  O2-  O261  1  0.42395605  0.57551237  0.76641906  1
  O2-  O262  1  0.42986682  0.90639107  0.27128964  1
  O2-  O263  1  0.43302951  0.90787043  0.77183004  1
  O2-  O264  1  0.75846175  0.24039798  0.27097510  1
  O2-  O265  1  0.75686088  0.24267609  0.76769449  1
  O2-  O266  1  0.75977225  0.57257152  0.26235363  1
  O2-  O267  1  0.76512514  0.57099683  0.76530446  1
  O2-  O268  1  0.75903783  0.90947035  0.26886719  1
  O2-  O269  1  0.76331972  0.90298880  0.76885397  1
  O2-  O270  1  0.07347293  0.07258944  0.47975867  1
  O2-  O271  1  0.07279618  0.07344544  0.97645160  1
  O2-  O272  1  0.07120860  0.40303141  0.47808628  1
  O2-  O273  1  0.07114365  0.40497088  0.97981609  1
  O2-  O274  1  0.07099255  0.73708167  0.48195104  1
  O2-  O275  1  0.07341335  0.74206415  0.98297027  1
  O2-  O276  1  0.40480681  0.06960976  0.48040858  1
  O2-  O277  1  0.40476222  0.07262449  0.97864994  1
  O2-  O278  1  0.40517613  0.40500813  0.47727124  1
  O2-  O279  1  0.40405386  0.40550394  0.98261547  1
  O2-  O280  1  0.40396721  0.73954811  0.47647204  1
  O2-  O281  1  0.40588214  0.73973859  0.97823258  1
  O2-  O282  1  0.73996932  0.07504771  0.47651617  1
  O2-  O283  1  0.73761977  0.06917486  0.98450775  1
  O2-  O284  1  0.73571019  0.40297830  0.48236676  1
  O2-  O285  1  0.73755735  0.40611002  0.98146815  1
  O2-  O286  1  0.73385141  0.73579239  0.48156987  1
  O2-  O287  1  0.73581223  0.73696267  0.97835769  1
  O2-  O288  1  0.09533284  0.23718733  0.48090961  1
  O2-  O289  1  0.09783646  0.23879768  0.98215160  1
  O2-  O290  1  0.09729098  0.56901924  0.48000575  1
  O2-  O291  1  0.09602284  0.56942241  0.98257905  1
  O2-  O292  1  0.09725451  0.90306612  0.48078244  1
  O2-  O293  1  0.09541790  0.90523561  0.97787951  1
  O2-  O294  1  0.42961008  0.23827060  0.47534308  1
  O2-  O295  1  0.42866997  0.23911658  0.97919950  1
  O2-  O296  1  0.42664011  0.57308600  0.47808679  1
  O2-  O297  1  0.42372035  0.57498631  0.98328024  1
  O2-  O298  1  0.43053223  0.90649669  0.47832031  1
  O2-  O299  1  0.43108239  0.90708080  0.97892516  1
  O2-  O300  1  0.75940346  0.24099204  0.47770051  1
  O2-  O301  1  0.75622236  0.24329363  0.98415128  1
  O2-  O302  1  0.76143980  0.57344374  0.48686530  1
  O2-  O303  1  0.76191583  0.56941007  0.98603156  1
  O2-  O304  1  0.76119648  0.90816909  0.48208443  1
  O2-  O305  1  0.76301162  0.90428030  0.98028104  1
  O2-  O306  1  0.07115548  0.07153793  0.27198805  1
  O2-  O307  1  0.07685850  0.07374425  0.77161007  1
  O2-  O308  1  0.06958797  0.39952709  0.27062859  1
  O2-  O309  1  0.07303866  0.40687445  0.77337218  1
  O2-  O310  1  0.06810300  0.73486515  0.26609046  1
  O2-  O311  1  0.07567011  0.74350611  0.76914454  1
  O2-  O312  1  0.40337228  0.06974344  0.26879390  1
  O2-  O313  1  0.40755491  0.07184019  0.77236268  1
  O2-  O314  1  0.40451675  0.40875668  0.27503938  1
  O2-  O315  1  0.40322672  0.40312921  0.76620525  1
  O2-  O316  1  0.40573784  0.73883195  0.27303081  1
  O2-  O317  1  0.40576603  0.73983625  0.77223788  1
  O2-  O318  1  0.73940146  0.07504540  0.27282189  1
  O2-  O319  1  0.73750990  0.07028148  0.76588153  1
  O2-  O320  1  0.73564445  0.40376969  0.26601415  1
  O2-  O321  1  0.73816768  0.40469914  0.77079991  1
  O2-  O322  1  0.73404684  0.73467144  0.26896382  1
  O2-  O323  1  0.73505851  0.73680097  0.77041960  1
  O2-  O324  1  0.23697884  0.09299914  0.22735157  1
  O2-  O325  1  0.24329035  0.09078687  0.73152310  1
  O2-  O326  1  0.23639725  0.42789608  0.23211503  1
  O2-  O327  1  0.23673232  0.42749476  0.72729663  1
  O2-  O328  1  0.23816613  0.75772281  0.22580323  1
  O2-  O329  1  0.23747832  0.75792426  0.72698298  1
  O2-  O330  1  0.57153847  0.09485673  0.22935897  1
  O2-  O331  1  0.56935367  0.09722037  0.73359252  1
  O2-  O332  1  0.57049815  0.42657454  0.22868832  1
  O2-  O333  1  0.57205638  0.42510588  0.72715732  1
  O2-  O334  1  0.57292064  0.76383748  0.22923885  1
  O2-  O335  1  0.57174848  0.76484050  0.72991635  1
  O2-  O336  1  0.90233480  0.09818698  0.23117575  1
  O2-  O337  1  0.90809329  0.09070449  0.73768556  1
  O2-  O338  1  0.90718110  0.42798586  0.22899372  1
  O2-  O339  1  0.90189671  0.43162090  0.73422322  1
  O2-  O340  1  0.90513627  0.76369936  0.22700180  1
  O2-  O341  1  0.90029352  0.76323835  0.73454257  1
  O2-  O342  1  0.26298934  0.26273192  0.02274642  1
  O2-  O343  1  0.26331814  0.26199488  0.51584294  1
  O2-  O344  1  0.26060236  0.59430204  0.01996040  1
  O2-  O345  1  0.26039600  0.59610084  0.52185083  1
  O2-  O346  1  0.26133805  0.92736733  0.02088283  1
  O2-  O347  1  0.26271944  0.92634064  0.52236540  1
  O2-  O348  1  0.59228450  0.26011660  0.02277404  1
  O2-  O349  1  0.59416396  0.26236783  0.51980540  1
  O2-  O350  1  0.59290477  0.59102804  0.02438532  1
  O2-  O351  1  0.59296251  0.59115861  0.52252906  1
  O2-  O352  1  0.59816272  0.92786825  0.02530767  1
  O2-  O353  1  0.59565596  0.92934254  0.52109621  1
  O2-  O354  1  0.93241122  0.26228072  0.01682477  1
  O2-  O355  1  0.92881843  0.26309444  0.51677922  1
  O2-  O356  1  0.92685638  0.59418614  0.02209535  1
  O2-  O357  1  0.92973771  0.59547442  0.51969392  1
  O2-  O358  1  0.93270965  0.93393995  0.01909672  1
  O2-  O359  1  0.93014796  0.92923430  0.51885469  1
