# generated using pymatgen
data_Sr7Ca15Pr50Mn72O216
_symmetry_space_group_name_H-M   'P 1'
_cell_length_a   16.56019269
_cell_length_b   16.60277610
_cell_length_c   15.59425233
_cell_angle_alpha   90.00052395
_cell_angle_beta   89.99397074
_cell_angle_gamma   89.98965571
_symmetry_Int_Tables_number   1
_chemical_formula_structural   Sr7Ca15Pr50Mn72O216
_chemical_formula_sum   'Sr7 Ca15 Pr50 Mn72 O216'
_cell_volume   4287.56428529
_cell_formula_units_Z   1
loop_
 _symmetry_equiv_pos_site_id
 _symmetry_equiv_pos_as_xyz
  1  'x, y, z'
loop_
 _atom_type_symbol
 _atom_type_oxidation_number
  Sr2+  2.0
  Ca2+  2.0
  Pr3+  3.0
  Mn3.30+  3.3
  O2-  -2.0
loop_
 _atom_site_type_symbol
 _atom_site_label
 _atom_site_symmetry_multiplicity
 _atom_site_fract_x
 _atom_site_fract_y
 _atom_site_fract_z
 _atom_site_occupancy
  Sr2+  Sr0  1  0.66848384  0.00689654  0.12557201  1
  Sr2+  Sr1  1  0.33049913  0.67792013  0.12446040  1
  Sr2+  Sr2  1  0.16719166  0.49199901  0.37334243  1
  Sr2+  Sr3  1  -0.00100665  0.00830194  0.62502617  1
  Sr2+  Sr4  1  0.49971786  0.82475647  0.37388062  1
  Sr2+  Sr5  1  0.66702205  0.65939962  0.37353529  1
  Sr2+  Sr6  1  0.66795397  0.32369849  0.37427561  1
  Ca2+  Ca7  1  0.83575336  0.84854041  0.62385881  1
  Ca2+  Ca8  1  0.66397084  0.68249362  0.12593575  1
  Ca2+  Ca9  1  0.16553558  0.82072038  0.37374189  1
  Ca2+  Ca10  1  -0.00425275  0.68436266  0.12462760  1
  Ca2+  Ca11  1  0.33228274  0.98556877  0.87570485  1
  Ca2+  Ca12  1  1.00233702  0.65619938  0.87723404  1
  Ca2+  Ca13  1  0.66636482  0.01141559  0.62410675  1
  Ca2+  Ca14  1  0.83793913  0.18327293  0.12621600  1
  Ca2+  Ca15  1  0.16118674  0.81736251  0.87613932  1
  Ca2+  Ca16  1  0.16242668  0.14945233  0.87561192  1
  Ca2+  Ca17  1  -0.00351093  0.34806399  0.12595995  1
  Ca2+  Ca18  1  0.66415081  0.68311623  0.62416173  1
  Ca2+  Ca19  1  0.83429760  0.84337445  0.12616765  1
  Ca2+  Ca20  1  0.33472327  0.98304599  0.37471903  1
  Ca2+  Ca21  1  0.16297238  0.15094845  0.37439404  1
  Pr3+  Pr22  1  0.82962794  0.48799263  0.37355575  1
  Pr3+  Pr23  1  0.67067202  0.31965559  0.87611381  1
  Pr3+  Pr24  1  -0.00520956  0.01186021  0.12514500  1
  Pr3+  Pr25  1  0.50603620  0.51657998  0.62508552  1
  Pr3+  Pr26  1  0.49674410  0.15089269  0.37444775  1
  Pr3+  Pr27  1  0.16904897  0.84310317  0.12508922  1
  Pr3+  Pr28  1  0.33678537  0.65832253  0.37281146  1
  Pr3+  Pr29  1  0.50392241  0.84799031  0.62420286  1
  Pr3+  Pr30  1  -0.00208397  0.34505439  0.62480188  1
  Pr3+  Pr31  1  0.32994906  0.34596522  0.12484371  1
  Pr3+  Pr32  1  0.16209673  0.49013732  0.87637155  1
  Pr3+  Pr33  1  0.49718933  0.49129340  0.37403608  1
  Pr3+  Pr34  1  0.83387442  0.48865614  0.87577922  1
  Pr3+  Pr35  1  0.50229833  0.84366714  0.12649878  1
  Pr3+  Pr36  1  0.50558639  0.51650790  0.12473047  1
  Pr3+  Pr37  1  0.83271344  0.82147666  0.87509761  1
  Pr3+  Pr38  1  0.16863339  0.51412124  0.62428979  1
  Pr3+  Pr39  1  0.82950871  0.15459650  0.37307074  1
  Pr3+  Pr40  1  1.00590113  0.31922987  0.37261031  1
  Pr3+  Pr41  1  0.50281979  0.17559384  0.12536707  1
  Pr3+  Pr42  1  1.00236866  0.65638915  0.37338177  1
  Pr3+  Pr43  1  1.00482254  0.98454176  0.87465292  1
  Pr3+  Pr44  1  0.33003845  0.68152969  0.62547974  1
  Pr3+  Pr45  1  0.67157404  0.65509274  0.87557282  1
  Pr3+  Pr46  1  0.50225287  0.17642009  0.62479170  1
  Pr3+  Pr47  1  -0.00422019  0.68225805  0.62520058  1
  Pr3+  Pr48  1  0.32876923  0.01159795  0.62384843  1
  Pr3+  Pr49  1  0.67070725  0.98631272  0.87485793  1
  Pr3+  Pr50  1  0.83812497  0.51605417  0.12587395  1
  Pr3+  Pr51  1  1.00370870  0.98503862  0.37557756  1
  Pr3+  Pr52  1  0.49597905  0.14944395  0.87565589  1
  Pr3+  Pr53  1  0.83610330  0.17650516  0.62483173  1
  Pr3+  Pr54  1  0.66726549  0.34363729  0.12665313  1
  Pr3+  Pr55  1  0.82874817  0.82169562  0.37478110  1
  Pr3+  Pr56  1  0.33001276  0.34533297  0.62540183  1
  Pr3+  Pr57  1  0.33016267  0.00758260  0.12647837  1
  Pr3+  Pr58  1  0.33396098  0.31796543  0.87621646  1
  Pr3+  Pr59  1  0.49700441  0.48694012  0.87584992  1
  Pr3+  Pr60  1  0.66459277  0.34562665  0.62364991  1
  Pr3+  Pr61  1  0.49843451  0.82346970  0.87575848  1
  Pr3+  Pr62  1  0.66979581  0.98750176  0.37550422  1
  Pr3+  Pr63  1  0.16809854  0.17715656  0.62487276  1
  Pr3+  Pr64  1  0.16947216  0.84758740  0.62498357  1
  Pr3+  Pr65  1  0.83494310  0.51359334  0.62348310  1
  Pr3+  Pr66  1  0.33319160  0.65629627  0.87669579  1
  Pr3+  Pr67  1  1.00550172  0.31734830  0.87745400  1
  Pr3+  Pr68  1  0.33607815  0.32063544  0.37386841  1
  Pr3+  Pr69  1  0.83145471  0.15266497  0.87747422  1
  Pr3+  Pr70  1  0.16565588  0.51472142  0.12580000  1
  Pr3+  Pr71  1  0.16891433  0.17798915  0.12536153  1
  Mn3.30+  Mn72  1  0.16603411  -0.00161284  -0.00148781  1
  Mn3.30+  Mn73  1  0.16746379  -0.00017939  0.49672169  1
  Mn3.30+  Mn74  1  0.16443695  0.33207551  0.00178367  1
  Mn3.30+  Mn75  1  0.16682016  0.33244011  0.49748303  1
  Mn3.30+  Mn76  1  0.16279939  0.66821792  0.00035878  1
  Mn3.30+  Mn77  1  0.16596362  0.66886452  0.49886148  1
  Mn3.30+  Mn78  1  0.49853453  -0.00178697  -0.00059565  1
  Mn3.30+  Mn79  1  0.49906150  -0.00076190  0.50017118  1
  Mn3.30+  Mn80  1  0.50011489  0.33192335  0.00034217  1
  Mn3.30+  Mn81  1  0.49964432  0.33314007  0.49942541  1
  Mn3.30+  Mn82  1  0.50218865  0.66816636  -0.00025988  1
  Mn3.30+  Mn83  1  0.50198520  0.66863590  0.50016276  1
  Mn3.30+  Mn84  1  0.83509500  -0.00081144  0.00219679  1
  Mn3.30+  Mn85  1  0.83379703  -0.00017676  0.50171146  1
  Mn3.30+  Mn86  1  0.83674518  0.33307412  0.00127148  1
  Mn3.30+  Mn87  1  0.83380238  0.33302892  0.49922644  1
  Mn3.30+  Mn88  1  0.83575750  0.66946320  0.00133563  1
  Mn3.30+  Mn89  1  0.83105907  0.66920206  0.50203571  1
  Mn3.30+  Mn90  1  -0.00009022  0.16718695  0.24888855  1
  Mn3.30+  Mn91  1  0.00169046  0.16448717  0.75072449  1
  Mn3.30+  Mn92  1  -0.00016113  0.50087866  0.24887769  1
  Mn3.30+  Mn93  1  -0.00004859  0.50199020  0.75054498  1
  Mn3.30+  Mn94  1  -0.00004049  0.83270566  0.24961550  1
  Mn3.30+  Mn95  1  -0.00015749  0.83263481  0.75037405  1
  Mn3.30+  Mn96  1  0.33098913  0.16366451  0.25171008  1
  Mn3.30+  Mn97  1  0.33153977  0.16353997  0.75279464  1
  Mn3.30+  Mn98  1  0.33253552  0.50086863  0.24861196  1
  Mn3.30+  Mn99  1  0.33333047  0.50014438  0.75049331  1
  Mn3.30+  Mn100  1  0.33231072  0.83317823  0.25058362  1
  Mn3.30+  Mn101  1  0.33193862  0.83472143  0.75315596  1
  Mn3.30+  Mn102  1  0.66795447  0.16623961  0.24851041  1
  Mn3.30+  Mn103  1  0.66658778  0.16470665  0.74999968  1
  Mn3.30+  Mn104  1  0.66823869  0.50217451  0.24911971  1
  Mn3.30+  Mn105  1  0.66731036  0.50167043  0.75032014  1
  Mn3.30+  Mn106  1  0.66831891  0.83267329  0.24883312  1
  Mn3.30+  Mn107  1  0.66842014  0.83409366  0.74675598  1
  Mn3.30+  Mn108  1  0.16578422  -0.00106946  0.25250120  1
  Mn3.30+  Mn109  1  0.16763759  -0.00057614  0.75255723  1
  Mn3.30+  Mn110  1  0.16484743  0.33259651  0.24940770  1
  Mn3.30+  Mn111  1  0.16622001  0.33181303  0.75124895  1
  Mn3.30+  Mn112  1  0.16487521  0.66869497  0.24966205  1
  Mn3.30+  Mn113  1  0.16381151  0.66853260  0.75103786  1
  Mn3.30+  Mn114  1  0.49813918  -0.00157943  0.25068035  1
  Mn3.30+  Mn115  1  0.49940497  -0.00070247  0.74988650  1
  Mn3.30+  Mn116  1  0.49980767  0.33291237  0.24950998  1
  Mn3.30+  Mn117  1  0.49991379  0.33210088  0.75056618  1
  Mn3.30+  Mn118  1  0.50194057  0.66813709  0.24900845  1
  Mn3.30+  Mn119  1  0.50169237  0.66859319  0.75038449  1
  Mn3.30+  Mn120  1  0.83484538  0.00025997  0.24790959  1
  Mn3.30+  Mn121  1  0.83406811  -0.00123927  0.74850648  1
  Mn3.30+  Mn122  1  0.83599879  0.33308140  0.24862770  1
  Mn3.30+  Mn123  1  0.83427823  0.33299998  0.75108039  1
  Mn3.30+  Mn124  1  0.83365808  0.66982667  0.24687587  1
  Mn3.30+  Mn125  1  0.83337936  0.66892159  0.74879763  1
  Mn3.30+  Mn126  1  0.00029309  0.16670068  0.00173351  1
  Mn3.30+  Mn127  1  0.00164096  0.16515059  0.49880289  1
  Mn3.30+  Mn128  1  -0.00095637  0.50247445  0.00088358  1
  Mn3.30+  Mn129  1  0.00056966  0.50061682  0.49926681  1
  Mn3.30+  Mn130  1  0.00054362  0.83134414  0.00054021  1
  Mn3.30+  Mn131  1  -0.00069074  0.83375348  0.49976358  1
  Mn3.30+  Mn132  1  0.33134095  0.16273177  -0.00081802  1
  Mn3.30+  Mn133  1  0.33140576  0.16443354  0.49701021  1
  Mn3.30+  Mn134  1  0.33206064  0.50058740  0.00030270  1
  Mn3.30+  Mn135  1  0.33397742  0.50049985  0.50067381  1
  Mn3.30+  Mn136  1  0.33082023  0.83369724  -0.00229817  1
  Mn3.30+  Mn137  1  0.33359622  0.83406979  0.49823019  1
  Mn3.30+  Mn138  1  0.66811151  0.16501986  0.00238535  1
  Mn3.30+  Mn139  1  0.66644760  0.16573060  0.49974103  1
  Mn3.30+  Mn140  1  0.66826939  0.50111044  0.00067780  1
  Mn3.30+  Mn141  1  0.66739081  0.50299457  0.49944798  1
  Mn3.30+  Mn142  1  0.66805391  0.83250572  0.00146238  1
  Mn3.30+  Mn143  1  0.66853538  0.83378515  0.50267129  1
  O2-  O144  1  0.02692405  0.15851664  0.12482890  1
  O2-  O145  1  0.02451811  0.16569017  0.62417765  1
  O2-  O146  1  0.02327191  0.49165925  0.12444797  1
  O2-  O147  1  0.02497313  0.49339272  0.62520955  1
  O2-  O148  1  0.02582410  0.83108244  0.12522281  1
  O2-  O149  1  0.02605719  0.83002573  0.62526205  1
  O2-  O150  1  0.35943792  0.15724293  0.12468341  1
  O2-  O151  1  0.35851398  0.15989486  0.62496149  1
  O2-  O152  1  0.35960591  0.49459830  0.12312594  1
  O2-  O153  1  0.36020303  0.49392106  0.62819698  1
  O2-  O154  1  0.35626543  0.83408113  0.12242135  1
  O2-  O155  1  0.35761291  0.82893091  0.62750137  1
  O2-  O156  1  0.69233263  0.16506270  0.12380699  1
  O2-  O157  1  0.69075299  0.16048715  0.62599523  1
  O2-  O158  1  0.69389050  0.49086240  0.12366385  1
  O2-  O159  1  0.69172825  0.49160393  0.62752176  1
  O2-  O160  1  0.69122089  0.82773538  0.12336230  1
  O2-  O161  1  0.69468965  0.82555597  0.62612643  1
  O2-  O162  1  0.13799764  0.32449555  0.12460749  1
  O2-  O163  1  0.14139197  0.32538207  0.62426846  1
  O2-  O164  1  0.14016069  0.66379359  0.12375908  1
  O2-  O165  1  0.14184070  0.66247188  0.62512267  1
  O2-  O166  1  0.13931128  0.99134551  0.12601541  1
  O2-  O167  1  0.14852396  0.99515544  0.62422550  1
  O2-  O168  1  0.47378339  0.32500720  0.12410146  1
  O2-  O169  1  0.47420784  0.32614840  0.62578306  1
  O2-  O170  1  0.47981445  0.66457465  0.12210417  1
  O2-  O171  1  0.47404206  0.66356328  0.62810177  1
  O2-  O172  1  0.47475621  0.99550500  0.12296021  1
  O2-  O173  1  0.47303385  0.99828855  0.62503345  1
  O2-  O174  1  0.81072507  0.32967048  0.12357432  1
  O2-  O175  1  0.80908431  0.32636913  0.62710603  1
  O2-  O176  1  0.80439195  0.66101562  0.12315496  1
  O2-  O177  1  0.80401172  0.65765637  0.62621407  1
  O2-  O178  1  0.81770409  0.98849185  0.12419190  1
  O2-  O179  1  0.80897302  0.99621963  0.62640632  1
  O2-  O180  1  0.30355714  0.17680283  0.37402407  1
  O2-  O181  1  0.30346393  0.17405296  0.87658906  1
  O2-  O182  1  0.31824483  0.50834361  0.37491607  1
  O2-  O183  1  0.30817094  0.50561857  0.87418952  1
  O2-  O184  1  0.30922653  0.83476636  0.37573331  1
  O2-  O185  1  0.30499693  0.83949122  0.87447225  1
  O2-  O186  1  0.64274281  0.16783478  0.37455322  1
  O2-  O187  1  0.64130717  0.17209991  0.87585235  1
  O2-  O188  1  0.64167340  0.50338907  0.37308596  1
  O2-  O189  1  0.64041076  0.50640880  0.87498785  1
  O2-  O190  1  0.64966699  0.83995930  0.37669613  1
  O2-  O191  1  0.64239102  0.83875696  0.87342093  1
  O2-  O192  1  0.97332508  0.17212233  0.37315709  1
  O2-  O193  1  0.97486183  0.17029626  0.87802574  1
  O2-  O194  1  0.97392492  0.50740622  0.37492737  1
  O2-  O195  1  0.97650258  0.51018399  0.87439110  1
  O2-  O196  1  0.97336131  0.83502098  0.37475958  1
  O2-  O197  1  0.97593712  0.83726131  0.87486465  1
  O2-  O198  1  0.19381209  0.00837588  0.37396339  1
  O2-  O199  1  0.19217109  0.00862869  0.87594236  1
  O2-  O200  1  0.19353375  0.33920909  0.37426887  1
  O2-  O201  1  0.19204534  0.34320020  0.87745100  1
  O2-  O202  1  0.19125357  0.67266839  0.37694364  1
  O2-  O203  1  0.18937270  0.66876718  0.87399001  1
  O2-  O204  1  0.52524010  0.00326863  0.37680646  1
  O2-  O205  1  0.52646262  0.00157430  0.87497420  1
  O2-  O206  1  0.51807924  0.34061106  0.37408805  1
  O2-  O207  1  0.52620745  0.33797708  0.87581449  1
  O2-  O208  1  0.51610968  0.66394312  0.37528241  1
  O2-  O209  1  0.52749419  0.67336682  0.87452106  1
  O2-  O210  1  0.85814532  0.00733133  0.37313897  1
  O2-  O211  1  0.85866412  0.00554434  0.87690750  1
  O2-  O212  1  0.86034298  0.33913225  0.37367740  1
  O2-  O213  1  0.86048405  0.33921920  0.87551408  1
  O2-  O214  1  0.85887295  0.67342217  0.37522792  1
  O2-  O215  1  0.86083167  0.67318062  0.87457196  1
  O2-  O216  1  0.23852925  0.09153174  0.02488908  1
  O2-  O217  1  0.23885170  0.09422823  0.52215685  1
  O2-  O218  1  0.23575788  0.42500648  0.02350462  1
  O2-  O219  1  0.23985306  0.42565016  0.52321326  1
  O2-  O220  1  0.23589304  0.76114566  0.01621151  1
  O2-  O221  1  0.23993442  0.76113796  0.52302235  1
  O2-  O222  1  0.56765629  0.09547353  0.01596939  1
  O2-  O223  1  0.56797049  0.09600951  0.51678455  1
  O2-  O224  1  0.57327279  0.42895697  0.02042241  1
  O2-  O225  1  0.57343521  0.42953911  0.52051471  1
  O2-  O226  1  0.57135771  0.76232311  0.01690026  1
  O2-  O227  1  0.57156308  0.76178731  0.52014304  1
  O2-  O228  1  0.90420456  0.09870520  0.02164490  1
  O2-  O229  1  0.90174959  0.09626939  0.51697121  1
  O2-  O230  1  0.90315586  0.43357426  0.01544231  1
  O2-  O231  1  0.90646335  0.42800481  0.52068502  1
  O2-  O232  1  0.90173076  0.76673254  0.01994072  1
  O2-  O233  1  0.90341445  0.76132025  0.52333478  1
  O2-  O234  1  0.26182589  0.26006749  0.22638866  1
  O2-  O235  1  0.26265642  0.26090001  0.72994804  1
  O2-  O236  1  0.25755639  0.59087597  0.23281162  1
  O2-  O237  1  0.26069966  0.59578495  0.72992683  1
  O2-  O238  1  0.25796261  0.92566210  0.22903409  1
  O2-  O239  1  0.26180307  0.92763694  0.72859033  1
  O2-  O240  1  0.59262778  0.25951371  0.22796264  1
  O2-  O241  1  0.59536905  0.26138804  0.72958270  1
  O2-  O242  1  0.59543297  0.59310258  0.22555696  1
  O2-  O243  1  0.59743473  0.59563736  0.72879393  1
  O2-  O244  1  0.59239295  0.92275877  0.23252618  1
  O2-  O245  1  0.59754662  0.92866996  0.72687743  1
  O2-  O246  1  0.93331363  0.26496539  0.23093660  1
  O2-  O247  1  0.93000274  0.26026961  0.73140640  1
  O2-  O248  1  0.92695400  0.59898897  0.22816872  1
  O2-  O249  1  0.92520619  0.59434063  0.72550260  1
  O2-  O250  1  0.93288507  0.93043119  0.23664508  1
  O2-  O251  1  0.92744162  0.92790665  0.73743835  1
  O2-  O252  1  0.09704603  0.23615964  0.27204667  1
  O2-  O253  1  0.09629627  0.23738392  0.77264010  1
  O2-  O254  1  0.09100417  0.57395769  0.26688661  1
  O2-  O255  1  0.09826091  0.56915737  0.76491957  1
  O2-  O256  1  0.09522794  0.90422778  0.27380903  1
  O2-  O257  1  0.09799987  0.90429747  0.77092520  1
  O2-  O258  1  0.42541326  0.23656900  0.26992445  1
  O2-  O259  1  0.42568551  0.23512373  0.77190355  1
  O2-  O260  1  0.42998313  0.57277873  0.26422972  1
  O2-  O261  1  0.42927445  0.57253423  0.77193742  1
  O2-  O262  1  0.42453912  0.90653174  0.26379122  1
  O2-  O263  1  0.43168077  0.90360629  0.76707124  1
  O2-  O264  1  0.76466516  0.24013799  0.26642127  1
  O2-  O265  1  0.76214400  0.23938812  0.77195399  1
  O2-  O266  1  0.76487348  0.57108868  0.26696994  1
  O2-  O267  1  0.76234821  0.57223455  0.77306141  1
  O2-  O268  1  0.76066976  0.90903541  0.27030087  1
  O2-  O269  1  0.76073016  0.90717806  0.77320457  1
  O2-  O270  1  0.07194143  0.07205417  0.47898618  1
  O2-  O271  1  0.06968982  0.06867277  0.98321377  1
  O2-  O272  1  0.07155376  0.40121101  0.48301023  1
  O2-  O273  1  0.07090324  0.40733292  0.97710625  1
  O2-  O274  1  0.06832733  0.73829396  0.48293163  1
  O2-  O275  1  0.06846367  0.73657375  0.98029737  1
  O2-  O276  1  0.40166955  0.07177779  0.47646044  1
  O2-  O277  1  0.40317215  0.06981007  0.97652046  1
  O2-  O278  1  0.40435775  0.40505358  0.48174127  1
  O2-  O279  1  0.40583142  0.40409034  0.97873221  1
  O2-  O280  1  0.40197442  0.73518922  0.48544564  1
  O2-  O281  1  0.40531363  0.74180730  0.97570023  1
  O2-  O282  1  0.73919816  0.07259768  0.47949548  1
  O2-  O283  1  0.73869288  0.07302508  0.97816122  1
  O2-  O284  1  0.74182328  0.40771606  0.48381575  1
  O2-  O285  1  0.73809104  0.40597973  0.97852945  1
  O2-  O286  1  0.74195530  0.74247490  0.48013317  1
  O2-  O287  1  0.74067292  0.73971603  0.97590077  1
  O2-  O288  1  0.09721730  0.23809569  0.47726195  1
  O2-  O289  1  0.09723590  0.23575079  0.97743873  1
  O2-  O290  1  0.09229482  0.57369005  0.48325927  1
  O2-  O291  1  0.09570761  0.56933313  0.98404423  1
  O2-  O292  1  0.09687538  0.90540436  0.47806216  1
  O2-  O293  1  0.09641691  0.90271120  0.97765482  1
  O2-  O294  1  0.42552818  0.23645765  0.47910250  1
  O2-  O295  1  0.42586118  0.23552693  0.97902400  1
  O2-  O296  1  0.43100229  0.57116825  0.48583191  1
  O2-  O297  1  0.43080182  0.57472052  0.97866046  1
  O2-  O298  1  0.42779796  0.90463234  0.48695772  1
  O2-  O299  1  0.42718574  0.90465527  0.98079142  1
  O2-  O300  1  0.76386454  0.23729877  0.48382399  1
  O2-  O301  1  0.76167465  0.24134641  0.97800346  1
  O2-  O302  1  0.76397546  0.57083572  0.48184366  1
  O2-  O303  1  0.76366790  0.57218784  0.97749816  1
  O2-  O304  1  0.76167132  0.90901150  0.47928254  1
  O2-  O305  1  0.75925439  0.90677556  0.97741184  1
  O2-  O306  1  0.06901240  0.06989362  0.26802326  1
  O2-  O307  1  0.07232093  0.07089203  0.76970458  1
  O2-  O308  1  0.07192543  0.40401091  0.26860548  1
  O2-  O309  1  0.07121265  0.40440216  0.77059827  1
  O2-  O310  1  0.07014788  0.73991814  0.26965665  1
  O2-  O311  1  0.06761718  0.73376397  0.76711484  1
  O2-  O312  1  0.40210078  0.07170225  0.27354306  1
  O2-  O313  1  0.40146569  0.07048166  0.77362679  1
  O2-  O314  1  0.40470245  0.40556254  0.26736272  1
  O2-  O315  1  0.40548419  0.40358407  0.77253017  1
  O2-  O316  1  0.40475603  0.73903213  0.26583739  1
  O2-  O317  1  0.40311067  0.73966179  0.77271181  1
  O2-  O318  1  0.73959129  0.07283499  0.27073874  1
  O2-  O319  1  0.73936549  0.07300325  0.77250968  1
  O2-  O320  1  0.74134849  0.40739351  0.26630157  1
  O2-  O321  1  0.73801371  0.40625095  0.77202308  1
  O2-  O322  1  0.74317025  0.74278855  0.26879157  1
  O2-  O323  1  0.73987480  0.74001987  0.77378946  1
  O2-  O324  1  0.23839566  0.09200107  0.22581969  1
  O2-  O325  1  0.23899963  0.09396507  0.72757501  1
  O2-  O326  1  0.23890045  0.42447508  0.22554222  1
  O2-  O327  1  0.23794821  0.42713377  0.72853904  1
  O2-  O328  1  0.23781959  0.76151562  0.23225601  1
  O2-  O329  1  0.23761515  0.75992482  0.72895261  1
  O2-  O330  1  0.56792600  0.09471285  0.23380219  1
  O2-  O331  1  0.56705182  0.09613356  0.73421166  1
  O2-  O332  1  0.57315918  0.42841058  0.22781473  1
  O2-  O333  1  0.57316833  0.42974367  0.73057493  1
  O2-  O334  1  0.57338619  0.75967294  0.23136833  1
  O2-  O335  1  0.57103787  0.76489307  0.73166777  1
  O2-  O336  1  0.90389292  0.09748763  0.22784828  1
  O2-  O337  1  0.90235688  0.09655904  0.73437098  1
  O2-  O338  1  0.90388148  0.43158917  0.23260462  1
  O2-  O339  1  0.90497440  0.42813546  0.73001268  1
  O2-  O340  1  0.90396993  0.76527592  0.22998487  1
  O2-  O341  1  0.90180922  0.76183904  0.72568651  1
  O2-  O342  1  0.26279059  0.25975252  0.02229844  1
  O2-  O343  1  0.26162109  0.26120798  0.52200168  1
  O2-  O344  1  0.25589368  0.59293727  0.01618219  1
  O2-  O345  1  0.26183112  0.59357020  0.52160752  1
  O2-  O346  1  0.25904430  0.92702132  0.02247487  1
  O2-  O347  1  0.26130094  0.92674494  0.51990287  1
  O2-  O348  1  0.59514807  0.26096485  0.02032506  1
  O2-  O349  1  0.59314991  0.25992407  0.52214208  1
  O2-  O350  1  0.59885747  0.59457435  0.02086558  1
  O2-  O351  1  0.59424728  0.59563974  0.52445700  1
  O2-  O352  1  0.59125873  0.92410046  0.01767250  1
  O2-  O353  1  0.59680570  0.92781514  0.52309315  1
  O2-  O354  1  0.93457244  0.26517878  0.01826178  1
  O2-  O355  1  0.92937598  0.26140833  0.51965925  1
  O2-  O356  1  0.92739614  0.59738630  0.02454246  1
  O2-  O357  1  0.92553621  0.59649926  0.52118150  1
  O2-  O358  1  0.93425540  0.92983979  0.01350094  1
  O2-  O359  1  0.92817183  0.92786398  0.51275829  1
