# generated using pymatgen
data_Sr7Ca15Pr50Mn72O216
_symmetry_space_group_name_H-M   'P 1'
_cell_length_a   16.55991938
_cell_length_b   16.60505511
_cell_length_c   15.59223574
_cell_angle_alpha   90.00174462
_cell_angle_beta   90.00301048
_cell_angle_gamma   89.99500200
_symmetry_Int_Tables_number   1
_chemical_formula_structural   Sr7Ca15Pr50Mn72O216
_chemical_formula_sum   'Sr7 Ca15 Pr50 Mn72 O216'
_cell_volume   4287.52760561
_cell_formula_units_Z   1
loop_
 _symmetry_equiv_pos_site_id
 _symmetry_equiv_pos_as_xyz
  1  'x, y, z'
loop_
 _atom_type_symbol
 _atom_type_oxidation_number
  Sr2+  2.0
  Ca2+  2.0
  Pr3+  3.0
  Mn3.30+  3.3
  O2-  -2.0
loop_
 _atom_site_type_symbol
 _atom_site_label
 _atom_site_symmetry_multiplicity
 _atom_site_fract_x
 _atom_site_fract_y
 _atom_site_fract_z
 _atom_site_occupancy
  Sr2+  Sr0  1  0.33522698  0.99059795  0.37464855  1
  Sr2+  Sr1  1  0.83029859  0.82451337  0.87450570  1
  Sr2+  Sr2  1  0.83328442  0.48868471  0.37427440  1
  Sr2+  Sr3  1  0.33756573  0.65510597  0.87407132  1
  Sr2+  Sr4  1  0.83259175  0.84341497  0.62792805  1
  Sr2+  Sr5  1  0.83412514  0.50974149  0.12562264  1
  Sr2+  Sr6  1  0.83526131  0.84204139  0.12156262  1
  Ca2+  Ca7  1  0.17235037  0.51482494  0.62676128  1
  Ca2+  Ca8  1  0.32967294  0.01433574  0.12150104  1
  Ca2+  Ca9  1  0.49952913  0.17893624  0.12319318  1
  Ca2+  Ca10  1  0.49735353  0.48743243  0.87442137  1
  Ca2+  Ca11  1  0.33632106  0.98607206  0.87608784  1
  Ca2+  Ca12  1  0.50711162  0.85189416  0.62718831  1
  Ca2+  Ca13  1  0.82759735  0.14798403  0.87467216  1
  Ca2+  Ca14  1  0.16240314  0.14828751  0.87459305  1
  Ca2+  Ca15  1  0.99932142  0.98526220  0.87459163  1
  Ca2+  Ca16  1  0.67078064  0.65681710  0.87358228  1
  Ca2+  Ca17  1  0.67083356  0.98515279  0.87260925  1
  Ca2+  Ca18  1  0.66480295  0.00946991  0.63260152  1
  Ca2+  Ca19  1  0.66266571  0.68618152  0.62818554  1
  Ca2+  Ca20  1  0.16995686  0.17812599  0.62819472  1
  Ca2+  Ca21  1  0.17112180  0.51516837  0.12312851  1
  Pr3+  Pr22  1  0.33334490  0.68156136  0.62799068  1
  Pr3+  Pr23  1  -0.00478612  0.01053115  0.12057834  1
  Pr3+  Pr24  1  0.66686908  0.68009785  0.12310109  1
  Pr3+  Pr25  1  0.32825029  0.34661777  0.62644280  1
  Pr3+  Pr26  1  0.49598173  0.15256264  0.37340511  1
  Pr3+  Pr27  1  0.82989201  0.82143074  0.37579776  1
  Pr3+  Pr28  1  0.16928305  0.84698179  0.62779282  1
  Pr3+  Pr29  1  0.66808547  0.98871438  0.37628802  1
  Pr3+  Pr30  1  0.50242891  0.17569019  0.62665119  1
  Pr3+  Pr31  1  0.50121938  0.84575106  0.12299703  1
  Pr3+  Pr32  1  0.50569472  0.51622340  0.62790864  1
  Pr3+  Pr33  1  0.16508751  0.82206837  0.87382633  1
  Pr3+  Pr34  1  0.83708259  0.17786600  0.12110247  1
  Pr3+  Pr35  1  0.67013880  0.65472785  0.37724884  1
  Pr3+  Pr36  1  -0.00279032  0.34668177  0.12401686  1
  Pr3+  Pr37  1  1.00149421  0.65358306  0.37602611  1
  Pr3+  Pr38  1  0.33047953  0.34770992  0.12308874  1
  Pr3+  Pr39  1  0.49934170  0.82271274  0.87240729  1
  Pr3+  Pr40  1  0.66475100  0.01233635  0.11975176  1
  Pr3+  Pr41  1  -0.00234659  0.67898257  0.62595450  1
  Pr3+  Pr42  1  0.17174292  0.84831299  0.12255582  1
  Pr3+  Pr43  1  0.49585192  0.82247014  0.37745323  1
  Pr3+  Pr44  1  0.83005258  0.49251710  0.87604125  1
  Pr3+  Pr45  1  0.66869171  0.32089591  0.87523950  1
  Pr3+  Pr46  1  0.16919933  0.17638717  0.12224208  1
  Pr3+  Pr47  1  1.00084149  0.65672259  0.87387025  1
  Pr3+  Pr48  1  0.50425540  0.51388599  0.12175780  1
  Pr3+  Pr49  1  0.33570491  0.31907568  0.37426352  1
  Pr3+  Pr50  1  -0.00047922  0.34377064  0.62662763  1
  Pr3+  Pr51  1  0.16434601  0.48843858  0.87381406  1
  Pr3+  Pr52  1  0.33127803  0.01380304  0.62794924  1
  Pr3+  Pr53  1  0.33526176  0.32178808  0.87516266  1
  Pr3+  Pr54  1  -0.00401467  0.01181234  0.62912147  1
  Pr3+  Pr55  1  0.33716984  0.65407645  0.37645396  1
  Pr3+  Pr56  1  0.83221271  0.17390370  0.62945843  1
  Pr3+  Pr57  1  0.66273756  0.34570532  0.62649277  1
  Pr3+  Pr58  1  0.49659018  0.48633461  0.37513192  1
  Pr3+  Pr59  1  0.66391525  0.34641042  0.12318105  1
  Pr3+  Pr60  1  0.67054345  0.32005984  0.37446503  1
  Pr3+  Pr61  1  0.49527764  0.15111170  0.87665114  1
  Pr3+  Pr62  1  0.33035513  0.67898325  0.12259086  1
  Pr3+  Pr63  1  0.83068812  0.15480421  0.37527864  1
  Pr3+  Pr64  1  1.00308219  0.31762167  0.87545573  1
  Pr3+  Pr65  1  0.16627401  0.82110506  0.37639996  1
  Pr3+  Pr66  1  -0.00296853  0.67746674  0.12383123  1
  Pr3+  Pr67  1  1.00335185  0.98603894  0.37547814  1
  Pr3+  Pr68  1  0.83353710  0.51341086  0.62476166  1
  Pr3+  Pr69  1  1.00119197  0.32062508  0.37461934  1
  Pr3+  Pr70  1  0.16461811  0.15256947  0.37579232  1
  Pr3+  Pr71  1  0.16312889  0.48652959  0.37579679  1
  Mn3.30+  Mn72  1  0.16718511  0.00044459  -0.00380231  1
  Mn3.30+  Mn73  1  0.16679274  0.00103658  0.50221367  1
  Mn3.30+  Mn74  1  0.16664504  0.33253604  -0.00077051  1
  Mn3.30+  Mn75  1  0.16709925  0.33199421  0.50216889  1
  Mn3.30+  Mn76  1  0.16740975  0.66543446  -0.00129690  1
  Mn3.30+  Mn77  1  0.16854104  0.66598184  0.50224583  1
  Mn3.30+  Mn78  1  0.49771151  0.00089101  -0.00012167  1
  Mn3.30+  Mn79  1  0.50124382  0.00004252  0.50224712  1
  Mn3.30+  Mn80  1  0.49935755  0.33288023  -0.00071992  1
  Mn3.30+  Mn81  1  0.49954598  0.33271637  0.50063336  1
  Mn3.30+  Mn82  1  0.50095656  0.66652090  -0.00390740  1
  Mn3.30+  Mn83  1  0.50268249  0.66935429  0.50279819  1
  Mn3.30+  Mn84  1  0.83166623  -0.00065709  -0.00374054  1
  Mn3.30+  Mn85  1  0.83223925  -0.00017902  0.50267835  1
  Mn3.30+  Mn86  1  0.83390745  0.33235964  -0.00280410  1
  Mn3.30+  Mn87  1  0.83285110  0.33208264  0.50205233  1
  Mn3.30+  Mn88  1  0.83227305  0.66669753  -0.00156652  1
  Mn3.30+  Mn89  1  0.83116019  0.66714481  0.50214577  1
  Mn3.30+  Mn90  1  0.00027876  0.16523792  0.24913711  1
  Mn3.30+  Mn91  1  0.00152086  0.16429596  0.75270927  1
  Mn3.30+  Mn92  1  0.00212259  0.49957679  0.24928304  1
  Mn3.30+  Mn93  1  0.00075027  0.49923066  0.74814557  1
  Mn3.30+  Mn94  1  0.00063129  0.83251976  0.24926090  1
  Mn3.30+  Mn95  1  -0.00081351  0.83437139  0.75138330  1
  Mn3.30+  Mn96  1  0.33423166  0.16509392  0.24600121  1
  Mn3.30+  Mn97  1  0.33003401  0.16544318  0.75359047  1
  Mn3.30+  Mn98  1  0.33213246  0.50070405  0.24880970  1
  Mn3.30+  Mn99  1  0.33474432  0.50051021  0.75042163  1
  Mn3.30+  Mn100  1  0.33368962  0.83553511  0.24965075  1
  Mn3.30+  Mn101  1  0.33650486  0.83575185  0.74992717  1
  Mn3.30+  Mn102  1  0.66481326  0.16619572  0.24688796  1
  Mn3.30+  Mn103  1  0.66661154  0.16378078  0.75320625  1
  Mn3.30+  Mn104  1  0.66649518  0.50072035  0.24942025  1
  Mn3.30+  Mn105  1  0.66507314  0.50320442  0.75219049  1
  Mn3.30+  Mn106  1  0.66568040  0.83509231  0.24932840  1
  Mn3.30+  Mn107  1  0.66529362  0.83473609  0.74940193  1
  Mn3.30+  Mn108  1  0.16784701  -0.00037798  0.24874792  1
  Mn3.30+  Mn109  1  0.16625890  0.00200644  0.75305593  1
  Mn3.30+  Mn110  1  0.16734169  0.33337872  0.24824526  1
  Mn3.30+  Mn111  1  0.16656736  0.33077956  0.75030438  1
  Mn3.30+  Mn112  1  0.16751207  0.66614677  0.24944151  1
  Mn3.30+  Mn113  1  0.16835401  0.66535413  0.74960497  1
  Mn3.30+  Mn114  1  0.49810802  0.00130132  0.24593419  1
  Mn3.30+  Mn115  1  0.50063295  -0.00043131  0.75256554  1
  Mn3.30+  Mn116  1  0.50007110  0.33215669  0.24796107  1
  Mn3.30+  Mn117  1  0.49880314  0.33350459  0.75144000  1
  Mn3.30+  Mn118  1  0.49984742  0.66734558  0.24986448  1
  Mn3.30+  Mn119  1  0.50370584  0.66797272  0.75139160  1
  Mn3.30+  Mn120  1  0.83337334  -0.00043105  0.24894964  1
  Mn3.30+  Mn121  1  0.83068891  -0.00073963  0.75198887  1
  Mn3.30+  Mn122  1  0.83340966  0.33271139  0.24938308  1
  Mn3.30+  Mn123  1  0.83304696  0.33220088  0.75123764  1
  Mn3.30+  Mn124  1  0.83374356  0.66616869  0.24986249  1
  Mn3.30+  Mn125  1  0.82983703  0.66816128  0.74939070  1
  Mn3.30+  Mn126  1  0.00072392  0.16313637  -0.00549800  1
  Mn3.30+  Mn127  1  0.00090681  0.16635674  0.50346644  1
  Mn3.30+  Mn128  1  0.00077601  0.49967691  0.00037977  1
  Mn3.30+  Mn129  1  0.00249268  0.49878459  0.50265487  1
  Mn3.30+  Mn130  1  0.00052069  0.83361599  -0.00215955  1
  Mn3.30+  Mn131  1  -0.00079035  0.83316583  0.50152733  1
  Mn3.30+  Mn132  1  0.33194678  0.16424690  -0.00136200  1
  Mn3.30+  Mn133  1  0.33257279  0.16623107  0.50144538  1
  Mn3.30+  Mn134  1  0.33389623  0.50077931  -0.00156820  1
  Mn3.30+  Mn135  1  0.33276167  0.50026791  0.50203520  1
  Mn3.30+  Mn136  1  0.33430124  0.83583415  -0.00187756  1
  Mn3.30+  Mn137  1  0.33594058  0.83547104  0.50282800  1
  Mn3.30+  Mn138  1  0.66579245  0.16591096  -0.00162302  1
  Mn3.30+  Mn139  1  0.66561820  0.16456726  0.50152143  1
  Mn3.30+  Mn140  1  0.66499152  0.50235316  -0.00279755  1
  Mn3.30+  Mn141  1  0.66666144  0.50124856  0.50114443  1
  Mn3.30+  Mn142  1  0.66690151  0.83447180  -0.00196730  1
  Mn3.30+  Mn143  1  0.66401546  0.83573322  0.50331453  1
  O2-  O144  1  0.02521290  0.15825042  0.12059920  1
  O2-  O145  1  0.02870331  0.15872801  0.62757589  1
  O2-  O146  1  0.02879936  0.49412158  0.12455376  1
  O2-  O147  1  0.03082821  0.49221479  0.62519705  1
  O2-  O148  1  0.02637288  0.82687677  0.12376876  1
  O2-  O149  1  0.02437471  0.82873616  0.62578995  1
  O2-  O150  1  0.35688771  0.16033992  0.12263831  1
  O2-  O151  1  0.35828166  0.16242189  0.62859870  1
  O2-  O152  1  0.36034518  0.49710948  0.12289979  1
  O2-  O153  1  0.36115708  0.49406609  0.62447237  1
  O2-  O154  1  0.35709367  0.82526030  0.12337408  1
  O2-  O155  1  0.36198709  0.82997962  0.62549772  1
  O2-  O156  1  0.69387962  0.16131521  0.12264082  1
  O2-  O157  1  0.68787493  0.15975460  0.62947890  1
  O2-  O158  1  0.68431179  0.49495831  0.12356555  1
  O2-  O159  1  0.69027586  0.49128978  0.62675032  1
  O2-  O160  1  0.68594741  0.82857370  0.12598368  1
  O2-  O161  1  0.68552467  0.82898962  0.62489284  1
  O2-  O162  1  0.13993433  0.32337067  0.12376031  1
  O2-  O163  1  0.14166717  0.32061484  0.62771990  1
  O2-  O164  1  0.14205073  0.66182706  0.12302010  1
  O2-  O165  1  0.14228315  0.66142056  0.62530288  1
  O2-  O166  1  0.13902781  0.99656606  0.12208793  1
  O2-  O167  1  0.13951758  0.99395902  0.62668737  1
  O2-  O168  1  0.47511938  0.32771170  0.12373562  1
  O2-  O169  1  0.47400495  0.32529582  0.62573649  1
  O2-  O170  1  0.47402226  0.66166883  0.12254001  1
  O2-  O171  1  0.47522465  0.66049599  0.62574326  1
  O2-  O172  1  0.47055883  0.99188940  0.12288299  1
  O2-  O173  1  0.47547844  1.00162229  0.62909876  1
  O2-  O174  1  0.80917435  0.32608389  0.12078949  1
  O2-  O175  1  0.80639173  0.32472521  0.62752080  1
  O2-  O176  1  0.81176977  0.66571506  0.12547372  1
  O2-  O177  1  0.80691078  0.66095389  0.62516862  1
  O2-  O178  1  0.81048676  0.99984363  0.12384778  1
  O2-  O179  1  0.80819921  1.00369445  0.62510197  1
  O2-  O180  1  0.30885878  0.17138196  0.37330503  1
  O2-  O181  1  0.30341192  0.17602713  0.87568581  1
  O2-  O182  1  0.30748931  0.50531581  0.37724735  1
  O2-  O183  1  0.30789837  0.49927307  0.87513900  1
  O2-  O184  1  0.31009011  0.83538451  0.37718128  1
  O2-  O185  1  0.30901869  0.83985375  0.87448133  1
  O2-  O186  1  0.64039689  0.17211266  0.37115351  1
  O2-  O187  1  0.63808061  0.17524585  0.87606107  1
  O2-  O188  1  0.63982828  0.50560996  0.37529581  1
  O2-  O189  1  0.63937078  0.50947629  0.87415346  1
  O2-  O190  1  0.63925336  0.84162930  0.37455603  1
  O2-  O191  1  0.64185322  0.84134481  0.87453368  1
  O2-  O192  1  0.97434673  0.17213029  0.37777142  1
  O2-  O193  1  0.96900626  0.17383540  0.87440407  1
  O2-  O194  1  0.98315091  0.50396358  0.37738361  1
  O2-  O195  1  0.97476257  0.50572402  0.87262172  1
  O2-  O196  1  0.97592565  0.83800482  0.37666119  1
  O2-  O197  1  0.98241032  0.83565766  0.87387735  1
  O2-  O198  1  0.18500860  0.00426181  0.37707824  1
  O2-  O199  1  0.19536803  0.00331952  0.87426489  1
  O2-  O200  1  0.19270870  0.33914792  0.37338494  1
  O2-  O201  1  0.19190183  0.34284558  0.87477963  1
  O2-  O202  1  0.19394362  0.67343488  0.37802133  1
  O2-  O203  1  0.18781108  0.67144599  0.87343078  1
  O2-  O204  1  0.52423886  0.00550982  0.37143024  1
  O2-  O205  1  0.52728553  0.00479738  0.87728917  1
  O2-  O206  1  0.52585318  0.33850268  0.37482209  1
  O2-  O207  1  0.52343087  0.33942820  0.87520481  1
  O2-  O208  1  0.52567404  0.67334536  0.37773091  1
  O2-  O209  1  0.52965052  0.67640706  0.87407630  1
  O2-  O210  1  0.85927379  0.00702235  0.37579528  1
  O2-  O211  1  0.85784836  0.00477931  0.87468987  1
  O2-  O212  1  0.85635589  0.32961442  0.37807278  1
  O2-  O213  1  0.85900158  0.34400901  0.87358589  1
  O2-  O214  1  0.85588072  0.67196145  0.37635514  1
  O2-  O215  1  0.85631709  0.66189811  0.87300784  1
  O2-  O216  1  0.23573358  0.09529538  0.01903246  1
  O2-  O217  1  0.23730032  0.09641068  0.52095811  1
  O2-  O218  1  0.23864673  0.42955576  0.02203221  1
  O2-  O219  1  0.23626687  0.42850748  0.52286656  1
  O2-  O220  1  0.24082545  0.76204173  0.01859875  1
  O2-  O221  1  0.23894314  0.76137819  0.52295714  1
  O2-  O222  1  0.56790969  0.09583641  0.02257160  1
  O2-  O223  1  0.56914529  0.09797473  0.51487575  1
  O2-  O224  1  0.57287428  0.42722897  0.01955751  1
  O2-  O225  1  0.57068474  0.42944228  0.52017963  1
  O2-  O226  1  0.57225805  0.76116766  0.02030597  1
  O2-  O227  1  0.56750331  0.76817109  0.51790803  1
  O2-  O228  1  0.90515911  0.09325289  0.01995404  1
  O2-  O229  1  0.90567432  0.09564517  0.52189557  1
  O2-  O230  1  0.90896709  0.42492660  0.01817145  1
  O2-  O231  1  0.90766509  0.42460200  0.52362272  1
  O2-  O232  1  0.91206293  0.75572224  0.01591374  1
  O2-  O233  1  0.90904617  0.75819270  0.51833754  1
  O2-  O234  1  0.26150621  0.26180659  0.22859884  1
  O2-  O235  1  0.26381305  0.26372666  0.73246882  1
  O2-  O236  1  0.26448012  0.59782497  0.23234812  1
  O2-  O237  1  0.26342980  0.59365017  0.72943104  1
  O2-  O238  1  0.26069764  0.92838160  0.22651419  1
  O2-  O239  1  0.25924930  0.92874589  0.72728285  1
  O2-  O240  1  0.59810663  0.26262768  0.22995480  1
  O2-  O241  1  0.59382318  0.26134798  0.73106112  1
  O2-  O242  1  0.59301385  0.59620063  0.22992893  1
  O2-  O243  1  0.59738372  0.59757016  0.72510464  1
  O2-  O244  1  0.59448230  0.93016402  0.22788410  1
  O2-  O245  1  0.59369762  0.93019683  0.73122566  1
  O2-  O246  1  0.92907601  0.25866229  0.22835561  1
  O2-  O247  1  0.93108721  0.25829509  0.72871275  1
  O2-  O248  1  0.93276340  0.59415469  0.23470452  1
  O2-  O249  1  0.92779836  0.59227982  0.72667076  1
  O2-  O250  1  0.93179476  0.92957727  0.23368851  1
  O2-  O251  1  0.92828304  0.92745447  0.73267112  1
  O2-  O252  1  0.09371970  0.23715454  0.27105118  1
  O2-  O253  1  0.09394365  0.23680207  0.77641581  1
  O2-  O254  1  0.09684364  0.57334762  0.27235499  1
  O2-  O255  1  0.09156394  0.57219288  0.77130887  1
  O2-  O256  1  0.09662468  0.90387452  0.26943003  1
  O2-  O257  1  0.09878020  0.90439274  0.76710602  1
  O2-  O258  1  0.42745506  0.24135824  0.27096523  1
  O2-  O259  1  0.42626195  0.23650570  0.77237055  1
  O2-  O260  1  0.42809859  0.57178111  0.27115642  1
  O2-  O261  1  0.43569735  0.57004027  0.76731027  1
  O2-  O262  1  0.43128510  0.90302006  0.26675007  1
  O2-  O263  1  0.42869747  0.90765617  0.77048410  1
  O2-  O264  1  0.76046509  0.23687646  0.26878046  1
  O2-  O265  1  0.75935892  0.23680401  0.77258998  1
  O2-  O266  1  0.75652428  0.57641361  0.26897226  1
  O2-  O267  1  0.76378365  0.56853496  0.76570846  1
  O2-  O268  1  0.76024147  0.90796725  0.27281436  1
  O2-  O269  1  0.75845355  0.90728396  0.76583764  1
  O2-  O270  1  0.07011487  0.07266038  0.47979076  1
  O2-  O271  1  0.06842233  0.06719533  0.97742302  1
  O2-  O272  1  0.07245465  0.40298696  0.47978529  1
  O2-  O273  1  0.07172496  0.40436365  0.97851226  1
  O2-  O274  1  0.07497193  0.73778049  0.48058247  1
  O2-  O275  1  0.07407129  0.73851644  0.97924386  1
  O2-  O276  1  0.40752554  0.07390426  0.48454776  1
  O2-  O277  1  0.40337166  0.07201134  0.97490816  1
  O2-  O278  1  0.40482643  0.40430475  0.47860770  1
  O2-  O279  1  0.40192970  0.40388038  0.98387482  1
  O2-  O280  1  0.40567638  0.73725277  0.48070052  1
  O2-  O281  1  0.40945569  0.74094518  0.98104765  1
  O2-  O282  1  0.74101652  0.07425185  0.47611145  1
  O2-  O283  1  0.73350556  0.07116169  0.98044435  1
  O2-  O284  1  0.73624937  0.40213711  0.48385276  1
  O2-  O285  1  0.73776472  0.40732059  0.97879492  1
  O2-  O286  1  0.73614642  0.74436430  0.47758699  1
  O2-  O287  1  0.73559902  0.73780895  0.98361367  1
  O2-  O288  1  0.09308029  0.23987205  0.47657056  1
  O2-  O289  1  0.09435908  0.23476161  0.97665103  1
  O2-  O290  1  0.09684364  0.57377809  0.47891174  1
  O2-  O291  1  0.09254936  0.57170673  0.97658505  1
  O2-  O292  1  0.09493064  0.90463142  0.48130876  1
  O2-  O293  1  0.09937438  0.90281152  0.98228198  1
  O2-  O294  1  0.42772839  0.23836467  0.47870544  1
  O2-  O295  1  0.42503222  0.23873065  0.97812020  1
  O2-  O296  1  0.43032015  0.57202394  0.47999916  1
  O2-  O297  1  0.43253466  0.56896085  0.98040135  1
  O2-  O298  1  0.43195319  0.90672531  0.48328929  1
  O2-  O299  1  0.42965833  0.90427679  0.98013469  1
  O2-  O300  1  0.75914390  0.23658865  0.48171970  1
  O2-  O301  1  0.76321980  0.23861401  0.97655861  1
  O2-  O302  1  0.75909754  0.57203504  0.48204572  1
  O2-  O303  1  0.75997781  0.57186223  0.98197304  1
  O2-  O304  1  0.76068685  0.90722256  0.47727399  1
  O2-  O305  1  0.75773471  0.90867035  0.98420985  1
  O2-  O306  1  0.07050404  0.07165213  0.26981949  1
  O2-  O307  1  0.06813046  0.06784123  0.77264734  1
  O2-  O308  1  0.07354934  0.40384774  0.27077760  1
  O2-  O309  1  0.07103287  0.40287200  0.77072194  1
  O2-  O310  1  0.07361501  0.73789936  0.27230111  1
  O2-  O311  1  0.07425118  0.73972766  0.76712647  1
  O2-  O312  1  0.40894805  0.07529362  0.26875421  1
  O2-  O313  1  0.40188501  0.07130500  0.77310155  1
  O2-  O314  1  0.40359718  0.40615828  0.26988928  1
  O2-  O315  1  0.40255322  0.40289432  0.76663153  1
  O2-  O316  1  0.40542420  0.73818154  0.27004434  1
  O2-  O317  1  0.40981403  0.73877846  0.76784535  1
  O2-  O318  1  0.73707423  0.07316026  0.26945421  1
  O2-  O319  1  0.73648529  0.07238365  0.77217471  1
  O2-  O320  1  0.73631697  0.40337477  0.26615591  1
  O2-  O321  1  0.73585312  0.40826290  0.77157809  1
  O2-  O322  1  0.73747939  0.74233798  0.27159486  1
  O2-  O323  1  0.73598498  0.73803724  0.76810749  1
  O2-  O324  1  0.23468283  0.09590374  0.23265512  1
  O2-  O325  1  0.23699683  0.09502073  0.72704128  1
  O2-  O326  1  0.23880052  0.43032529  0.22712748  1
  O2-  O327  1  0.23597312  0.42717291  0.72763294  1
  O2-  O328  1  0.23796001  0.76189830  0.23032163  1
  O2-  O329  1  0.24259899  0.76237074  0.72954355  1
  O2-  O330  1  0.57160551  0.09571907  0.22511235  1
  O2-  O331  1  0.56690278  0.09760370  0.73584300  1
  O2-  O332  1  0.56947143  0.42801548  0.23027980  1
  O2-  O333  1  0.57335736  0.42839189  0.72921307  1
  O2-  O334  1  0.57124519  0.76156922  0.23028139  1
  O2-  O335  1  0.56899802  0.76644435  0.73124217  1
  O2-  O336  1  0.90488304  0.09523835  0.22977215  1
  O2-  O337  1  0.90635194  0.09352394  0.72878761  1
  O2-  O338  1  0.91123287  0.42274754  0.23267824  1
  O2-  O339  1  0.90714696  0.42772849  0.72598575  1
  O2-  O340  1  0.90930738  0.75874898  0.23403051  1
  O2-  O341  1  0.90945598  0.75448141  0.73221425  1
  O2-  O342  1  0.26156577  0.26162855  0.02154941  1
  O2-  O343  1  0.26335244  0.26424235  0.51624840  1
  O2-  O344  1  0.26221079  0.59430366  0.01930281  1
  O2-  O345  1  0.26503715  0.59813395  0.51983286  1
  O2-  O346  1  0.26055784  0.92875753  0.02248518  1
  O2-  O347  1  0.25996146  0.92763524  0.52438086  1
  O2-  O348  1  0.59781145  0.26261879  0.01736793  1
  O2-  O349  1  0.59436015  0.26171819  0.52039721  1
  O2-  O350  1  0.59388891  0.59563481  0.02341538  1
  O2-  O351  1  0.59579385  0.59926486  0.52169382  1
  O2-  O352  1  0.59048287  0.92716522  0.02265985  1
  O2-  O353  1  0.59918623  0.93481092  0.51871671  1
  O2-  O354  1  0.93099921  0.25959729  0.02006366  1
  O2-  O355  1  0.92842172  0.25848330  0.52401616  1
  O2-  O356  1  0.93110375  0.59325846  0.01693211  1
  O2-  O357  1  0.93078352  0.59094423  0.52168208  1
  O2-  O358  1  0.92971505  0.92671029  0.01613940  1
  O2-  O359  1  0.92855449  0.93167032  0.51739760  1
