# generated using pymatgen
data_Sr7Ca15Pr50Mn72O216
_symmetry_space_group_name_H-M   'P 1'
_cell_length_a   16.56073979
_cell_length_b   16.60631727
_cell_length_c   15.59202586
_cell_angle_alpha   90.00228412
_cell_angle_beta   90.00299035
_cell_angle_gamma   90.00315738
_symmetry_Int_Tables_number   1
_chemical_formula_structural   Sr7Ca15Pr50Mn72O216
_chemical_formula_sum   'Sr7 Ca15 Pr50 Mn72 O216'
_cell_volume   4288.00822154
_cell_formula_units_Z   1
loop_
 _symmetry_equiv_pos_site_id
 _symmetry_equiv_pos_as_xyz
  1  'x, y, z'
loop_
 _atom_type_symbol
 _atom_type_oxidation_number
  Sr2+  2.0
  Ca2+  2.0
  Pr3+  3.0
  Mn3.30+  3.3
  O2-  -2.0
loop_
 _atom_site_type_symbol
 _atom_site_label
 _atom_site_symmetry_multiplicity
 _atom_site_fract_x
 _atom_site_fract_y
 _atom_site_fract_z
 _atom_site_occupancy
  Sr2+  Sr0  1  0.16717873  0.49038095  0.87482913  1
  Sr2+  Sr1  1  0.16152757  0.15639673  0.37608352  1
  Sr2+  Sr2  1  0.33417641  0.67629701  0.12574399  1
  Sr2+  Sr3  1  0.99996773  0.32164588  0.37623493  1
  Sr2+  Sr4  1  0.50131335  0.15876050  0.37628379  1
  Sr2+  Sr5  1  0.16856877  0.17612196  0.12647927  1
  Sr2+  Sr6  1  0.50272781  0.49143576  0.37617289  1
  Ca2+  Ca7  1  0.66028236  0.68379736  0.62244127  1
  Ca2+  Ca8  1  0.33933397  0.98570871  0.87576775  1
  Ca2+  Ca9  1  0.50485222  0.84874361  0.62597454  1
  Ca2+  Ca10  1  0.83549812  0.18021580  0.62242197  1
  Ca2+  Ca11  1  0.66189896  0.01525801  0.12496253  1
  Ca2+  Ca12  1  0.50441649  0.85208625  0.12396653  1
  Ca2+  Ca13  1  0.82910792  0.15265294  0.37617134  1
  Ca2+  Ca14  1  0.82707426  0.81778160  0.87421731  1
  Ca2+  Ca15  1  0.67299478  0.31357032  0.37606990  1
  Ca2+  Ca16  1  0.16940015  0.18102081  0.62295893  1
  Ca2+  Ca17  1  0.66815706  0.65329529  0.37816110  1
  Ca2+  Ca18  1  0.49500255  0.48663318  0.87365016  1
  Ca2+  Ca19  1  0.50760039  0.51718942  0.62459129  1
  Ca2+  Ca20  1  0.99973307  0.99296638  0.37409144  1
  Ca2+  Ca21  1  0.49419163  0.14801703  0.87443799  1
  Pr3+  Pr22  1  0.66864166  0.98486404  0.87541988  1
  Pr3+  Pr23  1  0.66201022  0.34499431  0.12753326  1
  Pr3+  Pr24  1  0.83453318  0.51234997  0.12562564  1
  Pr3+  Pr25  1  0.33241807  0.01138784  0.12314918  1
  Pr3+  Pr26  1  -0.00380760  0.01595883  0.62384148  1
  Pr3+  Pr27  1  -0.00190870  0.34265116  0.62341776  1
  Pr3+  Pr28  1  0.66242947  0.34708223  0.62230461  1
  Pr3+  Pr29  1  0.33771142  0.65452754  0.37496881  1
  Pr3+  Pr30  1  0.33651739  0.31834472  0.37572390  1
  Pr3+  Pr31  1  0.33109060  0.01363181  0.62698369  1
  Pr3+  Pr32  1  0.17104957  0.84575490  0.12470913  1
  Pr3+  Pr33  1  1.00146989  0.98685153  0.87548897  1
  Pr3+  Pr34  1  0.83495898  0.84707172  0.12282643  1
  Pr3+  Pr35  1  0.66469733  0.32092886  0.87416557  1
  Pr3+  Pr36  1  0.16932781  0.84645707  0.62532430  1
  Pr3+  Pr37  1  0.16438870  0.48670354  0.37543221  1
  Pr3+  Pr38  1  0.82788368  0.82047049  0.37542450  1
  Pr3+  Pr39  1  0.33908251  0.31963868  0.87433107  1
  Pr3+  Pr40  1  1.00451238  0.32144380  0.87361289  1
  Pr3+  Pr41  1  0.50359564  0.17729516  0.12531230  1
  Pr3+  Pr42  1  0.83465745  0.84489595  0.62644784  1
  Pr3+  Pr43  1  0.33682915  0.99175061  0.37405615  1
  Pr3+  Pr44  1  0.49875389  0.82336117  0.37580634  1
  Pr3+  Pr45  1  0.33191798  0.34274342  0.12727657  1
  Pr3+  Pr46  1  0.65933961  0.68236453  0.12730396  1
  Pr3+  Pr47  1  0.66972674  0.99237860  0.37369264  1
  Pr3+  Pr48  1  0.83408601  0.51380366  0.62478913  1
  Pr3+  Pr49  1  -0.00073702  0.01392347  0.12590477  1
  Pr3+  Pr50  1  -0.00120651  0.34306885  0.12698557  1
  Pr3+  Pr51  1  0.16404332  0.82650689  0.37462188  1
  Pr3+  Pr52  1  0.82482592  0.48343547  0.37641710  1
  Pr3+  Pr53  1  0.33387542  0.34480284  0.62259831  1
  Pr3+  Pr54  1  0.16963162  0.51078638  0.62415855  1
  Pr3+  Pr55  1  0.50372555  0.17895430  0.62499906  1
  Pr3+  Pr56  1  1.00082111  0.65464012  0.87487409  1
  Pr3+  Pr57  1  1.00126389  0.65526371  0.37568963  1
  Pr3+  Pr58  1  0.66740113  0.65414670  0.87311060  1
  Pr3+  Pr59  1  0.16515023  0.15490015  0.87377454  1
  Pr3+  Pr60  1  -0.00310989  0.67931224  0.12452148  1
  Pr3+  Pr61  1  0.17036651  0.51073557  0.12584450  1
  Pr3+  Pr62  1  0.34004775  0.64988379  0.87463992  1
  Pr3+  Pr63  1  0.49582124  0.82165680  0.87404613  1
  Pr3+  Pr64  1  -0.00328168  0.67982603  0.62599334  1
  Pr3+  Pr65  1  0.16943604  0.82156719  0.87544026  1
  Pr3+  Pr66  1  0.82911218  0.48640513  0.87391710  1
  Pr3+  Pr67  1  0.83322236  0.17677680  0.12570120  1
  Pr3+  Pr68  1  0.66482422  0.01282900  0.62544753  1
  Pr3+  Pr69  1  0.50240217  0.51281148  0.12530867  1
  Pr3+  Pr70  1  0.83042090  0.15440101  0.87303527  1
  Pr3+  Pr71  1  0.33555355  0.67858265  0.62401059  1
  Mn3.30+  Mn72  1  0.16957135  0.00024606  -0.00265892  1
  Mn3.30+  Mn73  1  0.16466984  0.00207925  0.50080234  1
  Mn3.30+  Mn74  1  0.16835338  0.33298813  -0.00046098  1
  Mn3.30+  Mn75  1  0.16563962  0.33120062  0.50093181  1
  Mn3.30+  Mn76  1  0.16777588  0.66613485  -0.00023671  1
  Mn3.30+  Mn77  1  0.16715713  0.66821042  0.50022539  1
  Mn3.30+  Mn78  1  0.50069851  -0.00014532  -0.00067163  1
  Mn3.30+  Mn79  1  0.50087318  0.00022940  0.50092187  1
  Mn3.30+  Mn80  1  0.49952658  0.33266010  -0.00106820  1
  Mn3.30+  Mn81  1  0.50219062  0.33507341  0.49793329  1
  Mn3.30+  Mn82  1  0.50052530  0.66790775  0.00082433  1
  Mn3.30+  Mn83  1  0.50367726  0.66791252  0.50035546  1
  Mn3.30+  Mn84  1  0.83088223  -0.00111295  -0.00010184  1
  Mn3.30+  Mn85  1  0.83483618  0.00174819  0.49916719  1
  Mn3.30+  Mn86  1  0.83204174  0.33255989  -0.00042477  1
  Mn3.30+  Mn87  1  0.83105232  0.32949091  0.50022727  1
  Mn3.30+  Mn88  1  0.83040683  0.66762079  -0.00043506  1
  Mn3.30+  Mn89  1  0.82940872  0.66718297  0.50090784  1
  Mn3.30+  Mn90  1  -0.00199149  0.16620977  0.25260871  1
  Mn3.30+  Mn91  1  -0.00014024  0.16694261  0.74769491  1
  Mn3.30+  Mn92  1  -0.00123899  0.49979724  0.25099007  1
  Mn3.30+  Mn93  1  -0.00008376  0.49964379  0.74962324  1
  Mn3.30+  Mn94  1  -0.00128971  0.83561613  0.25041039  1
  Mn3.30+  Mn95  1  -0.00096542  0.83400489  0.75258779  1
  Mn3.30+  Mn96  1  0.33378040  0.16513754  0.25096289  1
  Mn3.30+  Mn97  1  0.33390639  0.16585458  0.75020269  1
  Mn3.30+  Mn98  1  0.33468022  0.49954733  0.25202162  1
  Mn3.30+  Mn99  1  0.33822806  0.49904127  0.74711746  1
  Mn3.30+  Mn100  1  0.33537832  0.83389094  0.24858041  1
  Mn3.30+  Mn101  1  0.33608105  0.83396764  0.74874043  1
  Mn3.30+  Mn102  1  0.66812443  0.16525518  0.25065548  1
  Mn3.30+  Mn103  1  0.66563201  0.16669817  0.75068429  1
  Mn3.30+  Mn104  1  0.66686838  0.49965312  0.25239016  1
  Mn3.30+  Mn105  1  0.66271915  0.50111527  0.74909594  1
  Mn3.30+  Mn106  1  0.66480707  0.83545071  0.24954537  1
  Mn3.30+  Mn107  1  0.66566979  0.83214911  0.74907229  1
  Mn3.30+  Mn108  1  0.16608062  0.00081605  0.25124195  1
  Mn3.30+  Mn109  1  0.16796861  0.00159431  0.75041910  1
  Mn3.30+  Mn110  1  0.16525024  0.33127642  0.25077041  1
  Mn3.30+  Mn111  1  0.16904085  0.33291199  0.74918704  1
  Mn3.30+  Mn112  1  0.16704172  0.66777021  0.25092689  1
  Mn3.30+  Mn113  1  0.16793355  0.66648390  0.74977197  1
  Mn3.30+  Mn114  1  0.50261818  0.00039187  0.24923207  1
  Mn3.30+  Mn115  1  0.49899425  -0.00030692  0.75039562  1
  Mn3.30+  Mn116  1  0.50139968  0.33323802  0.25381654  1
  Mn3.30+  Mn117  1  0.50032074  0.33469591  0.74930818  1
  Mn3.30+  Mn118  1  0.50127238  0.66896174  0.25136088  1
  Mn3.30+  Mn119  1  0.50314145  0.66644946  0.74731667  1
  Mn3.30+  Mn120  1  0.83296415  0.00053241  0.24969279  1
  Mn3.30+  Mn121  1  0.83281372  -0.00053365  0.75056106  1
  Mn3.30+  Mn122  1  0.83069366  0.33028442  0.25182055  1
  Mn3.30+  Mn123  1  0.83224159  0.33190710  0.74859092  1
  Mn3.30+  Mn124  1  0.82998425  0.66663055  0.25063731  1
  Mn3.30+  Mn125  1  0.83004740  0.66814200  0.74954337  1
  Mn3.30+  Mn126  1  -0.00039278  0.16696206  0.00009440  1
  Mn3.30+  Mn127  1  -0.00203207  0.16630657  0.49927295  1
  Mn3.30+  Mn128  1  0.00003891  0.49943901  0.00028810  1
  Mn3.30+  Mn129  1  -0.00137937  0.49998062  0.49999245  1
  Mn3.30+  Mn130  1  -0.00097920  0.83331226  -0.00177890  1
  Mn3.30+  Mn131  1  -0.00090884  0.83625944  0.49955138  1
  Mn3.30+  Mn132  1  0.33518082  0.16489920  -0.00194350  1
  Mn3.30+  Mn133  1  0.33233493  0.16579492  0.50078250  1
  Mn3.30+  Mn134  1  0.33500780  0.49796166  -0.00080482  1
  Mn3.30+  Mn135  1  0.33755609  0.50040109  0.50095367  1
  Mn3.30+  Mn136  1  0.33647674  0.83311604  0.00117542  1
  Mn3.30+  Mn137  1  0.33496336  0.83504053  0.50120889  1
  Mn3.30+  Mn138  1  0.66378811  0.16510165  -0.00256897  1
  Mn3.30+  Mn139  1  0.67007971  0.16679914  0.50065629  1
  Mn3.30+  Mn140  1  0.66431571  0.49985579  -0.00162840  1
  Mn3.30+  Mn141  1  0.66551609  0.50131908  0.50045454  1
  Mn3.30+  Mn142  1  0.66550321  0.83473347  0.00073512  1
  Mn3.30+  Mn143  1  0.66493737  0.83304876  0.50060302  1
  O2-  O144  1  0.01890421  0.16220213  0.12331519  1
  O2-  O145  1  0.02754026  0.16190925  0.62655263  1
  O2-  O146  1  0.02485613  0.49411740  0.12635722  1
  O2-  O147  1  0.02433819  0.49495423  0.62463596  1
  O2-  O148  1  0.02617531  0.82691411  0.12367597  1
  O2-  O149  1  0.02517447  0.82684787  0.62827165  1
  O2-  O150  1  0.35859696  0.16205627  0.12292895  1
  O2-  O151  1  0.35987457  0.16212698  0.62589278  1
  O2-  O152  1  0.35808884  0.49228262  0.12721594  1
  O2-  O153  1  0.36492600  0.49395928  0.62315523  1
  O2-  O154  1  0.36012097  0.83170937  0.12557612  1
  O2-  O155  1  0.36191116  0.82675607  0.62448444  1
  O2-  O156  1  0.68928226  0.16351760  0.12184132  1
  O2-  O157  1  0.69279873  0.16148558  0.62749398  1
  O2-  O158  1  0.69121172  0.49355417  0.12591596  1
  O2-  O159  1  0.69276187  0.49277838  0.62564658  1
  O2-  O160  1  0.69313872  0.82689424  0.12531605  1
  O2-  O161  1  0.69226516  0.82854783  0.62422596  1
  O2-  O162  1  0.14363612  0.33342716  0.12605737  1
  O2-  O163  1  0.14311198  0.33003855  0.62594951  1
  O2-  O164  1  0.14096835  0.66095586  0.12594651  1
  O2-  O165  1  0.14111896  0.66200348  0.62444511  1
  O2-  O166  1  0.14348917  0.99349030  0.12148358  1
  O2-  O167  1  0.13978016  0.99212356  0.62667184  1
  O2-  O168  1  0.47710715  0.32641753  0.12691729  1
  O2-  O169  1  0.47783212  0.32515613  0.62442308  1
  O2-  O170  1  0.48273508  0.65935117  0.12648228  1
  O2-  O171  1  0.47659513  0.65984341  0.62397799  1
  O2-  O172  1  0.47644442  0.99726851  0.12396851  1
  O2-  O173  1  0.47631465  0.99577232  0.62609698  1
  O2-  O174  1  0.80546977  0.32679624  0.12469097  1
  O2-  O175  1  0.80660271  0.32710150  0.62612541  1
  O2-  O176  1  0.80460749  0.66058520  0.12442724  1
  O2-  O177  1  0.80513833  0.66318839  0.62513126  1
  O2-  O178  1  0.80450168  0.99373140  0.12123056  1
  O2-  O179  1  0.80829899  0.99084040  0.62811295  1
  O2-  O180  1  0.31293831  0.16774439  0.37794103  1
  O2-  O181  1  0.30745964  0.17413011  0.87357321  1
  O2-  O182  1  0.30796571  0.50578403  0.37705595  1
  O2-  O183  1  0.31621141  0.50195296  0.87158781  1
  O2-  O184  1  0.30776620  0.84244173  0.37612224  1
  O2-  O185  1  0.31272714  0.83787198  0.87394618  1
  O2-  O186  1  0.64987044  0.16421873  0.37612826  1
  O2-  O187  1  0.63696717  0.17336864  0.87406970  1
  O2-  O188  1  0.65149423  0.50917477  0.37615299  1
  O2-  O189  1  0.63718431  0.50650769  0.87201421  1
  O2-  O190  1  0.64222493  0.84477844  0.37494209  1
  O2-  O191  1  0.63960356  0.83690690  0.87572867  1
  O2-  O192  1  0.97156603  0.16786710  0.37510608  1
  O2-  O193  1  0.97452118  0.17274571  0.87517901  1
  O2-  O194  1  0.97134149  0.50702611  0.37549439  1
  O2-  O195  1  0.97326619  0.50512897  0.87444468  1
  O2-  O196  1  0.97308964  0.84186675  0.37310164  1
  O2-  O197  1  0.96958290  0.83976410  0.87521859  1
  O2-  O198  1  0.19157556  -0.00253872  0.37853552  1
  O2-  O199  1  0.19559556  0.00652664  0.87341211  1
  O2-  O200  1  0.19122815  0.33901329  0.37633451  1
  O2-  O201  1  0.19341628  0.33526335  0.87225453  1
  O2-  O202  1  0.19274358  0.67591086  0.37697838  1
  O2-  O203  1  0.19421373  0.67214063  0.87333265  1
  O2-  O204  1  0.52496791  0.00178595  0.37562606  1
  O2-  O205  1  0.52502375  0.00296489  0.87438538  1
  O2-  O206  1  0.52836784  0.33544238  0.37549453  1
  O2-  O207  1  0.52281037  0.34415335  0.87248792  1
  O2-  O208  1  0.52676729  0.67610738  0.37586985  1
  O2-  O209  1  0.52465236  0.67497314  0.87329852  1
  O2-  O210  1  0.85763639  0.00575433  0.37473588  1
  O2-  O211  1  0.85861807  0.00768111  0.87464166  1
  O2-  O212  1  0.85226854  0.33930441  0.37562082  1
  O2-  O213  1  0.85969099  0.33904309  0.87362454  1
  O2-  O214  1  0.85786292  0.67168550  0.37552638  1
  O2-  O215  1  0.85662030  0.67111915  0.87555677  1
  O2-  O216  1  0.24119238  0.09252599  0.01758181  1
  O2-  O217  1  0.23737100  0.09252086  0.52471212  1
  O2-  O218  1  0.24010090  0.42562638  0.02215187  1
  O2-  O219  1  0.24032363  0.42761770  0.52058127  1
  O2-  O220  1  0.23635555  0.76200416  0.01654019  1
  O2-  O221  1  0.23974309  0.76180849  0.52163644  1
  O2-  O222  1  0.56945221  0.09571215  0.01813957  1
  O2-  O223  1  0.57529434  0.09428132  0.52267916  1
  O2-  O224  1  0.57289421  0.42803703  0.02212676  1
  O2-  O225  1  0.57275223  0.43048674  0.52300159  1
  O2-  O226  1  0.57124027  0.76544820  0.02151966  1
  O2-  O227  1  0.56786868  0.76685614  0.51902601  1
  O2-  O228  1  0.90356154  0.09251941  0.01894525  1
  O2-  O229  1  0.90446280  0.09400011  0.52589935  1
  O2-  O230  1  0.90455916  0.42686011  0.02142324  1
  O2-  O231  1  0.90295993  0.42577295  0.52124036  1
  O2-  O232  1  0.90541779  0.75813918  0.02316909  1
  O2-  O233  1  0.90457203  0.76162770  0.52008222  1
  O2-  O234  1  0.26150415  0.26177128  0.23534238  1
  O2-  O235  1  0.26554950  0.26253497  0.73035955  1
  O2-  O236  1  0.25773780  0.59048196  0.23329364  1
  O2-  O237  1  0.26536322  0.59171484  0.72727604  1
  O2-  O238  1  0.26234472  0.92577719  0.22879750  1
  O2-  O239  1  0.26063680  0.92510414  0.72742334  1
  O2-  O240  1  0.59459082  0.25852543  0.23013467  1
  O2-  O241  1  0.59500256  0.26365536  0.72943979  1
  O2-  O242  1  0.59524984  0.59266659  0.23108135  1
  O2-  O243  1  0.59973914  0.60107328  0.72917554  1
  O2-  O244  1  0.59795182  0.93208167  0.23020562  1
  O2-  O245  1  0.59903475  0.92916337  0.73311186  1
  O2-  O246  1  0.92410169  0.25926004  0.22660579  1
  O2-  O247  1  0.93110051  0.26195950  0.73165911  1
  O2-  O248  1  0.92808600  0.59532734  0.22823371  1
  O2-  O249  1  0.92489466  0.59512859  0.72937558  1
  O2-  O250  1  0.92556245  0.92723442  0.22402537  1
  O2-  O251  1  0.93061155  0.92826019  0.72994110  1
  O2-  O252  1  0.08985673  0.24153034  0.26481880  1
  O2-  O253  1  0.09339662  0.23899090  0.77175285  1
  O2-  O254  1  0.09358277  0.57485534  0.27323011  1
  O2-  O255  1  0.09013070  0.57548863  0.76724528  1
  O2-  O256  1  0.09649343  0.90506067  0.26553355  1
  O2-  O257  1  0.09449422  0.90537994  0.77357982  1
  O2-  O258  1  0.42559436  0.24156134  0.26787519  1
  O2-  O259  1  0.42984538  0.23564154  0.77060169  1
  O2-  O260  1  0.42452779  0.57542693  0.26832874  1
  O2-  O261  1  0.43110939  0.57264629  0.77090022  1
  O2-  O262  1  0.42776996  0.90832138  0.27146963  1
  O2-  O263  1  0.42883803  0.90411596  0.76849168  1
  O2-  O264  1  0.76352155  0.23380420  0.26652519  1
  O2-  O265  1  0.75849781  0.24024688  0.77452182  1
  O2-  O266  1  0.76566388  0.56699980  0.26548452  1
  O2-  O267  1  0.76040631  0.56959682  0.77126595  1
  O2-  O268  1  0.76299920  0.90452322  0.27038860  1
  O2-  O269  1  0.76174148  0.90263368  0.77159087  1
  O2-  O270  1  0.06610690  0.06861345  0.48255949  1
  O2-  O271  1  0.07331573  0.07226118  0.97838008  1
  O2-  O272  1  0.07593256  0.40978015  0.48310751  1
  O2-  O273  1  0.07022230  0.40429499  0.98267256  1
  O2-  O274  1  0.07008169  0.74132336  0.47962560  1
  O2-  O275  1  0.07106640  0.74048847  0.97727557  1
  O2-  O276  1  0.40315137  0.07035302  0.48605457  1
  O2-  O277  1  0.40324902  0.06814629  0.98090468  1
  O2-  O278  1  0.40391768  0.40384090  0.48030295  1
  O2-  O279  1  0.40423357  0.40057474  0.98530837  1
  O2-  O280  1  0.40417311  0.74027361  0.47869786  1
  O2-  O281  1  0.40634941  0.73747632  0.97773145  1
  O2-  O282  1  0.73823515  0.06797558  0.48553340  1
  O2-  O283  1  0.73795485  0.07459332  0.97501548  1
  O2-  O284  1  0.73604663  0.40174310  0.48187974  1
  O2-  O285  1  0.73793571  0.40512275  0.97766966  1
  O2-  O286  1  0.73679094  0.74025714  0.47631401  1
  O2-  O287  1  0.73410970  0.73694432  0.98207735  1
  O2-  O288  1  0.09125345  0.24017767  0.48647500  1
  O2-  O289  1  0.09471243  0.24140129  0.97791837  1
  O2-  O290  1  0.09472985  0.57494732  0.47847227  1
  O2-  O291  1  0.09033709  0.57620927  0.98213873  1
  O2-  O292  1  0.09689680  0.90385265  0.48483323  1
  O2-  O293  1  0.09639456  0.90676148  0.97657468  1
  O2-  O294  1  0.42549658  0.24207525  0.48414285  1
  O2-  O295  1  0.42973035  0.23533544  0.97775354  1
  O2-  O296  1  0.42549161  0.57876490  0.47919813  1
  O2-  O297  1  0.42949036  0.57008323  0.98154169  1
  O2-  O298  1  0.42591388  0.90765573  0.47779032  1
  O2-  O299  1  0.43215674  0.90561107  0.98185854  1
  O2-  O300  1  0.76348058  0.23538106  0.48086761  1
  O2-  O301  1  0.75974192  0.23829884  0.97746863  1
  O2-  O302  1  0.76549406  0.56715636  0.48534395  1
  O2-  O303  1  0.75984497  0.56995072  0.97838237  1
  O2-  O304  1  0.76263832  0.90517729  0.48077236  1
  O2-  O305  1  0.76335447  0.90228050  0.97685884  1
  O2-  O306  1  0.06817636  0.07030129  0.26542605  1
  O2-  O307  1  0.06983308  0.07238313  0.77265142  1
  O2-  O308  1  0.07513767  0.40948794  0.26905941  1
  O2-  O309  1  0.07174931  0.40410651  0.76686878  1
  O2-  O310  1  0.06978149  0.74016902  0.27121271  1
  O2-  O311  1  0.07031170  0.74212097  0.77328001  1
  O2-  O312  1  0.40671697  0.07004976  0.26483578  1
  O2-  O313  1  0.40024939  0.06932532  0.76843105  1
  O2-  O314  1  0.40374893  0.40406546  0.26911064  1
  O2-  O315  1  0.40367318  0.40087646  0.76489765  1
  O2-  O316  1  0.40515255  0.74234179  0.27487537  1
  O2-  O317  1  0.40445541  0.73574883  0.76854268  1
  O2-  O318  1  0.73955050  0.07028934  0.26540000  1
  O2-  O319  1  0.73735478  0.07190973  0.77253366  1
  O2-  O320  1  0.73588366  0.40137057  0.26988274  1
  O2-  O321  1  0.73643525  0.40655359  0.77133799  1
  O2-  O322  1  0.73493262  0.73786230  0.27166367  1
  O2-  O323  1  0.73678905  0.73892747  0.77068609  1
  O2-  O324  1  0.24281194  0.08825492  0.23222489  1
  O2-  O325  1  0.23643778  0.09770357  0.72748581  1
  O2-  O326  1  0.23978769  0.42710191  0.23210679  1
  O2-  O327  1  0.24272324  0.42809091  0.72432720  1
  O2-  O328  1  0.23668618  0.76310865  0.23291924  1
  O2-  O329  1  0.24106001  0.76186384  0.72909222  1
  O2-  O330  1  0.57318947  0.09521637  0.23024019  1
  O2-  O331  1  0.57253894  0.09419670  0.72873280  1
  O2-  O332  1  0.57274956  0.42752697  0.22794441  1
  O2-  O333  1  0.57275258  0.42982856  0.72511501  1
  O2-  O334  1  0.57081523  0.76699254  0.22897354  1
  O2-  O335  1  0.56829909  0.76548647  0.73058863  1
  O2-  O336  1  0.90464996  0.09145376  0.22507191  1
  O2-  O337  1  0.90457848  0.09669506  0.72926922  1
  O2-  O338  1  0.90349443  0.42528871  0.22897185  1
  O2-  O339  1  0.90449361  0.42748197  0.72862685  1
  O2-  O340  1  0.90333177  0.76103274  0.22903318  1
  O2-  O341  1  0.90720187  0.76039449  0.72832461  1
  O2-  O342  1  0.26531246  0.26173828  0.01695179  1
  O2-  O343  1  0.26150779  0.26154714  0.51776629  1
  O2-  O344  1  0.25908996  0.59000170  0.01685553  1
  O2-  O345  1  0.26148433  0.59300579  0.52205156  1
  O2-  O346  1  0.26094883  0.92495023  0.01995216  1
  O2-  O347  1  0.26159065  0.92701179  0.52384815  1
  O2-  O348  1  0.59503651  0.26282912  0.01902061  1
  O2-  O349  1  0.59501708  0.25939944  0.52019192  1
  O2-  O350  1  0.59571977  0.59687387  0.01935941  1
  O2-  O351  1  0.59819421  0.59796768  0.51894401  1
  O2-  O352  1  0.60006608  0.93261723  0.01745165  1
  O2-  O353  1  0.59742239  0.92961034  0.51975701  1
  O2-  O354  1  0.92616865  0.26161044  0.02008709  1
  O2-  O355  1  0.92714027  0.26058988  0.52245913  1
  O2-  O356  1  0.92556422  0.59352314  0.02106778  1
  O2-  O357  1  0.92832873  0.59588277  0.52196113  1
  O2-  O358  1  0.93026093  0.92750600  0.02132337  1
  O2-  O359  1  0.92657829  0.92740411  0.52342042  1
