# generated using pymatgen
data_Sr7Ca15Pr50Mn72O216
_symmetry_space_group_name_H-M   'P 1'
_cell_length_a   16.55432655
_cell_length_b   16.60171094
_cell_length_c   15.59331416
_cell_angle_alpha   90.01292268
_cell_angle_beta   89.99644285
_cell_angle_gamma   89.99907701
_symmetry_Int_Tables_number   1
_chemical_formula_structural   Sr7Ca15Pr50Mn72O216
_chemical_formula_sum   'Sr7 Ca15 Pr50 Mn72 O216'
_cell_volume   4285.51266254
_cell_formula_units_Z   1
loop_
 _symmetry_equiv_pos_site_id
 _symmetry_equiv_pos_as_xyz
  1  'x, y, z'
loop_
 _atom_type_symbol
 _atom_type_oxidation_number
  Sr2+  2.0
  Ca2+  2.0
  Pr3+  3.0
  Mn3.30+  3.3
  O2-  -2.0
loop_
 _atom_site_type_symbol
 _atom_site_label
 _atom_site_symmetry_multiplicity
 _atom_site_fract_x
 _atom_site_fract_y
 _atom_site_fract_z
 _atom_site_occupancy
  Sr2+  Sr0  1  -0.00343619  0.67684781  0.12687920  1
  Sr2+  Sr1  1  0.83263900  0.15732901  0.37785747  1
  Sr2+  Sr2  1  -0.00333230  0.34594661  0.62491668  1
  Sr2+  Sr3  1  0.32961352  0.67813587  0.62309196  1
  Sr2+  Sr4  1  0.50237512  0.17800074  0.12394817  1
  Sr2+  Sr5  1  -0.00352036  0.00654901  0.12312541  1
  Sr2+  Sr6  1  0.83626777  0.84318194  0.12502921  1
  Ca2+  Ca7  1  0.49474509  0.81515491  0.37687680  1
  Ca2+  Ca8  1  0.83250175  0.48822630  0.37620456  1
  Ca2+  Ca9  1  0.83834639  0.51517892  0.12486997  1
  Ca2+  Ca10  1  0.83841604  0.51228848  0.62465042  1
  Ca2+  Ca11  1  0.49566810  0.48377219  0.87400492  1
  Ca2+  Ca12  1  0.83032630  0.48708589  0.87394483  1
  Ca2+  Ca13  1  1.00085261  0.65019891  0.37372630  1
  Ca2+  Ca14  1  0.17041146  0.84630631  0.62529504  1
  Ca2+  Ca15  1  0.67131519  0.98470424  0.87235908  1
  Ca2+  Ca16  1  0.33643990  0.65275769  0.37758957  1
  Ca2+  Ca17  1  0.66495320  0.01336973  0.62635768  1
  Ca2+  Ca18  1  1.00194884  0.98355691  0.87511866  1
  Ca2+  Ca19  1  0.83529474  0.84724371  0.62478928  1
  Ca2+  Ca20  1  0.33838577  0.31985327  0.87331235  1
  Ca2+  Ca21  1  0.32803133  0.34941464  0.62785134  1
  Pr3+  Pr22  1  0.50428503  0.84659087  0.62315156  1
  Pr3+  Pr23  1  0.50022951  0.82243307  0.87342573  1
  Pr3+  Pr24  1  1.00024957  0.98771408  0.37518708  1
  Pr3+  Pr25  1  0.67098875  0.32125670  0.37578184  1
  Pr3+  Pr26  1  0.33143746  0.34650313  0.12254419  1
  Pr3+  Pr27  1  0.50503959  0.84517029  0.12703663  1
  Pr3+  Pr28  1  0.33639051  0.98652284  0.87431266  1
  Pr3+  Pr29  1  0.83024950  0.15011867  0.87214468  1
  Pr3+  Pr30  1  0.33580494  0.32208203  0.37676675  1
  Pr3+  Pr31  1  0.66603409  0.34742691  0.62580620  1
  Pr3+  Pr32  1  0.66420874  0.34652865  0.12449068  1
  Pr3+  Pr33  1  0.16389785  0.49112238  0.37565855  1
  Pr3+  Pr34  1  0.83733709  0.17475051  0.12552930  1
  Pr3+  Pr35  1  0.16268978  0.15250412  0.87366345  1
  Pr3+  Pr36  1  0.83349928  0.82058342  0.37513818  1
  Pr3+  Pr37  1  0.16207100  0.15476929  0.37628676  1
  Pr3+  Pr38  1  1.00052336  0.32265395  0.87311861  1
  Pr3+  Pr39  1  0.99958997  0.32370554  0.37700388  1
  Pr3+  Pr40  1  0.83252749  0.82315498  0.87528255  1
  Pr3+  Pr41  1  0.33928242  0.98446311  0.37572214  1
  Pr3+  Pr42  1  0.67078963  0.98822662  0.37645394  1
  Pr3+  Pr43  1  -0.00204207  0.00989149  0.62621706  1
  Pr3+  Pr44  1  0.50106184  0.51341298  0.62665653  1
  Pr3+  Pr45  1  0.49730194  0.48905791  0.37596121  1
  Pr3+  Pr46  1  0.17113864  0.18327431  0.62601248  1
  Pr3+  Pr47  1  0.49760027  0.15331883  0.87536729  1
  Pr3+  Pr48  1  0.32960400  0.01073104  0.62561101  1
  Pr3+  Pr49  1  0.66719690  0.67937649  0.12644676  1
  Pr3+  Pr50  1  -0.00402494  0.67883734  0.62323963  1
  Pr3+  Pr51  1  0.49852581  0.15471898  0.37481276  1
  Pr3+  Pr52  1  0.67173264  0.65213434  0.87479193  1
  Pr3+  Pr53  1  0.16887364  0.51194617  0.62530992  1
  Pr3+  Pr54  1  0.16194761  0.82170764  0.87235371  1
  Pr3+  Pr55  1  0.66973941  0.65229123  0.37559200  1
  Pr3+  Pr56  1  0.16405241  0.48843073  0.87446603  1
  Pr3+  Pr57  1  0.16724076  0.51476998  0.12471518  1
  Pr3+  Pr58  1  0.16174002  0.81698223  0.37756626  1
  Pr3+  Pr59  1  -0.00587267  0.34636819  0.12451235  1
  Pr3+  Pr60  1  0.16662020  0.84633205  0.12543410  1
  Pr3+  Pr61  1  0.66632279  0.67785088  0.62419574  1
  Pr3+  Pr62  1  0.33015978  0.01406500  0.12431865  1
  Pr3+  Pr63  1  0.66685778  0.01197406  0.12289752  1
  Pr3+  Pr64  1  0.32971728  0.68003858  0.12719802  1
  Pr3+  Pr65  1  0.50435326  0.51319843  0.12384228  1
  Pr3+  Pr66  1  0.66832560  0.32197935  0.87432894  1
  Pr3+  Pr67  1  0.16836679  0.17927016  0.12421260  1
  Pr3+  Pr68  1  0.99925374  0.65449472  0.87624461  1
  Pr3+  Pr69  1  0.33834118  0.65326155  0.87272718  1
  Pr3+  Pr70  1  0.83464740  0.17897671  0.62420680  1
  Pr3+  Pr71  1  0.50199018  0.18073324  0.62651309  1
  Mn3.30+  Mn72  1  0.16475225  -0.00007430  -0.00066251  1
  Mn3.30+  Mn73  1  0.16745714  -0.00145945  0.50023645  1
  Mn3.30+  Mn74  1  0.16664382  0.33410549  -0.00180873  1
  Mn3.30+  Mn75  1  0.16817816  0.33541586  0.50167897  1
  Mn3.30+  Mn76  1  0.16716647  0.66781852  -0.00016961  1
  Mn3.30+  Mn77  1  0.16562954  0.66673117  0.49917188  1
  Mn3.30+  Mn78  1  0.50205400  -0.00065222  -0.00118431  1
  Mn3.30+  Mn79  1  0.50185482  -0.00088555  0.50067748  1
  Mn3.30+  Mn80  1  0.49895731  0.33443095  -0.00186167  1
  Mn3.30+  Mn81  1  0.49886480  0.33461047  0.50274783  1
  Mn3.30+  Mn82  1  0.50093592  0.66575747  -0.00121390  1
  Mn3.30+  Mn83  1  0.49840240  0.66779914  0.50002824  1
  Mn3.30+  Mn84  1  0.83388872  -0.00166423  -0.00351327  1
  Mn3.30+  Mn85  1  0.83173872  -0.00137953  0.50343239  1
  Mn3.30+  Mn86  1  0.83253457  0.33428486  -0.00077123  1
  Mn3.30+  Mn87  1  0.83331029  0.33658766  0.50077254  1
  Mn3.30+  Mn88  1  0.83400925  0.66457198  0.00028154  1
  Mn3.30+  Mn89  1  0.83444767  0.66489744  0.49945879  1
  Mn3.30+  Mn90  1  0.00001886  0.16605243  0.25015630  1
  Mn3.30+  Mn91  1  -0.00042758  0.16571975  0.75002150  1
  Mn3.30+  Mn92  1  -0.00354142  0.50033066  0.25128872  1
  Mn3.30+  Mn93  1  -0.00306128  0.50026374  0.74999959  1
  Mn3.30+  Mn94  1  -0.00113750  0.83099059  0.25121711  1
  Mn3.30+  Mn95  1  -0.00083741  0.83327850  0.74681535  1
  Mn3.30+  Mn96  1  0.33318531  0.16780135  0.24989439  1
  Mn3.30+  Mn97  1  0.33354645  0.16882825  0.75075338  1
  Mn3.30+  Mn98  1  0.33362557  0.50118228  0.25021646  1
  Mn3.30+  Mn99  1  0.33448104  0.49818181  0.75132215  1
  Mn3.30+  Mn100  1  0.33501131  0.83172056  0.25252363  1
  Mn3.30+  Mn101  1  0.33178607  0.83274362  0.74792761  1
  Mn3.30+  Mn102  1  0.66745476  0.16671162  0.24962979  1
  Mn3.30+  Mn103  1  0.66605365  0.16477042  0.74981312  1
  Mn3.30+  Mn104  1  0.67013690  0.50031880  0.24952781  1
  Mn3.30+  Mn105  1  0.66834787  0.50038796  0.75098756  1
  Mn3.30+  Mn106  1  0.66529915  0.83285798  0.25321428  1
  Mn3.30+  Mn107  1  0.66883840  0.83504735  0.74706959  1
  Mn3.30+  Mn108  1  0.16753105  -0.00024565  0.25084748  1
  Mn3.30+  Mn109  1  0.16477358  -0.00142385  0.74983391  1
  Mn3.30+  Mn110  1  0.16569223  0.33474984  0.24920080  1
  Mn3.30+  Mn111  1  0.16948829  0.33461377  0.75143722  1
  Mn3.30+  Mn112  1  0.16590301  0.66671977  0.25190014  1
  Mn3.30+  Mn113  1  0.16670682  0.66741300  0.74902019  1
  Mn3.30+  Mn114  1  0.50105341  -0.00106016  0.25083380  1
  Mn3.30+  Mn115  1  0.50276441  -0.00031496  0.74944231  1
  Mn3.30+  Mn116  1  0.50066405  0.33374656  0.24943243  1
  Mn3.30+  Mn117  1  0.49703927  0.33532674  0.75000270  1
  Mn3.30+  Mn118  1  0.49835720  0.66679211  0.25216168  1
  Mn3.30+  Mn119  1  0.50109630  0.66675386  0.74956084  1
  Mn3.30+  Mn120  1  0.83403988  -0.00034246  0.25133224  1
  Mn3.30+  Mn121  1  0.83156932  -0.00275037  0.74787344  1
  Mn3.30+  Mn122  1  0.83221938  0.33475862  0.24931435  1
  Mn3.30+  Mn123  1  0.83380478  0.33602833  0.75030885  1
  Mn3.30+  Mn124  1  0.83524282  0.66378354  0.25273341  1
  Mn3.30+  Mn125  1  0.83325836  0.66584029  0.74798043  1
  Mn3.30+  Mn126  1  -0.00063335  0.16462117  -0.00189933  1
  Mn3.30+  Mn127  1  0.00004045  0.16692837  0.50130568  1
  Mn3.30+  Mn128  1  -0.00372843  0.50008548  -0.00061132  1
  Mn3.30+  Mn129  1  -0.00244332  0.50079338  0.49963623  1
  Mn3.30+  Mn130  1  -0.00161877  0.83312116  -0.00104289  1
  Mn3.30+  Mn131  1  -0.00005093  0.83153823  0.50221564  1
  Mn3.30+  Mn132  1  0.33338867  0.16881730  -0.00148982  1
  Mn3.30+  Mn133  1  0.33320787  0.16745825  0.50093325  1
  Mn3.30+  Mn134  1  0.33526726  0.49946695  -0.00167521  1
  Mn3.30+  Mn135  1  0.33277757  0.50075041  0.50080491  1
  Mn3.30+  Mn136  1  0.33402782  0.83318117  -0.00007136  1
  Mn3.30+  Mn137  1  0.33262385  0.83116394  0.49972438  1
  Mn3.30+  Mn138  1  0.66731110  0.16571927  -0.00232876  1
  Mn3.30+  Mn139  1  0.66611931  0.16574539  0.50228079  1
  Mn3.30+  Mn140  1  0.66856409  0.49995514  -0.00115381  1
  Mn3.30+  Mn141  1  0.66979646  0.50063304  0.50139647  1
  Mn3.30+  Mn142  1  0.66722489  0.83378985  -0.00059913  1
  Mn3.30+  Mn143  1  0.66688397  0.83389769  0.50031868  1
  O2-  O144  1  0.02409072  0.16480119  0.12295876  1
  O2-  O145  1  0.02615886  0.16031362  0.62679681  1
  O2-  O146  1  0.02451767  0.49369165  0.12423331  1
  O2-  O147  1  0.02486045  0.50087102  0.62545624  1
  O2-  O148  1  0.02286919  0.83207183  0.12808617  1
  O2-  O149  1  0.02948294  0.82631963  0.62355577  1
  O2-  O150  1  0.35270236  0.16231173  0.12416418  1
  O2-  O151  1  0.35859598  0.15716059  0.62604430  1
  O2-  O152  1  0.35964010  0.49481094  0.12366480  1
  O2-  O153  1  0.35720714  0.49359100  0.62809817  1
  O2-  O154  1  0.36113940  0.82739353  0.12783225  1
  O2-  O155  1  0.35907589  0.83482246  0.62439273  1
  O2-  O156  1  0.69314361  0.16070222  0.11987176  1
  O2-  O157  1  0.69008275  0.16148331  0.62645618  1
  O2-  O158  1  0.69486910  0.49472711  0.12444277  1
  O2-  O159  1  0.69505356  0.49558997  0.62572833  1
  O2-  O160  1  0.68530179  0.82768916  0.12793617  1
  O2-  O161  1  0.69456116  0.82332330  0.62322457  1
  O2-  O162  1  0.13879257  0.32795704  0.12183902  1
  O2-  O163  1  0.14651730  0.33155742  0.62629371  1
  O2-  O164  1  0.14762907  0.66383509  0.12518747  1
  O2-  O165  1  0.14051532  0.65854896  0.62414049  1
  O2-  O166  1  0.14774507  0.99543321  0.12532183  1
  O2-  O167  1  0.14349868  0.99377348  0.62419022  1
  O2-  O168  1  0.47531393  0.33358253  0.12184637  1
  O2-  O169  1  0.46970528  0.32807333  0.62542537  1
  O2-  O170  1  0.47453377  0.66125110  0.12498244  1
  O2-  O171  1  0.48012467  0.66183587  0.62543338  1
  O2-  O172  1  0.47380767  0.99276773  0.12515674  1
  O2-  O173  1  0.47295104  0.99492361  0.62442987  1
  O2-  O174  1  0.80762593  0.32122416  0.12319737  1
  O2-  O175  1  0.80957468  0.32692581  0.62726881  1
  O2-  O176  1  0.80947870  0.65965415  0.12839203  1
  O2-  O177  1  0.80827294  0.65523907  0.62360906  1
  O2-  O178  1  0.81143695  1.00183788  0.12245020  1
  O2-  O179  1  0.80524257  0.99218530  0.62544623  1
  O2-  O180  1  0.30653399  0.17352962  0.37531866  1
  O2-  O181  1  0.30716102  0.17191643  0.87465915  1
  O2-  O182  1  0.30942012  0.50405206  0.37287637  1
  O2-  O183  1  0.30750470  0.50778386  0.87554918  1
  O2-  O184  1  0.30581782  0.84056205  0.37502601  1
  O2-  O185  1  0.30735701  0.83904962  0.87330236  1
  O2-  O186  1  0.64178636  0.17290562  0.37914480  1
  O2-  O187  1  0.64065967  0.17446709  0.87406569  1
  O2-  O188  1  0.64026719  0.50255616  0.37572964  1
  O2-  O189  1  0.63794317  0.50454144  0.87493890  1
  O2-  O190  1  0.63696744  0.84043179  0.37648151  1
  O2-  O191  1  0.64309506  0.83817175  0.87229029  1
  O2-  O192  1  0.98318410  0.17380697  0.37592610  1
  O2-  O193  1  0.97509303  0.17541747  0.87374513  1
  O2-  O194  1  0.97511361  0.50066417  0.37478922  1
  O2-  O195  1  0.97314063  0.50507390  0.87525734  1
  O2-  O196  1  0.97739747  0.84091237  0.37823149  1
  O2-  O197  1  0.97717379  0.83621407  0.86981514  1
  O2-  O198  1  0.19469528  0.00748412  0.37590334  1
  O2-  O199  1  0.19278648  0.00342489  0.87500143  1
  O2-  O200  1  0.19219738  0.34083154  0.37627436  1
  O2-  O201  1  0.19528247  0.34079530  0.87631222  1
  O2-  O202  1  0.19443727  0.66907907  0.37513188  1
  O2-  O203  1  0.19366679  0.67348360  0.87540893  1
  O2-  O204  1  0.52648813  0.00863928  0.37687543  1
  O2-  O205  1  0.52709389  0.00330754  0.87335903  1
  O2-  O206  1  0.52606558  0.33995540  0.37860236  1
  O2-  O207  1  0.52529121  0.33914009  0.87430999  1
  O2-  O208  1  0.52472960  0.66795041  0.37670180  1
  O2-  O209  1  0.52666264  0.67583623  0.87330619  1
  O2-  O210  1  0.85619626  0.00172655  0.37997900  1
  O2-  O211  1  0.86019744  0.00251914  0.87092390  1
  O2-  O212  1  0.85517302  0.34069777  0.37422318  1
  O2-  O213  1  0.85694421  0.34092416  0.87487895  1
  O2-  O214  1  0.85988025  0.67460186  0.37730246  1
  O2-  O215  1  0.85625244  0.67628491  0.87115672  1
  O2-  O216  1  0.23761623  0.09451553  0.01792314  1
  O2-  O217  1  0.23714046  0.09569031  0.52162319  1
  O2-  O218  1  0.23658692  0.42907943  0.02218414  1
  O2-  O219  1  0.23772628  0.42934025  0.51821031  1
  O2-  O220  1  0.24033454  0.76324442  0.02165714  1
  O2-  O221  1  0.23194234  0.76544566  0.51747026  1
  O2-  O222  1  0.57550294  0.09218020  0.01817826  1
  O2-  O223  1  0.56798439  0.09750174  0.51898248  1
  O2-  O224  1  0.57361206  0.42815373  0.02166131  1
  O2-  O225  1  0.57156534  0.42825233  0.52384672  1
  O2-  O226  1  0.57092745  0.76036829  0.01923976  1
  O2-  O227  1  0.57364588  0.76077624  0.52088715  1
  O2-  O228  1  0.90186175  0.09778881  0.01294604  1
  O2-  O229  1  0.90579032  0.09020049  0.52462300  1
  O2-  O230  1  0.90373919  0.42484783  0.02383987  1
  O2-  O231  1  0.90357377  0.43021772  0.51831099  1
  O2-  O232  1  0.90632246  0.75981718  0.01189455  1
  O2-  O233  1  0.90263797  0.76177484  0.52295977  1
  O2-  O234  1  0.25964004  0.26360084  0.22930222  1
  O2-  O235  1  0.26378537  0.26036850  0.72729740  1
  O2-  O236  1  0.26073763  0.59332394  0.22789935  1
  O2-  O237  1  0.25933583  0.59249793  0.73369940  1
  O2-  O238  1  0.26504409  0.92836867  0.22994867  1
  O2-  O239  1  0.26390234  0.93089826  0.73356469  1
  O2-  O240  1  0.59541723  0.26366396  0.23310698  1
  O2-  O241  1  0.59229402  0.26314809  0.72874448  1
  O2-  O242  1  0.59736503  0.59410148  0.22980322  1
  O2-  O243  1  0.59803654  0.59344947  0.72919178  1
  O2-  O244  1  0.59465593  0.92906180  0.22878099  1
  O2-  O245  1  0.59613650  0.92621439  0.72447256  1
  O2-  O246  1  0.92773435  0.26195764  0.23171903  1
  O2-  O247  1  0.92407151  0.25954686  0.73309409  1
  O2-  O248  1  0.92719340  0.59150101  0.23423581  1
  O2-  O249  1  0.93060417  0.59865302  0.73331573  1
  O2-  O250  1  0.92705731  0.92802432  0.23984407  1
  O2-  O251  1  0.92838942  0.92694603  0.72718147  1
  O2-  O252  1  0.09521403  0.23953972  0.26892189  1
  O2-  O253  1  0.09859280  0.24161356  0.77039937  1
  O2-  O254  1  0.09561435  0.56915329  0.26655871  1
  O2-  O255  1  0.09273238  0.57231307  0.77248119  1
  O2-  O256  1  0.09596265  0.90506558  0.27084427  1
  O2-  O257  1  0.09446780  0.90472696  0.76811458  1
  O2-  O258  1  0.42512447  0.23990918  0.27248109  1
  O2-  O259  1  0.43100771  0.23614752  0.76969210  1
  O2-  O260  1  0.43184640  0.56963728  0.26726623  1
  O2-  O261  1  0.42775546  0.57002921  0.77082058  1
  O2-  O262  1  0.42947563  0.90133106  0.27338629  1
  O2-  O263  1  0.42874058  0.90600095  0.77003662  1
  O2-  O264  1  0.75957668  0.24025357  0.26801210  1
  O2-  O265  1  0.75982780  0.23851756  0.76939679  1
  O2-  O266  1  0.76040580  0.57193986  0.27591749  1
  O2-  O267  1  0.76062689  0.57231594  0.77496279  1
  O2-  O268  1  0.75750196  0.90506715  0.27288973  1
  O2-  O269  1  0.76307723  0.90355063  0.76994267  1
  O2-  O270  1  0.07447750  0.07115759  0.48045808  1
  O2-  O271  1  0.07143435  0.07365609  0.97531853  1
  O2-  O272  1  0.07283317  0.40784584  0.47879336  1
  O2-  O273  1  0.07131782  0.40551429  0.97801087  1
  O2-  O274  1  0.06917932  0.73570208  0.47717551  1
  O2-  O275  1  0.07445316  0.74148582  0.97730779  1
  O2-  O276  1  0.40491307  0.07187396  0.47888502  1
  O2-  O277  1  0.40721213  0.07137351  0.97939141  1
  O2-  O278  1  0.40684432  0.40699796  0.47770916  1
  O2-  O279  1  0.40170270  0.40323603  0.98039298  1
  O2-  O280  1  0.40176430  0.73919862  0.47953215  1
  O2-  O281  1  0.40422950  0.73890050  0.97924106  1
  O2-  O282  1  0.73634392  0.07210908  0.48380843  1
  O2-  O283  1  0.73928364  0.07008649  0.97526652  1
  O2-  O284  1  0.73513601  0.40419239  0.48335290  1
  O2-  O285  1  0.73494584  0.40249670  0.98167219  1
  O2-  O286  1  0.73827391  0.73780608  0.47770064  1
  O2-  O287  1  0.73825214  0.73778255  0.98207384  1
  O2-  O288  1  0.09797694  0.24204582  0.48285059  1
  O2-  O289  1  0.09433099  0.23917308  0.97718952  1
  O2-  O290  1  0.09410195  0.57088498  0.47989174  1
  O2-  O291  1  0.09497322  0.57263341  0.98050930  1
  O2-  O292  1  0.09545530  0.90746310  0.47761574  1
  O2-  O293  1  0.09708827  0.90401176  0.98326599  1
  O2-  O294  1  0.42887595  0.23888525  0.47851378  1
  O2-  O295  1  0.42778255  0.23944433  0.97850809  1
  O2-  O296  1  0.42913476  0.57028916  0.48419960  1
  O2-  O297  1  0.43206681  0.57199203  0.97745405  1
  O2-  O298  1  0.43108008  0.90465855  0.47834360  1
  O2-  O299  1  0.42805509  0.90431307  0.97844916  1
  O2-  O300  1  0.75656578  0.24256681  0.48568801  1
  O2-  O301  1  0.76250157  0.23771865  0.97612082  1
  O2-  O302  1  0.76091987  0.57304501  0.47478296  1
  O2-  O303  1  0.76025099  0.57153852  0.97570769  1
  O2-  O304  1  0.75955013  0.90505071  0.47681982  1
  O2-  O305  1  0.76021057  0.90576023  0.98026773  1
  O2-  O306  1  0.07483814  0.07380916  0.27296986  1
  O2-  O307  1  0.07187327  0.07024637  0.77144552  1
  O2-  O308  1  0.07041953  0.40510968  0.26995182  1
  O2-  O309  1  0.07257558  0.40802723  0.77287078  1
  O2-  O310  1  0.07354099  0.73883871  0.27420173  1
  O2-  O311  1  0.07052555  0.73787436  0.77036245  1
  O2-  O312  1  0.40695404  0.07093577  0.26986837  1
  O2-  O313  1  0.40390332  0.07274744  0.77180192  1
  O2-  O314  1  0.40518509  0.40524412  0.27000729  1
  O2-  O315  1  0.40378192  0.40365735  0.77206279  1
  O2-  O316  1  0.39965900  0.73457362  0.27005992  1
  O2-  O317  1  0.40574927  0.74197091  0.77130054  1
  O2-  O318  1  0.73829299  0.06968840  0.26614785  1
  O2-  O319  1  0.73948589  0.07023213  0.77198811  1
  O2-  O320  1  0.73495224  0.40270474  0.26684681  1
  O2-  O321  1  0.73496166  0.40358890  0.76818430  1
  O2-  O322  1  0.73777421  0.73779602  0.27180085  1
  O2-  O323  1  0.73808447  0.73775383  0.76898495  1
  O2-  O324  1  0.23929720  0.09619896  0.23036029  1
  O2-  O325  1  0.23708982  0.09567910  0.73107489  1
  O2-  O326  1  0.23777095  0.42809171  0.22739292  1
  O2-  O327  1  0.23658426  0.43058857  0.73326220  1
  O2-  O328  1  0.23853663  0.76431193  0.22978921  1
  O2-  O329  1  0.23617361  0.76560504  0.73134745  1
  O2-  O330  1  0.57623478  0.09395753  0.23221805  1
  O2-  O331  1  0.56857054  0.09687098  0.73139868  1
  O2-  O332  1  0.57311369  0.43033756  0.22951491  1
  O2-  O333  1  0.57203746  0.42713278  0.72643246  1
  O2-  O334  1  0.57120935  0.75928065  0.23124918  1
  O2-  O335  1  0.57458867  0.76351198  0.72883804  1
  O2-  O336  1  0.90759077  0.09652904  0.23412740  1
  O2-  O337  1  0.90114518  0.09129366  0.72726379  1
  O2-  O338  1  0.90412467  0.42549575  0.22551375  1
  O2-  O339  1  0.90352614  0.43097310  0.73170472  1
  O2-  O340  1  0.90407270  0.76092781  0.23805935  1
  O2-  O341  1  0.90474198  0.76188159  0.72572467  1
  O2-  O342  1  0.25732627  0.26155107  0.02298468  1
  O2-  O343  1  0.26353057  0.26315985  0.52111480  1
  O2-  O344  1  0.26377053  0.59486877  0.01910624  1
  O2-  O345  1  0.25644004  0.59116573  0.51860725  1
  O2-  O346  1  0.26417972  0.92760053  0.02027529  1
  O2-  O347  1  0.26500194  0.93123758  0.51624549  1
  O2-  O348  1  0.59624191  0.26365843  0.01609296  1
  O2-  O349  1  0.59189218  0.26204735  0.52379527  1
  O2-  O350  1  0.59794747  0.59463297  0.02242934  1
  O2-  O351  1  0.59708102  0.59267566  0.51990336  1
  O2-  O352  1  0.59260891  0.92538530  0.02201018  1
  O2-  O353  1  0.59646234  0.92993975  0.52403960  1
  O2-  O354  1  0.92835858  0.26108925  0.01821455  1
  O2-  O355  1  0.92335520  0.25948930  0.51598888  1
  O2-  O356  1  0.92755845  0.59389884  0.01481022  1
  O2-  O357  1  0.92930387  0.59563633  0.51867549  1
  O2-  O358  1  0.92664229  0.92642427  0.01064096  1
  O2-  O359  1  0.93086925  0.92758304  0.51985688  1
