# generated using pymatgen
data_Sr7Ca15Pr50Mn72O216
_symmetry_space_group_name_H-M   'P 1'
_cell_length_a   16.56116695
_cell_length_b   16.60564610
_cell_length_c   15.59534514
_cell_angle_alpha   90.00376475
_cell_angle_beta   90.00339446
_cell_angle_gamma   90.00697858
_symmetry_Int_Tables_number   1
_chemical_formula_structural   Sr7Ca15Pr50Mn72O216
_chemical_formula_sum   'Sr7 Ca15 Pr50 Mn72 O216'
_cell_volume   4288.85831105
_cell_formula_units_Z   1
loop_
 _symmetry_equiv_pos_site_id
 _symmetry_equiv_pos_as_xyz
  1  'x, y, z'
loop_
 _atom_type_symbol
 _atom_type_oxidation_number
  Sr2+  2.0
  Ca2+  2.0
  Pr3+  3.0
  Mn3.30+  3.3
  O2-  -2.0
loop_
 _atom_site_type_symbol
 _atom_site_label
 _atom_site_symmetry_multiplicity
 _atom_site_fract_x
 _atom_site_fract_y
 _atom_site_fract_z
 _atom_site_occupancy
  Sr2+  Sr0  1  1.00507593  0.99055204  0.37557153  1
  Sr2+  Sr1  1  0.16878127  0.15665407  0.37409140  1
  Sr2+  Sr2  1  0.66952760  0.31923896  0.37433150  1
  Sr2+  Sr3  1  0.33229679  0.99315108  0.37642458  1
  Sr2+  Sr4  1  0.16793370  0.17394290  0.12885973  1
  Sr2+  Sr5  1  0.33023015  0.66174941  0.37665620  1
  Sr2+  Sr6  1  0.66458861  0.01185925  0.62488035  1
  Ca2+  Ca7  1  0.16628780  0.82768746  0.37768323  1
  Ca2+  Ca8  1  0.50232512  0.17922797  0.12677756  1
  Ca2+  Ca9  1  0.50082176  0.17566345  0.62337653  1
  Ca2+  Ca10  1  0.33690769  0.31569446  0.37497102  1
  Ca2+  Ca11  1  0.33656514  0.65194786  0.87414535  1
  Ca2+  Ca12  1  -0.00247595  0.34598232  0.62310577  1
  Ca2+  Ca13  1  0.82677771  0.14898165  0.37612669  1
  Ca2+  Ca14  1  0.66862816  0.99147541  0.37878052  1
  Ca2+  Ca15  1  0.33125281  0.01391952  0.62505023  1
  Ca2+  Ca16  1  0.83559454  0.85177660  0.62473596  1
  Ca2+  Ca17  1  0.66611051  0.98724460  0.87131728  1
  Ca2+  Ca18  1  0.17253294  0.85247470  0.62220907  1
  Ca2+  Ca19  1  0.33668615  0.98796006  0.87266751  1
  Ca2+  Ca20  1  0.17309375  0.51425666  0.12563171  1
  Ca2+  Ca21  1  0.49545837  0.14802301  0.87174937  1
  Pr3+  Pr22  1  0.00121048  0.67936677  0.12350129  1
  Pr3+  Pr23  1  0.83241026  0.82755510  0.37915630  1
  Pr3+  Pr24  1  0.66166590  0.34392696  0.12667858  1
  Pr3+  Pr25  1  0.66862358  0.65410780  0.87430919  1
  Pr3+  Pr26  1  0.83606714  0.17890463  0.12731606  1
  Pr3+  Pr27  1  0.83602136  0.84801007  0.12500109  1
  Pr3+  Pr28  1  0.16811166  0.51162107  0.62482684  1
  Pr3+  Pr29  1  -0.00193362  0.01413277  0.12629474  1
  Pr3+  Pr30  1  0.16678955  0.15236624  0.87541572  1
  Pr3+  Pr31  1  0.32789898  0.68277242  0.62597766  1
  Pr3+  Pr32  1  0.82995164  0.48587065  0.87505810  1
  Pr3+  Pr33  1  0.66215316  0.68179759  0.12520458  1
  Pr3+  Pr34  1  0.33306917  0.01416768  0.12472106  1
  Pr3+  Pr35  1  0.83585436  0.17937573  0.62249613  1
  Pr3+  Pr36  1  0.50174072  0.84719784  0.12553272  1
  Pr3+  Pr37  1  0.16704004  0.82140446  0.87317567  1
  Pr3+  Pr38  1  0.66221988  0.34087084  0.62264637  1
  Pr3+  Pr39  1  0.32897931  0.67866917  0.12409213  1
  Pr3+  Pr40  1  0.00236378  0.34446728  0.12692752  1
  Pr3+  Pr41  1  1.00224080  0.65318083  0.87451752  1
  Pr3+  Pr42  1  -0.00355162  0.01069847  0.62326396  1
  Pr3+  Pr43  1  1.00792018  0.65986484  0.37561149  1
  Pr3+  Pr44  1  0.82873888  0.82271301  0.87204831  1
  Pr3+  Pr45  1  0.33305187  0.34165028  0.62221375  1
  Pr3+  Pr46  1  0.49678084  0.82584371  0.37747492  1
  Pr3+  Pr47  1  0.32751844  0.34498598  0.12759741  1
  Pr3+  Pr48  1  -0.00353400  0.68467841  0.62614075  1
  Pr3+  Pr49  1  0.83215476  0.48763400  0.37476715  1
  Pr3+  Pr50  1  0.50090827  0.51297913  0.12608519  1
  Pr3+  Pr51  1  0.17083687  0.84638715  0.12663917  1
  Pr3+  Pr52  1  0.49478187  0.48645678  0.87484337  1
  Pr3+  Pr53  1  0.50008601  0.84835886  0.62441418  1
  Pr3+  Pr54  1  0.49609664  0.82263979  0.87260552  1
  Pr3+  Pr55  1  0.16700339  0.48671380  0.87604933  1
  Pr3+  Pr56  1  0.49284360  0.48249489  0.37509390  1
  Pr3+  Pr57  1  1.00314891  0.31924523  0.37676943  1
  Pr3+  Pr58  1  0.50248729  0.51242136  0.62393959  1
  Pr3+  Pr59  1  0.83711650  0.51022080  0.62352185  1
  Pr3+  Pr60  1  0.16829679  0.17476481  0.62223151  1
  Pr3+  Pr61  1  1.00291150  0.98757351  0.87481534  1
  Pr3+  Pr62  1  0.66719977  0.31791892  0.87518683  1
  Pr3+  Pr63  1  0.66146264  0.01482156  0.12515815  1
  Pr3+  Pr64  1  0.49655970  0.15419327  0.37678203  1
  Pr3+  Pr65  1  0.16549188  0.48703847  0.37430609  1
  Pr3+  Pr66  1  0.66925976  0.65628266  0.37569359  1
  Pr3+  Pr67  1  1.00343246  0.32003417  0.87354164  1
  Pr3+  Pr68  1  0.66410317  0.68157966  0.62485367  1
  Pr3+  Pr69  1  0.82620726  0.15039702  0.87438959  1
  Pr3+  Pr70  1  0.83550655  0.51226498  0.12670130  1
  Pr3+  Pr71  1  0.33859288  0.31691936  0.87428687  1
  Mn3.30+  Mn72  1  0.16987022  0.00001778  -0.00115088  1
  Mn3.30+  Mn73  1  0.16725218  -0.00097167  0.50039655  1
  Mn3.30+  Mn74  1  0.16881543  0.33218345  0.00045442  1
  Mn3.30+  Mn75  1  0.16632079  0.33224792  0.50026675  1
  Mn3.30+  Mn76  1  0.16901442  0.66534960  -0.00226699  1
  Mn3.30+  Mn77  1  0.16620896  0.67036152  0.50150208  1
  Mn3.30+  Mn78  1  0.49956154  0.00181739  -0.00341760  1
  Mn3.30+  Mn79  1  0.50019429  0.00208398  0.50200403  1
  Mn3.30+  Mn80  1  0.49866982  0.32923227  0.00075936  1
  Mn3.30+  Mn81  1  0.49906897  0.33004364  0.49948545  1
  Mn3.30+  Mn82  1  0.49772556  0.66730644  -0.00129458  1
  Mn3.30+  Mn83  1  0.49861861  0.66751403  0.49977915  1
  Mn3.30+  Mn84  1  0.83041596  -0.00017006  -0.00083669  1
  Mn3.30+  Mn85  1  0.83201959  0.00115878  0.49956041  1
  Mn3.30+  Mn86  1  0.83309419  0.33243190  0.00068215  1
  Mn3.30+  Mn87  1  0.83378679  0.33172205  0.49885574  1
  Mn3.30+  Mn88  1  0.83279609  0.66701201  0.00015977  1
  Mn3.30+  Mn89  1  0.83512712  0.66971449  0.50043888  1
  Mn3.30+  Mn90  1  -0.00095138  0.16650867  0.25232960  1
  Mn3.30+  Mn91  1  -0.00074572  0.16709660  0.74983577  1
  Mn3.30+  Mn92  1  0.00271395  0.50148346  0.24823605  1
  Mn3.30+  Mn93  1  0.00030934  0.49830515  0.74986925  1
  Mn3.30+  Mn94  1  0.00192955  0.83403340  0.25041816  1
  Mn3.30+  Mn95  1  0.00029928  0.83515866  0.74876442  1
  Mn3.30+  Mn96  1  0.33592329  0.16665647  0.25013846  1
  Mn3.30+  Mn97  1  0.33590274  0.16289020  0.74896365  1
  Mn3.30+  Mn98  1  0.33215299  0.49977340  0.25192812  1
  Mn3.30+  Mn99  1  0.33357052  0.49952064  0.74874309  1
  Mn3.30+  Mn100  1  0.33376603  0.83428339  0.25207656  1
  Mn3.30+  Mn101  1  0.33124737  0.83653762  0.74967243  1
  Mn3.30+  Mn102  1  0.66664911  0.16515870  0.25151800  1
  Mn3.30+  Mn103  1  0.66228307  0.16420603  0.74992169  1
  Mn3.30+  Mn104  1  0.66574269  0.50020153  0.25096739  1
  Mn3.30+  Mn105  1  0.66626020  0.49849943  0.74916055  1
  Mn3.30+  Mn106  1  0.66704355  0.83631462  0.25212406  1
  Mn3.30+  Mn107  1  0.66596111  0.83625115  0.74828341  1
  Mn3.30+  Mn108  1  0.16723177  -0.00069060  0.25203800  1
  Mn3.30+  Mn109  1  0.16938174  -0.00092568  0.74938052  1
  Mn3.30+  Mn110  1  0.16848995  0.33293586  0.25149268  1
  Mn3.30+  Mn111  1  0.16679891  0.33165979  0.74801252  1
  Mn3.30+  Mn112  1  0.16769129  0.66717284  0.24991196  1
  Mn3.30+  Mn113  1  0.16735767  0.66802602  0.75042789  1
  Mn3.30+  Mn114  1  0.50170409  0.00168214  0.25142390  1
  Mn3.30+  Mn115  1  0.49839274  0.00221708  0.74972192  1
  Mn3.30+  Mn116  1  0.49772444  0.33033598  0.24967023  1
  Mn3.30+  Mn117  1  0.50013146  0.32900444  0.74969335  1
  Mn3.30+  Mn118  1  0.49845756  0.66785241  0.25158038  1
  Mn3.30+  Mn119  1  0.49769153  0.66720388  0.74971530  1
  Mn3.30+  Mn120  1  0.83112418  0.00101248  0.25268972  1
  Mn3.30+  Mn121  1  0.83129214  -0.00006350  0.74854424  1
  Mn3.30+  Mn122  1  0.83273701  0.33186633  0.25109160  1
  Mn3.30+  Mn123  1  0.83401184  0.33236984  0.74920794  1
  Mn3.30+  Mn124  1  0.83503786  0.66921308  0.25076629  1
  Mn3.30+  Mn125  1  0.83311343  0.66776207  0.74856668  1
  Mn3.30+  Mn126  1  -0.00081571  0.16717287  -0.00035158  1
  Mn3.30+  Mn127  1  -0.00057766  0.16664533  0.49868947  1
  Mn3.30+  Mn128  1  0.00192804  0.49912609  0.00151372  1
  Mn3.30+  Mn129  1  0.00077035  0.50062468  0.50009290  1
  Mn3.30+  Mn130  1  0.00043625  0.83378445  -0.00114810  1
  Mn3.30+  Mn131  1  0.00182089  0.83558894  0.50222839  1
  Mn3.30+  Mn132  1  0.33700448  0.16497007  -0.00054882  1
  Mn3.30+  Mn133  1  0.33497014  0.16492371  0.50148468  1
  Mn3.30+  Mn134  1  0.33266515  0.49962111  -0.00004179  1
  Mn3.30+  Mn135  1  0.33295138  0.49963074  0.49925014  1
  Mn3.30+  Mn136  1  0.33439134  0.83383562  -0.00204405  1
  Mn3.30+  Mn137  1  0.33056759  0.83705117  0.50032790  1
  Mn3.30+  Mn138  1  0.66239664  0.16446546  -0.00138614  1
  Mn3.30+  Mn139  1  0.66661359  0.16519411  0.49964739  1
  Mn3.30+  Mn140  1  0.66504816  0.49959924  0.00065207  1
  Mn3.30+  Mn141  1  0.66715005  0.49919903  0.49900357  1
  Mn3.30+  Mn142  1  0.66569651  0.83579209  -0.00161665  1
  Mn3.30+  Mn143  1  0.66688214  0.83670358  0.50119495  1
  O2-  O144  1  0.01608380  0.16341625  0.12373468  1
  O2-  O145  1  0.02294613  0.15939146  0.62730323  1
  O2-  O146  1  0.03117561  0.49284558  0.12459550  1
  O2-  O147  1  0.02446584  0.49235628  0.62755422  1
  O2-  O148  1  0.02569195  0.82856347  0.12223798  1
  O2-  O149  1  0.02856136  0.83208609  0.62877868  1
  O2-  O150  1  0.36053298  0.16145096  0.12198673  1
  O2-  O151  1  0.35844228  0.16178513  0.62719824  1
  O2-  O152  1  0.35811478  0.49344450  0.12699450  1
  O2-  O153  1  0.35842122  0.49233734  0.62459154  1
  O2-  O154  1  0.35855817  0.82552683  0.12338984  1
  O2-  O155  1  0.35748003  0.82710818  0.62652803  1
  O2-  O156  1  0.69307109  0.16137448  0.12347644  1
  O2-  O157  1  0.69171609  0.16998508  0.62596244  1
  O2-  O158  1  0.69020194  0.49499330  0.12603682  1
  O2-  O159  1  0.69279945  0.49205603  0.62410979  1
  O2-  O160  1  0.69158892  0.82823369  0.12619794  1
  O2-  O161  1  0.69297238  0.82700852  0.62564729  1
  O2-  O162  1  0.14542869  0.32818335  0.12478987  1
  O2-  O163  1  0.13906336  0.32509836  0.62514202  1
  O2-  O164  1  0.14473565  0.66050889  0.12095066  1
  O2-  O165  1  0.13953291  0.65785503  0.62804651  1
  O2-  O166  1  0.14292549  0.99426125  0.12280191  1
  O2-  O167  1  0.14025376  0.99897467  0.62729134  1
  O2-  O168  1  0.47228171  0.32631538  0.12374852  1
  O2-  O169  1  0.47724386  0.32573840  0.62598328  1
  O2-  O170  1  0.47392715  0.66269721  0.12502159  1
  O2-  O171  1  0.47366665  0.66094152  0.62501074  1
  O2-  O172  1  0.47654073  0.99260286  0.12303590  1
  O2-  O173  1  0.47261800  0.99377764  0.62686036  1
  O2-  O174  1  0.80642372  0.32774143  0.12455564  1
  O2-  O175  1  0.80691903  0.32960850  0.62369882  1
  O2-  O176  1  0.80553098  0.66078502  0.12343600  1
  O2-  O177  1  0.80687617  0.65677034  0.62362869  1
  O2-  O178  1  0.80737123  0.99589583  0.12462501  1
  O2-  O179  1  0.81550270  0.99817368  0.62522237  1
  O2-  O180  1  0.31798445  0.17087066  0.37682475  1
  O2-  O181  1  0.30821494  0.17228292  0.87379798  1
  O2-  O182  1  0.30842457  0.50625460  0.37651160  1
  O2-  O183  1  0.31109022  0.50384255  0.87143609  1
  O2-  O184  1  0.30865535  0.83645728  0.37717603  1
  O2-  O185  1  0.30856853  0.84406591  0.87356118  1
  O2-  O186  1  0.64073876  0.16703535  0.37502635  1
  O2-  O187  1  0.63841348  0.17378399  0.87513095  1
  O2-  O188  1  0.63954464  0.50749562  0.37397495  1
  O2-  O189  1  0.63947127  0.50520423  0.87545438  1
  O2-  O190  1  0.64170072  0.84157259  0.37580589  1
  O2-  O191  1  0.64173348  0.83812852  0.87208290  1
  O2-  O192  1  0.97114431  0.17278933  0.37525253  1
  O2-  O193  1  0.97201025  0.17244091  0.87435406  1
  O2-  O194  1  0.97514621  0.51097864  0.37218150  1
  O2-  O195  1  0.97298244  0.50451956  0.87536730  1
  O2-  O196  1  0.97726178  0.82872353  0.37449316  1
  O2-  O197  1  0.97316932  0.83852256  0.87462769  1
  O2-  O198  1  0.18282524  0.00015443  0.37536303  1
  O2-  O199  1  0.19337141  0.00493001  0.87572490  1
  O2-  O200  1  0.19322891  0.33993122  0.37676550  1
  O2-  O201  1  0.19393756  0.33868668  0.87357347  1
  O2-  O202  1  0.17970546  0.67783341  0.37739824  1
  O2-  O203  1  0.19468399  0.67319245  0.87343070  1
  O2-  O204  1  0.52643164  0.00505003  0.37591902  1
  O2-  O205  1  0.52604860  0.00324950  0.87451686  1
  O2-  O206  1  0.52010810  0.33634948  0.37469923  1
  O2-  O207  1  0.52462806  0.34219574  0.87539118  1
  O2-  O208  1  0.52545735  0.67531703  0.37612831  1
  O2-  O209  1  0.52578194  0.67223485  0.87368305  1
  O2-  O210  1  0.85414656  -0.00081655  0.37458904  1
  O2-  O211  1  0.85820302  0.00326919  0.87506604  1
  O2-  O212  1  0.85995114  0.34130570  0.37516028  1
  O2-  O213  1  0.85918386  0.33852416  0.87655137  1
  O2-  O214  1  0.86284684  0.67811774  0.37782440  1
  O2-  O215  1  0.85796682  0.67345417  0.87539973  1
  O2-  O216  1  0.24108153  0.09365862  0.01789928  1
  O2-  O217  1  0.24084283  0.09334487  0.51921190  1
  O2-  O218  1  0.23740371  0.42980852  0.01905384  1
  O2-  O219  1  0.23748813  0.42680719  0.52259753  1
  O2-  O220  1  0.23936779  0.76290980  0.01879361  1
  O2-  O221  1  0.23821820  0.76079137  0.52446198  1
  O2-  O222  1  0.57022397  0.09538065  0.02409947  1
  O2-  O223  1  0.56997041  0.09717389  0.51945521  1
  O2-  O224  1  0.56952024  0.42614416  0.02213489  1
  O2-  O225  1  0.56940068  0.42493715  0.51973801  1
  O2-  O226  1  0.57118288  0.76180670  0.01987261  1
  O2-  O227  1  0.57446962  0.76072256  0.52091555  1
  O2-  O228  1  0.90176847  0.09377401  0.01829994  1
  O2-  O229  1  0.90624443  0.09428492  0.52021829  1
  O2-  O230  1  0.90702757  0.42917809  0.02281051  1
  O2-  O231  1  0.90502304  0.43085137  0.51610958  1
  O2-  O232  1  0.90463721  0.75991496  0.02080131  1
  O2-  O233  1  0.90373686  0.76422854  0.52573490  1
  O2-  O234  1  0.26381963  0.26045125  0.23367465  1
  O2-  O235  1  0.26195484  0.26015861  0.72862881  1
  O2-  O236  1  0.26279903  0.59528139  0.23119658  1
  O2-  O237  1  0.25922997  0.59445134  0.72752899  1
  O2-  O238  1  0.26258281  0.92426742  0.22645369  1
  O2-  O239  1  0.26194295  0.93093055  0.72795414  1
  O2-  O240  1  0.59648434  0.26013162  0.22950498  1
  O2-  O241  1  0.59854014  0.26489583  0.73471675  1
  O2-  O242  1  0.59370505  0.59672812  0.22941732  1
  O2-  O243  1  0.59591566  0.59431940  0.72838565  1
  O2-  O244  1  0.59483960  0.92770419  0.22772947  1
  O2-  O245  1  0.59002968  0.92564565  0.73037748  1
  O2-  O246  1  0.92688359  0.26305589  0.22909415  1
  O2-  O247  1  0.92818753  0.26452015  0.72838372  1
  O2-  O248  1  0.93069608  0.59277836  0.22426543  1
  O2-  O249  1  0.92766667  0.59594238  0.73039217  1
  O2-  O250  1  0.92771646  0.92641416  0.22726311  1
  O2-  O251  1  0.93151584  0.93031398  0.73423340  1
  O2-  O252  1  0.08844045  0.24379552  0.26935756  1
  O2-  O253  1  0.09558619  0.23841027  0.77276188  1
  O2-  O254  1  0.09581620  0.57337255  0.27111399  1
  O2-  O255  1  0.09490223  0.57169124  0.77291046  1
  O2-  O256  1  0.09657273  0.89960358  0.26485492  1
  O2-  O257  1  0.09435253  0.90735093  0.77491129  1
  O2-  O258  1  0.43011171  0.23717992  0.26793969  1
  O2-  O259  1  0.42767008  0.23765976  0.77262992  1
  O2-  O260  1  0.43029751  0.56737503  0.26705412  1
  O2-  O261  1  0.43110406  0.56967633  0.76680794  1
  O2-  O262  1  0.43190722  0.90490144  0.26625966  1
  O2-  O263  1  0.42988496  0.90271906  0.76744661  1
  O2-  O264  1  0.76323489  0.23143212  0.26716828  1
  O2-  O265  1  0.76201540  0.23815432  0.77082178  1
  O2-  O266  1  0.76441261  0.57685892  0.27235813  1
  O2-  O267  1  0.76023377  0.57047232  0.77127968  1
  O2-  O268  1  0.76509974  0.90206149  0.26598085  1
  O2-  O269  1  0.76170435  0.90546263  0.76830654  1
  O2-  O270  1  0.07273474  0.07335223  0.48859066  1
  O2-  O271  1  0.07168657  0.07276137  0.98036563  1
  O2-  O272  1  0.07328594  0.40794247  0.47742447  1
  O2-  O273  1  0.07101047  0.40518277  0.97785601  1
  O2-  O274  1  0.06578780  0.73532697  0.48993551  1
  O2-  O275  1  0.07210437  0.73858617  0.97804345  1
  O2-  O276  1  0.41001211  0.07502210  0.48150236  1
  O2-  O277  1  0.40246452  0.06648454  0.98010298  1
  O2-  O278  1  0.40391395  0.40227314  0.48095790  1
  O2-  O279  1  0.40391252  0.40364500  0.98026565  1
  O2-  O280  1  0.40721486  0.74349002  0.48504369  1
  O2-  O281  1  0.40354457  0.73711471  0.97618466  1
  O2-  O282  1  0.73813836  0.07243715  0.48138517  1
  O2-  O283  1  0.73355470  0.07026455  0.97712764  1
  O2-  O284  1  0.74255725  0.40804716  0.48023593  1
  O2-  O285  1  0.73964042  0.40489995  0.97955624  1
  O2-  O286  1  0.73860448  0.74039365  0.47876530  1
  O2-  O287  1  0.73589830  0.74010645  0.97877865  1
  O2-  O288  1  0.09150738  0.24085856  0.48056646  1
  O2-  O289  1  0.09392768  0.24092775  0.97645552  1
  O2-  O290  1  0.09594481  0.57170546  0.48125251  1
  O2-  O291  1  0.09272848  0.57235103  0.97469044  1
  O2-  O292  1  0.09639580  0.90186448  0.48437043  1
  O2-  O293  1  0.09632568  0.90630043  0.97796289  1
  O2-  O294  1  0.42829822  0.23852979  0.48383510  1
  O2-  O295  1  0.43054632  0.23639642  0.97390291  1
  O2-  O296  1  0.43151895  0.56881913  0.48321268  1
  O2-  O297  1  0.43065789  0.56818372  0.98311237  1
  O2-  O298  1  0.42954723  0.90530998  0.48384567  1
  O2-  O299  1  0.43152948  0.90143650  0.98260612  1
  O2-  O300  1  0.76549347  0.23529146  0.48227435  1
  O2-  O301  1  0.75980819  0.23589407  0.97911804  1
  O2-  O302  1  0.76424155  0.57581137  0.47655101  1
  O2-  O303  1  0.76146432  0.57299259  0.97890543  1
  O2-  O304  1  0.76130360  0.90599713  0.48358662  1
  O2-  O305  1  0.76488389  0.90268226  0.98256547  1
  O2-  O306  1  0.07115356  0.07450710  0.26021118  1
  O2-  O307  1  0.07270458  0.07175723  0.77239967  1
  O2-  O308  1  0.07108162  0.40718004  0.27277016  1
  O2-  O309  1  0.07498141  0.40570240  0.77381882  1
  O2-  O310  1  0.06854278  0.73509863  0.25930123  1
  O2-  O311  1  0.07030210  0.73775395  0.77234047  1
  O2-  O312  1  0.41034022  0.07313301  0.26658316  1
  O2-  O313  1  0.40246740  0.06923633  0.77228988  1
  O2-  O314  1  0.40135515  0.40388305  0.27064914  1
  O2-  O315  1  0.40724195  0.40261209  0.76831479  1
  O2-  O316  1  0.40826309  0.74218726  0.26885847  1
  O2-  O317  1  0.40166459  0.73842144  0.77061368  1
  O2-  O318  1  0.73377763  0.06682376  0.26737705  1
  O2-  O319  1  0.73570806  0.07403443  0.77262413  1
  O2-  O320  1  0.74411423  0.40828224  0.26730409  1
  O2-  O321  1  0.73913730  0.40388868  0.77204969  1
  O2-  O322  1  0.73672394  0.74244146  0.27233301  1
  O2-  O323  1  0.73731886  0.73753478  0.77014035  1
  O2-  O324  1  0.24743773  0.09011556  0.23256417  1
  O2-  O325  1  0.23492641  0.09783684  0.73285998  1
  O2-  O326  1  0.23720628  0.43084262  0.23001960  1
  O2-  O327  1  0.23829415  0.42584172  0.72783357  1
  O2-  O328  1  0.24022486  0.75810757  0.22758135  1
  O2-  O329  1  0.23543970  0.76503734  0.72907645  1
  O2-  O330  1  0.57212897  0.09561238  0.22720958  1
  O2-  O331  1  0.56722544  0.09810694  0.73016349  1
  O2-  O332  1  0.56756693  0.42459458  0.22954161  1
  O2-  O333  1  0.57216853  0.42733028  0.72846287  1
  O2-  O334  1  0.57443236  0.76272200  0.23019380  1
  O2-  O335  1  0.57121443  0.76046477  0.72847988  1
  O2-  O336  1  0.90397980  0.09272961  0.22978110  1
  O2-  O337  1  0.90315548  0.09576772  0.73195960  1
  O2-  O338  1  0.90934205  0.42968787  0.22822195  1
  O2-  O339  1  0.90183750  0.42977731  0.73306626  1
  O2-  O340  1  0.90634542  0.76091620  0.22576833  1
  O2-  O341  1  0.90489397  0.76461020  0.72824297  1
  O2-  O342  1  0.26751823  0.26286984  0.01511398  1
  O2-  O343  1  0.25923382  0.25753187  0.52270356  1
  O2-  O344  1  0.26407495  0.59420022  0.01744216  1
  O2-  O345  1  0.25884366  0.59495122  0.52260067  1
  O2-  O346  1  0.26213794  0.92541294  0.02346365  1
  O2-  O347  1  0.26211833  0.92941600  0.52343558  1
  O2-  O348  1  0.59813687  0.26397029  0.01843746  1
  O2-  O349  1  0.59599492  0.26071537  0.51704718  1
  O2-  O350  1  0.59368619  0.59636998  0.02066512  1
  O2-  O351  1  0.59617615  0.59449867  0.52122510  1
  O2-  O352  1  0.59448991  0.92786832  0.02024526  1
  O2-  O353  1  0.58996871  0.92486988  0.52072993  1
  O2-  O354  1  0.92759820  0.26306094  0.02081841  1
  O2-  O355  1  0.92857779  0.26370254  0.52249041  1
  O2-  O356  1  0.92916497  0.59235367  0.02132934  1
  O2-  O357  1  0.92951969  0.59626869  0.52210654  1
  O2-  O358  1  0.92918042  0.92815105  0.02043194  1
  O2-  O359  1  0.92902184  0.92729915  0.51775369  1
