# generated using pymatgen
data_Sr7Ca15Pr50Mn72O216
_symmetry_space_group_name_H-M   'P 1'
_cell_length_a   16.55839975
_cell_length_b   16.60117243
_cell_length_c   15.58969023
_cell_angle_alpha   89.99446504
_cell_angle_beta   89.99943164
_cell_angle_gamma   89.99740737
_symmetry_Int_Tables_number   1
_chemical_formula_structural   Sr7Ca15Pr50Mn72O216
_chemical_formula_sum   'Sr7 Ca15 Pr50 Mn72 O216'
_cell_volume   4285.43198388
_cell_formula_units_Z   1
loop_
 _symmetry_equiv_pos_site_id
 _symmetry_equiv_pos_as_xyz
  1  'x, y, z'
loop_
 _atom_type_symbol
 _atom_type_oxidation_number
  Sr2+  2.0
  Ca2+  2.0
  Pr3+  3.0
  Mn3.30+  3.3
  O2-  -2.0
loop_
 _atom_site_type_symbol
 _atom_site_label
 _atom_site_symmetry_multiplicity
 _atom_site_fract_x
 _atom_site_fract_y
 _atom_site_fract_z
 _atom_site_occupancy
  Sr2+  Sr0  1  0.16451007  0.15588395  0.87384263  1
  Sr2+  Sr1  1  0.33247895  0.65785423  0.37505140  1
  Sr2+  Sr2  1  0.00012998  0.67532136  0.62478758  1
  Sr2+  Sr3  1  0.83671039  0.84168131  0.62551236  1
  Sr2+  Sr4  1  0.33001986  0.34599898  0.62443850  1
  Sr2+  Sr5  1  0.66629921  0.32279604  0.87513898  1
  Sr2+  Sr6  1  0.16463742  0.82045165  0.37543463  1
  Ca2+  Ca7  1  0.82692320  0.14924102  0.37503378  1
  Ca2+  Ca8  1  0.83808905  0.51428867  0.62372049  1
  Ca2+  Ca9  1  0.83256626  0.48720282  0.37813291  1
  Ca2+  Ca10  1  0.66873105  0.98575229  0.87388902  1
  Ca2+  Ca11  1  0.33577936  0.65147729  0.87472328  1
  Ca2+  Ca12  1  0.66995315  0.98500422  0.37665139  1
  Ca2+  Ca13  1  1.00525596  0.65411108  0.38021949  1
  Ca2+  Ca14  1  0.32717765  0.35174833  0.12496542  1
  Ca2+  Ca15  1  0.33218754  0.01318549  0.62457824  1
  Ca2+  Ca16  1  0.16892430  0.51598326  0.62378126  1
  Ca2+  Ca17  1  1.00459151  0.98739274  0.87319488  1
  Ca2+  Ca18  1  0.33035659  0.01451335  0.12488686  1
  Ca2+  Ca19  1  0.17041743  0.51556123  0.12613267  1
  Ca2+  Ca20  1  0.50493654  0.84768328  0.62381731  1
  Ca2+  Ca21  1  0.67166477  0.31703704  0.37503061  1
  Pr3+  Pr22  1  0.16974740  0.84628767  0.62311101  1
  Pr3+  Pr23  1  1.00229232  0.98707892  0.37528072  1
  Pr3+  Pr24  1  0.66403577  0.68149707  0.62505745  1
  Pr3+  Pr25  1  0.16574786  0.48914166  0.87339016  1
  Pr3+  Pr26  1  -0.00403344  0.34771587  0.62473766  1
  Pr3+  Pr27  1  0.33502866  0.32349944  0.37506734  1
  Pr3+  Pr28  1  0.16880443  0.17845562  0.62505010  1
  Pr3+  Pr29  1  0.83582415  0.18018624  0.12787879  1
  Pr3+  Pr30  1  0.83601262  0.84591446  0.12529487  1
  Pr3+  Pr31  1  0.82888565  0.15188493  0.87534807  1
  Pr3+  Pr32  1  0.50068344  0.84595714  0.12657721  1
  Pr3+  Pr33  1  0.33716909  0.98754815  0.37582081  1
  Pr3+  Pr34  1  0.17238440  0.84968091  0.12659437  1
  Pr3+  Pr35  1  0.66336492  0.34479748  0.12677345  1
  Pr3+  Pr36  1  0.66949506  0.65411196  0.87435523  1
  Pr3+  Pr37  1  0.83237195  0.82237980  0.87349703  1
  Pr3+  Pr38  1  0.16249664  0.49420650  0.37672100  1
  Pr3+  Pr39  1  0.50026930  0.51236382  0.12551146  1
  Pr3+  Pr40  1  -0.00445627  0.00867794  0.62550134  1
  Pr3+  Pr41  1  0.33664130  0.31957734  0.87500057  1
  Pr3+  Pr42  1  0.16529116  0.82399761  0.87452313  1
  Pr3+  Pr43  1  1.00313497  0.31974037  0.87466470  1
  Pr3+  Pr44  1  1.00148338  0.65554756  0.87206433  1
  Pr3+  Pr45  1  0.00081450  0.67775902  0.12582264  1
  Pr3+  Pr46  1  0.66396408  0.34542022  0.62322246  1
  Pr3+  Pr47  1  0.50192082  0.17850385  0.62439009  1
  Pr3+  Pr48  1  0.17208209  0.18124831  0.12482773  1
  Pr3+  Pr49  1  0.16465490  0.15606514  0.37609262  1
  Pr3+  Pr50  1  0.66280683  0.67973190  0.12546341  1
  Pr3+  Pr51  1  0.66341498  0.01278732  0.12589961  1
  Pr3+  Pr52  1  0.83081845  0.48621695  0.87230181  1
  Pr3+  Pr53  1  1.00057862  0.32266926  0.37465422  1
  Pr3+  Pr54  1  0.49817090  0.82067135  0.37675288  1
  Pr3+  Pr55  1  0.49784612  0.15317684  0.87406613  1
  Pr3+  Pr56  1  0.83309832  0.81961864  0.37704936  1
  Pr3+  Pr57  1  0.66488984  0.00985255  0.62397398  1
  Pr3+  Pr58  1  0.49501164  0.48691121  0.87492783  1
  Pr3+  Pr59  1  0.83537377  0.51034553  0.12535042  1
  Pr3+  Pr60  1  0.32833071  0.67814497  0.12503804  1
  Pr3+  Pr61  1  0.50108031  0.51162937  0.62467331  1
  Pr3+  Pr62  1  0.67209694  0.65237592  0.37590534  1
  Pr3+  Pr63  1  0.32916127  0.67711180  0.62510001  1
  Pr3+  Pr64  1  0.49938287  0.15447568  0.37603581  1
  Pr3+  Pr65  1  -0.00140706  0.34706762  0.12495653  1
  Pr3+  Pr66  1  0.49563677  0.81884507  0.87355243  1
  Pr3+  Pr67  1  0.33635415  0.98977074  0.87401039  1
  Pr3+  Pr68  1  0.83588878  0.17723826  0.62248447  1
  Pr3+  Pr69  1  -0.00214063  0.01279722  0.12488792  1
  Pr3+  Pr70  1  0.49601916  0.48762476  0.37535629  1
  Pr3+  Pr71  1  0.49963354  0.17875822  0.12548846  1
  Mn3.30+  Mn72  1  0.16725385  0.00184942  -0.00079906  1
  Mn3.30+  Mn73  1  0.16790359  0.00003139  0.50055987  1
  Mn3.30+  Mn74  1  0.16841010  0.33558816  0.00105696  1
  Mn3.30+  Mn75  1  0.16593203  0.33663521  0.50053135  1
  Mn3.30+  Mn76  1  0.16805292  0.66713552  -0.00199491  1
  Mn3.30+  Mn77  1  0.16536118  0.66659194  0.50078531  1
  Mn3.30+  Mn78  1  0.50018615  -0.00070120  0.00019149  1
  Mn3.30+  Mn79  1  0.50095517  -0.00060894  0.50094175  1
  Mn3.30+  Mn80  1  0.49726448  0.33261837  0.00222085  1
  Mn3.30+  Mn81  1  0.50193856  0.33368565  0.49844326  1
  Mn3.30+  Mn82  1  0.49739728  0.66623804  -0.00081094  1
  Mn3.30+  Mn83  1  0.50023097  0.66708184  0.50071873  1
  Mn3.30+  Mn84  1  0.83321008  -0.00032804  -0.00133232  1
  Mn3.30+  Mn85  1  0.83156805  -0.00116573  0.49861213  1
  Mn3.30+  Mn86  1  0.83303085  0.33257320  0.00016601  1
  Mn3.30+  Mn87  1  0.83109066  0.33363566  0.49793147  1
  Mn3.30+  Mn88  1  0.83311374  0.66627396  0.00078344  1
  Mn3.30+  Mn89  1  0.83613725  0.66351275  0.49934989  1
  Mn3.30+  Mn90  1  -0.00092597  0.16751457  0.25161986  1
  Mn3.30+  Mn91  1  -0.00014196  0.16459343  0.75027499  1
  Mn3.30+  Mn92  1  -0.00068826  0.50171446  0.25081907  1
  Mn3.30+  Mn93  1  -0.00015818  0.50039875  0.74796225  1
  Mn3.30+  Mn94  1  0.00143510  0.83170920  0.24996531  1
  Mn3.30+  Mn95  1  0.00045050  0.83444626  0.75028304  1
  Mn3.30+  Mn96  1  0.33340059  0.16770726  0.24948751  1
  Mn3.30+  Mn97  1  0.33244381  0.16524969  0.74869947  1
  Mn3.30+  Mn98  1  0.33067984  0.50026155  0.24960350  1
  Mn3.30+  Mn99  1  0.33100264  0.50102348  0.74940614  1
  Mn3.30+  Mn100  1  0.33388400  0.83416857  0.25104593  1
  Mn3.30+  Mn101  1  0.33529350  0.83429555  0.74738375  1
  Mn3.30+  Mn102  1  0.66831386  0.16594689  0.25254552  1
  Mn3.30+  Mn103  1  0.66731521  0.16509531  0.75062460  1
  Mn3.30+  Mn104  1  0.66802958  0.49764012  0.25273396  1
  Mn3.30+  Mn105  1  0.66805111  0.49986343  0.74780560  1
  Mn3.30+  Mn106  1  0.66769898  0.83389733  0.25131997  1
  Mn3.30+  Mn107  1  0.66483001  0.83511628  0.75012646  1
  Mn3.30+  Mn108  1  0.16827387  0.00159987  0.25027445  1
  Mn3.30+  Mn109  1  0.16739890  0.00064408  0.74925096  1
  Mn3.30+  Mn110  1  0.16799023  0.33707848  0.24955597  1
  Mn3.30+  Mn111  1  0.16653110  0.33495112  0.74887020  1
  Mn3.30+  Mn112  1  0.16452356  0.66593646  0.25065622  1
  Mn3.30+  Mn113  1  0.16871599  0.66749642  0.75074566  1
  Mn3.30+  Mn114  1  0.50056271  0.00066777  0.25068128  1
  Mn3.30+  Mn115  1  0.50076287  -0.00185780  0.74853931  1
  Mn3.30+  Mn116  1  0.49924878  0.33313731  0.24999872  1
  Mn3.30+  Mn117  1  0.49975187  0.33296196  0.74910572  1
  Mn3.30+  Mn118  1  0.49953499  0.66617732  0.25096031  1
  Mn3.30+  Mn119  1  0.49779511  0.66731101  0.74956291  1
  Mn3.30+  Mn120  1  0.83122896  0.00021689  0.25127079  1
  Mn3.30+  Mn121  1  0.83304870  -0.00142479  0.75212849  1
  Mn3.30+  Mn122  1  0.83137081  0.33383494  0.25344111  1
  Mn3.30+  Mn123  1  0.83253706  0.33248189  0.74832202  1
  Mn3.30+  Mn124  1  0.83527702  0.66396890  0.25184407  1
  Mn3.30+  Mn125  1  0.83409118  0.66580999  0.74829552  1
  Mn3.30+  Mn126  1  0.00101092  0.16542170  -0.00021526  1
  Mn3.30+  Mn127  1  -0.00223179  0.16679499  0.49759398  1
  Mn3.30+  Mn128  1  0.00219386  0.50073549  0.00046435  1
  Mn3.30+  Mn129  1  -0.00309879  0.50133860  0.50022923  1
  Mn3.30+  Mn130  1  0.00146985  0.83489168  0.00000906  1
  Mn3.30+  Mn131  1  0.00041090  0.83133061  0.50027935  1
  Mn3.30+  Mn132  1  0.33261160  0.16598071  0.00081448  1
  Mn3.30+  Mn133  1  0.33287313  0.16668920  0.50048175  1
  Mn3.30+  Mn134  1  0.33067111  0.50045361  0.00071812  1
  Mn3.30+  Mn135  1  0.33119206  0.50101280  0.50028101  1
  Mn3.30+  Mn136  1  0.33308799  0.83446303  -0.00071252  1
  Mn3.30+  Mn137  1  0.33634557  0.83397270  0.50231114  1
  Mn3.30+  Mn138  1  0.66647180  0.16552542  -0.00042712  1
  Mn3.30+  Mn139  1  0.66941285  0.16555959  0.49776768  1
  Mn3.30+  Mn140  1  0.66626985  0.49930963  0.00031706  1
  Mn3.30+  Mn141  1  0.67012279  0.49841838  0.49946374  1
  Mn3.30+  Mn142  1  0.66588638  0.83479114  -0.00105722  1
  Mn3.30+  Mn143  1  0.66669809  0.83415446  0.50038753  1
  O2-  O144  1  0.02658192  0.16110353  0.12639804  1
  O2-  O145  1  0.02399812  0.15874736  0.62227488  1
  O2-  O146  1  0.02801761  0.49456440  0.12210765  1
  O2-  O147  1  0.02656158  0.49332584  0.62642422  1
  O2-  O148  1  0.02688535  0.82675405  0.12445407  1
  O2-  O149  1  0.02343474  0.83580225  0.62507704  1
  O2-  O150  1  0.35632545  0.15808174  0.12623393  1
  O2-  O151  1  0.35691313  0.16142814  0.62365972  1
  O2-  O152  1  0.35715010  0.49710147  0.12526564  1
  O2-  O153  1  0.35708560  0.50175988  0.62517904  1
  O2-  O154  1  0.35727431  0.82543122  0.12436221  1
  O2-  O155  1  0.36384118  0.82297667  0.62604959  1
  O2-  O156  1  0.69227440  0.15995282  0.12666634  1
  O2-  O157  1  0.69235615  0.15817660  0.62470320  1
  O2-  O158  1  0.69091972  0.49417179  0.12632967  1
  O2-  O159  1  0.69495288  0.49347198  0.62199936  1
  O2-  O160  1  0.69178078  0.82752469  0.12524747  1
  O2-  O161  1  0.68740155  0.82993984  0.62457232  1
  O2-  O162  1  0.14097200  0.32714039  0.12535751  1
  O2-  O163  1  0.13978040  0.32520747  0.62330220  1
  O2-  O164  1  0.14394918  0.66237869  0.12261722  1
  O2-  O165  1  0.14991004  0.66392613  0.62746783  1
  O2-  O166  1  0.14241378  0.99880077  0.12543657  1
  O2-  O167  1  0.14026315  0.99683465  0.62414872  1
  O2-  O168  1  0.47048722  0.32684076  0.12624570  1
  O2-  O169  1  0.48107732  0.32881284  0.62309769  1
  O2-  O170  1  0.47424303  0.66140989  0.12461526  1
  O2-  O171  1  0.47388400  0.65820772  0.62568545  1
  O2-  O172  1  0.47259187  0.99410772  0.12538383  1
  O2-  O173  1  0.47420932  0.99403540  0.62456112  1
  O2-  O174  1  0.80798528  0.32902940  0.12771663  1
  O2-  O175  1  0.80675192  0.32338012  0.62299890  1
  O2-  O176  1  0.80581334  0.65924243  0.12541524  1
  O2-  O177  1  0.80802979  0.66105204  0.62565275  1
  O2-  O178  1  0.80684229  0.99401872  0.12524917  1
  O2-  O179  1  0.80951967  0.99858772  0.62580979  1
  O2-  O180  1  0.30896828  0.17409028  0.37474220  1
  O2-  O181  1  0.31464796  0.17033532  0.87472714  1
  O2-  O182  1  0.30824189  0.49990691  0.37408534  1
  O2-  O183  1  0.30993435  0.50476710  0.87531282  1
  O2-  O184  1  0.31447190  0.84055758  0.37611863  1
  O2-  O185  1  0.30842556  0.84387786  0.87369086  1
  O2-  O186  1  0.64123260  0.17387613  0.37380632  1
  O2-  O187  1  0.64114956  0.17044703  0.87476807  1
  O2-  O188  1  0.63891394  0.50698412  0.37594754  1
  O2-  O189  1  0.64032161  0.50547917  0.87583363  1
  O2-  O190  1  0.64260736  0.83600384  0.37486513  1
  O2-  O191  1  0.63974894  0.83825995  0.87593399  1
  O2-  O192  1  0.97044273  0.17447118  0.37457572  1
  O2-  O193  1  0.97285800  0.17392221  0.87605673  1
  O2-  O194  1  0.97435235  0.50658293  0.37475991  1
  O2-  O195  1  0.97434546  0.50451602  0.87553962  1
  O2-  O196  1  0.97713957  0.84043622  0.37304471  1
  O2-  O197  1  0.97734095  0.84093292  0.87783857  1
  O2-  O198  1  0.19282885  0.00664308  0.37589635  1
  O2-  O199  1  0.19269999  -0.00077304  0.87378967  1
  O2-  O200  1  0.19103571  0.34267188  0.37482417  1
  O2-  O201  1  0.19251996  0.34055314  0.87624969  1
  O2-  O202  1  0.18380777  0.66204971  0.37476463  1
  O2-  O203  1  0.19495835  0.67576992  0.87508394  1
  O2-  O204  1  0.52800252  0.00650021  0.37485116  1
  O2-  O205  1  0.52688529  0.00594201  0.87552733  1
  O2-  O206  1  0.52730008  0.33989442  0.37461359  1
  O2-  O207  1  0.51627057  0.33817754  0.87585237  1
  O2-  O208  1  0.52730469  0.67125828  0.37582594  1
  O2-  O209  1  0.52635872  0.67019064  0.87427881  1
  O2-  O210  1  0.85867890  0.00414433  0.37258771  1
  O2-  O211  1  0.86243785  0.00581158  0.87709524  1
  O2-  O212  1  0.85873922  0.34334424  0.37508835  1
  O2-  O213  1  0.85887111  0.33814559  0.87385478  1
  O2-  O214  1  0.86172943  0.67320550  0.37278304  1
  O2-  O215  1  0.85588493  0.67225499  0.87627198  1
  O2-  O216  1  0.23709996  0.09645540  0.01852960  1
  O2-  O217  1  0.23645431  0.09580761  0.51721159  1
  O2-  O218  1  0.23410954  0.43379427  0.01871532  1
  O2-  O219  1  0.23316619  0.43104618  0.51845250  1
  O2-  O220  1  0.23705016  0.76365094  0.02078426  1
  O2-  O221  1  0.24266667  0.76060026  0.52043760  1
  O2-  O222  1  0.57071062  0.09355212  0.02251758  1
  O2-  O223  1  0.57080769  0.09421558  0.52136744  1
  O2-  O224  1  0.57069667  0.42597017  0.02164720  1
  O2-  O225  1  0.57295203  0.42919024  0.52085337  1
  O2-  O226  1  0.56978043  0.76036330  0.02093625  1
  O2-  O227  1  0.57261828  0.76039093  0.52074656  1
  O2-  O228  1  0.90298873  0.09432840  0.02312776  1
  O2-  O229  1  0.90589054  0.09167092  0.51963791  1
  O2-  O230  1  0.90654291  0.42736690  0.02003805  1
  O2-  O231  1  0.90407667  0.42618348  0.52324989  1
  O2-  O232  1  0.90485492  0.75946975  0.02058683  1
  O2-  O233  1  0.90635337  0.76140311  0.51306555  1
  O2-  O234  1  0.26246610  0.26560532  0.22993727  1
  O2-  O235  1  0.25675169  0.26061313  0.73313888  1
  O2-  O236  1  0.26060530  0.59528615  0.23015116  1
  O2-  O237  1  0.26388665  0.59725067  0.73495584  1
  O2-  O238  1  0.26369905  0.93004575  0.22919395  1
  O2-  O239  1  0.26410928  0.92866536  0.72524876  1
  O2-  O240  1  0.59298214  0.25905934  0.22689182  1
  O2-  O241  1  0.59529044  0.25706912  0.72793723  1
  O2-  O242  1  0.59542746  0.59399150  0.22978365  1
  O2-  O243  1  0.59477317  0.59513842  0.72827245  1
  O2-  O244  1  0.59231779  0.92785422  0.22748472  1
  O2-  O245  1  0.59467648  0.92849413  0.73025789  1
  O2-  O246  1  0.92951583  0.26179684  0.22860309  1
  O2-  O247  1  0.92698289  0.26090715  0.72831078  1
  O2-  O248  1  0.92629997  0.59197761  0.22222606  1
  O2-  O249  1  0.92678129  0.59112561  0.73633035  1
  O2-  O250  1  0.92792041  0.92631859  0.22894514  1
  O2-  O251  1  0.92870685  0.92939638  0.73377806  1
  O2-  O252  1  0.09625603  0.24214398  0.27143691  1
  O2-  O253  1  0.08908284  0.24022471  0.76685646  1
  O2-  O254  1  0.09258196  0.57155916  0.26629423  1
  O2-  O255  1  0.09281277  0.57548560  0.77300200  1
  O2-  O256  1  0.09399316  0.90897089  0.26576004  1
  O2-  O257  1  0.09917800  0.90509794  0.76585732  1
  O2-  O258  1  0.42917136  0.23921322  0.27254182  1
  O2-  O259  1  0.42736033  0.23804778  0.76740351  1
  O2-  O260  1  0.42912361  0.56922766  0.26655755  1
  O2-  O261  1  0.43074498  0.56969941  0.76852453  1
  O2-  O262  1  0.43122168  0.90706256  0.27126314  1
  O2-  O263  1  0.42826788  0.90609250  0.77363749  1
  O2-  O264  1  0.76415052  0.23286171  0.26879416  1
  O2-  O265  1  0.76441400  0.23473871  0.76679760  1
  O2-  O266  1  0.76423568  0.56961970  0.27216759  1
  O2-  O267  1  0.75820273  0.57343595  0.77303439  1
  O2-  O268  1  0.76426603  0.90154030  0.26785586  1
  O2-  O269  1  0.76264751  0.90683734  0.77254187  1
  O2-  O270  1  0.07102834  0.07564562  0.47628913  1
  O2-  O271  1  0.06839158  0.06825030  0.98232115  1
  O2-  O272  1  0.06841207  0.40652902  0.47875171  1
  O2-  O273  1  0.07149622  0.40611737  0.97751749  1
  O2-  O274  1  0.07330192  0.73945574  0.48387779  1
  O2-  O275  1  0.07245657  0.73901146  0.97830323  1
  O2-  O276  1  0.40817246  0.07317329  0.47774420  1
  O2-  O277  1  0.40831639  0.07142412  0.97848542  1
  O2-  O278  1  0.40578506  0.40806071  0.47919212  1
  O2-  O279  1  0.40195492  0.40652757  0.98047255  1
  O2-  O280  1  0.40955649  0.74123372  0.48050673  1
  O2-  O281  1  0.40389673  0.73763503  0.97771978  1
  O2-  O282  1  0.73540908  0.06849088  0.48015191  1
  O2-  O283  1  0.73766308  0.06908857  0.97872657  1
  O2-  O284  1  0.73390528  0.39863613  0.48057017  1
  O2-  O285  1  0.74148064  0.40743661  0.98313516  1
  O2-  O286  1  0.74108765  0.73603980  0.48063431  1
  O2-  O287  1  0.73637753  0.73964212  0.97982707  1
  O2-  O288  1  0.09208595  0.24111297  0.47779635  1
  O2-  O289  1  0.09325680  0.24245125  0.98265264  1
  O2-  O290  1  0.09203964  0.57179385  0.48453732  1
  O2-  O291  1  0.09347352  0.57593577  0.97446004  1
  O2-  O292  1  0.09330078  0.90894008  0.48227225  1
  O2-  O293  1  0.10027229  0.90502716  0.98539252  1
  O2-  O294  1  0.42810213  0.24033968  0.47912276  1
  O2-  O295  1  0.42830511  0.23678129  0.98080198  1
  O2-  O296  1  0.43154964  0.57112712  0.48250928  1
  O2-  O297  1  0.42997632  0.56875506  0.98282198  1
  O2-  O298  1  0.42968459  0.90794853  0.47704015  1
  O2-  O299  1  0.43013549  0.90460397  0.97907113  1
  O2-  O300  1  0.76631006  0.23374332  0.48021564  1
  O2-  O301  1  0.76385198  0.23558913  0.98442552  1
  O2-  O302  1  0.76021833  0.57036425  0.47526420  1
  O2-  O303  1  0.76192519  0.57218813  0.97907204  1
  O2-  O304  1  0.76201378  0.90469680  0.47887764  1
  O2-  O305  1  0.76486127  0.90416940  0.98150193  1
  O2-  O306  1  0.07102998  0.07496675  0.27248198  1
  O2-  O307  1  0.06849963  0.06976769  0.76690876  1
  O2-  O308  1  0.07014977  0.40665522  0.27093896  1
  O2-  O309  1  0.07113501  0.40558549  0.77165002  1
  O2-  O310  1  0.06783090  0.73487492  0.26608831  1
  O2-  O311  1  0.07580955  0.74195095  0.77267294  1
  O2-  O312  1  0.40798610  0.07317573  0.27391738  1
  O2-  O313  1  0.40922354  0.07164867  0.77005082  1
  O2-  O314  1  0.40531907  0.40640381  0.27127637  1
  O2-  O315  1  0.40336315  0.40792924  0.76963551  1
  O2-  O316  1  0.41029356  0.74220697  0.26743255  1
  O2-  O317  1  0.40363008  0.73709369  0.77408179  1
  O2-  O318  1  0.73387511  0.06671493  0.26877834  1
  O2-  O319  1  0.73824500  0.07043765  0.77278340  1
  O2-  O320  1  0.73339692  0.40051310  0.26821329  1
  O2-  O321  1  0.74149301  0.40548814  0.76797108  1
  O2-  O322  1  0.74067299  0.73544807  0.27020543  1
  O2-  O323  1  0.73653492  0.74025998  0.76975655  1
  O2-  O324  1  0.23603520  0.09926046  0.23453516  1
  O2-  O325  1  0.23790821  0.09364621  0.72921769  1
  O2-  O326  1  0.23526375  0.43167407  0.22958369  1
  O2-  O327  1  0.23454965  0.43466276  0.73252963  1
  O2-  O328  1  0.23873324  0.75936448  0.23024798  1
  O2-  O329  1  0.24035628  0.76493530  0.72860856  1
  O2-  O330  1  0.57040535  0.09509768  0.22844863  1
  O2-  O331  1  0.57160821  0.09330044  0.72760825  1
  O2-  O332  1  0.56901217  0.42666584  0.22777421  1
  O2-  O333  1  0.57429037  0.42799535  0.72996079  1
  O2-  O334  1  0.57433987  0.76105821  0.22922319  1
  O2-  O335  1  0.56843670  0.76073831  0.72975093  1
  O2-  O336  1  0.90495007  0.09131449  0.22728636  1
  O2-  O337  1  0.90380745  0.09479525  0.73013291  1
  O2-  O338  1  0.90801064  0.42747955  0.22700577  1
  O2-  O339  1  0.90477108  0.42639297  0.72878375  1
  O2-  O340  1  0.90428497  0.75963611  0.22701883  1
  O2-  O341  1  0.90703432  0.75943019  0.73958329  1
  O2-  O342  1  0.26185352  0.26517763  0.02069836  1
  O2-  O343  1  0.25645019  0.26006628  0.51590600  1
  O2-  O344  1  0.26313331  0.59700610  0.01785212  1
  O2-  O345  1  0.26077600  0.59519896  0.51768972  1
  O2-  O346  1  0.26319405  0.93130087  0.02193149  1
  O2-  O347  1  0.26484624  0.92692030  0.52311267  1
  O2-  O348  1  0.59270124  0.25867834  0.02370737  1
  O2-  O349  1  0.59653833  0.25714512  0.52058564  1
  O2-  O350  1  0.59466748  0.59449325  0.02108807  1
  O2-  O351  1  0.59593506  0.59497412  0.52185037  1
  O2-  O352  1  0.59300847  0.92649769  0.02396915  1
  O2-  O353  1  0.59386151  0.92933058  0.51883411  1
  O2-  O354  1  0.92796690  0.26127450  0.02189526  1
  O2-  O355  1  0.92833850  0.26200622  0.52098764  1
  O2-  O356  1  0.92936725  0.59299086  0.02028677  1
  O2-  O357  1  0.92530706  0.59139398  0.52031561  1
  O2-  O358  1  0.92682021  0.92673957  0.02482201  1
  O2-  O359  1  0.92874440  0.92943805  0.51359136  1
