# generated using pymatgen
data_Sr7Ca15Pr50Mn72O216
_symmetry_space_group_name_H-M   'P 1'
_cell_length_a   16.55838546
_cell_length_b   16.60483282
_cell_length_c   15.59180594
_cell_angle_alpha   90.00119305
_cell_angle_beta   90.00030663
_cell_angle_gamma   89.99303083
_symmetry_Int_Tables_number   1
_chemical_formula_structural   Sr7Ca15Pr50Mn72O216
_chemical_formula_sum   'Sr7 Ca15 Pr50 Mn72 O216'
_cell_volume   4286.95488399
_cell_formula_units_Z   1
loop_
 _symmetry_equiv_pos_site_id
 _symmetry_equiv_pos_as_xyz
  1  'x, y, z'
loop_
 _atom_type_symbol
 _atom_type_oxidation_number
  Sr2+  2.0
  Ca2+  2.0
  Pr3+  3.0
  Mn3.30+  3.3
  O2-  -2.0
loop_
 _atom_site_type_symbol
 _atom_site_label
 _atom_site_symmetry_multiplicity
 _atom_site_fract_x
 _atom_site_fract_y
 _atom_site_fract_z
 _atom_site_occupancy
  Sr2+  Sr0  1  0.00033964  0.67606887  0.12522236  1
  Sr2+  Sr1  1  1.00236363  0.99330419  0.37644404  1
  Sr2+  Sr2  1  0.49753516  0.50654984  0.12446062  1
  Sr2+  Sr3  1  0.83266542  0.84472777  0.62336137  1
  Sr2+  Sr4  1  0.33733321  0.98896965  0.37617501  1
  Sr2+  Sr5  1  0.66253742  0.65854836  0.37745959  1
  Sr2+  Sr6  1  0.16881622  0.15756494  0.37530464  1
  Ca2+  Ca7  1  0.34036158  0.31674042  0.37251564  1
  Ca2+  Ca8  1  0.66247954  0.01536185  0.62309380  1
  Ca2+  Ca9  1  0.49616186  0.81949533  0.37673103  1
  Ca2+  Ca10  1  0.50111183  0.18323845  0.12926286  1
  Ca2+  Ca11  1  0.33596512  0.32153567  0.87708744  1
  Ca2+  Ca12  1  0.16531566  0.48314564  0.87529201  1
  Ca2+  Ca13  1  0.49594258  0.48386009  0.37377183  1
  Ca2+  Ca14  1  0.66064309  0.34812994  0.62345414  1
  Ca2+  Ca15  1  0.32938307  0.68464362  0.62392900  1
  Ca2+  Ca16  1  0.17074558  0.84870179  0.62313608  1
  Ca2+  Ca17  1  0.33361850  0.34570079  0.12746525  1
  Ca2+  Ca18  1  0.49491866  0.47971068  0.87567571  1
  Ca2+  Ca19  1  0.49431714  0.15174477  0.37369460  1
  Ca2+  Ca20  1  0.83270271  0.51200860  0.62336435  1
  Ca2+  Ca21  1  0.82914187  0.15178891  0.37533220  1
  Pr3+  Pr22  1  0.66826989  0.98974156  0.37697460  1
  Pr3+  Pr23  1  0.33295200  0.01434991  0.12674335  1
  Pr3+  Pr24  1  0.33173291  0.01229255  0.62311537  1
  Pr3+  Pr25  1  0.49596069  0.15703408  0.87592426  1
  Pr3+  Pr26  1  0.83230251  0.17634939  0.62164846  1
  Pr3+  Pr27  1  -0.00353451  0.34707959  0.62274959  1
  Pr3+  Pr28  1  0.66622539  0.32008651  0.37562092  1
  Pr3+  Pr29  1  0.66173558  0.67691764  0.12598959  1
  Pr3+  Pr30  1  1.00297011  0.65766404  0.37656591  1
  Pr3+  Pr31  1  0.49646764  0.81810367  0.87414912  1
  Pr3+  Pr32  1  0.33115494  0.67762681  0.12508663  1
  Pr3+  Pr33  1  0.82689045  0.49110715  0.37717328  1
  Pr3+  Pr34  1  0.50278605  0.84310314  0.12769508  1
  Pr3+  Pr35  1  0.82912604  0.15545121  0.87539250  1
  Pr3+  Pr36  1  0.33779544  0.64786689  0.87319560  1
  Pr3+  Pr37  1  -0.00128447  0.01132301  0.62286781  1
  Pr3+  Pr38  1  0.50559323  0.18065519  0.62121357  1
  Pr3+  Pr39  1  0.65994925  0.34683782  0.12556483  1
  Pr3+  Pr40  1  0.50523766  0.84670754  0.62291278  1
  Pr3+  Pr41  1  0.17195489  0.18249020  0.12869445  1
  Pr3+  Pr42  1  0.66058629  0.01611712  0.12583104  1
  Pr3+  Pr43  1  1.00133392  0.32043718  0.37502091  1
  Pr3+  Pr44  1  0.83517956  0.18049715  0.12809952  1
  Pr3+  Pr45  1  -0.00187610  0.01283294  0.12721616  1
  Pr3+  Pr46  1  0.16676358  0.15779239  0.87477144  1
  Pr3+  Pr47  1  0.50203874  0.50963259  0.62529317  1
  Pr3+  Pr48  1  0.33692159  0.98685062  0.87431000  1
  Pr3+  Pr49  1  0.66922208  0.98785993  0.87273194  1
  Pr3+  Pr50  1  0.17372318  0.51190175  0.12376645  1
  Pr3+  Pr51  1  0.83166829  0.82125314  0.37749891  1
  Pr3+  Pr52  1  0.33085475  0.34343843  0.62312513  1
  Pr3+  Pr53  1  1.00394694  0.32284314  0.87444449  1
  Pr3+  Pr54  1  0.17389195  0.51568436  0.62591077  1
  Pr3+  Pr55  1  0.16573992  0.82657840  0.37772505  1
  Pr3+  Pr56  1  0.34200141  0.65391075  0.37668216  1
  Pr3+  Pr57  1  0.83107179  0.48730784  0.87325221  1
  Pr3+  Pr58  1  1.00652815  0.64945193  0.87359656  1
  Pr3+  Pr59  1  0.83637311  0.84404647  0.12674785  1
  Pr3+  Pr60  1  0.66524349  0.32303070  0.87428433  1
  Pr3+  Pr61  1  0.66585397  0.67691371  0.62371847  1
  Pr3+  Pr62  1  0.83143568  0.81907483  0.87269823  1
  Pr3+  Pr63  1  -0.00190130  0.68086704  0.62513814  1
  Pr3+  Pr64  1  1.00242908  0.98791108  0.87450321  1
  Pr3+  Pr65  1  -0.00080622  0.34655651  0.12702848  1
  Pr3+  Pr66  1  0.16425790  0.82024169  0.87258668  1
  Pr3+  Pr67  1  0.66685896  0.65133589  0.87266616  1
  Pr3+  Pr68  1  0.16609199  0.48803563  0.37579940  1
  Pr3+  Pr69  1  0.83452221  0.51329132  0.12564226  1
  Pr3+  Pr70  1  0.16929433  0.17728811  0.62115722  1
  Pr3+  Pr71  1  0.16981723  0.84697648  0.12528113  1
  Mn3.30+  Mn72  1  0.16742982  0.00195643  -0.00015528  1
  Mn3.30+  Mn73  1  0.16764009  -0.00002766  0.49958428  1
  Mn3.30+  Mn74  1  0.17021770  0.33449788  -0.00077330  1
  Mn3.30+  Mn75  1  0.16785107  0.33339024  0.49804726  1
  Mn3.30+  Mn76  1  0.16811078  0.66533772  -0.00150156  1
  Mn3.30+  Mn77  1  0.17082624  0.66950212  0.50119896  1
  Mn3.30+  Mn78  1  0.50002786  0.00091552  0.00072582  1
  Mn3.30+  Mn79  1  0.50112049  0.00010983  0.49890206  1
  Mn3.30+  Mn80  1  0.49652345  0.33258493  0.00145944  1
  Mn3.30+  Mn81  1  0.49916806  0.33365657  0.49733768  1
  Mn3.30+  Mn82  1  0.49931788  0.66246777  -0.00116487  1
  Mn3.30+  Mn83  1  0.49741503  0.66524019  0.50154578  1
  Mn3.30+  Mn84  1  0.83222850  0.00007907  0.00077477  1
  Mn3.30+  Mn85  1  0.83199048  0.00120509  0.49975243  1
  Mn3.30+  Mn86  1  0.83293187  0.33378465  0.00015731  1
  Mn3.30+  Mn87  1  0.82988248  0.33374513  0.50120785  1
  Mn3.30+  Mn88  1  0.83387111  0.66604717  -0.00120111  1
  Mn3.30+  Mn89  1  0.83336512  0.66580625  0.50173023  1
  Mn3.30+  Mn90  1  0.00027587  0.16713798  0.25159851  1
  Mn3.30+  Mn91  1  -0.00093195  0.16775911  0.74941121  1
  Mn3.30+  Mn92  1  -0.00054772  0.50147326  0.25164962  1
  Mn3.30+  Mn93  1  0.00173791  0.49912915  0.74792151  1
  Mn3.30+  Mn94  1  0.00085309  0.83394633  0.25048794  1
  Mn3.30+  Mn95  1  0.00076223  0.83383834  0.74845446  1
  Mn3.30+  Mn96  1  0.33818616  0.16847330  0.25034993  1
  Mn3.30+  Mn97  1  0.33409250  0.16825953  0.74991140  1
  Mn3.30+  Mn98  1  0.33505282  0.49744746  0.25083121  1
  Mn3.30+  Mn99  1  0.33440286  0.49707169  0.75125416  1
  Mn3.30+  Mn100  1  0.33581999  0.83348656  0.25158369  1
  Mn3.30+  Mn101  1  0.33216278  0.83198410  0.74785244  1
  Mn3.30+  Mn102  1  0.66388390  0.16711867  0.25198489  1
  Mn3.30+  Mn103  1  0.66562553  0.16803325  0.74789344  1
  Mn3.30+  Mn104  1  0.66272395  0.50043362  0.25294187  1
  Mn3.30+  Mn105  1  0.66554717  0.49764733  0.74831789  1
  Mn3.30+  Mn106  1  0.66597261  0.83301351  0.25223867  1
  Mn3.30+  Mn107  1  0.66581012  0.83395006  0.74845864  1
  Mn3.30+  Mn108  1  0.16745932  0.00145329  0.25152720  1
  Mn3.30+  Mn109  1  0.16766440  0.00016359  0.74946738  1
  Mn3.30+  Mn110  1  0.16998701  0.33444859  0.25196809  1
  Mn3.30+  Mn111  1  0.16779524  0.33401087  0.74992020  1
  Mn3.30+  Mn112  1  0.16887301  0.66815895  0.25170685  1
  Mn3.30+  Mn113  1  0.17033606  0.66675852  0.74886118  1
  Mn3.30+  Mn114  1  0.49963613  0.00047894  0.25108244  1
  Mn3.30+  Mn115  1  0.50133857  0.00067973  0.74940337  1
  Mn3.30+  Mn116  1  0.49757781  0.33290123  0.25075903  1
  Mn3.30+  Mn117  1  0.49846676  0.33312893  0.74988085  1
  Mn3.30+  Mn118  1  0.49929683  0.66409039  0.25136464  1
  Mn3.30+  Mn119  1  0.49731604  0.66347884  0.74807946  1
  Mn3.30+  Mn120  1  0.83202276  0.00084000  0.25184259  1
  Mn3.30+  Mn121  1  0.83225457  0.00079906  0.74742002  1
  Mn3.30+  Mn122  1  0.83121599  0.33329002  0.25211710  1
  Mn3.30+  Mn123  1  0.83128509  0.33435253  0.74599807  1
  Mn3.30+  Mn124  1  0.83229078  0.66668848  0.25101184  1
  Mn3.30+  Mn125  1  0.83504370  0.66485914  0.74906665  1
  Mn3.30+  Mn126  1  0.00019535  0.16791232  0.00089610  1
  Mn3.30+  Mn127  1  -0.00065113  0.16694764  0.49831455  1
  Mn3.30+  Mn128  1  0.00189977  0.49902382  -0.00011267  1
  Mn3.30+  Mn129  1  -0.00097194  0.50128243  0.50085981  1
  Mn3.30+  Mn130  1  0.00021146  0.83239488  0.00012280  1
  Mn3.30+  Mn131  1  0.00117342  0.83526475  0.50145208  1
  Mn3.30+  Mn132  1  0.33437469  0.17015704  0.00240988  1
  Mn3.30+  Mn133  1  0.33772702  0.16676977  0.49686186  1
  Mn3.30+  Mn134  1  0.33371645  0.49555130  -0.00241868  1
  Mn3.30+  Mn135  1  0.33572326  0.49892703  0.49952206  1
  Mn3.30+  Mn136  1  0.33376111  0.83255910  -0.00084752  1
  Mn3.30+  Mn137  1  0.33444626  0.83290252  0.50146082  1
  Mn3.30+  Mn138  1  0.66381446  0.16814920  0.00133575  1
  Mn3.30+  Mn139  1  0.66581264  0.16706177  0.49820767  1
  Mn3.30+  Mn140  1  0.66377286  0.49914609  -0.00184854  1
  Mn3.30+  Mn141  1  0.66435166  0.49902078  0.50060979  1
  Mn3.30+  Mn142  1  0.66682112  0.83276639  -0.00064538  1
  Mn3.30+  Mn143  1  0.66506002  0.83431233  0.49994010  1
  O2-  O144  1  0.02516038  0.16338525  0.12518483  1
  O2-  O145  1  0.02415852  0.16248012  0.62578477  1
  O2-  O146  1  0.02734125  0.49469993  0.12704186  1
  O2-  O147  1  0.02954914  0.49467940  0.62423440  1
  O2-  O148  1  0.02500026  0.83136286  0.12349166  1
  O2-  O149  1  0.02756782  0.82924031  0.62669917  1
  O2-  O150  1  0.36013108  0.15961837  0.12528888  1
  O2-  O151  1  0.35959489  0.16240533  0.62316617  1
  O2-  O152  1  0.34782873  0.49493811  0.12443755  1
  O2-  O153  1  0.35865902  0.48931275  0.62568141  1
  O2-  O154  1  0.35868464  0.82741234  0.12306368  1
  O2-  O155  1  0.36110703  0.83111823  0.62716707  1
  O2-  O156  1  0.69283284  0.16399991  0.12717189  1
  O2-  O157  1  0.68994186  0.15975392  0.62452320  1
  O2-  O158  1  0.69033264  0.49548908  0.12395788  1
  O2-  O159  1  0.69057777  0.49323036  0.62611044  1
  O2-  O160  1  0.69219527  0.82569911  0.12424082  1
  O2-  O161  1  0.68393616  0.82504372  0.62578878  1
  O2-  O162  1  0.14250046  0.33187861  0.12652950  1
  O2-  O163  1  0.14163134  0.32693761  0.62219572  1
  O2-  O164  1  0.14944633  0.65985134  0.12617400  1
  O2-  O165  1  0.14105105  0.65997365  0.62621336  1
  O2-  O166  1  0.14284176  0.99587369  0.12370435  1
  O2-  O167  1  0.14381918  0.99692526  0.62781949  1
  O2-  O168  1  0.47615852  0.32833095  0.12599841  1
  O2-  O169  1  0.47462813  0.32864401  0.62350204  1
  O2-  O170  1  0.47579249  0.66388874  0.12278662  1
  O2-  O171  1  0.47056981  0.65648645  0.62747664  1
  O2-  O172  1  0.47613797  0.98895655  0.12438650  1
  O2-  O173  1  0.47536844  0.99477470  0.62678515  1
  O2-  O174  1  0.80505239  0.32784235  0.12781648  1
  O2-  O175  1  0.80152882  0.32224394  0.62406704  1
  O2-  O176  1  0.80724864  0.66244484  0.12344483  1
  O2-  O177  1  0.81062267  0.66000470  0.62656782  1
  O2-  O178  1  0.80493650  0.99189284  0.12562865  1
  O2-  O179  1  0.80609213  1.00242046  0.62588810  1
  O2-  O180  1  0.31687490  0.17100226  0.37429401  1
  O2-  O181  1  0.30960485  0.17399392  0.87709833  1
  O2-  O182  1  0.30797482  0.50871887  0.37687904  1
  O2-  O183  1  0.30475813  0.50419886  0.87194969  1
  O2-  O184  1  0.31015518  0.83253396  0.37547463  1
  O2-  O185  1  0.30855883  0.83920495  0.87434330  1
  O2-  O186  1  0.63669238  0.17167374  0.37398424  1
  O2-  O187  1  0.64050387  0.17386663  0.87415093  1
  O2-  O188  1  0.63975747  0.50266317  0.37691020  1
  O2-  O189  1  0.63967844  0.50365661  0.87299414  1
  O2-  O190  1  0.63921425  0.84071168  0.37713272  1
  O2-  O191  1  0.64034999  0.83968009  0.87319977  1
  O2-  O192  1  0.97281136  0.17292674  0.37383218  1
  O2-  O193  1  0.97366597  0.17448361  0.87526211  1
  O2-  O194  1  0.97215764  0.50822132  0.37633161  1
  O2-  O195  1  0.97516505  0.50050456  0.87274661  1
  O2-  O196  1  0.97697386  0.83556522  0.37610072  1
  O2-  O197  1  0.97527633  0.83981261  0.87447421  1
  O2-  O198  1  0.18646395  -0.00285615  0.37334865  1
  O2-  O199  1  0.19286995  0.00886341  0.87507916  1
  O2-  O200  1  0.19455480  0.34021062  0.37608266  1
  O2-  O201  1  0.19188345  0.33557851  0.87530593  1
  O2-  O202  1  0.19672826  0.67654255  0.37593954  1
  O2-  O203  1  0.19468594  0.67537024  0.87192975  1
  O2-  O204  1  0.52492364  0.00734472  0.37362565  1
  O2-  O205  1  0.52512000  0.00747111  0.87534926  1
  O2-  O206  1  0.52422565  0.34131758  0.37519493  1
  O2-  O207  1  0.52223633  0.33172910  0.87454163  1
  O2-  O208  1  0.51316718  0.67508317  0.37671816  1
  O2-  O209  1  0.52394529  0.67248607  0.87292806  1
  O2-  O210  1  0.85279669  0.00602307  0.37389388  1
  O2-  O211  1  0.85855846  0.00799620  0.87471249  1
  O2-  O212  1  0.85889595  0.34482595  0.37568444  1
  O2-  O213  1  0.86037953  0.33898161  0.87226127  1
  O2-  O214  1  0.85748269  0.66972014  0.37726292  1
  O2-  O215  1  0.86052364  0.67037416  0.87364196  1
  O2-  O216  1  0.23921017  0.09843966  0.02086299  1
  O2-  O217  1  0.24250051  0.09222503  0.52025675  1
  O2-  O218  1  0.23472205  0.43044250  0.01596629  1
  O2-  O219  1  0.23761856  0.43008061  0.52025849  1
  O2-  O220  1  0.23933681  0.76228536  0.01945405  1
  O2-  O221  1  0.23642040  0.76543190  0.52144860  1
  O2-  O222  1  0.56986037  0.09604235  0.02250902  1
  O2-  O223  1  0.57330093  0.09410941  0.51964659  1
  O2-  O224  1  0.57343501  0.42267800  0.01606393  1
  O2-  O225  1  0.56997155  0.42732706  0.52028295  1
  O2-  O226  1  0.57256424  0.76178562  0.01857289  1
  O2-  O227  1  0.57141257  0.75649831  0.52200287  1
  O2-  O228  1  0.90273520  0.09420772  0.02225923  1
  O2-  O229  1  0.90700264  0.09305502  0.52119334  1
  O2-  O230  1  0.90470196  0.42685109  0.02179426  1
  O2-  O231  1  0.90199735  0.42641326  0.52381106  1
  O2-  O232  1  0.90176135  0.76363246  0.01624748  1
  O2-  O233  1  0.91121878  0.75916673  0.51809412  1
  O2-  O234  1  0.26277798  0.26044945  0.22863210  1
  O2-  O235  1  0.25852297  0.25873174  0.72662855  1
  O2-  O236  1  0.26268964  0.59526342  0.23239474  1
  O2-  O237  1  0.26619965  0.59740885  0.72745012  1
  O2-  O238  1  0.26150536  0.92636471  0.22694765  1
  O2-  O239  1  0.26564881  0.93046429  0.73363229  1
  O2-  O240  1  0.59793784  0.26396064  0.23255408  1
  O2-  O241  1  0.59567895  0.26294121  0.72816365  1
  O2-  O242  1  0.59469941  0.59533908  0.23140887  1
  O2-  O243  1  0.59613088  0.59443456  0.72848064  1
  O2-  O244  1  0.59569436  0.92837864  0.22890896  1
  O2-  O245  1  0.59617906  0.92967288  0.73022890  1
  O2-  O246  1  0.92699899  0.26180525  0.22961160  1
  O2-  O247  1  0.92577518  0.26264742  0.72693429  1
  O2-  O248  1  0.92511042  0.59201768  0.23169936  1
  O2-  O249  1  0.93432892  0.59501706  0.73249538  1
  O2-  O250  1  0.92559827  0.92691149  0.22750514  1
  O2-  O251  1  0.92941555  0.93245365  0.73290396  1
  O2-  O252  1  0.09341305  0.24465696  0.26766881  1
  O2-  O253  1  0.09395864  0.23949219  0.77030679  1
  O2-  O254  1  0.09553277  0.57662074  0.27466116  1
  O2-  O255  1  0.10027019  0.57072350  0.77157012  1
  O2-  O256  1  0.09693806  0.90430372  0.26384167  1
  O2-  O257  1  0.09390332  0.90773470  0.77346068  1
  O2-  O258  1  0.43308222  0.23606415  0.26947734  1
  O2-  O259  1  0.43082286  0.23562681  0.76508953  1
  O2-  O260  1  0.42728612  0.56957999  0.27087389  1
  O2-  O261  1  0.43008211  0.56589613  0.77335956  1
  O2-  O262  1  0.43192050  0.89894445  0.26698113  1
  O2-  O263  1  0.42888374  0.90383234  0.77115531  1
  O2-  O264  1  0.76218294  0.23759852  0.27343864  1
  O2-  O265  1  0.76075819  0.23939139  0.77225489  1
  O2-  O266  1  0.76095283  0.56985136  0.26591227  1
  O2-  O267  1  0.76042721  0.57293418  0.77178899  1
  O2-  O268  1  0.76175319  0.90586181  0.27188454  1
  O2-  O269  1  0.76203099  0.90822710  0.77325406  1
  O2-  O270  1  0.07421720  0.07543824  0.48886458  1
  O2-  O271  1  0.07170045  0.07327150  0.97940078  1
  O2-  O272  1  0.06997329  0.40817143  0.47771408  1
  O2-  O273  1  0.06957636  0.40219426  0.98288990  1
  O2-  O274  1  0.07448920  0.73972546  0.48014958  1
  O2-  O275  1  0.07392005  0.73889984  0.97687356  1
  O2-  O276  1  0.40791734  0.06983946  0.48704688  1
  O2-  O277  1  0.40326015  0.07151672  0.97982487  1
  O2-  O278  1  0.40053592  0.39948772  0.48156063  1
  O2-  O279  1  0.40273752  0.40236602  0.98006947  1
  O2-  O280  1  0.40173722  0.73627476  0.48722335  1
  O2-  O281  1  0.40610646  0.73543113  0.97851454  1
  O2-  O282  1  0.73797940  0.07515730  0.47913677  1
  O2-  O283  1  0.73597530  0.07307729  0.98031074  1
  O2-  O284  1  0.73762058  0.40621573  0.47703633  1
  O2-  O285  1  0.73987755  0.40591585  0.97831997  1
  O2-  O286  1  0.74240871  0.74373428  0.48393131  1
  O2-  O287  1  0.73736282  0.73868041  0.97572545  1
  O2-  O288  1  0.08983045  0.24341460  0.48068164  1
  O2-  O289  1  0.09794359  0.24073181  0.98092768  1
  O2-  O290  1  0.09829015  0.57625680  0.47861329  1
  O2-  O291  1  0.09608327  0.57082835  0.97738456  1
  O2-  O292  1  0.09529811  0.90554867  0.48499262  1
  O2-  O293  1  0.09494316  0.90606903  0.97862764  1
  O2-  O294  1  0.43367687  0.23579072  0.48211086  1
  O2-  O295  1  0.42894801  0.23704836  0.98164073  1
  O2-  O296  1  0.43011305  0.56677199  0.47979418  1
  O2-  O297  1  0.42600513  0.56742365  0.97615640  1
  O2-  O298  1  0.43294490  0.90036836  0.48419320  1
  O2-  O299  1  0.42852927  0.90420442  0.97843607  1
  O2-  O300  1  0.76170809  0.23793655  0.47541744  1
  O2-  O301  1  0.76169420  0.23985521  0.97988423  1
  O2-  O302  1  0.75936054  0.57127349  0.48460551  1
  O2-  O303  1  0.76145427  0.57190738  0.97809167  1
  O2-  O304  1  0.76034518  0.90911396  0.47798570  1
  O2-  O305  1  0.76209675  0.90484421  0.97759000  1
  O2-  O306  1  0.07277606  0.07363027  0.26234698  1
  O2-  O307  1  0.07206202  0.07356957  0.77128997  1
  O2-  O308  1  0.07015817  0.40802332  0.27324196  1
  O2-  O309  1  0.06948236  0.40260798  0.76634267  1
  O2-  O310  1  0.07657797  0.74108309  0.27299015  1
  O2-  O311  1  0.07279034  0.73686238  0.77147930  1
  O2-  O312  1  0.40600529  0.06868344  0.26285241  1
  O2-  O313  1  0.40463042  0.07170626  0.77079592  1
  O2-  O314  1  0.40221584  0.40235494  0.26897680  1
  O2-  O315  1  0.40129701  0.39912709  0.76862707  1
  O2-  O316  1  0.40249838  0.73442122  0.26259461  1
  O2-  O317  1  0.40358229  0.73820388  0.77191790  1
  O2-  O318  1  0.73424596  0.07125225  0.26682274  1
  O2-  O319  1  0.73974525  0.07542264  0.77383809  1
  O2-  O320  1  0.73737992  0.40620279  0.27121174  1
  O2-  O321  1  0.73979861  0.40637372  0.77414969  1
  O2-  O322  1  0.74169956  0.74184146  0.26987674  1
  O2-  O323  1  0.73837324  0.73962494  0.77016023  1
  O2-  O324  1  0.24166387  0.09422689  0.22869454  1
  O2-  O325  1  0.23916670  0.09598458  0.72972464  1
  O2-  O326  1  0.23435952  0.43258767  0.23555795  1
  O2-  O327  1  0.23871777  0.42709067  0.72647773  1
  O2-  O328  1  0.23977628  0.76248586  0.22805612  1
  O2-  O329  1  0.23516300  0.76685234  0.72969160  1
  O2-  O330  1  0.57263166  0.09474567  0.22551391  1
  O2-  O331  1  0.57129001  0.09780412  0.73177169  1
  O2-  O332  1  0.57388539  0.42429976  0.23089375  1
  O2-  O333  1  0.56925220  0.42632475  0.73220897  1
  O2-  O334  1  0.57344390  0.75811266  0.22920155  1
  O2-  O335  1  0.56907868  0.75892850  0.73046451  1
  O2-  O336  1  0.90449196  0.09198679  0.22617596  1
  O2-  O337  1  0.90455548  0.09585916  0.72951365  1
  O2-  O338  1  0.90362707  0.42611873  0.22803761  1
  O2-  O339  1  0.90221112  0.42735254  0.72484954  1
  O2-  O340  1  0.90515057  0.76267724  0.23463942  1
  O2-  O341  1  0.90783783  0.76042215  0.73205754  1
  O2-  O342  1  0.26139299  0.26262257  0.02592273  1
  O2-  O343  1  0.26008774  0.25713063  0.52013812  1
  O2-  O344  1  0.26377187  0.59497379  0.01656764  1
  O2-  O345  1  0.26406314  0.59659046  0.52225120  1
  O2-  O346  1  0.26143118  0.93008825  0.01944705  1
  O2-  O347  1  0.26426835  0.92658077  0.52029307  1
  O2-  O348  1  0.59593838  0.26262258  0.01835797  1
  O2-  O349  1  0.59730352  0.26299763  0.51998529  1
  O2-  O350  1  0.59739631  0.59748682  0.01554570  1
  O2-  O351  1  0.59258809  0.59285078  0.52466609  1
  O2-  O352  1  0.59658762  0.92762690  0.01933326  1
  O2-  O353  1  0.59529793  0.93002100  0.52173712  1
  O2-  O354  1  0.92747715  0.26219581  0.02209841  1
  O2-  O355  1  0.92514820  0.26192926  0.52073231  1
  O2-  O356  1  0.92683492  0.59086762  0.01671321  1
  O2-  O357  1  0.93130325  0.59505804  0.52014092  1
  O2-  O358  1  0.92842966  0.92880222  0.02009457  1
  O2-  O359  1  0.92769718  0.92840422  0.51983495  1
