# generated using pymatgen
data_Sr7Ca15Pr50Mn72O216
_symmetry_space_group_name_H-M   'P 1'
_cell_length_a   16.55860889
_cell_length_b   16.60497102
_cell_length_c   15.59405438
_cell_angle_alpha   90.00425113
_cell_angle_beta   89.99438182
_cell_angle_gamma   90.00385460
_symmetry_Int_Tables_number   1
_chemical_formula_structural   Sr7Ca15Pr50Mn72O216
_chemical_formula_sum   'Sr7 Ca15 Pr50 Mn72 O216'
_cell_volume   4287.66662181
_cell_formula_units_Z   1
loop_
 _symmetry_equiv_pos_site_id
 _symmetry_equiv_pos_as_xyz
  1  'x, y, z'
loop_
 _atom_type_symbol
 _atom_type_oxidation_number
  Sr2+  2.0
  Ca2+  2.0
  Pr3+  3.0
  Mn3.30+  3.3
  O2-  -2.0
loop_
 _atom_site_type_symbol
 _atom_site_label
 _atom_site_symmetry_multiplicity
 _atom_site_fract_x
 _atom_site_fract_y
 _atom_site_fract_z
 _atom_site_occupancy
  Sr2+  Sr0  1  0.83182394  0.49132817  0.37332077  1
  Sr2+  Sr1  1  -0.00234534  0.67517813  0.12562651  1
  Sr2+  Sr2  1  0.32947742  0.01180505  0.62259742  1
  Sr2+  Sr3  1  0.83108943  0.48946859  0.87635987  1
  Sr2+  Sr4  1  0.83695248  0.82427780  0.87402326  1
  Sr2+  Sr5  1  0.50204482  0.51201789  0.62510653  1
  Sr2+  Sr6  1  0.83768059  0.84014955  0.12570715  1
  Ca2+  Ca7  1  0.67100894  0.31980364  0.87576821  1
  Ca2+  Ca8  1  0.83733804  0.51544520  0.12510608  1
  Ca2+  Ca9  1  0.16835250  0.17780379  0.62364821  1
  Ca2+  Ca10  1  1.00153314  0.98458353  0.87334286  1
  Ca2+  Ca11  1  0.16828151  0.51669589  0.12497199  1
  Ca2+  Ca12  1  0.82914246  0.15193530  0.37494044  1
  Ca2+  Ca13  1  0.66532565  0.01511360  0.12427076  1
  Ca2+  Ca14  1  0.17000574  0.85083832  0.62462040  1
  Ca2+  Ca15  1  0.83069059  0.81764803  0.37502450  1
  Ca2+  Ca16  1  0.83390672  0.51361602  0.62446495  1
  Ca2+  Ca17  1  0.33790871  0.98649283  0.37747191  1
  Ca2+  Ca18  1  0.33620156  0.31901255  0.37525827  1
  Ca2+  Ca19  1  -0.00058903  0.01314910  0.62629678  1
  Ca2+  Ca20  1  0.50487816  0.18130587  0.12498783  1
  Ca2+  Ca21  1  0.66750241  0.67735284  0.62548329  1
  Pr3+  Pr22  1  0.50856449  0.84846833  0.12515327  1
  Pr3+  Pr23  1  0.66356970  0.01255583  0.62620252  1
  Pr3+  Pr24  1  0.16128897  0.48673519  0.37330879  1
  Pr3+  Pr25  1  0.32995694  0.34190063  0.62301270  1
  Pr3+  Pr26  1  -0.00275690  0.67822193  0.62386752  1
  Pr3+  Pr27  1  0.16108929  0.82337489  0.87256761  1
  Pr3+  Pr28  1  0.83624076  0.17757942  0.62263019  1
  Pr3+  Pr29  1  -0.00612854  0.34759451  0.12505857  1
  Pr3+  Pr30  1  0.16717306  0.82401089  0.37768759  1
  Pr3+  Pr31  1  0.33460179  0.98773048  0.87358136  1
  Pr3+  Pr32  1  0.67106929  0.98668496  0.87568477  1
  Pr3+  Pr33  1  0.33671771  0.65333663  0.87417029  1
  Pr3+  Pr34  1  0.15984932  0.48644924  0.87653830  1
  Pr3+  Pr35  1  0.99762746  0.98883882  0.37753651  1
  Pr3+  Pr36  1  0.83122962  0.15485559  0.87464097  1
  Pr3+  Pr37  1  0.50408489  0.84529747  0.62492292  1
  Pr3+  Pr38  1  0.32921376  0.68297123  0.62415992  1
  Pr3+  Pr39  1  0.83719749  0.84626330  0.62380917  1
  Pr3+  Pr40  1  0.49880808  0.82002650  0.87412257  1
  Pr3+  Pr41  1  0.32993238  0.34758000  0.12698400  1
  Pr3+  Pr42  1  0.50276175  0.51303869  0.12532350  1
  Pr3+  Pr43  1  -0.00558948  0.00735571  0.12385157  1
  Pr3+  Pr44  1  0.32869254  0.68014160  0.12568592  1
  Pr3+  Pr45  1  0.49772866  0.82141104  0.37616290  1
  Pr3+  Pr46  1  -0.00402203  0.34620908  0.62424351  1
  Pr3+  Pr47  1  0.33362540  0.32060714  0.87514843  1
  Pr3+  Pr48  1  0.99973568  0.65516446  0.87691356  1
  Pr3+  Pr49  1  0.99947045  0.31982202  0.37518950  1
  Pr3+  Pr50  1  0.16619605  0.84546823  0.12682723  1
  Pr3+  Pr51  1  0.49380584  0.15264700  0.37321492  1
  Pr3+  Pr52  1  0.49691219  0.48417962  0.37591084  1
  Pr3+  Pr53  1  0.67164100  0.65422820  0.37679848  1
  Pr3+  Pr54  1  0.16775869  0.15481808  0.37675009  1
  Pr3+  Pr55  1  0.50043410  0.48647555  0.87453259  1
  Pr3+  Pr56  1  0.83415537  0.17545309  0.12709469  1
  Pr3+  Pr57  1  0.67139561  0.31752416  0.37424406  1
  Pr3+  Pr58  1  0.17066295  0.51198817  0.62462932  1
  Pr3+  Pr59  1  0.67034007  0.67716571  0.12527831  1
  Pr3+  Pr60  1  0.67354564  0.65530454  0.87305302  1
  Pr3+  Pr61  1  0.67411020  0.98611364  0.37502359  1
  Pr3+  Pr62  1  0.16710279  0.17820520  0.12598390  1
  Pr3+  Pr63  1  0.49827710  0.15571944  0.87692372  1
  Pr3+  Pr64  1  0.50123942  0.17914365  0.62502601  1
  Pr3+  Pr65  1  0.99848307  0.65561539  0.37286919  1
  Pr3+  Pr66  1  0.33774056  0.65372546  0.37578647  1
  Pr3+  Pr67  1  0.66478564  0.34596716  0.12380599  1
  Pr3+  Pr68  1  0.15942483  0.14971266  0.87315397  1
  Pr3+  Pr69  1  0.66329889  0.34732174  0.62634369  1
  Pr3+  Pr70  1  0.33191493  0.01409024  0.12742157  1
  Pr3+  Pr71  1  1.00108950  0.31971805  0.87432434  1
  Mn3.30+  Mn72  1  0.16495444  -0.00043681  0.00068661  1
  Mn3.30+  Mn73  1  0.16733126  0.00102414  0.50036223  1
  Mn3.30+  Mn74  1  0.16522554  0.33374145  0.00256662  1
  Mn3.30+  Mn75  1  0.16662240  0.33137136  0.49828129  1
  Mn3.30+  Mn76  1  0.16744957  0.66704105  0.00084605  1
  Mn3.30+  Mn77  1  0.16667796  0.66815509  0.49965313  1
  Mn3.30+  Mn78  1  0.50172453  0.00201730  0.00111219  1
  Mn3.30+  Mn79  1  0.49976951  0.00038003  0.49955668  1
  Mn3.30+  Mn80  1  0.50075014  0.33234316  -0.00001389  1
  Mn3.30+  Mn81  1  0.49934768  0.33275453  0.49918882  1
  Mn3.30+  Mn82  1  0.50061966  0.66649862  -0.00000268  1
  Mn3.30+  Mn83  1  0.50260391  0.66627577  0.50195230  1
  Mn3.30+  Mn84  1  0.83291553  -0.00141447  0.00000449  1
  Mn3.30+  Mn85  1  0.83459526  -0.00008677  0.50063930  1
  Mn3.30+  Mn86  1  0.83106464  0.33342308  -0.00009888  1
  Mn3.30+  Mn87  1  0.83180639  0.33411151  0.49947945  1
  Mn3.30+  Mn88  1  0.83487565  0.66644741  -0.00055025  1
  Mn3.30+  Mn89  1  0.83181848  0.66614554  0.50198247  1
  Mn3.30+  Mn90  1  -0.00129773  0.16474851  0.25288670  1
  Mn3.30+  Mn91  1  0.00041646  0.16381682  0.74671917  1
  Mn3.30+  Mn92  1  -0.00140117  0.49978329  0.24859053  1
  Mn3.30+  Mn93  1  -0.00224722  0.49989237  0.74906811  1
  Mn3.30+  Mn94  1  -0.00171641  0.83300291  0.25358036  1
  Mn3.30+  Mn95  1  0.00220077  0.83524250  0.74627720  1
  Mn3.30+  Mn96  1  0.33503724  0.16769441  0.24937284  1
  Mn3.30+  Mn97  1  0.32978251  0.16605242  0.74972277  1
  Mn3.30+  Mn98  1  0.33148607  0.49929124  0.25075197  1
  Mn3.30+  Mn99  1  0.33272167  0.49933086  0.74958348  1
  Mn3.30+  Mn100  1  0.33602496  0.83556680  0.25003845  1
  Mn3.30+  Mn101  1  0.33130269  0.83484661  0.74951154  1
  Mn3.30+  Mn102  1  0.66515215  0.16446339  0.24879126  1
  Mn3.30+  Mn103  1  0.66699266  0.16826904  0.75136348  1
  Mn3.30+  Mn104  1  0.66765281  0.49965612  0.24945537  1
  Mn3.30+  Mn105  1  0.66810531  0.50027059  0.74917345  1
  Mn3.30+  Mn106  1  0.66908281  0.83478671  0.24954459  1
  Mn3.30+  Mn107  1  0.66879927  0.83191708  0.74901584  1
  Mn3.30+  Mn108  1  0.16746388  0.00040769  0.25329510  1
  Mn3.30+  Mn109  1  0.16481844  0.00013835  0.74596295  1
  Mn3.30+  Mn110  1  0.16673505  0.33410881  0.25022598  1
  Mn3.30+  Mn111  1  0.16514833  0.33079717  0.74849790  1
  Mn3.30+  Mn112  1  0.16739403  0.66715449  0.25035562  1
  Mn3.30+  Mn113  1  0.16675994  0.66791286  0.74934157  1
  Mn3.30+  Mn114  1  0.50197431  0.00151155  0.24933263  1
  Mn3.30+  Mn115  1  0.49954490  0.00070397  0.75016146  1
  Mn3.30+  Mn116  1  0.49914732  0.33160304  0.24914610  1
  Mn3.30+  Mn117  1  0.50090753  0.33345640  0.75212386  1
  Mn3.30+  Mn118  1  0.50066360  0.66674856  0.25006320  1
  Mn3.30+  Mn119  1  0.50265991  0.66583381  0.74844771  1
  Mn3.30+  Mn120  1  0.83120661  -0.00157518  0.24977820  1
  Mn3.30+  Mn121  1  0.83611559  -0.00014659  0.74969349  1
  Mn3.30+  Mn122  1  0.83197289  0.33247915  0.25067091  1
  Mn3.30+  Mn123  1  0.83116081  0.33489718  0.74970840  1
  Mn3.30+  Mn124  1  0.83389875  0.66671505  0.25096608  1
  Mn3.30+  Mn125  1  0.83294399  0.66586946  0.74742883  1
  Mn3.30+  Mn126  1  -0.00100986  0.16418101  -0.00016683  1
  Mn3.30+  Mn127  1  0.00005920  0.16499283  0.50042063  1
  Mn3.30+  Mn128  1  -0.00192186  0.49972950  0.00148390  1
  Mn3.30+  Mn129  1  -0.00166190  0.49980392  0.49955488  1
  Mn3.30+  Mn130  1  0.00008132  0.83304797  -0.00097111  1
  Mn3.30+  Mn131  1  0.00060786  0.83468616  0.50091670  1
  Mn3.30+  Mn132  1  0.33304306  0.16704006  0.00121744  1
  Mn3.30+  Mn133  1  0.33203466  0.16636431  0.49925946  1
  Mn3.30+  Mn134  1  0.33132700  0.50021230  0.00030747  1
  Mn3.30+  Mn135  1  0.33322755  0.49849596  0.49975152  1
  Mn3.30+  Mn136  1  0.33435046  0.83447321  0.00072284  1
  Mn3.30+  Mn137  1  0.33254796  0.83630799  0.50011346  1
  Mn3.30+  Mn138  1  0.66550844  0.16705441  0.00086496  1
  Mn3.30+  Mn139  1  0.66698648  0.16583539  0.49903546  1
  Mn3.30+  Mn140  1  0.66876702  0.49943041  0.00053994  1
  Mn3.30+  Mn141  1  0.66722567  0.50067309  0.50165654  1
  Mn3.30+  Mn142  1  0.66927219  0.83454531  0.00078296  1
  Mn3.30+  Mn143  1  0.66896067  0.83204109  0.50050648  1
  O2-  O144  1  0.02426700  0.15669390  0.12820176  1
  O2-  O145  1  0.02669909  0.16056991  0.62345007  1
  O2-  O146  1  0.02682811  0.49441735  0.12590631  1
  O2-  O147  1  0.02723804  0.49566513  0.62381237  1
  O2-  O148  1  0.02246569  0.83561475  0.12909934  1
  O2-  O149  1  0.02966775  0.82360902  0.62216967  1
  O2-  O150  1  0.36058717  0.16083741  0.12490174  1
  O2-  O151  1  0.35734760  0.16850371  0.62661603  1
  O2-  O152  1  0.35960754  0.49559215  0.12698823  1
  O2-  O153  1  0.35189260  0.49072309  0.62625306  1
  O2-  O154  1  0.36313482  0.82799561  0.12501642  1
  O2-  O155  1  0.35949407  0.82981701  0.62515102  1
  O2-  O156  1  0.69160937  0.16019006  0.12498905  1
  O2-  O157  1  0.69106120  0.16095914  0.62646628  1
  O2-  O158  1  0.69273982  0.49382661  0.12526244  1
  O2-  O159  1  0.69215104  0.49136216  0.62493723  1
  O2-  O160  1  0.68730693  0.82527982  0.12513634  1
  O2-  O161  1  0.69184259  0.82708926  0.62465276  1
  O2-  O162  1  0.13838800  0.32461286  0.12594415  1
  O2-  O163  1  0.14105701  0.32557295  0.62191017  1
  O2-  O164  1  0.14905790  0.66458421  0.12499991  1
  O2-  O165  1  0.14148623  0.65805232  0.62331450  1
  O2-  O166  1  0.13958100  0.99574198  0.12936220  1
  O2-  O167  1  0.14097384  0.99417141  0.62254458  1
  O2-  O168  1  0.47412306  0.32963181  0.12365221  1
  O2-  O169  1  0.47495139  0.32769964  0.62639145  1
  O2-  O170  1  0.47212080  0.66131123  0.12492053  1
  O2-  O171  1  0.47302595  0.66724757  0.62540574  1
  O2-  O172  1  0.47409569  0.99311656  0.12457034  1
  O2-  O173  1  0.48058502  0.99464799  0.62654754  1
  O2-  O174  1  0.80767317  0.32159119  0.12701086  1
  O2-  O175  1  0.80643794  0.32306690  0.62424483  1
  O2-  O176  1  0.81442283  0.66333270  0.12637721  1
  O2-  O177  1  0.80977687  0.66058459  0.62479695  1
  O2-  O178  1  0.80930544  0.99736925  0.12509983  1
  O2-  O179  1  0.80672415  0.99570278  0.62517673  1
  O2-  O180  1  0.31089813  0.17537424  0.37282046  1
  O2-  O181  1  0.30398820  0.17239695  0.87625116  1
  O2-  O182  1  0.30550461  0.50739134  0.37442998  1
  O2-  O183  1  0.30420585  0.50524846  0.87301914  1
  O2-  O184  1  0.31234986  0.83871666  0.37410201  1
  O2-  O185  1  0.30684430  0.83885749  0.87600799  1
  O2-  O186  1  0.63866412  0.16985788  0.37336960  1
  O2-  O187  1  0.64194763  0.17320750  0.87536315  1
  O2-  O188  1  0.64058274  0.50593721  0.37392765  1
  O2-  O189  1  0.64227717  0.50923498  0.87604097  1
  O2-  O190  1  0.64115519  0.83884195  0.37455296  1
  O2-  O191  1  0.64242714  0.83805477  0.87553413  1
  O2-  O192  1  0.97083523  0.17180955  0.37574090  1
  O2-  O193  1  0.97524210  0.17356475  0.87223385  1
  O2-  O194  1  0.98165497  0.50395999  0.37531075  1
  O2-  O195  1  0.98212810  0.50410814  0.87420801  1
  O2-  O196  1  0.97237563  0.84058145  0.37903486  1
  O2-  O197  1  0.98676662  0.83856098  0.86981272  1
  O2-  O198  1  0.19671584  0.00635088  0.37418022  1
  O2-  O199  1  0.19084998  0.00305224  0.87402262  1
  O2-  O200  1  0.19368709  0.34020336  0.37308000  1
  O2-  O201  1  0.18902809  0.33908409  0.87838928  1
  O2-  O202  1  0.19483159  0.67409888  0.37630468  1
  O2-  O203  1  0.19388107  0.67481687  0.87526287  1
  O2-  O204  1  0.52899026  0.00496691  0.37356546  1
  O2-  O205  1  0.52549593  0.00652781  0.87533705  1
  O2-  O206  1  0.52643261  0.33689680  0.37359746  1
  O2-  O207  1  0.52717046  0.33845651  0.87675534  1
  O2-  O208  1  0.52615402  0.67256376  0.37554903  1
  O2-  O209  1  0.52722018  0.67145792  0.87458567  1
  O2-  O210  1  0.85395791  0.00848073  0.37660942  1
  O2-  O211  1  0.85913758  0.00730840  0.87230830  1
  O2-  O212  1  0.85642669  0.33811286  0.37470715  1
  O2-  O213  1  0.85863937  0.33374424  0.87354843  1
  O2-  O214  1  0.85360529  0.67043582  0.37735153  1
  O2-  O215  1  0.85516136  0.66774549  0.87120187  1
  O2-  O216  1  0.23548019  0.09423251  0.02099968  1
  O2-  O217  1  0.23483690  0.09920643  0.51710513  1
  O2-  O218  1  0.23666959  0.43019240  0.02281808  1
  O2-  O219  1  0.23530591  0.42616557  0.51967722  1
  O2-  O220  1  0.24093839  0.76314052  0.02291695  1
  O2-  O221  1  0.23761267  0.76144290  0.52122650  1
  O2-  O222  1  0.56905469  0.09844246  0.01761584  1
  O2-  O223  1  0.57049699  0.09459617  0.52065290  1
  O2-  O224  1  0.57056367  0.42998743  0.02053050  1
  O2-  O225  1  0.57275635  0.42741471  0.51644374  1
  O2-  O226  1  0.57207535  0.76186891  0.01868863  1
  O2-  O227  1  0.56951290  0.76425450  0.51723038  1
  O2-  O228  1  0.90385027  0.09401982  0.02026782  1
  O2-  O229  1  0.90549842  0.09306897  0.51975531  1
  O2-  O230  1  0.90242353  0.42422560  0.02378223  1
  O2-  O231  1  0.90463658  0.42554101  0.52374394  1
  O2-  O232  1  0.91167459  0.75861825  0.01114227  1
  O2-  O233  1  0.90702660  0.75986276  0.52235353  1
  O2-  O234  1  0.25867725  0.26110632  0.22624561  1
  O2-  O235  1  0.26374474  0.26388287  0.73402697  1
  O2-  O236  1  0.26534800  0.59704827  0.23324133  1
  O2-  O237  1  0.26169353  0.59670403  0.72926729  1
  O2-  O238  1  0.26012822  0.92700532  0.22642524  1
  O2-  O239  1  0.26106375  0.93089938  0.73504864  1
  O2-  O240  1  0.59833011  0.26210804  0.23064502  1
  O2-  O241  1  0.59286839  0.25839408  0.72770020  1
  O2-  O242  1  0.59202574  0.59476294  0.22732459  1
  O2-  O243  1  0.59767619  0.59798879  0.73127258  1
  O2-  O244  1  0.59757527  0.93086801  0.22784803  1
  O2-  O245  1  0.59648854  0.92534979  0.73141675  1
  O2-  O246  1  0.92844599  0.25967685  0.22974829  1
  O2-  O247  1  0.92812073  0.26063797  0.72773314  1
  O2-  O248  1  0.92686296  0.59126486  0.23756816  1
  O2-  O249  1  0.93132628  0.59594083  0.73181914  1
  O2-  O250  1  0.93008629  0.93071619  0.23616952  1
  O2-  O251  1  0.92876810  0.92600776  0.72468427  1
  O2-  O252  1  0.09311187  0.23789500  0.27201336  1
  O2-  O253  1  0.09305179  0.23858265  0.77153032  1
  O2-  O254  1  0.09356088  0.57486882  0.27105723  1
  O2-  O255  1  0.09768862  0.57236771  0.76980158  1
  O2-  O256  1  0.09496246  0.90669009  0.27396167  1
  O2-  O257  1  0.09835083  0.90387409  0.76459272  1
  O2-  O258  1  0.42895342  0.23854504  0.26856557  1
  O2-  O259  1  0.42654333  0.23925670  0.77236625  1
  O2-  O260  1  0.42755349  0.56977025  0.27197925  1
  O2-  O261  1  0.42837330  0.57394560  0.77284065  1
  O2-  O262  1  0.43327496  0.90409772  0.26747664  1
  O2-  O263  1  0.42737087  0.90607649  0.77217587  1
  O2-  O264  1  0.76146525  0.23501961  0.27149370  1
  O2-  O265  1  0.76265191  0.23681462  0.76833462  1
  O2-  O266  1  0.75489239  0.57575961  0.26693570  1
  O2-  O267  1  0.75875078  0.57262053  0.76796943  1
  O2-  O268  1  0.76246860  0.90457859  0.27462677  1
  O2-  O269  1  0.76007612  0.90865552  0.76648142  1
  O2-  O270  1  0.07416537  0.07400292  0.47457489  1
  O2-  O271  1  0.06948512  0.06933681  0.97875356  1
  O2-  O272  1  0.07213564  0.40434286  0.47925563  1
  O2-  O273  1  0.06904379  0.40388265  0.98069765  1
  O2-  O274  1  0.07215227  0.73922855  0.47608439  1
  O2-  O275  1  0.07692518  0.74006917  0.97889073  1
  O2-  O276  1  0.40452465  0.07400122  0.47747133  1
  O2-  O277  1  0.40282486  0.07261310  0.97870042  1
  O2-  O278  1  0.40520851  0.40345640  0.47792257  1
  O2-  O279  1  0.40287045  0.40661958  0.97948001  1
  O2-  O280  1  0.40579204  0.73897838  0.48080392  1
  O2-  O281  1  0.40649836  0.73841301  0.97740293  1
  O2-  O282  1  0.73528088  0.06926054  0.48497725  1
  O2-  O283  1  0.73897273  0.07420388  0.97749657  1
  O2-  O284  1  0.73481688  0.40117596  0.48286789  1
  O2-  O285  1  0.73370493  0.40064524  0.98268525  1
  O2-  O286  1  0.73769589  0.73906562  0.48071620  1
  O2-  O287  1  0.73730848  0.73833914  0.98484735  1
  O2-  O288  1  0.09283351  0.24101242  0.47417379  1
  O2-  O289  1  0.09374245  0.23588806  0.98111771  1
  O2-  O290  1  0.09681278  0.57351037  0.47891136  1
  O2-  O291  1  0.09561252  0.57483510  0.97902079  1
  O2-  O292  1  0.09361233  0.90874408  0.47514946  1
  O2-  O293  1  0.09914498  0.90314434  0.98605825  1
  O2-  O294  1  0.42967746  0.23642794  0.48367079  1
  O2-  O295  1  0.42542159  0.24132031  0.97589794  1
  O2-  O296  1  0.42891661  0.57376712  0.47792109  1
  O2-  O297  1  0.42779379  0.57098045  0.97832383  1
  O2-  O298  1  0.43217482  0.90581393  0.48202620  1
  O2-  O299  1  0.42867492  0.90572965  0.97838396  1
  O2-  O300  1  0.76152891  0.23613408  0.47800314  1
  O2-  O301  1  0.76327409  0.23630362  0.98288921  1
  O2-  O302  1  0.75780234  0.57311998  0.48146381  1
  O2-  O303  1  0.75608413  0.57542423  0.98383018  1
  O2-  O304  1  0.76467432  0.90352136  0.48075072  1
  O2-  O305  1  0.75918082  0.90967476  0.97779600  1
  O2-  O306  1  0.07293518  0.07332419  0.27559997  1
  O2-  O307  1  0.06987436  0.06962737  0.77256059  1
  O2-  O308  1  0.07067203  0.40427810  0.27094109  1
  O2-  O309  1  0.07037870  0.40409764  0.76822589  1
  O2-  O310  1  0.07634810  0.74343642  0.27455483  1
  O2-  O311  1  0.07292582  0.73608953  0.76983273  1
  O2-  O312  1  0.40458947  0.06797606  0.27158261  1
  O2-  O313  1  0.40335756  0.07648128  0.77307632  1
  O2-  O314  1  0.40195384  0.40471388  0.27108246  1
  O2-  O315  1  0.40513213  0.40583122  0.77326934  1
  O2-  O316  1  0.40711426  0.73775995  0.27126383  1
  O2-  O317  1  0.40570001  0.73914495  0.77076570  1
  O2-  O318  1  0.73591188  0.07047920  0.26767164  1
  O2-  O319  1  0.73727919  0.07361791  0.77061747  1
  O2-  O320  1  0.73463657  0.40077817  0.26683592  1
  O2-  O321  1  0.73403069  0.40072261  0.76772354  1
  O2-  O322  1  0.73659718  0.73809057  0.26675684  1
  O2-  O323  1  0.73841295  0.73914297  0.76706527  1
  O2-  O324  1  0.23900096  0.09580138  0.22873877  1
  O2-  O325  1  0.23236438  0.09905592  0.73301897  1
  O2-  O326  1  0.23662367  0.43190075  0.22632264  1
  O2-  O327  1  0.23545581  0.42574261  0.73069608  1
  O2-  O328  1  0.24168909  0.76300707  0.23039529  1
  O2-  O329  1  0.23766046  0.76196168  0.72749160  1
  O2-  O330  1  0.56664165  0.09850831  0.22999044  1
  O2-  O331  1  0.57271931  0.09533876  0.73117858  1
  O2-  O332  1  0.56974799  0.42826777  0.22998189  1
  O2-  O333  1  0.57314477  0.42857443  0.73376892  1
  O2-  O334  1  0.57321495  0.76277629  0.23056288  1
  O2-  O335  1  0.56959271  0.76346294  0.73331860  1
  O2-  O336  1  0.90580427  0.09105832  0.22969028  1
  O2-  O337  1  0.90331201  0.09669945  0.72913978  1
  O2-  O338  1  0.90536406  0.42529116  0.22640674  1
  O2-  O339  1  0.90393954  0.42623527  0.72553560  1
  O2-  O340  1  0.90965271  0.75881736  0.24013696  1
  O2-  O341  1  0.90899357  0.76034106  0.72636122  1
  O2-  O342  1  0.26111346  0.26211540  0.02270002  1
  O2-  O343  1  0.26157488  0.26188313  0.51688234  1
  O2-  O344  1  0.26453298  0.59775297  0.01685550  1
  O2-  O345  1  0.26204334  0.59553158  0.52072473  1
  O2-  O346  1  0.26233710  0.92996071  0.02235703  1
  O2-  O347  1  0.25881467  0.92684839  0.51495835  1
  O2-  O348  1  0.59552095  0.26037372  0.02132640  1
  O2-  O349  1  0.59435846  0.26068301  0.52067133  1
  O2-  O350  1  0.59287347  0.59424388  0.02326010  1
  O2-  O351  1  0.59731220  0.59885929  0.51860516  1
  O2-  O352  1  0.59642704  0.92898907  0.02007084  1
  O2-  O353  1  0.59857229  0.92686495  0.52036353  1
  O2-  O354  1  0.92845627  0.25950609  0.02029390  1
  O2-  O355  1  0.92815738  0.26106461  0.52065911  1
  O2-  O356  1  0.92797426  0.59110222  0.01384081  1
  O2-  O357  1  0.92966122  0.59639983  0.51592252  1
  O2-  O358  1  0.92899444  0.92862703  0.01464984  1
  O2-  O359  1  0.93000494  0.92913427  0.52410361  1
