# generated using pymatgen
data_Sr7Ca15Pr50Mn72O216
_symmetry_space_group_name_H-M   'P 1'
_cell_length_a   16.55924596
_cell_length_b   16.60569981
_cell_length_c   15.59315894
_cell_angle_alpha   90.00263401
_cell_angle_beta   90.00071670
_cell_angle_gamma   90.00704800
_symmetry_Int_Tables_number   1
_chemical_formula_structural   Sr7Ca15Pr50Mn72O216
_chemical_formula_sum   'Sr7 Ca15 Pr50 Mn72 O216'
_cell_volume   4287.77355306
_cell_formula_units_Z   1
loop_
 _symmetry_equiv_pos_site_id
 _symmetry_equiv_pos_as_xyz
  1  'x, y, z'
loop_
 _atom_type_symbol
 _atom_type_oxidation_number
  Sr2+  2.0
  Ca2+  2.0
  Pr3+  3.0
  Mn3.30+  3.3
  O2-  -2.0
loop_
 _atom_site_type_symbol
 _atom_site_label
 _atom_site_symmetry_multiplicity
 _atom_site_fract_x
 _atom_site_fract_y
 _atom_site_fract_z
 _atom_site_occupancy
  Sr2+  Sr0  1  0.33177643  0.67775198  0.62434090  1
  Sr2+  Sr1  1  0.33637723  0.99148359  0.37447928  1
  Sr2+  Sr2  1  0.50171960  0.17503558  0.62214844  1
  Sr2+  Sr3  1  0.50328715  0.17564204  0.12845624  1
  Sr2+  Sr4  1  0.66562125  0.99119064  0.37434015  1
  Sr2+  Sr5  1  0.67063328  0.99243666  0.87583721  1
  Sr2+  Sr6  1  0.83186062  0.17533854  0.12353488  1
  Ca2+  Ca7  1  0.83059850  0.15463242  0.87420987  1
  Ca2+  Ca8  1  0.66203112  0.34786885  0.12418691  1
  Ca2+  Ca9  1  0.16059374  0.48314500  0.87362963  1
  Ca2+  Ca10  1  0.33251490  0.01614596  0.12689151  1
  Ca2+  Ca11  1  0.49678117  0.15013978  0.37515675  1
  Ca2+  Ca12  1  0.50390205  0.51325165  0.12382802  1
  Ca2+  Ca13  1  0.83470265  0.17877000  0.62791746  1
  Ca2+  Ca14  1  0.82958848  0.82022803  0.87389549  1
  Ca2+  Ca15  1  -0.00403904  0.68231923  0.62767364  1
  Ca2+  Ca16  1  0.32932407  0.34802316  0.62589194  1
  Ca2+  Ca17  1  0.16518711  0.81921966  0.37693151  1
  Ca2+  Ca18  1  1.00169587  0.31750576  0.87531648  1
  Ca2+  Ca19  1  0.82917059  0.81972213  0.37583938  1
  Ca2+  Ca20  1  1.00339452  0.65112156  0.87248765  1
  Ca2+  Ca21  1  0.50288910  0.84879657  0.62440597  1
  Pr3+  Pr22  1  0.49763491  0.82193289  0.87291251  1
  Pr3+  Pr23  1  0.66152080  0.68298472  0.62647678  1
  Pr3+  Pr24  1  0.17058632  0.84764356  0.12609903  1
  Pr3+  Pr25  1  0.83093751  0.15367486  0.37571799  1
  Pr3+  Pr26  1  0.66529191  0.01374149  0.12609964  1
  Pr3+  Pr27  1  0.66702043  0.32031864  0.37378183  1
  Pr3+  Pr28  1  0.16975271  0.51416427  0.62692750  1
  Pr3+  Pr29  1  -0.00364648  0.34514454  0.62744308  1
  Pr3+  Pr30  1  0.66991601  0.65741895  0.37492179  1
  Pr3+  Pr31  1  0.33601956  0.32112468  0.87325200  1
  Pr3+  Pr32  1  0.83638279  0.84626833  0.62570949  1
  Pr3+  Pr33  1  -0.00485275  0.01487410  0.62556623  1
  Pr3+  Pr34  1  0.67071131  0.31880373  0.87617299  1
  Pr3+  Pr35  1  -0.00308111  0.01363980  0.12489052  1
  Pr3+  Pr36  1  0.17373074  0.18113348  0.62545193  1
  Pr3+  Pr37  1  0.66548285  0.34311990  0.62527319  1
  Pr3+  Pr38  1  -0.00375363  0.67857696  0.12269069  1
  Pr3+  Pr39  1  0.16929951  0.51271139  0.12265269  1
  Pr3+  Pr40  1  0.67048443  0.65492662  0.87492709  1
  Pr3+  Pr41  1  0.99784128  0.98962667  0.87602635  1
  Pr3+  Pr42  1  0.49978288  0.15340423  0.87459599  1
  Pr3+  Pr43  1  0.33392512  0.65768216  0.37624974  1
  Pr3+  Pr44  1  -0.00376506  0.34416002  0.12270949  1
  Pr3+  Pr45  1  1.00631155  0.98258239  0.37446347  1
  Pr3+  Pr46  1  0.66416957  0.01285075  0.62447593  1
  Pr3+  Pr47  1  0.33992966  0.31886265  0.37638207  1
  Pr3+  Pr48  1  1.00113724  0.65642841  0.37653369  1
  Pr3+  Pr49  1  0.49771240  0.48659673  0.87562202  1
  Pr3+  Pr50  1  0.83555520  0.84646464  0.12502769  1
  Pr3+  Pr51  1  0.17235316  0.17839886  0.12444476  1
  Pr3+  Pr52  1  0.83319014  0.48694794  0.87529056  1
  Pr3+  Pr53  1  0.50236618  0.84740084  0.12537953  1
  Pr3+  Pr54  1  0.83893328  0.51611616  0.62687994  1
  Pr3+  Pr55  1  0.16320466  0.15356699  0.87480032  1
  Pr3+  Pr56  1  0.33242498  0.34532957  0.12455762  1
  Pr3+  Pr57  1  0.49688741  0.48966696  0.37420242  1
  Pr3+  Pr58  1  0.49618361  0.82571513  0.37763604  1
  Pr3+  Pr59  1  0.49916910  0.51019743  0.62593220  1
  Pr3+  Pr60  1  0.33445954  0.00955244  0.62370588  1
  Pr3+  Pr61  1  0.33165207  0.67798633  0.12434109  1
  Pr3+  Pr62  1  1.00185521  0.31927960  0.37506361  1
  Pr3+  Pr63  1  0.82880267  0.48757760  0.37500822  1
  Pr3+  Pr64  1  0.33373733  0.65214754  0.87290905  1
  Pr3+  Pr65  1  0.16110386  0.81899591  0.87431599  1
  Pr3+  Pr66  1  0.16496848  0.48837956  0.37592247  1
  Pr3+  Pr67  1  0.16730616  0.84256123  0.62401665  1
  Pr3+  Pr68  1  0.83429238  0.50975469  0.12327817  1
  Pr3+  Pr69  1  0.16532218  0.15184763  0.37514326  1
  Pr3+  Pr70  1  0.33771549  0.98839709  0.87565137  1
  Pr3+  Pr71  1  0.66338820  0.67942080  0.12332252  1
  Mn3.30+  Mn72  1  0.16838955  -0.00032731  0.00029423  1
  Mn3.30+  Mn73  1  0.16606825  -0.00226447  0.49987802  1
  Mn3.30+  Mn74  1  0.16466189  0.33389046  -0.00242592  1
  Mn3.30+  Mn75  1  0.16785744  0.33338256  0.50050825  1
  Mn3.30+  Mn76  1  0.16425483  0.66523286  -0.00205767  1
  Mn3.30+  Mn77  1  0.16468406  0.66792350  0.50082554  1
  Mn3.30+  Mn78  1  0.50049154  0.00051744  0.00089921  1
  Mn3.30+  Mn79  1  0.50051567  -0.00060386  0.49961018  1
  Mn3.30+  Mn80  1  0.50209420  0.33317818  0.00190241  1
  Mn3.30+  Mn81  1  0.49909859  0.33259860  0.50156728  1
  Mn3.30+  Mn82  1  0.49949509  0.66604660  -0.00079872  1
  Mn3.30+  Mn83  1  0.50042956  0.66906251  0.50173387  1
  Mn3.30+  Mn84  1  0.83279947  0.00095685  -0.00089225  1
  Mn3.30+  Mn85  1  0.83319727  -0.00083133  0.49863360  1
  Mn3.30+  Mn86  1  0.83316293  0.33115068  -0.00051906  1
  Mn3.30+  Mn87  1  0.83316801  0.33249572  0.50103091  1
  Mn3.30+  Mn88  1  0.83458066  0.66693138  -0.00289441  1
  Mn3.30+  Mn89  1  0.83429602  0.66877451  0.50168345  1
  Mn3.30+  Mn90  1  -0.00001263  0.16599653  0.24928816  1
  Mn3.30+  Mn91  1  -0.00171480  0.16768612  0.75114492  1
  Mn3.30+  Mn92  1  -0.00049425  0.49981327  0.24971399  1
  Mn3.30+  Mn93  1  0.00221873  0.50039048  0.75182586  1
  Mn3.30+  Mn94  1  0.00029803  0.83162663  0.25100258  1
  Mn3.30+  Mn95  1  -0.00234570  0.83154756  0.75177722  1
  Mn3.30+  Mn96  1  0.33648318  0.16619788  0.25005388  1
  Mn3.30+  Mn97  1  0.33361414  0.16756159  0.74878136  1
  Mn3.30+  Mn98  1  0.33486776  0.50067461  0.24820651  1
  Mn3.30+  Mn99  1  0.33004448  0.49872215  0.75094026  1
  Mn3.30+  Mn100  1  0.33206957  0.83520884  0.25089057  1
  Mn3.30+  Mn101  1  0.33257511  0.83278126  0.74843651  1
  Mn3.30+  Mn102  1  0.66535454  0.16799913  0.25089471  1
  Mn3.30+  Mn103  1  0.66958649  0.16662000  0.74889040  1
  Mn3.30+  Mn104  1  0.66405491  0.49989145  0.24848020  1
  Mn3.30+  Mn105  1  0.66806116  0.49956116  0.74995731  1
  Mn3.30+  Mn106  1  0.66820633  0.83375731  0.25139053  1
  Mn3.30+  Mn107  1  0.66777709  0.83546821  0.75130231  1
  Mn3.30+  Mn108  1  0.16889917  -0.00164421  0.25030975  1
  Mn3.30+  Mn109  1  0.16566869  -0.00121168  0.74979187  1
  Mn3.30+  Mn110  1  0.16725693  0.33323460  0.25010636  1
  Mn3.30+  Mn111  1  0.16484873  0.33424914  0.75103235  1
  Mn3.30+  Mn112  1  0.16585743  0.66786096  0.25004157  1
  Mn3.30+  Mn113  1  0.16324542  0.66532203  0.75067086  1
  Mn3.30+  Mn114  1  0.49869900  0.00081408  0.25032691  1
  Mn3.30+  Mn115  1  0.50207559  -0.00111766  0.74998403  1
  Mn3.30+  Mn116  1  0.50200010  0.33407869  0.24889393  1
  Mn3.30+  Mn117  1  0.49952884  0.33203508  0.74780627  1
  Mn3.30+  Mn118  1  0.50010460  0.66723651  0.24953944  1
  Mn3.30+  Mn119  1  0.49981026  0.66796108  0.74895956  1
  Mn3.30+  Mn120  1  0.83420870  -0.00126339  0.25255542  1
  Mn3.30+  Mn121  1  0.83231432  0.00175703  0.75009224  1
  Mn3.30+  Mn122  1  0.83153215  0.33276460  0.24754902  1
  Mn3.30+  Mn123  1  0.83504650  0.33102101  0.75175356  1
  Mn3.30+  Mn124  1  0.83287625  0.66706783  0.24924205  1
  Mn3.30+  Mn125  1  0.83614252  0.66838048  0.75192894  1
  Mn3.30+  Mn126  1  -0.00127669  0.16748384  -0.00191435  1
  Mn3.30+  Mn127  1  -0.00064232  0.16655292  0.50200179  1
  Mn3.30+  Mn128  1  0.00222052  0.49906466  -0.00293632  1
  Mn3.30+  Mn129  1  -0.00065946  0.50107790  0.50127781  1
  Mn3.30+  Mn130  1  -0.00169037  0.83196391  -0.00214380  1
  Mn3.30+  Mn131  1  -0.00081969  0.83134727  0.49951486  1
  Mn3.30+  Mn132  1  0.33444116  0.16686312  0.00072277  1
  Mn3.30+  Mn133  1  0.33569239  0.16710993  0.50085901  1
  Mn3.30+  Mn134  1  0.33301850  0.49919435  -0.00085263  1
  Mn3.30+  Mn135  1  0.33207749  0.49984399  0.50064321  1
  Mn3.30+  Mn136  1  0.33239496  0.83410640  0.00008875  1
  Mn3.30+  Mn137  1  0.33234536  0.83378359  0.50066304  1
  Mn3.30+  Mn138  1  0.66770550  0.16822350  0.00149974  1
  Mn3.30+  Mn139  1  0.66683754  0.16662171  0.49911161  1
  Mn3.30+  Mn140  1  0.66528056  0.49865002  0.00052238  1
  Mn3.30+  Mn141  1  0.66684444  0.50069171  0.50109400  1
  Mn3.30+  Mn142  1  0.66860043  0.83487815  -0.00185325  1
  Mn3.30+  Mn143  1  0.66757617  0.83469421  0.49957136  1
  O2-  O144  1  0.02802211  0.16256385  0.12316946  1
  O2-  O145  1  0.02938656  0.16248633  0.62497799  1
  O2-  O146  1  0.02580873  0.49231940  0.12268445  1
  O2-  O147  1  0.02622876  0.49086203  0.62640695  1
  O2-  O148  1  0.02620735  0.82680958  0.12286745  1
  O2-  O149  1  0.02342112  0.82859888  0.62522458  1
  O2-  O150  1  0.35141218  0.16526344  0.12272031  1
  O2-  O151  1  0.35190261  0.15819687  0.62602528  1
  O2-  O152  1  0.36097923  0.49466201  0.12353931  1
  O2-  O153  1  0.35503651  0.49432760  0.62501489  1
  O2-  O154  1  0.35856765  0.82339503  0.12342156  1
  O2-  O155  1  0.35832063  0.83178602  0.62688758  1
  O2-  O156  1  0.68316757  0.16139476  0.12695515  1
  O2-  O157  1  0.69171474  0.16394862  0.62308092  1
  O2-  O158  1  0.69088830  0.49566560  0.12456988  1
  O2-  O159  1  0.69450210  0.49224565  0.62654347  1
  O2-  O160  1  0.69153389  0.82760485  0.12483692  1
  O2-  O161  1  0.69251177  0.82999935  0.62562521  1
  O2-  O162  1  0.14092010  0.32653818  0.12380615  1
  O2-  O163  1  0.13990491  0.32765646  0.62507470  1
  O2-  O164  1  0.14088231  0.66097880  0.12345782  1
  O2-  O165  1  0.13884757  0.66213902  0.62790355  1
  O2-  O166  1  0.14059493  0.99572697  0.12535791  1
  O2-  O167  1  0.13895760  0.99220377  0.62517175  1
  O2-  O168  1  0.47429245  0.32838981  0.12474927  1
  O2-  O169  1  0.47253260  0.33165712  0.62521288  1
  O2-  O170  1  0.47501040  0.66052551  0.12187449  1
  O2-  O171  1  0.48037894  0.65741946  0.62529307  1
  O2-  O172  1  0.47538550  0.99465077  0.12387104  1
  O2-  O173  1  0.47883050  0.99519303  0.62627305  1
  O2-  O174  1  0.80683321  0.33369885  0.12539888  1
  O2-  O175  1  0.80947467  0.32645421  0.62651758  1
  O2-  O176  1  0.80752271  0.65860723  0.12155396  1
  O2-  O177  1  0.80659502  0.66248698  0.62715070  1
  O2-  O178  1  0.81082190  0.99304162  0.12752754  1
  O2-  O179  1  0.80855580  0.99191140  0.62289100  1
  O2-  O180  1  0.30848235  0.17221339  0.37718495  1
  O2-  O181  1  0.30790497  0.17155142  0.87385010  1
  O2-  O182  1  0.30885906  0.50687131  0.37449032  1
  O2-  O183  1  0.30462077  0.50361076  0.87590617  1
  O2-  O184  1  0.30757177  0.83541230  0.37377453  1
  O2-  O185  1  0.30586024  0.84156195  0.87592930  1
  O2-  O186  1  0.64058582  0.17301447  0.37502210  1
  O2-  O187  1  0.64344806  0.17103573  0.87554017  1
  O2-  O188  1  0.64144992  0.50816450  0.37455406  1
  O2-  O189  1  0.64211137  0.50529339  0.87416767  1
  O2-  O190  1  0.64115653  0.82930267  0.37458302  1
  O2-  O191  1  0.64083279  0.83524756  0.87518773  1
  O2-  O192  1  0.97604551  0.17196497  0.37722456  1
  O2-  O193  1  0.97448495  0.17028430  0.87488092  1
  O2-  O194  1  0.97263241  0.50738845  0.37642899  1
  O2-  O195  1  0.97476205  0.50823598  0.87467065  1
  O2-  O196  1  0.97164578  0.83609820  0.37535291  1
  O2-  O197  1  0.97146252  0.84356671  0.87662812  1
  O2-  O198  1  0.18631227  0.00543459  0.37502493  1
  O2-  O199  1  0.19323216  0.00446293  0.87474792  1
  O2-  O200  1  0.19386823  0.33976043  0.37574823  1
  O2-  O201  1  0.19282445  0.33737634  0.87459840  1
  O2-  O202  1  0.18959221  0.67089419  0.37214866  1
  O2-  O203  1  0.19149600  0.67323965  0.87555736  1
  O2-  O204  1  0.51572191  -0.00240585  0.37523373  1
  O2-  O205  1  0.51906000  0.00316876  0.87527823  1
  O2-  O206  1  0.52429994  0.34512607  0.37515173  1
  O2-  O207  1  0.52543039  0.33943779  0.87447764  1
  O2-  O208  1  0.52599617  0.67490631  0.37788279  1
  O2-  O209  1  0.52563435  0.67278573  0.87410044  1
  O2-  O210  1  0.86312004  0.00724617  0.37576513  1
  O2-  O211  1  0.85573660  0.01029604  0.87453241  1
  O2-  O212  1  0.85828369  0.34059893  0.37403255  1
  O2-  O213  1  0.86050903  0.34092590  0.87451238  1
  O2-  O214  1  0.85713309  0.67217711  0.37641600  1
  O2-  O215  1  0.86029837  0.67368084  0.87538009  1
  O2-  O216  1  0.23790437  0.09695630  0.01662139  1
  O2-  O217  1  0.23787866  0.09394420  0.51884453  1
  O2-  O218  1  0.23991661  0.42637811  0.02365708  1
  O2-  O219  1  0.23385931  0.42841228  0.51789377  1
  O2-  O220  1  0.23691939  0.76212229  0.01932386  1
  O2-  O221  1  0.23662873  0.76166812  0.51754702  1
  O2-  O222  1  0.57417870  0.09370760  0.01520086  1
  O2-  O223  1  0.57832708  0.08959711  0.51710166  1
  O2-  O224  1  0.56721287  0.43117835  0.01744434  1
  O2-  O225  1  0.57053868  0.42848961  0.52180748  1
  O2-  O226  1  0.57194922  0.76238438  0.01967251  1
  O2-  O227  1  0.57103061  0.76223547  0.52345225  1
  O2-  O228  1  0.91170308  0.08959076  0.01991301  1
  O2-  O229  1  0.90614953  0.09711217  0.52336007  1
  O2-  O230  1  0.90516206  0.42759622  0.01986664  1
  O2-  O231  1  0.90456871  0.42922779  0.52107018  1
  O2-  O232  1  0.90538478  0.75913165  0.02444973  1
  O2-  O233  1  0.90387690  0.76190282  0.52082281  1
  O2-  O234  1  0.26214953  0.26207104  0.23097826  1
  O2-  O235  1  0.26154190  0.26255773  0.72949829  1
  O2-  O236  1  0.26113930  0.59386904  0.22828042  1
  O2-  O237  1  0.25883869  0.59443129  0.73252312  1
  O2-  O238  1  0.26232676  0.92820516  0.22427315  1
  O2-  O239  1  0.26112233  0.92684704  0.72884080  1
  O2-  O240  1  0.59770970  0.27076918  0.23379559  1
  O2-  O241  1  0.59829658  0.26326438  0.73362052  1
  O2-  O242  1  0.59768488  0.59715994  0.23208169  1
  O2-  O243  1  0.59610700  0.59323042  0.73069056  1
  O2-  O244  1  0.59466698  0.92477284  0.22884931  1
  O2-  O245  1  0.59649378  0.92724114  0.73007481  1
  O2-  O246  1  0.93047552  0.26357662  0.23358278  1
  O2-  O247  1  0.93000118  0.26123813  0.72955719  1
  O2-  O248  1  0.92755085  0.59321073  0.22840718  1
  O2-  O249  1  0.92986512  0.59399183  0.72767699  1
  O2-  O250  1  0.93149969  0.92695160  0.22970071  1
  O2-  O251  1  0.92760379  0.93082538  0.73023370  1
  O2-  O252  1  0.09557526  0.23801582  0.27117017  1
  O2-  O253  1  0.09773427  0.23604462  0.76827861  1
  O2-  O254  1  0.09386647  0.57132375  0.26945222  1
  O2-  O255  1  0.09788451  0.56638894  0.76977494  1
  O2-  O256  1  0.09802518  0.90264860  0.27006535  1
  O2-  O257  1  0.09286580  0.90506714  0.77128622  1
  O2-  O258  1  0.43010078  0.24180476  0.27393692  1
  O2-  O259  1  0.42856339  0.24048988  0.77329170  1
  O2-  O260  1  0.42710370  0.57654136  0.27290969  1
  O2-  O261  1  0.42754295  0.57285928  0.77046818  1
  O2-  O262  1  0.43029436  0.90175872  0.26448115  1
  O2-  O263  1  0.42487943  0.90696987  0.77164266  1
  O2-  O264  1  0.76161437  0.24098173  0.27375099  1
  O2-  O265  1  0.76214875  0.23928950  0.77299384  1
  O2-  O266  1  0.76148035  0.57218575  0.26974904  1
  O2-  O267  1  0.76476319  0.57337215  0.77134173  1
  O2-  O268  1  0.76526438  0.90134804  0.26819244  1
  O2-  O269  1  0.76488120  0.90207844  0.76759807  1
  O2-  O270  1  0.07015028  0.07138463  0.48032121  1
  O2-  O271  1  0.07344913  0.07175266  0.97840001  1
  O2-  O272  1  0.07172085  0.40478775  0.47804559  1
  O2-  O273  1  0.06918548  0.40110567  0.97966814  1
  O2-  O274  1  0.06978938  0.73801022  0.48027626  1
  O2-  O275  1  0.06799929  0.73706276  0.97709855  1
  O2-  O276  1  0.40657357  0.07376987  0.48800259  1
  O2-  O277  1  0.40634124  0.07428137  0.97846777  1
  O2-  O278  1  0.40652193  0.40800342  0.47862304  1
  O2-  O279  1  0.40408901  0.40464714  0.97820807  1
  O2-  O280  1  0.40521502  0.74154754  0.47755602  1
  O2-  O281  1  0.40306992  0.73907268  0.97745382  1
  O2-  O282  1  0.74408704  0.07317758  0.47976205  1
  O2-  O283  1  0.74077505  0.07298451  0.99075536  1
  O2-  O284  1  0.73689052  0.40720107  0.47926270  1
  O2-  O285  1  0.74058551  0.40696544  0.97792901  1
  O2-  O286  1  0.73570544  0.73603245  0.48513688  1
  O2-  O287  1  0.73627951  0.73746782  0.98160552  1
  O2-  O288  1  0.09760007  0.23839419  0.47911591  1
  O2-  O289  1  0.09671211  0.23629573  0.98018766  1
  O2-  O290  1  0.09351689  0.57157281  0.47885260  1
  O2-  O291  1  0.09807463  0.56644791  0.98174372  1
  O2-  O292  1  0.09343236  0.90176477  0.47852798  1
  O2-  O293  1  0.09461454  0.90457826  0.98027486  1
  O2-  O294  1  0.43009198  0.24004201  0.47568801  1
  O2-  O295  1  0.42751155  0.24042201  0.97630076  1
  O2-  O296  1  0.42841211  0.57541458  0.48045345  1
  O2-  O297  1  0.42494733  0.57257165  0.97443743  1
  O2-  O298  1  0.42688491  0.90466784  0.48537675  1
  O2-  O299  1  0.42807883  0.90412782  0.97981470  1
  O2-  O300  1  0.76043025  0.24085983  0.47709108  1
  O2-  O301  1  0.76247462  0.23954824  0.97618966  1
  O2-  O302  1  0.76381862  0.57320354  0.48070861  1
  O2-  O303  1  0.76250352  0.57266793  0.97790456  1
  O2-  O304  1  0.76431035  0.90124391  0.48093669  1
  O2-  O305  1  0.76526283  0.90189202  0.98330962  1
  O2-  O306  1  0.07295810  0.07015126  0.26957121  1
  O2-  O307  1  0.07009824  0.07208874  0.77135222  1
  O2-  O308  1  0.07217051  0.40576539  0.27160976  1
  O2-  O309  1  0.06778987  0.40049736  0.77017558  1
  O2-  O310  1  0.06786762  0.73645435  0.26745361  1
  O2-  O311  1  0.07100967  0.73756671  0.77427709  1
  O2-  O312  1  0.40761240  0.07518180  0.26443444  1
  O2-  O313  1  0.40582148  0.07297428  0.76915717  1
  O2-  O314  1  0.40426241  0.40533030  0.27010897  1
  O2-  O315  1  0.40663499  0.40768612  0.77195191  1
  O2-  O316  1  0.40433686  0.74003729  0.27021447  1
  O2-  O317  1  0.40362519  0.74099028  0.77429111  1
  O2-  O318  1  0.74549020  0.07396349  0.26773219  1
  O2-  O319  1  0.73990624  0.07169661  0.76198932  1
  O2-  O320  1  0.73817363  0.40885520  0.27266981  1
  O2-  O321  1  0.73994838  0.40510066  0.77119149  1
  O2-  O322  1  0.73621366  0.73669333  0.26568606  1
  O2-  O323  1  0.73494611  0.73755010  0.76758701  1
  O2-  O324  1  0.23592921  0.09547921  0.23400633  1
  O2-  O325  1  0.23733152  0.09247901  0.73012989  1
  O2-  O326  1  0.23809903  0.42798664  0.22849551  1
  O2-  O327  1  0.23531967  0.42651951  0.72949909  1
  O2-  O328  1  0.23991412  0.76036567  0.22676029  1
  O2-  O329  1  0.23412522  0.76347900  0.73424215  1
  O2-  O330  1  0.57657124  0.08820404  0.23471206  1
  O2-  O331  1  0.57571345  0.09378779  0.73379031  1
  O2-  O332  1  0.56705875  0.43460743  0.23225490  1
  O2-  O333  1  0.57114448  0.42643892  0.72886351  1
  O2-  O334  1  0.57118358  0.76027989  0.22766034  1
  O2-  O335  1  0.57033964  0.76299226  0.72956770  1
  O2-  O336  1  0.91015535  0.09256721  0.23139973  1
  O2-  O337  1  0.90728096  0.09508483  0.72606372  1
  O2-  O338  1  0.90481552  0.42766380  0.22949346  1
  O2-  O339  1  0.90457741  0.42921374  0.72980294  1
  O2-  O340  1  0.90495719  0.75818930  0.22607914  1
  O2-  O341  1  0.90347188  0.76230894  0.73003298  1
  O2-  O342  1  0.26094110  0.26272431  0.01826618  1
  O2-  O343  1  0.26354292  0.26290707  0.52142896  1
  O2-  O344  1  0.26289838  0.59435955  0.02122549  1
  O2-  O345  1  0.25702045  0.59257366  0.51659873  1
  O2-  O346  1  0.26351888  0.92922663  0.02289669  1
  O2-  O347  1  0.25944565  0.92571761  0.52409454  1
  O2-  O348  1  0.59875364  0.26674238  0.01551810  1
  O2-  O349  1  0.59662595  0.26606800  0.51692352  1
  O2-  O350  1  0.59661305  0.59592899  0.01625514  1
  O2-  O351  1  0.59660748  0.59380907  0.52105542  1
  O2-  O352  1  0.59496115  0.92661326  0.02310785  1
  O2-  O353  1  0.59583269  0.92629974  0.51821453  1
  O2-  O354  1  0.92907340  0.26190930  0.02002098  1
  O2-  O355  1  0.93310355  0.26297143  0.51646697  1
  O2-  O356  1  0.92772533  0.59088997  0.02169278  1
  O2-  O357  1  0.92802448  0.59700187  0.52351142  1
  O2-  O358  1  0.92904970  0.92738472  0.02137429  1
  O2-  O359  1  0.93011786  0.92912891  0.52018975  1
