# generated using pymatgen
data_Sr7Ca15Pr50Mn72O216
_symmetry_space_group_name_H-M   'P 1'
_cell_length_a   16.55568752
_cell_length_b   16.60131014
_cell_length_c   15.59020814
_cell_angle_alpha   90.00295271
_cell_angle_beta   89.99164280
_cell_angle_gamma   89.99778648
_symmetry_Int_Tables_number   1
_chemical_formula_structural   Sr7Ca15Pr50Mn72O216
_chemical_formula_sum   'Sr7 Ca15 Pr50 Mn72 O216'
_cell_volume   4284.90790030
_cell_formula_units_Z   1
loop_
 _symmetry_equiv_pos_site_id
 _symmetry_equiv_pos_as_xyz
  1  'x, y, z'
loop_
 _atom_type_symbol
 _atom_type_oxidation_number
  Sr2+  2.0
  Ca2+  2.0
  Pr3+  3.0
  Mn3.30+  3.3
  O2-  -2.0
loop_
 _atom_site_type_symbol
 _atom_site_label
 _atom_site_symmetry_multiplicity
 _atom_site_fract_x
 _atom_site_fract_y
 _atom_site_fract_z
 _atom_site_occupancy
  Sr2+  Sr0  1  0.83824184  0.18061635  0.12367319  1
  Sr2+  Sr1  1  0.50018603  0.84479847  0.12493542  1
  Sr2+  Sr2  1  0.16498125  0.82445060  0.37576770  1
  Sr2+  Sr3  1  0.16904243  0.17642067  0.12475938  1
  Sr2+  Sr4  1  0.32932523  0.01176586  0.62400978  1
  Sr2+  Sr5  1  -0.00157335  0.00843422  0.62484395  1
  Sr2+  Sr6  1  0.49743874  0.15791964  0.87632213  1
  Ca2+  Ca7  1  0.83089488  0.15168625  0.87578708  1
  Ca2+  Ca8  1  0.00114398  0.34408058  0.12398799  1
  Ca2+  Ca9  1  0.83784611  0.51315926  0.62580607  1
  Ca2+  Ca10  1  0.16665157  0.15368130  0.37386908  1
  Ca2+  Ca11  1  0.16701981  0.15433747  0.87612454  1
  Ca2+  Ca12  1  0.83897081  0.85062276  0.62538035  1
  Ca2+  Ca13  1  0.66170358  0.34929925  0.12361821  1
  Ca2+  Ca14  1  0.33357211  0.31749950  0.87696636  1
  Ca2+  Ca15  1  0.66904008  0.98475991  0.37362331  1
  Ca2+  Ca16  1  0.50338693  0.51196056  0.12429230  1
  Ca2+  Ca17  1  0.33510553  0.31823977  0.37259408  1
  Ca2+  Ca18  1  0.16366397  0.48330984  0.87603950  1
  Ca2+  Ca19  1  0.16318068  0.82161134  0.87375127  1
  Ca2+  Ca20  1  0.32761148  0.68351399  0.62544490  1
  Ca2+  Ca21  1  0.32996235  0.01747351  0.12452486  1
  Pr3+  Pr22  1  0.17313355  0.84892196  0.12439757  1
  Pr3+  Pr23  1  0.83494000  0.50758800  0.12425513  1
  Pr3+  Pr24  1  0.66781018  0.65464356  0.37493505  1
  Pr3+  Pr25  1  0.16683166  0.50717272  0.12266618  1
  Pr3+  Pr26  1  0.50034526  0.51349541  0.62639530  1
  Pr3+  Pr27  1  0.66220754  0.01229094  0.12606113  1
  Pr3+  Pr28  1  1.00431814  0.65444782  0.37604125  1
  Pr3+  Pr29  1  0.66740889  0.99069261  0.87610676  1
  Pr3+  Pr30  1  0.83093889  0.48688153  0.37624424  1
  Pr3+  Pr31  1  -0.00197396  0.01426240  0.12544559  1
  Pr3+  Pr32  1  -0.00139926  0.34564696  0.62557308  1
  Pr3+  Pr33  1  0.49695477  0.82223602  0.37496794  1
  Pr3+  Pr34  1  0.33402448  0.99200854  0.87640173  1
  Pr3+  Pr35  1  0.17005764  0.84815751  0.62545201  1
  Pr3+  Pr36  1  0.33108360  0.34459102  0.12282937  1
  Pr3+  Pr37  1  0.66091298  0.67789975  0.12398892  1
  Pr3+  Pr38  1  0.83042542  0.82265680  0.37735364  1
  Pr3+  Pr39  1  0.17226744  0.51506838  0.62744757  1
  Pr3+  Pr40  1  0.33077860  0.34254148  0.62687973  1
  Pr3+  Pr41  1  -0.00449623  0.68165023  0.62615506  1
  Pr3+  Pr42  1  0.66760347  0.65357936  0.87508066  1
  Pr3+  Pr43  1  0.66749055  0.68059229  0.62602309  1
  Pr3+  Pr44  1  0.66488637  0.01221191  0.62411894  1
  Pr3+  Pr45  1  1.00507192  0.31868447  0.37277533  1
  Pr3+  Pr46  1  0.67091729  0.32048445  0.37275759  1
  Pr3+  Pr47  1  0.16970193  0.17661109  0.62545486  1
  Pr3+  Pr48  1  0.83110614  0.82221019  0.87284664  1
  Pr3+  Pr49  1  0.83101062  0.48628435  0.87324271  1
  Pr3+  Pr50  1  0.49438751  0.48429299  0.37386251  1
  Pr3+  Pr51  1  0.16600494  0.48771979  0.37485178  1
  Pr3+  Pr52  1  0.33286476  0.65605458  0.87315489  1
  Pr3+  Pr53  1  0.33254195  0.98888779  0.37320810  1
  Pr3+  Pr54  1  0.83981142  0.17586469  0.62626795  1
  Pr3+  Pr55  1  0.82946389  0.15020648  0.37348362  1
  Pr3+  Pr56  1  1.00455346  0.98829288  0.37409950  1
  Pr3+  Pr57  1  0.33223912  0.67648610  0.12412613  1
  Pr3+  Pr58  1  0.67211663  0.31668202  0.87725444  1
  Pr3+  Pr59  1  0.49549531  0.82415316  0.87516731  1
  Pr3+  Pr60  1  1.00405781  0.98859499  0.87611609  1
  Pr3+  Pr61  1  0.49748457  0.15445127  0.37411082  1
  Pr3+  Pr62  1  0.33577726  0.65527647  0.37636434  1
  Pr3+  Pr63  1  0.83508267  0.84619107  0.12444941  1
  Pr3+  Pr64  1  0.49487461  0.48469451  0.87624834  1
  Pr3+  Pr65  1  0.49831338  0.84776153  0.62540755  1
  Pr3+  Pr66  1  0.66434594  0.34551158  0.62579767  1
  Pr3+  Pr67  1  1.00460360  0.31804426  0.87704552  1
  Pr3+  Pr68  1  -0.00237759  0.67835151  0.12439285  1
  Pr3+  Pr69  1  1.00692621  0.65082973  0.87453651  1
  Pr3+  Pr70  1  0.50208285  0.17983686  0.12348233  1
  Pr3+  Pr71  1  0.49996915  0.17817908  0.62686088  1
  Mn3.30+  Mn72  1  0.16846024  0.00205815  -0.00047920  1
  Mn3.30+  Mn73  1  0.16561937  0.00208880  0.49917868  1
  Mn3.30+  Mn74  1  0.16714203  0.33122254  -0.00114843  1
  Mn3.30+  Mn75  1  0.16819048  0.33191653  0.49788319  1
  Mn3.30+  Mn76  1  0.16634674  0.66580357  -0.00099191  1
  Mn3.30+  Mn77  1  0.16760120  0.66738393  0.50108068  1
  Mn3.30+  Mn78  1  0.49764389  0.00135991  0.00206062  1
  Mn3.30+  Mn79  1  0.50073975  0.00111362  0.49863775  1
  Mn3.30+  Mn80  1  0.49993327  0.33374054  0.00013630  1
  Mn3.30+  Mn81  1  0.49886534  0.33270848  0.49955959  1
  Mn3.30+  Mn82  1  0.49909617  0.66557888  -0.00140481  1
  Mn3.30+  Mn83  1  0.49889458  0.66714505  0.50339950  1
  Mn3.30+  Mn84  1  0.83384701  0.00184212  -0.00022863  1
  Mn3.30+  Mn85  1  0.83221216  -0.00140863  0.49974699  1
  Mn3.30+  Mn86  1  0.83501224  0.33213854  0.00146948  1
  Mn3.30+  Mn87  1  0.83432465  0.33291529  0.50042327  1
  Mn3.30+  Mn88  1  0.83332629  0.66565111  -0.00114942  1
  Mn3.30+  Mn89  1  0.83408751  0.66640350  0.50175449  1
  Mn3.30+  Mn90  1  0.00090878  0.16851713  0.24878959  1
  Mn3.30+  Mn91  1  0.00141954  0.16526610  0.75249303  1
  Mn3.30+  Mn92  1  -0.00025836  0.49796631  0.24976892  1
  Mn3.30+  Mn93  1  0.00145075  0.49885603  0.74973844  1
  Mn3.30+  Mn94  1  0.00097123  0.83308230  0.24883780  1
  Mn3.30+  Mn95  1  -0.00048892  0.83379870  0.75118807  1
  Mn3.30+  Mn96  1  0.33266764  0.16744127  0.25070061  1
  Mn3.30+  Mn97  1  0.33231104  0.16731967  0.75203406  1
  Mn3.30+  Mn98  1  0.33475890  0.49825023  0.24833669  1
  Mn3.30+  Mn99  1  0.33120678  0.49909880  0.75265047  1
  Mn3.30+  Mn100  1  0.33339903  0.83379133  0.24845534  1
  Mn3.30+  Mn101  1  0.32947349  0.83430931  0.75170541  1
  Mn3.30+  Mn102  1  0.66721664  0.16763970  0.24809616  1
  Mn3.30+  Mn103  1  0.66967070  0.16596054  0.75104357  1
  Mn3.30+  Mn104  1  0.66457091  0.49856243  0.24939384  1
  Mn3.30+  Mn105  1  0.66734818  0.49963817  0.74870467  1
  Mn3.30+  Mn106  1  0.66571410  0.83384403  0.25091950  1
  Mn3.30+  Mn107  1  0.66725973  0.83446993  0.74836973  1
  Mn3.30+  Mn108  1  0.16773076  0.00271844  0.24898118  1
  Mn3.30+  Mn109  1  0.16633676  0.00149898  0.75182960  1
  Mn3.30+  Mn110  1  0.16856480  0.33111367  0.24994412  1
  Mn3.30+  Mn111  1  0.16713884  0.33242503  0.75322404  1
  Mn3.30+  Mn112  1  0.16678601  0.66586037  0.24923245  1
  Mn3.30+  Mn113  1  0.16724830  0.66727885  0.75110126  1
  Mn3.30+  Mn114  1  0.49985401  0.00038430  0.25008382  1
  Mn3.30+  Mn115  1  0.49882323  0.00223080  0.75000844  1
  Mn3.30+  Mn116  1  0.50082298  0.33399969  0.24852923  1
  Mn3.30+  Mn117  1  0.49824486  0.33247197  0.75204558  1
  Mn3.30+  Mn118  1  0.50042829  0.66498941  0.24977273  1
  Mn3.30+  Mn119  1  0.49732567  0.66789208  0.74843589  1
  Mn3.30+  Mn120  1  0.83169485  -0.00031737  0.24998943  1
  Mn3.30+  Mn121  1  0.83436919  0.00024347  0.75094175  1
  Mn3.30+  Mn122  1  0.83471838  0.33307132  0.24728045  1
  Mn3.30+  Mn123  1  0.83445619  0.33217245  0.74976572  1
  Mn3.30+  Mn124  1  0.83279806  0.66586393  0.24987770  1
  Mn3.30+  Mn125  1  0.83480438  0.66629972  0.74946301  1
  Mn3.30+  Mn126  1  0.00031173  0.16766993  -0.00047470  1
  Mn3.30+  Mn127  1  0.00171170  0.16597681  0.49897294  1
  Mn3.30+  Mn128  1  0.00093692  0.49688973  -0.00072716  1
  Mn3.30+  Mn129  1  0.00005813  0.49958001  0.50161892  1
  Mn3.30+  Mn130  1  0.00213668  0.83284480  -0.00032563  1
  Mn3.30+  Mn131  1  -0.00166679  0.83400013  0.50078561  1
  Mn3.30+  Mn132  1  0.33261418  0.16740702  -0.00017198  1
  Mn3.30+  Mn133  1  0.33223632  0.16771740  0.49757517  1
  Mn3.30+  Mn134  1  0.33283744  0.49859861  -0.00223847  1
  Mn3.30+  Mn135  1  0.33310624  0.49893738  0.50108540  1
  Mn3.30+  Mn136  1  0.33101871  0.83496649  0.00007947  1
  Mn3.30+  Mn137  1  0.33184554  0.83289979  0.49976472  1
  Mn3.30+  Mn138  1  0.66922189  0.16754197  0.00156911  1
  Mn3.30+  Mn139  1  0.66770438  0.16581673  0.49913461  1
  Mn3.30+  Mn140  1  0.66482309  0.49792152  -0.00026534  1
  Mn3.30+  Mn141  1  0.66694908  0.50026046  0.50195031  1
  Mn3.30+  Mn142  1  0.66549262  0.83369151  -0.00109882  1
  Mn3.30+  Mn143  1  0.66738201  0.83482563  0.50190577  1
  O2-  O144  1  0.01956976  0.16116691  0.12489643  1
  O2-  O145  1  0.02471077  0.16501573  0.62611719  1
  O2-  O146  1  0.02225284  0.49422215  0.12494592  1
  O2-  O147  1  0.02824234  0.49390726  0.62549208  1
  O2-  O148  1  0.02705155  0.82721721  0.12353130  1
  O2-  O149  1  0.02555343  0.82933374  0.62728364  1
  O2-  O150  1  0.35746053  0.16322433  0.12634671  1
  O2-  O151  1  0.35556831  0.16721528  0.62342538  1
  O2-  O152  1  0.36152563  0.49374503  0.12163891  1
  O2-  O153  1  0.35876062  0.48879841  0.62637860  1
  O2-  O154  1  0.35242107  0.82396805  0.12486780  1
  O2-  O155  1  0.35443228  0.82932881  0.62521078  1
  O2-  O156  1  0.68945223  0.15764646  0.12632599  1
  O2-  O157  1  0.69532322  0.16055879  0.62550975  1
  O2-  O158  1  0.69109604  0.49628049  0.12252653  1
  O2-  O159  1  0.69497542  0.49249201  0.62501612  1
  O2-  O160  1  0.69114225  0.82636543  0.12335038  1
  O2-  O161  1  0.69707100  0.82813547  0.62565055  1
  O2-  O162  1  0.14315417  0.33367764  0.12534802  1
  O2-  O163  1  0.14211862  0.32501339  0.62538199  1
  O2-  O164  1  0.14087945  0.65618001  0.12458629  1
  O2-  O165  1  0.13966168  0.66133063  0.62760215  1
  O2-  O166  1  0.14213688  0.99578665  0.12417842  1
  O2-  O167  1  0.14823522  0.99759691  0.62668634  1
  O2-  O168  1  0.47494078  0.32836549  0.12530094  1
  O2-  O169  1  0.47611163  0.32813243  0.62620439  1
  O2-  O170  1  0.47735873  0.65876638  0.12222538  1
  O2-  O171  1  0.47025832  0.66145885  0.62659345  1
  O2-  O172  1  0.47387189  0.99998825  0.12648909  1
  O2-  O173  1  0.47933805  0.99757387  0.62448919  1
  O2-  O174  1  0.80622577  0.33809398  0.12507912  1
  O2-  O175  1  0.80764516  0.32182455  0.62569054  1
  O2-  O176  1  0.80524132  0.65832856  0.12207700  1
  O2-  O177  1  0.80965201  0.65631781  0.62471278  1
  O2-  O178  1  0.80680155  0.99270237  0.12481369  1
  O2-  O179  1  0.80914346  0.99704640  0.62492381  1
  O2-  O180  1  0.30958116  0.17499514  0.37454050  1
  O2-  O181  1  0.31007998  0.17164219  0.87554617  1
  O2-  O182  1  0.30882429  0.50902047  0.37663581  1
  O2-  O183  1  0.30325428  0.51074827  0.87427573  1
  O2-  O184  1  0.31489491  0.83683928  0.37261879  1
  O2-  O185  1  0.30514982  0.84239869  0.87725319  1
  O2-  O186  1  0.64186107  0.17540305  0.37219755  1
  O2-  O187  1  0.64743777  0.16920084  0.87579917  1
  O2-  O188  1  0.63916800  0.50598762  0.37861078  1
  O2-  O189  1  0.64005871  0.50527024  0.87307822  1
  O2-  O190  1  0.64117558  0.83653486  0.37845739  1
  O2-  O191  1  0.64017725  0.84033822  0.87310886  1
  O2-  O192  1  0.97323832  0.17215251  0.37282973  1
  O2-  O193  1  0.97225409  0.17172199  0.87615266  1
  O2-  O194  1  0.97540502  0.50591324  0.37605829  1
  O2-  O195  1  0.97483104  0.50344891  0.87384293  1
  O2-  O196  1  0.97490570  0.83693741  0.37305424  1
  O2-  O197  1  0.97471032  0.83794857  0.87694564  1
  O2-  O198  1  0.18752174  0.00413768  0.37257235  1
  O2-  O199  1  0.19047689  0.00755278  0.87603466  1
  O2-  O200  1  0.19488426  0.34357713  0.37515096  1
  O2-  O201  1  0.19254962  0.34161695  0.87432431  1
  O2-  O202  1  0.19131544  0.66687706  0.37330802  1
  O2-  O203  1  0.18998387  0.67670562  0.87454022  1
  O2-  O204  1  0.52794397  0.00621503  0.37572643  1
  O2-  O205  1  0.52292006  -0.00011608  0.87396990  1
  O2-  O206  1  0.52742600  0.33746049  0.37356877  1
  O2-  O207  1  0.52754235  0.33744679  0.87503920  1
  O2-  O208  1  0.52393867  0.67196041  0.37922262  1
  O2-  O209  1  0.52367332  0.67375612  0.87190328  1
  O2-  O210  1  0.85922008  0.00090605  0.37417440  1
  O2-  O211  1  0.85814826  0.00320579  0.87661984  1
  O2-  O212  1  0.85921717  0.33968898  0.37518184  1
  O2-  O213  1  0.85949610  0.34131582  0.87309765  1
  O2-  O214  1  0.86006229  0.67398725  0.37791137  1
  O2-  O215  1  0.86133659  0.67299130  0.87528384  1
  O2-  O216  1  0.24126656  0.09310354  0.01602627  1
  O2-  O217  1  0.23783721  0.09765952  0.51461235  1
  O2-  O218  1  0.24015830  0.42709589  0.02177009  1
  O2-  O219  1  0.23729110  0.42893593  0.52189477  1
  O2-  O220  1  0.23842674  0.75918291  0.02165518  1
  O2-  O221  1  0.23648828  0.76003656  0.52022701  1
  O2-  O222  1  0.57296525  0.09293905  0.02065130  1
  O2-  O223  1  0.57260477  0.09619000  0.52095017  1
  O2-  O224  1  0.56855634  0.43119643  0.01753104  1
  O2-  O225  1  0.57017538  0.42769703  0.52177801  1
  O2-  O226  1  0.57423401  0.75841986  0.01570690  1
  O2-  O227  1  0.57319431  0.76272394  0.52445975  1
  O2-  O228  1  0.90851001  0.09072448  0.01905378  1
  O2-  O229  1  0.90086341  0.09579746  0.51404586  1
  O2-  O230  1  0.90204255  0.43059667  0.01517066  1
  O2-  O231  1  0.90403311  0.42801474  0.52247981  1
  O2-  O232  1  0.90389323  0.75970461  0.02191428  1
  O2-  O233  1  0.90337731  0.76201607  0.52308673  1
  O2-  O234  1  0.26546285  0.26425631  0.23125126  1
  O2-  O235  1  0.25983542  0.26022396  0.72929927  1
  O2-  O236  1  0.26123241  0.59303590  0.22849805  1
  O2-  O237  1  0.26416642  0.59686687  0.72776595  1
  O2-  O238  1  0.26053658  0.92850187  0.22973559  1
  O2-  O239  1  0.25832810  0.92672025  0.73303206  1
  O2-  O240  1  0.59585981  0.26548694  0.22712077  1
  O2-  O241  1  0.59760636  0.25969203  0.73011148  1
  O2-  O242  1  0.59679444  0.59626686  0.23346344  1
  O2-  O243  1  0.59689951  0.59340880  0.72766115  1
  O2-  O244  1  0.59554574  0.92912619  0.23247211  1
  O2-  O245  1  0.59464084  0.92665211  0.72797962  1
  O2-  O246  1  0.93267882  0.26684029  0.23210887  1
  O2-  O247  1  0.93086357  0.26099304  0.72968432  1
  O2-  O248  1  0.92621211  0.59471917  0.22990937  1
  O2-  O249  1  0.93285731  0.59450323  0.73290412  1
  O2-  O250  1  0.92579589  0.92711839  0.22790724  1
  O2-  O251  1  0.92565724  0.92681496  0.73659644  1
  O2-  O252  1  0.09759003  0.24038784  0.27466919  1
  O2-  O253  1  0.09614616  0.23762739  0.77291513  1
  O2-  O254  1  0.09437182  0.57139686  0.26995817  1
  O2-  O255  1  0.09933240  0.57053821  0.77218360  1
  O2-  O256  1  0.09124812  0.90777935  0.26555694  1
  O2-  O257  1  0.09340550  0.90528579  0.77145441  1
  O2-  O258  1  0.43320903  0.23689197  0.26626571  1
  O2-  O259  1  0.42769941  0.23922025  0.76356353  1
  O2-  O260  1  0.42640013  0.57257211  0.27200245  1
  O2-  O261  1  0.42701256  0.56968720  0.77075146  1
  O2-  O262  1  0.42905985  0.90889157  0.27319873  1
  O2-  O263  1  0.42568280  0.90613377  0.76835128  1
  O2-  O264  1  0.76364428  0.24056624  0.27157318  1
  O2-  O265  1  0.76401856  0.23747527  0.77204196  1
  O2-  O266  1  0.76064442  0.57156707  0.27195829  1
  O2-  O267  1  0.76009937  0.57355573  0.77261221  1
  O2-  O268  1  0.76285687  0.90158051  0.26769337  1
  O2-  O269  1  0.75856102  0.90744485  0.77322624  1
  O2-  O270  1  0.07036925  0.07363606  0.47897320  1
  O2-  O271  1  0.07030576  0.07008629  0.98387384  1
  O2-  O272  1  0.07222342  0.40435761  0.47994049  1
  O2-  O273  1  0.07291254  0.40331007  0.98113067  1
  O2-  O274  1  0.06764201  0.73698658  0.48422435  1
  O2-  O275  1  0.06929866  0.73457229  0.98349870  1
  O2-  O276  1  0.40506594  0.07472985  0.47600751  1
  O2-  O277  1  0.40463145  0.07264793  0.98232407  1
  O2-  O278  1  0.40362640  0.40367613  0.47786500  1
  O2-  O279  1  0.40237566  0.40630234  0.97455393  1
  O2-  O280  1  0.40711105  0.73997077  0.47948301  1
  O2-  O281  1  0.40371638  0.74087846  0.97842936  1
  O2-  O282  1  0.73692993  0.06992843  0.47753664  1
  O2-  O283  1  0.73773932  0.07027890  0.98249528  1
  O2-  O284  1  0.73832099  0.40420439  0.47941753  1
  O2-  O285  1  0.73871104  0.40667739  0.97627394  1
  O2-  O286  1  0.73722271  0.73882095  0.48006424  1
  O2-  O287  1  0.74071199  0.73827226  0.97676182  1
  O2-  O288  1  0.09712481  0.23968877  0.47696921  1
  O2-  O289  1  0.09572142  0.23801911  0.97580950  1
  O2-  O290  1  0.09715491  0.57181952  0.48072306  1
  O2-  O291  1  0.09515614  0.56955305  0.97865544  1
  O2-  O292  1  0.08881339  0.90801138  0.48360597  1
  O2-  O293  1  0.09711806  0.90519027  0.97943923  1
  O2-  O294  1  0.43148006  0.23690830  0.48313560  1
  O2-  O295  1  0.42827683  0.23991117  0.98764295  1
  O2-  O296  1  0.42818982  0.56918792  0.48111719  1
  O2-  O297  1  0.42474163  0.57401647  0.97471248  1
  O2-  O298  1  0.42830448  0.90674021  0.48102529  1
  O2-  O299  1  0.42553694  0.90706364  0.97794315  1
  O2-  O300  1  0.76251402  0.23776870  0.47813612  1
  O2-  O301  1  0.76569361  0.23982886  0.97789847  1
  O2-  O302  1  0.76036552  0.57509983  0.47673153  1
  O2-  O303  1  0.76091818  0.57178921  0.97651731  1
  O2-  O304  1  0.76006671  0.90542898  0.47957492  1
  O2-  O305  1  0.76121308  0.90509674  0.97942507  1
  O2-  O306  1  0.06991550  0.07188779  0.26575169  1
  O2-  O307  1  0.07095773  0.07172355  0.77181514  1
  O2-  O308  1  0.07549762  0.40640456  0.27193011  1
  O2-  O309  1  0.06921928  0.40183552  0.76700610  1
  O2-  O310  1  0.07009525  0.73425722  0.26586162  1
  O2-  O311  1  0.06779689  0.73619880  0.76772828  1
  O2-  O312  1  0.40694496  0.07446702  0.27447614  1
  O2-  O313  1  0.40353648  0.07365329  0.76802597  1
  O2-  O314  1  0.40502350  0.40322549  0.27257528  1
  O2-  O315  1  0.40243134  0.40577404  0.77401124  1
  O2-  O316  1  0.40751423  0.73741304  0.26886193  1
  O2-  O317  1  0.40275840  0.74399204  0.77333286  1
  O2-  O318  1  0.73849024  0.06907938  0.27228730  1
  O2-  O319  1  0.73806219  0.06956186  0.76816369  1
  O2-  O320  1  0.73907752  0.40741833  0.27263875  1
  O2-  O321  1  0.73642042  0.40409627  0.77039593  1
  O2-  O322  1  0.73995025  0.73744849  0.27077394  1
  O2-  O323  1  0.73668816  0.73951486  0.77133530  1
  O2-  O324  1  0.24225738  0.09326682  0.23527459  1
  O2-  O325  1  0.23734606  0.09690458  0.73392914  1
  O2-  O326  1  0.23978704  0.42886540  0.22853634  1
  O2-  O327  1  0.23844728  0.42682420  0.72713671  1
  O2-  O328  1  0.23777054  0.75682897  0.22757296  1
  O2-  O329  1  0.23541667  0.76237763  0.73080306  1
  O2-  O330  1  0.57037233  0.09510446  0.22980573  1
  O2-  O331  1  0.57627139  0.09380293  0.72818207  1
  O2-  O332  1  0.56787116  0.43154962  0.23214292  1
  O2-  O333  1  0.57115859  0.42833806  0.72915356  1
  O2-  O334  1  0.57473256  0.75869381  0.23394337  1
  O2-  O335  1  0.57303394  0.76295574  0.72682227  1
  O2-  O336  1  0.90498865  0.09174320  0.23408274  1
  O2-  O337  1  0.90445570  0.09531721  0.73329294  1
  O2-  O338  1  0.90220700  0.43067449  0.23456260  1
  O2-  O339  1  0.90270512  0.42743107  0.72705130  1
  O2-  O340  1  0.90500435  0.76040916  0.22745917  1
  O2-  O341  1  0.90360401  0.76273893  0.72886572  1
  O2-  O342  1  0.26310063  0.26282342  0.01781695  1
  O2-  O343  1  0.26122968  0.26166185  0.52166312  1
  O2-  O344  1  0.26181332  0.59363688  0.02102073  1
  O2-  O345  1  0.26403283  0.59473221  0.52286132  1
  O2-  O346  1  0.26222757  0.92946431  0.02339563  1
  O2-  O347  1  0.25753128  0.92545549  0.51327499  1
  O2-  O348  1  0.59904053  0.26169977  0.02008894  1
  O2-  O349  1  0.59635904  0.26125185  0.52103290  1
  O2-  O350  1  0.59786647  0.59469495  0.01485234  1
  O2-  O351  1  0.59396774  0.59577005  0.52496720  1
  O2-  O352  1  0.59442218  0.93071176  0.01737574  1
  O2-  O353  1  0.59438763  0.92521987  0.52362463  1
  O2-  O354  1  0.93284441  0.26732450  0.01782182  1
  O2-  O355  1  0.93017559  0.26095208  0.51953923  1
  O2-  O356  1  0.92691464  0.59416813  0.01967138  1
  O2-  O357  1  0.93111974  0.59600723  0.51838816  1
  O2-  O358  1  0.92709052  0.92677694  0.02136806  1
  O2-  O359  1  0.92465898  0.92622252  0.51460208  1
