# generated using pymatgen
data_Sr7Ca15Pr50Mn72O216
_symmetry_space_group_name_H-M   'P 1'
_cell_length_a   16.56021457
_cell_length_b   16.60399628
_cell_length_c   15.59298128
_cell_angle_alpha   89.99810965
_cell_angle_beta   90.00693329
_cell_angle_gamma   89.98202859
_symmetry_Int_Tables_number   1
_chemical_formula_structural   Sr7Ca15Pr50Mn72O216
_chemical_formula_sum   'Sr7 Ca15 Pr50 Mn72 O216'
_cell_volume   4287.53540986
_cell_formula_units_Z   1
loop_
 _symmetry_equiv_pos_site_id
 _symmetry_equiv_pos_as_xyz
  1  'x, y, z'
loop_
 _atom_type_symbol
 _atom_type_oxidation_number
  Sr2+  2.0
  Ca2+  2.0
  Pr3+  3.0
  Mn3.30+  3.3
  O2-  -2.0
loop_
 _atom_site_type_symbol
 _atom_site_label
 _atom_site_symmetry_multiplicity
 _atom_site_fract_x
 _atom_site_fract_y
 _atom_site_fract_z
 _atom_site_occupancy
  Sr2+  Sr0  1  0.66974483  0.99035403  0.87437677  1
  Sr2+  Sr1  1  0.83186857  0.82388285  0.37658372  1
  Sr2+  Sr2  1  0.83664909  0.17497098  0.62750103  1
  Sr2+  Sr3  1  0.66722330  0.34138147  0.12478419  1
  Sr2+  Sr4  1  0.82811649  0.82371994  0.87285163  1
  Sr2+  Sr5  1  0.33047151  0.67409711  0.12241603  1
  Sr2+  Sr6  1  0.83270692  0.84275016  0.62582111  1
  Ca2+  Ca7  1  0.66698299  0.34638956  0.62658855  1
  Ca2+  Ca8  1  -0.00547735  0.34881945  0.12503700  1
  Ca2+  Ca9  1  0.16879417  0.51398691  0.12332307  1
  Ca2+  Ca10  1  0.66978217  0.65517567  0.87301646  1
  Ca2+  Ca11  1  0.33711739  0.65242073  0.87700462  1
  Ca2+  Ca12  1  -0.00745178  0.01331875  0.62589337  1
  Ca2+  Ca13  1  -0.00568536  0.34677314  0.62503466  1
  Ca2+  Ca14  1  -0.00290265  0.67994726  0.12355860  1
  Ca2+  Ca15  1  0.50605231  0.18151485  0.12397146  1
  Ca2+  Ca16  1  0.49809955  0.81596038  0.87490231  1
  Ca2+  Ca17  1  0.66523729  0.68236740  0.62969905  1
  Ca2+  Ca18  1  -0.00618466  0.01558367  0.12392691  1
  Ca2+  Ca19  1  0.83853971  0.18170822  0.12164670  1
  Ca2+  Ca20  1  0.82954824  0.15047034  0.87657312  1
  Ca2+  Ca21  1  0.33578445  0.98444631  0.37323536  1
  Pr3+  Pr22  1  0.16732397  0.51094026  0.62603083  1
  Pr3+  Pr23  1  0.83173798  0.48654648  0.37434286  1
  Pr3+  Pr24  1  0.50140972  0.15457369  0.87846364  1
  Pr3+  Pr25  1  0.67091126  0.98608966  0.37528782  1
  Pr3+  Pr26  1  0.16749069  0.84803388  0.62583383  1
  Pr3+  Pr27  1  -0.00474665  0.67887550  0.62610642  1
  Pr3+  Pr28  1  0.33108305  0.01172071  0.12575542  1
  Pr3+  Pr29  1  0.83737177  0.84601387  0.12320082  1
  Pr3+  Pr30  1  0.16480340  0.17870091  0.62603485  1
  Pr3+  Pr31  1  0.33694746  0.32102532  0.87590454  1
  Pr3+  Pr32  1  0.16576513  0.17866048  0.12445757  1
  Pr3+  Pr33  1  1.00016215  0.65667510  0.37432137  1
  Pr3+  Pr34  1  0.83724850  0.51464468  0.12472528  1
  Pr3+  Pr35  1  0.16335077  0.81963084  0.87562877  1
  Pr3+  Pr36  1  0.33166834  0.34532015  0.62603508  1
  Pr3+  Pr37  1  0.50850510  0.18063519  0.62648301  1
  Pr3+  Pr38  1  0.33081493  0.67994213  0.62725893  1
  Pr3+  Pr39  1  0.67082132  0.32007134  0.37499296  1
  Pr3+  Pr40  1  0.66947670  0.00873927  0.62710128  1
  Pr3+  Pr41  1  0.33961885  0.98442954  0.87605750  1
  Pr3+  Pr42  1  0.66470886  0.01410854  0.12399400  1
  Pr3+  Pr43  1  0.49620229  0.15169180  0.37185859  1
  Pr3+  Pr44  1  0.83198528  0.15385351  0.37319569  1
  Pr3+  Pr45  1  1.00264469  0.31972816  0.37418304  1
  Pr3+  Pr46  1  0.33051160  0.34631631  0.12415327  1
  Pr3+  Pr47  1  0.67176049  0.65477881  0.37679357  1
  Pr3+  Pr48  1  0.67495956  0.31896784  0.87562469  1
  Pr3+  Pr49  1  0.50320374  0.51303874  0.12389763  1
  Pr3+  Pr50  1  0.16466998  0.15353385  0.87634813  1
  Pr3+  Pr51  1  0.49694738  0.82163100  0.37486944  1
  Pr3+  Pr52  1  0.99800226  0.98913408  0.87460491  1
  Pr3+  Pr53  1  0.32992297  0.01296680  0.62418941  1
  Pr3+  Pr54  1  0.50715072  0.51641665  0.62609844  1
  Pr3+  Pr55  1  0.33580972  0.65316004  0.37358852  1
  Pr3+  Pr56  1  0.66331626  0.67828243  0.12169398  1
  Pr3+  Pr57  1  0.16444749  0.48938643  0.87734711  1
  Pr3+  Pr58  1  1.00120737  0.98740676  0.37458605  1
  Pr3+  Pr59  1  0.83305528  0.50981162  0.62547259  1
  Pr3+  Pr60  1  0.16783465  0.84437000  0.12379683  1
  Pr3+  Pr61  1  0.99910661  0.65633019  0.87568551  1
  Pr3+  Pr62  1  0.49767486  0.48639154  0.37388712  1
  Pr3+  Pr63  1  0.16322600  0.48861374  0.37293769  1
  Pr3+  Pr64  1  0.16376799  0.82055164  0.37399893  1
  Pr3+  Pr65  1  1.00003517  0.31994689  0.87556189  1
  Pr3+  Pr66  1  0.50458751  0.84605444  0.62692761  1
  Pr3+  Pr67  1  0.50169282  0.84372407  0.12280640  1
  Pr3+  Pr68  1  0.16414559  0.15275618  0.37393471  1
  Pr3+  Pr69  1  0.82886693  0.49071398  0.87581514  1
  Pr3+  Pr70  1  0.33580617  0.32076692  0.37440678  1
  Pr3+  Pr71  1  0.50047304  0.49067534  0.87622725  1
  Mn3.30+  Mn72  1  0.16514980  -0.00024473  0.00099201  1
  Mn3.30+  Mn73  1  0.16591000  0.00069932  0.50004810  1
  Mn3.30+  Mn74  1  0.16417723  0.33432188  0.00185618  1
  Mn3.30+  Mn75  1  0.16542433  0.33306423  0.50136198  1
  Mn3.30+  Mn76  1  0.16636307  0.66522744  0.00019238  1
  Mn3.30+  Mn77  1  0.16668014  0.66671759  0.50093518  1
  Mn3.30+  Mn78  1  0.50083713  -0.00103506  0.00038321  1
  Mn3.30+  Mn79  1  0.49808247  0.00021262  0.49911582  1
  Mn3.30+  Mn80  1  0.50251265  0.33258395  0.00046747  1
  Mn3.30+  Mn81  1  0.50222544  0.33326017  0.50092828  1
  Mn3.30+  Mn82  1  0.49932670  0.66754115  -0.00324939  1
  Mn3.30+  Mn83  1  0.50187817  0.66758025  0.50085707  1
  Mn3.30+  Mn84  1  0.83299365  0.00188587  0.00109696  1
  Mn3.30+  Mn85  1  0.83523578  -0.00016789  0.50070585  1
  Mn3.30+  Mn86  1  0.83626035  0.33253234  0.00178461  1
  Mn3.30+  Mn87  1  0.83425856  0.33180379  0.50220815  1
  Mn3.30+  Mn88  1  0.83210011  0.66825217  -0.00071841  1
  Mn3.30+  Mn89  1  0.83184852  0.66682259  0.50138107  1
  Mn3.30+  Mn90  1  -0.00193411  0.16682769  0.24652598  1
  Mn3.30+  Mn91  1  -0.00225483  0.16621185  0.75103946  1
  Mn3.30+  Mn92  1  0.00102701  0.50125130  0.24649283  1
  Mn3.30+  Mn93  1  -0.00109639  0.49849219  0.75074845  1
  Mn3.30+  Mn94  1  -0.00028342  0.83314213  0.24801340  1
  Mn3.30+  Mn95  1  -0.00202265  0.83442789  0.75031812  1
  Mn3.30+  Mn96  1  0.33410917  0.16582073  0.24861221  1
  Mn3.30+  Mn97  1  0.33515222  0.16635306  0.74998095  1
  Mn3.30+  Mn98  1  0.33082806  0.49961866  0.24848623  1
  Mn3.30+  Mn99  1  0.33505412  0.50051574  0.75080638  1
  Mn3.30+  Mn100  1  0.33232900  0.83291612  0.24916958  1
  Mn3.30+  Mn101  1  0.33524597  0.83131896  0.75207728  1
  Mn3.30+  Mn102  1  0.66643696  0.16708958  0.24832210  1
  Mn3.30+  Mn103  1  0.67085522  0.16735121  0.74991077  1
  Mn3.30+  Mn104  1  0.66707431  0.49913499  0.24947090  1
  Mn3.30+  Mn105  1  0.66653070  0.50084226  0.74941161  1
  Mn3.30+  Mn106  1  0.66753647  0.83286985  0.24903420  1
  Mn3.30+  Mn107  1  0.66529246  0.83224916  0.75272934  1
  Mn3.30+  Mn108  1  0.16555441  -0.00022220  0.24874922  1
  Mn3.30+  Mn109  1  0.16538195  0.00052260  0.74971947  1
  Mn3.30+  Mn110  1  0.16468755  0.33438773  0.24703072  1
  Mn3.30+  Mn111  1  0.16507916  0.33320497  0.75038230  1
  Mn3.30+  Mn112  1  0.16535514  0.66568225  0.24677678  1
  Mn3.30+  Mn113  1  0.16732791  0.66631360  0.75192007  1
  Mn3.30+  Mn114  1  0.49898234  -0.00036926  0.24898139  1
  Mn3.30+  Mn115  1  0.50022919  -0.00068883  0.75160045  1
  Mn3.30+  Mn116  1  0.50106280  0.33166276  0.24846582  1
  Mn3.30+  Mn117  1  0.50354441  0.33423188  0.75101422  1
  Mn3.30+  Mn118  1  0.50034797  0.66695171  0.24926050  1
  Mn3.30+  Mn119  1  0.50092858  0.66782604  0.75310893  1
  Mn3.30+  Mn120  1  0.83429736  0.00091508  0.24759150  1
  Mn3.30+  Mn121  1  0.83390948  0.00028081  0.75033385  1
  Mn3.30+  Mn122  1  0.83604910  0.33239099  0.24743919  1
  Mn3.30+  Mn123  1  0.83474805  0.33202024  0.74871892  1
  Mn3.30+  Mn124  1  0.83424985  0.66817483  0.24941067  1
  Mn3.30+  Mn125  1  0.82986344  0.66683904  0.74984729  1
  Mn3.30+  Mn126  1  -0.00335061  0.16661543  0.00034159  1
  Mn3.30+  Mn127  1  -0.00096104  0.16646063  0.50126341  1
  Mn3.30+  Mn128  1  0.00020610  0.50093870  0.00260291  1
  Mn3.30+  Mn129  1  -0.00055922  0.49872665  0.50024360  1
  Mn3.30+  Mn130  1  -0.00102756  0.83350754  0.00020854  1
  Mn3.30+  Mn131  1  -0.00106973  0.83435470  0.50039614  1
  Mn3.30+  Mn132  1  0.33490244  0.16636264  0.00245312  1
  Mn3.30+  Mn133  1  0.33439805  0.16549046  0.49965826  1
  Mn3.30+  Mn134  1  0.33157410  0.50078299  -0.00072869  1
  Mn3.30+  Mn135  1  0.33416710  0.49937596  0.50124454  1
  Mn3.30+  Mn136  1  0.33442302  0.83019189  -0.00110500  1
  Mn3.30+  Mn137  1  0.33325560  0.83434764  0.49973612  1
  Mn3.30+  Mn138  1  0.66993767  0.16686415  0.00194255  1
  Mn3.30+  Mn139  1  0.66717506  0.16704771  0.50062784  1
  Mn3.30+  Mn140  1  0.66735796  0.50016522  0.00006284  1
  Mn3.30+  Mn141  1  0.66635026  0.49938458  0.50111541  1
  Mn3.30+  Mn142  1  0.66683170  0.83291424  -0.00333987  1
  Mn3.30+  Mn143  1  0.66622340  0.83244303  0.50198075  1
  O2-  O144  1  0.02511815  0.15782396  0.12403013  1
  O2-  O145  1  0.02391803  0.15674505  0.62676278  1
  O2-  O146  1  0.02811683  0.49182067  0.12513874  1
  O2-  O147  1  0.02504174  0.49271152  0.62709245  1
  O2-  O148  1  0.02493436  0.82445027  0.12438204  1
  O2-  O149  1  0.02489703  0.82558255  0.62604874  1
  O2-  O150  1  0.36256248  0.16010886  0.12490347  1
  O2-  O151  1  0.36319323  0.16017621  0.62325147  1
  O2-  O152  1  0.35901375  0.49452127  0.12441688  1
  O2-  O153  1  0.36138344  0.49351591  0.62600892  1
  O2-  O154  1  0.35749254  0.82988139  0.12356651  1
  O2-  O155  1  0.35992572  0.82783854  0.62689599  1
  O2-  O156  1  0.69461624  0.16187943  0.12614468  1
  O2-  O157  1  0.68558224  0.15732117  0.62308731  1
  O2-  O158  1  0.69128500  0.49874892  0.12691664  1
  O2-  O159  1  0.68904463  0.48997534  0.62426667  1
  O2-  O160  1  0.69168144  0.82516363  0.12421351  1
  O2-  O161  1  0.68120764  0.82880634  0.62530572  1
  O2-  O162  1  0.13670065  0.32385113  0.12444550  1
  O2-  O163  1  0.13810494  0.32654501  0.62671359  1
  O2-  O164  1  0.13994288  0.66066016  0.12402824  1
  O2-  O165  1  0.14031150  0.66018914  0.62680940  1
  O2-  O166  1  0.13737899  0.99305610  0.12420122  1
  O2-  O167  1  0.13712170  0.99528768  0.62486013  1
  O2-  O168  1  0.47517254  0.32815560  0.12421297  1
  O2-  O169  1  0.47512497  0.32738709  0.62646295  1
  O2-  O170  1  0.48082886  0.66222303  0.12348567  1
  O2-  O171  1  0.47365875  0.66380680  0.62557406  1
  O2-  O172  1  0.47346821  0.99071194  0.12352659  1
  O2-  O173  1  0.47259622  0.99520340  0.62405782  1
  O2-  O174  1  0.81507879  0.32841344  0.12580745  1
  O2-  O175  1  0.80798720  0.33155255  0.62498636  1
  O2-  O176  1  0.80769582  0.66360048  0.12495354  1
  O2-  O177  1  0.80847445  0.65878553  0.62519915  1
  O2-  O178  1  0.80878258  0.99330940  0.12615357  1
  O2-  O179  1  0.81388559  1.00075751  0.62371915  1
  O2-  O180  1  0.30722076  0.17519493  0.37477771  1
  O2-  O181  1  0.30921901  0.17257799  0.87755489  1
  O2-  O182  1  0.30921833  0.50285591  0.37579036  1
  O2-  O183  1  0.30927602  0.50273610  0.87330682  1
  O2-  O184  1  0.30751821  0.83818371  0.37418075  1
  O2-  O185  1  0.30577222  0.84032229  0.87509633  1
  O2-  O186  1  0.64033852  0.17177442  0.37614750  1
  O2-  O187  1  0.64452039  0.17130221  0.87557252  1
  O2-  O188  1  0.64131779  0.50671465  0.37536291  1
  O2-  O189  1  0.64485445  0.50688519  0.87394188  1
  O2-  O190  1  0.64136509  0.83857961  0.37498904  1
  O2-  O191  1  0.63968373  0.83896323  0.87557967  1
  O2-  O192  1  0.97671675  0.17276774  0.37163861  1
  O2-  O193  1  0.97309677  0.17333821  0.87674595  1
  O2-  O194  1  0.97508459  0.50841205  0.37256591  1
  O2-  O195  1  0.97283123  0.50747336  0.87547021  1
  O2-  O196  1  0.98143707  0.83843672  0.37381639  1
  O2-  O197  1  0.97910715  0.83971217  0.87492866  1
  O2-  O198  1  0.19402115  0.00564874  0.37455700  1
  O2-  O199  1  0.19538843  0.00581106  0.87599510  1
  O2-  O200  1  0.19238941  0.33916227  0.37368546  1
  O2-  O201  1  0.19346402  0.33883790  0.87566028  1
  O2-  O202  1  0.19215547  0.67185550  0.37556535  1
  O2-  O203  1  0.19401011  0.67116602  0.87351258  1
  O2-  O204  1  0.52686048  0.00416164  0.37465638  1
  O2-  O205  1  0.51932647  0.00849759  0.87811121  1
  O2-  O206  1  0.52506709  0.33889514  0.37483122  1
  O2-  O207  1  0.52837985  0.34131124  0.87501564  1
  O2-  O208  1  0.52689879  0.67201279  0.37564584  1
  O2-  O209  1  0.52801784  0.66787812  0.87476934  1
  O2-  O210  1  0.85612500  0.00421934  0.37239535  1
  O2-  O211  1  0.85428737  0.00359630  0.87715391  1
  O2-  O212  1  0.85919184  0.33788981  0.37325004  1
  O2-  O213  1  0.85777255  0.34357013  0.87575345  1
  O2-  O214  1  0.85573078  0.66618925  0.37430871  1
  O2-  O215  1  0.85538814  0.66288351  0.87495495  1
  O2-  O216  1  0.23718237  0.09249493  0.02286943  1
  O2-  O217  1  0.23726266  0.09492267  0.52300384  1
  O2-  O218  1  0.23685464  0.42491846  0.02207383  1
  O2-  O219  1  0.23711594  0.42563376  0.52285720  1
  O2-  O220  1  0.23525771  0.76290074  0.01707694  1
  O2-  O221  1  0.23849488  0.76095917  0.52198395  1
  O2-  O222  1  0.57174158  0.09546147  0.02198581  1
  O2-  O223  1  0.56845367  0.09463156  0.51820721  1
  O2-  O224  1  0.56904189  0.42948820  0.01735682  1
  O2-  O225  1  0.56867088  0.43211821  0.51592864  1
  O2-  O226  1  0.57179220  0.76028609  0.02056713  1
  O2-  O227  1  0.56655058  0.76531869  0.51539060  1
  O2-  O228  1  0.90463797  0.09754352  0.01967819  1
  O2-  O229  1  0.90718720  0.09646347  0.51024546  1
  O2-  O230  1  0.90452042  0.43139729  0.01932544  1
  O2-  O231  1  0.90272284  0.42870015  0.51656621  1
  O2-  O232  1  0.90368727  0.76097643  0.01734702  1
  O2-  O233  1  0.90963450  0.75601240  0.51797676  1
  O2-  O234  1  0.26124830  0.26101128  0.22749758  1
  O2-  O235  1  0.26385705  0.25914222  0.72948585  1
  O2-  O236  1  0.25911623  0.59319306  0.23636393  1
  O2-  O237  1  0.25978572  0.59131837  0.72629747  1
  O2-  O238  1  0.25844847  0.92679534  0.22637678  1
  O2-  O239  1  0.26176659  0.92836526  0.72876187  1
  O2-  O240  1  0.59416319  0.25974434  0.23476657  1
  O2-  O241  1  0.59850688  0.26346284  0.73063683  1
  O2-  O242  1  0.59538630  0.59397014  0.23054166  1
  O2-  O243  1  0.59493424  0.59535660  0.72666734  1
  O2-  O244  1  0.59519885  0.92692288  0.22898623  1
  O2-  O245  1  0.59117064  0.92874425  0.72748485  1
  O2-  O246  1  0.93430422  0.26525692  0.23234586  1
  O2-  O247  1  0.93376585  0.26608950  0.73262843  1
  O2-  O248  1  0.92989705  0.59528471  0.22677446  1
  O2-  O249  1  0.92799710  0.59233785  0.72917795  1
  O2-  O250  1  0.93095723  0.92907973  0.22873786  1
  O2-  O251  1  0.93135785  0.92965659  0.73429806  1
  O2-  O252  1  0.09682890  0.23795454  0.27017603  1
  O2-  O253  1  0.09630723  0.23754875  0.77213090  1
  O2-  O254  1  0.09264896  0.57466071  0.27398933  1
  O2-  O255  1  0.09302354  0.57209092  0.77126465  1
  O2-  O256  1  0.09583327  0.90582855  0.27079568  1
  O2-  O257  1  0.09752330  0.90607242  0.77046842  1
  O2-  O258  1  0.42635225  0.24046373  0.27269406  1
  O2-  O259  1  0.43403998  0.24082136  0.77208217  1
  O2-  O260  1  0.42784741  0.57273301  0.27014470  1
  O2-  O261  1  0.43207736  0.57120848  0.76818525  1
  O2-  O262  1  0.42872232  0.90446729  0.26822159  1
  O2-  O263  1  0.42730728  0.90268421  0.77207292  1
  O2-  O264  1  0.75968608  0.24019923  0.27251284  1
  O2-  O265  1  0.76455456  0.23978712  0.77395524  1
  O2-  O266  1  0.76071231  0.57125934  0.26983811  1
  O2-  O267  1  0.76290481  0.56879737  0.76471084  1
  O2-  O268  1  0.75814597  0.90626313  0.26635163  1
  O2-  O269  1  0.75658932  0.90760457  0.76058313  1
  O2-  O270  1  0.07445286  0.07378885  0.47546057  1
  O2-  O271  1  0.07271833  0.07448641  0.97611368  1
  O2-  O272  1  0.07276607  0.40826001  0.47627429  1
  O2-  O273  1  0.07267241  0.40819763  0.97516248  1
  O2-  O274  1  0.07292092  0.73912868  0.48052344  1
  O2-  O275  1  0.07393871  0.73930144  0.97694140  1
  O2-  O276  1  0.40320935  0.06970149  0.47555399  1
  O2-  O277  1  0.40455248  0.07088053  0.98114873  1
  O2-  O278  1  0.40514831  0.40316678  0.48012622  1
  O2-  O279  1  0.40503829  0.40547019  0.97993366  1
  O2-  O280  1  0.40471622  0.73695022  0.47913712  1
  O2-  O281  1  0.40486392  0.73711700  0.97715422  1
  O2-  O282  1  0.73792500  0.07330754  0.47899320  1
  O2-  O283  1  0.73808676  0.07136908  0.98695793  1
  O2-  O284  1  0.74068794  0.40509897  0.47726674  1
  O2-  O285  1  0.74006767  0.40719981  0.97974785  1
  O2-  O286  1  0.73642100  0.73806029  0.48336765  1
  O2-  O287  1  0.73370729  0.73475790  0.98189626  1
  O2-  O288  1  0.09677176  0.23794323  0.47969382  1
  O2-  O289  1  0.09606932  0.23821317  0.97838614  1
  O2-  O290  1  0.09519979  0.57251945  0.48065105  1
  O2-  O291  1  0.09151376  0.57455826  0.97504244  1
  O2-  O292  1  0.09688374  0.90581257  0.47922689  1
  O2-  O293  1  0.09588565  0.90670474  0.97850058  1
  O2-  O294  1  0.43043196  0.23759590  0.47929275  1
  O2-  O295  1  0.42884943  0.24218108  0.97717637  1
  O2-  O296  1  0.43075180  0.57332533  0.47942208  1
  O2-  O297  1  0.42961305  0.57214325  0.98190142  1
  O2-  O298  1  0.42881339  0.90465775  0.48045092  1
  O2-  O299  1  0.42746045  0.90240796  0.97864694  1
  O2-  O300  1  0.76261481  0.23996833  0.47625656  1
  O2-  O301  1  0.76439624  0.24038563  0.97869706  1
  O2-  O302  1  0.76108924  0.56996588  0.47996724  1
  O2-  O303  1  0.76359299  0.57108523  0.98613720  1
  O2-  O304  1  0.75529839  0.90920620  0.48420533  1
  O2-  O305  1  0.76068178  0.90331619  0.98848704  1
  O2-  O306  1  0.07282939  0.07325283  0.27185980  1
  O2-  O307  1  0.07470419  0.07430360  0.77618532  1
  O2-  O308  1  0.07268415  0.40801900  0.27420305  1
  O2-  O309  1  0.07273714  0.40888611  0.77526276  1
  O2-  O310  1  0.07340213  0.73971837  0.27192524  1
  O2-  O311  1  0.07240835  0.73991757  0.77100484  1
  O2-  O312  1  0.40276967  0.07036020  0.27189378  1
  O2-  O313  1  0.40459181  0.07170834  0.77008358  1
  O2-  O314  1  0.40390990  0.40475112  0.26888014  1
  O2-  O315  1  0.40573818  0.40400787  0.77111865  1
  O2-  O316  1  0.40636109  0.73978725  0.27326012  1
  O2-  O317  1  0.40059809  0.73356569  0.76973092  1
  O2-  O318  1  0.73550807  0.07266267  0.27102043  1
  O2-  O319  1  0.74021141  0.07370559  0.76310242  1
  O2-  O320  1  0.73937980  0.40722859  0.27230965  1
  O2-  O321  1  0.73908329  0.40641073  0.77041036  1
  O2-  O322  1  0.73463670  0.73686980  0.26768889  1
  O2-  O323  1  0.73473811  0.73676443  0.76730877  1
  O2-  O324  1  0.23675759  0.09387337  0.22696135  1
  O2-  O325  1  0.23630309  0.09284712  0.72735954  1
  O2-  O326  1  0.23623792  0.42636955  0.22651304  1
  O2-  O327  1  0.23880283  0.42534773  0.72820153  1
  O2-  O328  1  0.23498301  0.76173008  0.23210007  1
  O2-  O329  1  0.23865213  0.76287469  0.72796376  1
  O2-  O330  1  0.56999592  0.09471603  0.22828364  1
  O2-  O331  1  0.57173521  0.09545211  0.73294092  1
  O2-  O332  1  0.56919665  0.43093288  0.23377992  1
  O2-  O333  1  0.56893949  0.43112282  0.73301864  1
  O2-  O334  1  0.57165223  0.76210177  0.23015858  1
  O2-  O335  1  0.56668149  0.76301315  0.73356743  1
  O2-  O336  1  0.90230369  0.10041765  0.23168396  1
  O2-  O337  1  0.90998912  0.09293929  0.73766547  1
  O2-  O338  1  0.90498274  0.43236317  0.23232870  1
  O2-  O339  1  0.90360547  0.42893271  0.73148762  1
  O2-  O340  1  0.90538738  0.76256922  0.23116022  1
  O2-  O341  1  0.90808092  0.75529516  0.73263499  1
  O2-  O342  1  0.26125035  0.26012887  0.02195294  1
  O2-  O343  1  0.26279778  0.26092189  0.52182372  1
  O2-  O344  1  0.25615947  0.59015815  0.01577745  1
  O2-  O345  1  0.26147609  0.59418503  0.52105066  1
  O2-  O346  1  0.26137897  0.92751034  0.02100826  1
  O2-  O347  1  0.25841312  0.92781184  0.52419011  1
  O2-  O348  1  0.59555217  0.26000654  0.01370885  1
  O2-  O349  1  0.59730002  0.26358043  0.52180389  1
  O2-  O350  1  0.59296099  0.59156471  0.02025389  1
  O2-  O351  1  0.59561405  0.59891778  0.52266781  1
  O2-  O352  1  0.59304828  0.92629761  0.02501944  1
  O2-  O353  1  0.59240103  0.93004805  0.52001442  1
  O2-  O354  1  0.93443546  0.26643009  0.01796212  1
  O2-  O355  1  0.93302343  0.26491136  0.51629701  1
  O2-  O356  1  0.92918105  0.59561728  0.02222600  1
  O2-  O357  1  0.92867931  0.59222813  0.52104241  1
  O2-  O358  1  0.92818855  0.93038206  0.02065484  1
  O2-  O359  1  0.93251024  0.92945508  0.51541622  1
