# generated using pymatgen
data_Sr7Ca15Pr50Mn72O216
_symmetry_space_group_name_H-M   'P 1'
_cell_length_a   16.56012862
_cell_length_b   16.60545106
_cell_length_c   15.59317578
_cell_angle_alpha   89.99754583
_cell_angle_beta   89.99356740
_cell_angle_gamma   90.00693267
_symmetry_Int_Tables_number   1
_chemical_formula_structural   Sr7Ca15Pr50Mn72O216
_chemical_formula_sum   'Sr7 Ca15 Pr50 Mn72 O216'
_cell_volume   4287.94248008
_cell_formula_units_Z   1
loop_
 _symmetry_equiv_pos_site_id
 _symmetry_equiv_pos_as_xyz
  1  'x, y, z'
loop_
 _atom_type_symbol
 _atom_type_oxidation_number
  Sr2+  2.0
  Ca2+  2.0
  Pr3+  3.0
  Mn3.30+  3.3
  O2-  -2.0
loop_
 _atom_site_type_symbol
 _atom_site_label
 _atom_site_symmetry_multiplicity
 _atom_site_fract_x
 _atom_site_fract_y
 _atom_site_fract_z
 _atom_site_occupancy
  Sr2+  Sr0  1  0.83325188  0.48967915  0.37523572  1
  Sr2+  Sr1  1  0.16824319  0.17728879  0.62592531  1
  Sr2+  Sr2  1  0.50101548  0.50975669  0.62346582  1
  Sr2+  Sr3  1  0.83243511  0.17630435  0.12392514  1
  Sr2+  Sr4  1  0.83441043  0.84248360  0.62644078  1
  Sr2+  Sr5  1  0.33583056  0.65622158  0.87797238  1
  Sr2+  Sr6  1  -0.00372841  0.67619340  0.62589907  1
  Ca2+  Ca7  1  0.16311240  0.15143609  0.87363243  1
  Ca2+  Ca8  1  0.66378831  0.01339319  0.62702825  1
  Ca2+  Ca9  1  0.49632232  0.48612444  0.37444819  1
  Ca2+  Ca10  1  0.49769127  0.15151161  0.87378247  1
  Ca2+  Ca11  1  0.66445891  0.67936927  0.12469187  1
  Ca2+  Ca12  1  0.50473538  0.51892191  0.12502471  1
  Ca2+  Ca13  1  0.83230230  0.48812819  0.87448219  1
  Ca2+  Ca14  1  0.33273319  0.68008808  0.12350809  1
  Ca2+  Ca15  1  -0.00244362  0.34787731  0.62582039  1
  Ca2+  Ca16  1  0.16205845  0.48485743  0.37588235  1
  Ca2+  Ca17  1  1.00001300  0.65416870  0.87144544  1
  Ca2+  Ca18  1  0.50696121  0.84857550  0.62663033  1
  Ca2+  Ca19  1  0.66291686  0.01588536  0.12288693  1
  Ca2+  Ca20  1  0.16319227  0.15177310  0.37667688  1
  Ca2+  Ca21  1  0.82976269  0.81758073  0.87276694  1
  Pr3+  Pr22  1  0.17050294  0.84424023  0.12373395  1
  Pr3+  Pr23  1  0.32953955  0.34699186  0.62478371  1
  Pr3+  Pr24  1  -0.00415763  0.01055522  0.62540241  1
  Pr3+  Pr25  1  0.67042242  0.98852507  0.37420297  1
  Pr3+  Pr26  1  0.17177760  0.51541553  0.12658712  1
  Pr3+  Pr27  1  0.16285109  0.81739889  0.87477228  1
  Pr3+  Pr28  1  0.83011790  0.15479908  0.87582272  1
  Pr3+  Pr29  1  0.66950105  0.32444176  0.37596876  1
  Pr3+  Pr30  1  0.33147150  0.01193709  0.12408045  1
  Pr3+  Pr31  1  0.66522480  0.34808603  0.62515013  1
  Pr3+  Pr32  1  0.66750652  0.65267775  0.37363444  1
  Pr3+  Pr33  1  0.33129135  0.01174020  0.62578508  1
  Pr3+  Pr34  1  1.00333289  0.32001411  0.87439948  1
  Pr3+  Pr35  1  0.33271407  0.34697248  0.12486994  1
  Pr3+  Pr36  1  -0.00312203  0.34520359  0.12396046  1
  Pr3+  Pr37  1  -0.00268169  0.01297912  0.12405820  1
  Pr3+  Pr38  1  0.33617043  0.98893247  0.87320635  1
  Pr3+  Pr39  1  0.83493365  0.51178128  0.12453528  1
  Pr3+  Pr40  1  0.50466062  0.17880094  0.12405618  1
  Pr3+  Pr41  1  0.16431803  0.82105047  0.37539043  1
  Pr3+  Pr42  1  0.49848417  0.15420338  0.37606985  1
  Pr3+  Pr43  1  0.50387726  0.84586060  0.12328642  1
  Pr3+  Pr44  1  1.00131187  0.98901243  0.37529738  1
  Pr3+  Pr45  1  0.49549698  0.49036447  0.87576408  1
  Pr3+  Pr46  1  0.83831306  0.17967734  0.62610071  1
  Pr3+  Pr47  1  1.00325220  0.64976251  0.37675772  1
  Pr3+  Pr48  1  0.67071880  0.98500043  0.87557107  1
  Pr3+  Pr49  1  0.82943518  0.81996586  0.37581192  1
  Pr3+  Pr50  1  0.83801790  0.51205721  0.62606372  1
  Pr3+  Pr51  1  0.66299400  0.34866401  0.12478423  1
  Pr3+  Pr52  1  0.33739195  0.65022625  0.37233928  1
  Pr3+  Pr53  1  0.83112855  0.15604696  0.37406318  1
  Pr3+  Pr54  1  0.66318264  0.67986624  0.62482585  1
  Pr3+  Pr55  1  0.17195191  0.17921959  0.12407785  1
  Pr3+  Pr56  1  0.16634493  0.84317773  0.62647966  1
  Pr3+  Pr57  1  1.00020472  0.98778574  0.87470851  1
  Pr3+  Pr58  1  0.49696451  0.81924190  0.87364641  1
  Pr3+  Pr59  1  0.33703862  0.31870079  0.87404383  1
  Pr3+  Pr60  1  0.83193846  0.84507685  0.12281650  1
  Pr3+  Pr61  1  0.50287437  0.17872848  0.62628675  1
  Pr3+  Pr62  1  0.49657924  0.82016451  0.37602675  1
  Pr3+  Pr63  1  1.00590244  0.31989092  0.37554159  1
  Pr3+  Pr64  1  0.66884188  0.32306541  0.87400907  1
  Pr3+  Pr65  1  0.16528748  0.49089081  0.87535093  1
  Pr3+  Pr66  1  0.33558091  0.98848253  0.37668075  1
  Pr3+  Pr67  1  0.33311269  0.32158926  0.37624073  1
  Pr3+  Pr68  1  0.16761004  0.51045110  0.62422625  1
  Pr3+  Pr69  1  -0.00389553  0.67825531  0.12461558  1
  Pr3+  Pr70  1  0.33176589  0.67708885  0.62642888  1
  Pr3+  Pr71  1  0.67068841  0.65399039  0.87636156  1
  Mn3.30+  Mn72  1  0.16665879  -0.00010978  -0.00175056  1
  Mn3.30+  Mn73  1  0.16645219  0.00020845  0.50044035  1
  Mn3.30+  Mn74  1  0.16753316  0.33300253  -0.00119116  1
  Mn3.30+  Mn75  1  0.16526497  0.33274357  0.50118947  1
  Mn3.30+  Mn76  1  0.16570337  0.66611834  -0.00019482  1
  Mn3.30+  Mn77  1  0.16701997  0.66531984  0.49977890  1
  Mn3.30+  Mn78  1  0.50197235  0.00129183  -0.00183655  1
  Mn3.30+  Mn79  1  0.50251732  -0.00097450  0.50229565  1
  Mn3.30+  Mn80  1  0.49982982  0.33439074  -0.00007863  1
  Mn3.30+  Mn81  1  0.50022370  0.33474962  0.49908950  1
  Mn3.30+  Mn82  1  0.50135615  0.66656998  0.00297631  1
  Mn3.30+  Mn83  1  0.49926725  0.66605682  0.49987973  1
  Mn3.30+  Mn84  1  0.83203876  -0.00102857  0.00039282  1
  Mn3.30+  Mn85  1  0.83141002  0.00016271  0.50191738  1
  Mn3.30+  Mn86  1  0.83268774  0.33449773  -0.00066070  1
  Mn3.30+  Mn87  1  0.83634267  0.33387971  0.50030936  1
  Mn3.30+  Mn88  1  0.83282815  0.66595972  -0.00154310  1
  Mn3.30+  Mn89  1  0.83276288  0.66598237  0.49967166  1
  Mn3.30+  Mn90  1  0.00250643  0.16666336  0.24981400  1
  Mn3.30+  Mn91  1  0.00149842  0.16729661  0.75001715  1
  Mn3.30+  Mn92  1  0.00228912  0.49844701  0.24982756  1
  Mn3.30+  Mn93  1  -0.00147003  0.49983046  0.75232396  1
  Mn3.30+  Mn94  1  -0.00080073  0.83249871  0.24925499  1
  Mn3.30+  Mn95  1  -0.00358567  0.83115342  0.75189839  1
  Mn3.30+  Mn96  1  0.33317814  0.16664324  0.25134329  1
  Mn3.30+  Mn97  1  0.33327337  0.16611910  0.75152581  1
  Mn3.30+  Mn98  1  0.33588949  0.50044156  0.24948678  1
  Mn3.30+  Mn99  1  0.33331570  0.50106499  0.75050114  1
  Mn3.30+  Mn100  1  0.33368922  0.83207104  0.24951929  1
  Mn3.30+  Mn101  1  0.33567515  0.83254199  0.74830200  1
  Mn3.30+  Mn102  1  0.66633802  0.16795446  0.24860077  1
  Mn3.30+  Mn103  1  0.66584395  0.16557705  0.75039626  1
  Mn3.30+  Mn104  1  0.66315071  0.50154817  0.24946625  1
  Mn3.30+  Mn105  1  0.66770877  0.50129183  0.75120067  1
  Mn3.30+  Mn106  1  0.66492668  0.83391782  0.24874939  1
  Mn3.30+  Mn107  1  0.66667511  0.83400462  0.74920408  1
  Mn3.30+  Mn108  1  0.16686565  0.00048671  0.25046311  1
  Mn3.30+  Mn109  1  0.16622676  0.00000402  0.75079305  1
  Mn3.30+  Mn110  1  0.16735830  0.33317655  0.25038231  1
  Mn3.30+  Mn111  1  0.16565079  0.33225384  0.75019160  1
  Mn3.30+  Mn112  1  0.16862937  0.66621224  0.25012503  1
  Mn3.30+  Mn113  1  0.16459498  0.66542861  0.75051212  1
  Mn3.30+  Mn114  1  0.50167053  0.00001003  0.24955423  1
  Mn3.30+  Mn115  1  0.50242181  0.00008668  0.74935107  1
  Mn3.30+  Mn116  1  0.49957170  0.33647476  0.25047309  1
  Mn3.30+  Mn117  1  0.50056887  0.33314095  0.75056039  1
  Mn3.30+  Mn118  1  0.50011951  0.66540138  0.24785792  1
  Mn3.30+  Mn119  1  0.50019499  0.66689413  0.74879347  1
  Mn3.30+  Mn120  1  0.83241668  0.00055647  0.24782099  1
  Mn3.30+  Mn121  1  0.83094155  -0.00160306  0.74950497  1
  Mn3.30+  Mn122  1  0.83381093  0.33377239  0.24954354  1
  Mn3.30+  Mn123  1  0.83520106  0.33460378  0.75104703  1
  Mn3.30+  Mn124  1  0.83068503  0.66586240  0.24834942  1
  Mn3.30+  Mn125  1  0.83421812  0.66647438  0.75314932  1
  Mn3.30+  Mn126  1  0.00189162  0.16642025  -0.00097437  1
  Mn3.30+  Mn127  1  0.00172802  0.16763569  0.50103547  1
  Mn3.30+  Mn128  1  -0.00059530  0.50127922  -0.00192883  1
  Mn3.30+  Mn129  1  0.00128305  0.49702427  0.50055897  1
  Mn3.30+  Mn130  1  -0.00217004  0.83086714  -0.00224235  1
  Mn3.30+  Mn131  1  -0.00209162  0.83217835  0.50041199  1
  Mn3.30+  Mn132  1  0.33482550  0.16608675  -0.00249361  1
  Mn3.30+  Mn133  1  0.33150331  0.16658033  0.49976085  1
  Mn3.30+  Mn134  1  0.33555232  0.50242211  0.00364768  1
  Mn3.30+  Mn135  1  0.33281465  0.49968353  0.49721326  1
  Mn3.30+  Mn136  1  0.33430323  0.83214499  -0.00038821  1
  Mn3.30+  Mn137  1  0.33498096  0.83243602  0.50234543  1
  Mn3.30+  Mn138  1  0.66451099  0.16686826  -0.00176043  1
  Mn3.30+  Mn139  1  0.66757373  0.16638231  0.50198344  1
  Mn3.30+  Mn140  1  0.66571231  0.50215139  0.00069742  1
  Mn3.30+  Mn141  1  0.66592838  0.50073156  0.49861131  1
  Mn3.30+  Mn142  1  0.66765567  0.83206860  0.00006576  1
  Mn3.30+  Mn143  1  0.66424666  0.83547970  0.50161405  1
  O2-  O144  1  0.02892222  0.16086643  0.12352214  1
  O2-  O145  1  0.01959802  0.15699138  0.62588783  1
  O2-  O146  1  0.02659481  0.49441134  0.12493974  1
  O2-  O147  1  0.02369898  0.49409029  0.62710766  1
  O2-  O148  1  0.02702326  0.82625398  0.12553707  1
  O2-  O149  1  0.02234108  0.83323576  0.62656542  1
  O2-  O150  1  0.36042910  0.16082770  0.12487343  1
  O2-  O151  1  0.35862719  0.16207553  0.62548463  1
  O2-  O152  1  0.36332387  0.49127225  0.12675103  1
  O2-  O153  1  0.35141057  0.49565056  0.62326985  1
  O2-  O154  1  0.35746366  0.83038287  0.12478176  1
  O2-  O155  1  0.36236747  0.82555047  0.62443837  1
  O2-  O156  1  0.68233747  0.16358715  0.12354060  1
  O2-  O157  1  0.69354248  0.16105256  0.62558218  1
  O2-  O158  1  0.69217717  0.49466216  0.12446730  1
  O2-  O159  1  0.69268351  0.49759064  0.62666290  1
  O2-  O160  1  0.68974911  0.82408720  0.12492171  1
  O2-  O161  1  0.68689807  0.82543577  0.62535789  1
  O2-  O162  1  0.14155869  0.32532875  0.12305334  1
  O2-  O163  1  0.14108520  0.33220382  0.62760743  1
  O2-  O164  1  0.14005976  0.66428915  0.12555006  1
  O2-  O165  1  0.14581849  0.66069034  0.62485333  1
  O2-  O166  1  0.14177228  0.99284099  0.12333445  1
  O2-  O167  1  0.14082427  0.99193752  0.62576248  1
  O2-  O168  1  0.47495385  0.32348142  0.12579765  1
  O2-  O169  1  0.47473223  0.32736141  0.62521838  1
  O2-  O170  1  0.47371459  0.66445571  0.12685088  1
  O2-  O171  1  0.47512463  0.66175747  0.62233818  1
  O2-  O172  1  0.47473344  0.99551983  0.12312413  1
  O2-  O173  1  0.47462352  0.99445872  0.62503592  1
  O2-  O174  1  0.80881638  0.33199369  0.12194553  1
  O2-  O175  1  0.80894689  0.32747093  0.62586622  1
  O2-  O176  1  0.80693132  0.65954532  0.12485056  1
  O2-  O177  1  0.80873821  0.65978001  0.62576545  1
  O2-  O178  1  0.80592025  0.99343761  0.12339167  1
  O2-  O179  1  0.80683109  0.99889172  0.62540262  1
  O2-  O180  1  0.30593130  0.17148885  0.37526553  1
  O2-  O181  1  0.30514585  0.17058742  0.87505624  1
  O2-  O182  1  0.30407487  0.50393765  0.37224808  1
  O2-  O183  1  0.31069339  0.50180994  0.87831556  1
  O2-  O184  1  0.30892301  0.84012358  0.37670463  1
  O2-  O185  1  0.30906436  0.84004653  0.87381369  1
  O2-  O186  1  0.64255299  0.17462204  0.37634089  1
  O2-  O187  1  0.63893455  0.17526715  0.87422996  1
  O2-  O188  1  0.63841864  0.50466549  0.37179354  1
  O2-  O189  1  0.63898054  0.50606298  0.87648919  1
  O2-  O190  1  0.63961175  0.84217789  0.37474774  1
  O2-  O191  1  0.64013671  0.83705999  0.87448102  1
  O2-  O192  1  0.97498865  0.17112320  0.37608608  1
  O2-  O193  1  0.97411143  0.17078987  0.87438895  1
  O2-  O194  1  0.98278294  0.50151476  0.37255517  1
  O2-  O195  1  0.97441383  0.50768806  0.87684418  1
  O2-  O196  1  0.97414179  0.84106067  0.37191603  1
  O2-  O197  1  0.97146912  0.84225907  0.87598787  1
  O2-  O198  1  0.19140662  0.00323719  0.37603997  1
  O2-  O199  1  0.19172233  0.00354897  0.87487636  1
  O2-  O200  1  0.19052971  0.34204422  0.37343865  1
  O2-  O201  1  0.19377301  0.34363392  0.87652575  1
  O2-  O202  1  0.19347184  0.67495470  0.37495424  1
  O2-  O203  1  0.18691580  0.66832799  0.87483562  1
  O2-  O204  1  0.52626697  0.00542035  0.37704059  1
  O2-  O205  1  0.52665707  0.00590766  0.87407960  1
  O2-  O206  1  0.52524635  0.33877772  0.37456878  1
  O2-  O207  1  0.52495176  0.34330951  0.87488848  1
  O2-  O208  1  0.52443443  0.67502853  0.37439671  1
  O2-  O209  1  0.52499722  0.67071019  0.87651954  1
  O2-  O210  1  0.85717138  0.00616064  0.37390512  1
  O2-  O211  1  0.85664032  0.00741869  0.87637194  1
  O2-  O212  1  0.86032915  0.33364827  0.37677157  1
  O2-  O213  1  0.85811755  0.33860411  0.87571213  1
  O2-  O214  1  0.85738754  0.67175757  0.37205428  1
  O2-  O215  1  0.85879470  0.67414517  0.87738251  1
  O2-  O216  1  0.24181808  0.09368264  0.02254893  1
  O2-  O217  1  0.24288617  0.08906352  0.52005931  1
  O2-  O218  1  0.24000268  0.42878907  0.02309229  1
  O2-  O219  1  0.23833461  0.42663787  0.52020495  1
  O2-  O220  1  0.23441302  0.76185867  0.01550838  1
  O2-  O221  1  0.23820454  0.76042321  0.52211626  1
  O2-  O222  1  0.56980742  0.09596165  0.01774958  1
  O2-  O223  1  0.56896760  0.09654687  0.51858271  1
  O2-  O224  1  0.57088041  0.43188567  0.02216911  1
  O2-  O225  1  0.57733641  0.42454608  0.51866764  1
  O2-  O226  1  0.57039051  0.76435299  0.01708070  1
  O2-  O227  1  0.56893470  0.76523337  0.51872894  1
  O2-  O228  1  0.90976930  0.09193749  0.01813608  1
  O2-  O229  1  0.90338002  0.09494180  0.51875017  1
  O2-  O230  1  0.90809592  0.42792227  0.02162424  1
  O2-  O231  1  0.90549969  0.42587207  0.52158985  1
  O2-  O232  1  0.90511806  0.75907988  0.02563132  1
  O2-  O233  1  0.90484398  0.76064015  0.51169027  1
  O2-  O234  1  0.26183822  0.26225178  0.22846681  1
  O2-  O235  1  0.26546947  0.26393029  0.73354480  1
  O2-  O236  1  0.26655192  0.59566712  0.22673863  1
  O2-  O237  1  0.25870895  0.59202807  0.72977745  1
  O2-  O238  1  0.26138821  0.92808160  0.23029049  1
  O2-  O239  1  0.26167903  0.92408557  0.72760924  1
  O2-  O240  1  0.59360416  0.26368047  0.23159539  1
  O2-  O241  1  0.59556627  0.26105756  0.72792137  1
  O2-  O242  1  0.59706698  0.60027847  0.23000861  1
  O2-  O243  1  0.59718715  0.59887771  0.73363722  1
  O2-  O244  1  0.59673337  0.93055949  0.22701393  1
  O2-  O245  1  0.59817919  0.93112720  0.73230782  1
  O2-  O246  1  0.93478534  0.26014699  0.23197750  1
  O2-  O247  1  0.93016344  0.26167732  0.73090574  1
  O2-  O248  1  0.92944288  0.59289115  0.23089057  1
  O2-  O249  1  0.92429896  0.59018673  0.73109835  1
  O2-  O250  1  0.92803483  0.92586059  0.22741282  1
  O2-  O251  1  0.92909291  0.93144503  0.73395284  1
  O2-  O252  1  0.09879915  0.23561986  0.27128442  1
  O2-  O253  1  0.09626480  0.23989357  0.77552496  1
  O2-  O254  1  0.09892449  0.57165983  0.26966930  1
  O2-  O255  1  0.09442141  0.57027856  0.76754077  1
  O2-  O256  1  0.09434156  0.90469396  0.26993688  1
  O2-  O257  1  0.09367354  0.90445717  0.77138263  1
  O2-  O258  1  0.42793898  0.23896238  0.27225513  1
  O2-  O259  1  0.42853368  0.23691010  0.77230597  1
  O2-  O260  1  0.42956085  0.57096218  0.27430088  1
  O2-  O261  1  0.42889028  0.57267039  0.76768878  1
  O2-  O262  1  0.42874915  0.90603213  0.26989889  1
  O2-  O263  1  0.42928097  0.90892966  0.77185506  1
  O2-  O264  1  0.76054519  0.24212093  0.27109467  1
  O2-  O265  1  0.76321420  0.24001311  0.77018059  1
  O2-  O266  1  0.75811392  0.57325122  0.26826487  1
  O2-  O267  1  0.76162176  0.57153357  0.77349295  1
  O2-  O268  1  0.76067269  0.90517034  0.27005381  1
  O2-  O269  1  0.76052049  0.90522240  0.77410382  1
  O2-  O270  1  0.06894231  0.07134042  0.48154240  1
  O2-  O271  1  0.07168810  0.06996563  0.98076782  1
  O2-  O272  1  0.07218894  0.40312699  0.48233066  1
  O2-  O273  1  0.07115998  0.40612471  0.97910854  1
  O2-  O274  1  0.07495238  0.73860494  0.47712048  1
  O2-  O275  1  0.06693552  0.73790292  0.97756344  1
  O2-  O276  1  0.40751841  0.07165136  0.47990676  1
  O2-  O277  1  0.40295174  0.06999788  0.98031008  1
  O2-  O278  1  0.40245211  0.40482813  0.48140211  1
  O2-  O279  1  0.40484131  0.40358791  0.98031979  1
  O2-  O280  1  0.40338654  0.73691490  0.47821018  1
  O2-  O281  1  0.40961023  0.74272746  0.98235664  1
  O2-  O282  1  0.74009704  0.07448474  0.47618392  1
  O2-  O283  1  0.73789673  0.07492626  0.97829257  1
  O2-  O284  1  0.73950998  0.40330840  0.48366737  1
  O2-  O285  1  0.73328888  0.40653782  0.98156582  1
  O2-  O286  1  0.73565759  0.74121985  0.47878459  1
  O2-  O287  1  0.73899856  0.73761048  0.98058696  1
  O2-  O288  1  0.09609986  0.23851018  0.47617965  1
  O2-  O289  1  0.09685997  0.23652729  0.97706481  1
  O2-  O290  1  0.09659387  0.57114660  0.48013896  1
  O2-  O291  1  0.09712363  0.56929458  0.98496658  1
  O2-  O292  1  0.09415673  0.90537329  0.48013956  1
  O2-  O293  1  0.09348523  0.90276522  0.97880117  1
  O2-  O294  1  0.42741372  0.23918594  0.47927313  1
  O2-  O295  1  0.42825122  0.23650454  0.97710946  1
  O2-  O296  1  0.42590310  0.57141955  0.47499561  1
  O2-  O297  1  0.43233237  0.57087694  0.98404366  1
  O2-  O298  1  0.42809893  0.90816799  0.47823900  1
  O2-  O299  1  0.43014329  0.90780662  0.97837108  1
  O2-  O300  1  0.76384908  0.23997270  0.48115875  1
  O2-  O301  1  0.75754063  0.24014720  0.97688449  1
  O2-  O302  1  0.75684301  0.57459159  0.48077981  1
  O2-  O303  1  0.76332399  0.57002937  0.97770858  1
  O2-  O304  1  0.76002620  0.90751224  0.47613937  1
  O2-  O305  1  0.76125260  0.90187288  0.97885629  1
  O2-  O306  1  0.07122037  0.07009879  0.26812709  1
  O2-  O307  1  0.06931940  0.07140480  0.76909733  1
  O2-  O308  1  0.07147404  0.40060096  0.26494520  1
  O2-  O309  1  0.07271904  0.40803031  0.77496573  1
  O2-  O310  1  0.06885881  0.73876260  0.27207756  1
  O2-  O311  1  0.07311981  0.74058753  0.77187861  1
  O2-  O312  1  0.40521786  0.07109894  0.27166191  1
  O2-  O313  1  0.40497179  0.07058770  0.76737183  1
  O2-  O314  1  0.40246032  0.40253039  0.27033378  1
  O2-  O315  1  0.40545921  0.40557066  0.76915168  1
  O2-  O316  1  0.40544466  0.73874656  0.27155480  1
  O2-  O317  1  0.40712398  0.74007754  0.76878444  1
  O2-  O318  1  0.73981206  0.07562106  0.27016882  1
  O2-  O319  1  0.73886700  0.07358407  0.77433527  1
  O2-  O320  1  0.73208263  0.40617210  0.26645908  1
  O2-  O321  1  0.73849364  0.40417716  0.76766308  1
  O2-  O322  1  0.73718623  0.74259180  0.27322931  1
  O2-  O323  1  0.73608074  0.73671350  0.76748047  1
  O2-  O324  1  0.24043068  0.09285071  0.22698591  1
  O2-  O325  1  0.24337885  0.08980580  0.73089155  1
  O2-  O326  1  0.24016292  0.42663380  0.22541860  1
  O2-  O327  1  0.23778554  0.42733775  0.73076863  1
  O2-  O328  1  0.23541730  0.76363948  0.23252824  1
  O2-  O329  1  0.23847661  0.75919352  0.73014262  1
  O2-  O330  1  0.56844215  0.09736044  0.23491931  1
  O2-  O331  1  0.57012959  0.09433682  0.72882139  1
  O2-  O332  1  0.56987229  0.42971712  0.22495494  1
  O2-  O333  1  0.57678400  0.42689741  0.73209213  1
  O2-  O334  1  0.56790505  0.76621554  0.23350333  1
  O2-  O335  1  0.57041637  0.76310585  0.73065170  1
  O2-  O336  1  0.90928549  0.09206760  0.23105649  1
  O2-  O337  1  0.90295801  0.09408827  0.73209465  1
  O2-  O338  1  0.90601414  0.42564573  0.22752280  1
  O2-  O339  1  0.90512027  0.42724837  0.73143012  1
  O2-  O340  1  0.90375891  0.76103710  0.22787384  1
  O2-  O341  1  0.90505654  0.75981274  0.73546934  1
  O2-  O342  1  0.26476526  0.26057823  0.02044450  1
  O2-  O343  1  0.26187996  0.26512594  0.51814921  1
  O2-  O344  1  0.26314810  0.59293334  0.02545010  1
  O2-  O345  1  0.26242902  0.59526145  0.51887914  1
  O2-  O346  1  0.26149490  0.92725003  0.01972806  1
  O2-  O347  1  0.26165347  0.92431517  0.52242160  1
  O2-  O348  1  0.59366803  0.26415319  0.01935357  1
  O2-  O349  1  0.59538785  0.26005733  0.52159389  1
  O2-  O350  1  0.59925117  0.59959717  0.01945492  1
  O2-  O351  1  0.59534265  0.59950171  0.51575293  1
  O2-  O352  1  0.59648563  0.92963039  0.02013027  1
  O2-  O353  1  0.59816839  0.93304687  0.52004930  1
  O2-  O354  1  0.93262598  0.26083890  0.01584427  1
  O2-  O355  1  0.93029669  0.26111641  0.52241747  1
  O2-  O356  1  0.92661161  0.59286932  0.02465017  1
  O2-  O357  1  0.92692900  0.58936954  0.51422053  1
  O2-  O358  1  0.92891129  0.92557261  0.02269063  1
  O2-  O359  1  0.92756197  0.93205492  0.51551000  1
