# generated using pymatgen
data_Sr7Ca15Pr50Mn72O216
_symmetry_space_group_name_H-M   'P 1'
_cell_length_a   16.55595430
_cell_length_b   16.60083519
_cell_length_c   15.59047440
_cell_angle_alpha   90.00401059
_cell_angle_beta   90.00352064
_cell_angle_gamma   89.99817153
_symmetry_Int_Tables_number   1
_chemical_formula_structural   Sr7Ca15Pr50Mn72O216
_chemical_formula_sum   'Sr7 Ca15 Pr50 Mn72 O216'
_cell_volume   4284.92757006
_cell_formula_units_Z   1
loop_
 _symmetry_equiv_pos_site_id
 _symmetry_equiv_pos_as_xyz
  1  'x, y, z'
loop_
 _atom_type_symbol
 _atom_type_oxidation_number
  Sr2+  2.0
  Ca2+  2.0
  Pr3+  3.0
  Mn3.30+  3.3
  O2-  -2.0
loop_
 _atom_site_type_symbol
 _atom_site_label
 _atom_site_symmetry_multiplicity
 _atom_site_fract_x
 _atom_site_fract_y
 _atom_site_fract_z
 _atom_site_occupancy
  Sr2+  Sr0  1  0.82909848  0.82358088  0.87503845  1
  Sr2+  Sr1  1  1.00239056  0.32450132  0.87787763  1
  Sr2+  Sr2  1  0.33071608  0.67742565  0.62838123  1
  Sr2+  Sr3  1  0.16386841  0.15488331  0.37509424  1
  Sr2+  Sr4  1  0.50178473  0.17579676  0.62669448  1
  Sr2+  Sr5  1  0.83788291  0.51063992  0.12333606  1
  Sr2+  Sr6  1  0.83289587  0.15524318  0.37517225  1
  Ca2+  Ca7  1  -0.00401064  0.01402745  0.12341060  1
  Ca2+  Ca8  1  0.66969893  0.98331996  0.87399928  1
  Ca2+  Ca9  1  0.16645402  0.81870134  0.87485276  1
  Ca2+  Ca10  1  0.66968639  0.32111934  0.87410177  1
  Ca2+  Ca11  1  -0.00211663  0.01361300  0.62702096  1
  Ca2+  Ca12  1  -0.00458770  0.67996920  0.12261378  1
  Ca2+  Ca13  1  0.65872258  0.68545979  0.62755350  1
  Ca2+  Ca14  1  0.17378277  0.51670594  0.62796942  1
  Ca2+  Ca15  1  0.33001890  0.01326965  0.12222346  1
  Ca2+  Ca16  1  0.49758357  0.48664529  0.87395784  1
  Ca2+  Ca17  1  0.33600133  0.98490479  0.87691601  1
  Ca2+  Ca18  1  0.33783974  0.65125176  0.87345444  1
  Ca2+  Ca19  1  0.50110407  0.84571886  0.62873038  1
  Ca2+  Ca20  1  -0.00579417  0.34737330  0.12439303  1
  Ca2+  Ca21  1  0.50192135  0.84850941  0.12190670  1
  Pr3+  Pr22  1  0.49617893  0.82159732  0.87506578  1
  Pr3+  Pr23  1  0.00199312  0.67824612  0.62683464  1
  Pr3+  Pr24  1  0.83938046  0.17993942  0.12483178  1
  Pr3+  Pr25  1  1.00477688  0.98991419  0.37425986  1
  Pr3+  Pr26  1  1.00008102  0.65778604  0.87650543  1
  Pr3+  Pr27  1  0.49628796  0.82162575  0.37503247  1
  Pr3+  Pr28  1  0.50512327  0.51286752  0.12229891  1
  Pr3+  Pr29  1  0.16524708  0.51236750  0.12197244  1
  Pr3+  Pr30  1  0.83572961  0.84731150  0.62794835  1
  Pr3+  Pr31  1  0.83956609  0.84627078  0.12200351  1
  Pr3+  Pr32  1  0.33420996  0.00872302  0.62853534  1
  Pr3+  Pr33  1  0.49771334  0.15028500  0.87490091  1
  Pr3+  Pr34  1  0.16584818  0.17859115  0.12449337  1
  Pr3+  Pr35  1  0.33040182  0.34768541  0.62615471  1
  Pr3+  Pr36  1  0.66617937  0.34558199  0.12350774  1
  Pr3+  Pr37  1  0.83335052  0.51382352  0.62598506  1
  Pr3+  Pr38  1  1.00244316  0.65529134  0.37386310  1
  Pr3+  Pr39  1  0.67016581  0.65520908  0.87334187  1
  Pr3+  Pr40  1  0.16736816  0.84781424  0.12213798  1
  Pr3+  Pr41  1  0.49627556  0.15180142  0.37467536  1
  Pr3+  Pr42  1  0.33542242  0.65463081  0.37558415  1
  Pr3+  Pr43  1  0.33723787  0.32290434  0.87573375  1
  Pr3+  Pr44  1  0.83116922  0.82279716  0.37516267  1
  Pr3+  Pr45  1  0.66998667  0.31799245  0.37468406  1
  Pr3+  Pr46  1  1.00299395  0.31797618  0.37369925  1
  Pr3+  Pr47  1  0.49627290  0.48649898  0.37550242  1
  Pr3+  Pr48  1  0.66983562  0.65495176  0.37678991  1
  Pr3+  Pr49  1  1.00460078  0.98486522  0.87611077  1
  Pr3+  Pr50  1  0.66354833  0.68163258  0.12364250  1
  Pr3+  Pr51  1  0.83149968  0.48689354  0.37438786  1
  Pr3+  Pr52  1  0.33392472  0.98825022  0.37306528  1
  Pr3+  Pr53  1  0.16490202  0.82242069  0.37442134  1
  Pr3+  Pr54  1  0.50126527  0.17702174  0.12329107  1
  Pr3+  Pr55  1  0.33483730  0.31802379  0.37432845  1
  Pr3+  Pr56  1  0.33132062  0.67990309  0.12138746  1
  Pr3+  Pr57  1  0.16363993  0.48839652  0.37703673  1
  Pr3+  Pr58  1  0.82951127  0.15320963  0.87521511  1
  Pr3+  Pr59  1  0.16970519  0.17709639  0.62587099  1
  Pr3+  Pr60  1  0.50406616  0.51531747  0.62764097  1
  Pr3+  Pr61  1  0.17163631  0.84565317  0.62768057  1
  Pr3+  Pr62  1  0.66966902  0.98810943  0.37537699  1
  Pr3+  Pr63  1  0.66134448  0.01065183  0.62881701  1
  Pr3+  Pr64  1  0.83506325  0.17652227  0.62557775  1
  Pr3+  Pr65  1  -0.00092682  0.34545998  0.62595474  1
  Pr3+  Pr66  1  0.16375033  0.15406382  0.87582484  1
  Pr3+  Pr67  1  0.66165082  0.34352466  0.62591077  1
  Pr3+  Pr68  1  0.33096575  0.34613057  0.12403752  1
  Pr3+  Pr69  1  0.83047154  0.48568121  0.87539940  1
  Pr3+  Pr70  1  0.16537771  0.49131195  0.87230655  1
  Pr3+  Pr71  1  0.66502812  0.00987597  0.12047081  1
  Mn3.30+  Mn72  1  0.16834580  -0.00107097  -0.00054544  1
  Mn3.30+  Mn73  1  0.16583182  -0.00021101  0.50205338  1
  Mn3.30+  Mn74  1  0.16537920  0.33487834  0.00080587  1
  Mn3.30+  Mn75  1  0.16645383  0.33428393  0.50106339  1
  Mn3.30+  Mn76  1  0.16685739  0.66859057  -0.00132966  1
  Mn3.30+  Mn77  1  0.16802604  0.66711943  0.50092632  1
  Mn3.30+  Mn78  1  0.49782417  -0.00240225  -0.00007154  1
  Mn3.30+  Mn79  1  0.50069578  -0.00207614  0.50068139  1
  Mn3.30+  Mn80  1  0.50206975  0.33309907  -0.00295427  1
  Mn3.30+  Mn81  1  0.49937731  0.33242296  0.50099764  1
  Mn3.30+  Mn82  1  0.49837116  0.66702739  -0.00224544  1
  Mn3.30+  Mn83  1  0.50129959  0.66878453  0.50274365  1
  Mn3.30+  Mn84  1  0.83295005  -0.00059779  -0.00135574  1
  Mn3.30+  Mn85  1  0.83477070  0.00024415  0.50129360  1
  Mn3.30+  Mn86  1  0.83414597  0.33277830  -0.00159531  1
  Mn3.30+  Mn87  1  0.83254799  0.33285334  0.50156811  1
  Mn3.30+  Mn88  1  0.83369270  0.66654650  0.00006739  1
  Mn3.30+  Mn89  1  0.83183323  0.66799037  0.50272146  1
  Mn3.30+  Mn90  1  0.00051146  0.16507372  0.24882026  1
  Mn3.30+  Mn91  1  0.00005435  0.16602350  0.75085633  1
  Mn3.30+  Mn92  1  -0.00072891  0.50045247  0.24922469  1
  Mn3.30+  Mn93  1  0.00139107  0.50114669  0.74839614  1
  Mn3.30+  Mn94  1  -0.00027222  0.83386620  0.24807445  1
  Mn3.30+  Mn95  1  0.00205279  0.83397154  0.75117668  1
  Mn3.30+  Mn96  1  0.33192987  0.16428906  0.24788941  1
  Mn3.30+  Mn97  1  0.33380339  0.16546282  0.75142693  1
  Mn3.30+  Mn98  1  0.33274089  0.50062193  0.24844101  1
  Mn3.30+  Mn99  1  0.33516145  0.50165266  0.75174922  1
  Mn3.30+  Mn100  1  0.33399872  0.83501323  0.24532756  1
  Mn3.30+  Mn101  1  0.33320807  0.83245225  0.75396907  1
  Mn3.30+  Mn102  1  0.66782661  0.16482109  0.24784126  1
  Mn3.30+  Mn103  1  0.66579532  0.16608897  0.75310247  1
  Mn3.30+  Mn104  1  0.66723220  0.50091485  0.24927893  1
  Mn3.30+  Mn105  1  0.66504930  0.49971547  0.75144098  1
  Mn3.30+  Mn106  1  0.66537891  0.83395568  0.24855224  1
  Mn3.30+  Mn107  1  0.66470351  0.83315476  0.74986183  1
  Mn3.30+  Mn108  1  0.16649805  0.00052415  0.24613779  1
  Mn3.30+  Mn109  1  0.16706330  -0.00173968  0.75274471  1
  Mn3.30+  Mn110  1  0.16424924  0.33426108  0.24787654  1
  Mn3.30+  Mn111  1  0.16710679  0.33462916  0.75042980  1
  Mn3.30+  Mn112  1  0.16514991  0.66766728  0.24668976  1
  Mn3.30+  Mn113  1  0.16960149  0.66775404  0.75355602  1
  Mn3.30+  Mn114  1  0.49923348  -0.00180404  0.24576112  1
  Mn3.30+  Mn115  1  0.49986690  -0.00272242  0.75357413  1
  Mn3.30+  Mn116  1  0.50017223  0.33240409  0.24868425  1
  Mn3.30+  Mn117  1  0.50116340  0.33323514  0.75228345  1
  Mn3.30+  Mn118  1  0.49996402  0.66850993  0.24884181  1
  Mn3.30+  Mn119  1  0.49975803  0.66773468  0.75055945  1
  Mn3.30+  Mn120  1  0.83516238  0.00010233  0.24947301  1
  Mn3.30+  Mn121  1  0.83279496  -0.00034196  0.75077458  1
  Mn3.30+  Mn122  1  0.83511811  0.33350722  0.24945372  1
  Mn3.30+  Mn123  1  0.83174060  0.33218294  0.75050059  1
  Mn3.30+  Mn124  1  0.83500141  0.66699871  0.24892487  1
  Mn3.30+  Mn125  1  0.83092610  0.66789419  0.74783563  1
  Mn3.30+  Mn126  1  -0.00044455  0.16660924  -0.00070692  1
  Mn3.30+  Mn127  1  0.00075768  0.16464769  0.50195685  1
  Mn3.30+  Mn128  1  -0.00054563  0.50079015  -0.00037874  1
  Mn3.30+  Mn129  1  0.00102950  0.50110997  0.50249836  1
  Mn3.30+  Mn130  1  0.00209898  0.83234776  -0.00126591  1
  Mn3.30+  Mn131  1  0.00003284  0.83513124  0.50260584  1
  Mn3.30+  Mn132  1  0.33263298  0.16432152  -0.00032508  1
  Mn3.30+  Mn133  1  0.33338850  0.16490350  0.50071903  1
  Mn3.30+  Mn134  1  0.33612910  0.50127357  -0.00136701  1
  Mn3.30+  Mn135  1  0.33214625  0.50078314  0.50107186  1
  Mn3.30+  Mn136  1  0.33272599  0.83458447  -0.00117424  1
  Mn3.30+  Mn137  1  0.33424882  0.83324123  0.50212588  1
  Mn3.30+  Mn138  1  0.66713665  0.16641818  -0.00183746  1
  Mn3.30+  Mn139  1  0.66614372  0.16486198  0.50012813  1
  Mn3.30+  Mn140  1  0.66637139  0.49944821  -0.00204610  1
  Mn3.30+  Mn141  1  0.66588418  0.50116493  0.50083028  1
  Mn3.30+  Mn142  1  0.66525239  0.83403471  -0.00023810  1
  Mn3.30+  Mn143  1  0.66450491  0.83306306  0.50195616  1
  O2-  O144  1  0.02261441  0.15765690  0.12217336  1
  O2-  O145  1  0.02557247  0.16037267  0.62721253  1
  O2-  O146  1  0.02263452  0.49151719  0.12636938  1
  O2-  O147  1  0.02997110  0.49467413  0.62511255  1
  O2-  O148  1  0.02389687  0.82342877  0.12158966  1
  O2-  O149  1  0.02827581  0.82560015  0.62610046  1
  O2-  O150  1  0.35759465  0.16226304  0.12348384  1
  O2-  O151  1  0.35296989  0.15917344  0.62648438  1
  O2-  O152  1  0.36113373  0.49514852  0.12470494  1
  O2-  O153  1  0.35950507  0.49534145  0.62655896  1
  O2-  O154  1  0.36206019  0.82393171  0.12368024  1
  O2-  O155  1  0.35777961  0.83391346  0.62631464  1
  O2-  O156  1  0.69356616  0.15843658  0.12286188  1
  O2-  O157  1  0.68954176  0.15914293  0.62827037  1
  O2-  O158  1  0.68717356  0.49434456  0.12367362  1
  O2-  O159  1  0.69106698  0.48925312  0.62462694  1
  O2-  O160  1  0.69372196  0.82939078  0.12502528  1
  O2-  O161  1  0.69114625  0.83059368  0.62355969  1
  O2-  O162  1  0.13811678  0.32892440  0.12436870  1
  O2-  O163  1  0.14275455  0.32511489  0.62660121  1
  O2-  O164  1  0.13837637  0.66038272  0.12427613  1
  O2-  O165  1  0.14592300  0.66306058  0.62732409  1
  O2-  O166  1  0.13748382  0.99464313  0.12254814  1
  O2-  O167  1  0.14043343  0.99233975  0.62958665  1
  O2-  O168  1  0.47490565  0.32677133  0.12416071  1
  O2-  O169  1  0.47511925  0.33135815  0.62618575  1
  O2-  O170  1  0.47433612  0.65778669  0.12224705  1
  O2-  O171  1  0.47830304  0.66043676  0.62627609  1
  O2-  O172  1  0.47237061  0.99569991  0.12345078  1
  O2-  O173  1  0.47836211  0.99401935  0.62793793  1
  O2-  O174  1  0.80984295  0.32991282  0.12337127  1
  O2-  O175  1  0.80603548  0.32799537  0.62544459  1
  O2-  O176  1  0.80834567  0.66618192  0.12480726  1
  O2-  O177  1  0.80321302  0.66128080  0.62341941  1
  O2-  O178  1  0.80900085  0.99498442  0.12268429  1
  O2-  O179  1  0.80629365  0.99742773  0.62558631  1
  O2-  O180  1  0.31385543  0.16889476  0.37337193  1
  O2-  O181  1  0.30733356  0.17606264  0.87634457  1
  O2-  O182  1  0.30831679  0.50515299  0.37265131  1
  O2-  O183  1  0.30971090  0.50003196  0.87623254  1
  O2-  O184  1  0.30851744  0.84024764  0.37158039  1
  O2-  O185  1  0.30622985  0.84329853  0.87794952  1
  O2-  O186  1  0.64092635  0.16963910  0.37125440  1
  O2-  O187  1  0.64110948  0.17769772  0.87691788  1
  O2-  O188  1  0.63973856  0.50709603  0.37577637  1
  O2-  O189  1  0.63934376  0.50903767  0.87516335  1
  O2-  O190  1  0.64073794  0.84029992  0.37454649  1
  O2-  O191  1  0.64233043  0.83618307  0.87641365  1
  O2-  O192  1  0.98189870  0.17009232  0.37658170  1
  O2-  O193  1  0.97466362  0.17001226  0.87485687  1
  O2-  O194  1  0.97457644  0.50788148  0.37771348  1
  O2-  O195  1  0.97487855  0.50850377  0.87071733  1
  O2-  O196  1  0.97523457  0.84178560  0.37856447  1
  O2-  O197  1  0.97800979  0.83706020  0.87446275  1
  O2-  O198  1  0.18961433  -0.00182817  0.37207964  1
  O2-  O199  1  0.19497730  0.00878472  0.87645639  1
  O2-  O200  1  0.19173048  0.34043625  0.37420731  1
  O2-  O201  1  0.19306571  0.34064340  0.87518210  1
  O2-  O202  1  0.19124271  0.67342748  0.37148800  1
  O2-  O203  1  0.19499204  0.67108581  0.87697752  1
  O2-  O204  1  0.52518287  0.00384781  0.37088487  1
  O2-  O205  1  0.52715042  0.00199156  0.87734995  1
  O2-  O206  1  0.52520719  0.33842270  0.37330934  1
  O2-  O207  1  0.52702640  0.34077615  0.87607201  1
  O2-  O208  1  0.52606400  0.67372402  0.37667140  1
  O2-  O209  1  0.52759887  0.67516834  0.87480045  1
  O2-  O210  1  0.86013585  -0.00218189  0.37776106  1
  O2-  O211  1  0.85986433  0.00427472  0.87472117  1
  O2-  O212  1  0.85783438  0.33777277  0.37801033  1
  O2-  O213  1  0.85375682  0.33595105  0.87289690  1
  O2-  O214  1  0.85825222  0.67374207  0.37834141  1
  O2-  O215  1  0.85471267  0.66709149  0.87318154  1
  O2-  O216  1  0.23478068  0.09631770  0.01954093  1
  O2-  O217  1  0.23925776  0.09104665  0.52167787  1
  O2-  O218  1  0.24167999  0.42749515  0.02276636  1
  O2-  O219  1  0.23763932  0.42914918  0.52200626  1
  O2-  O220  1  0.23912895  0.76108867  0.02428665  1
  O2-  O221  1  0.23706168  0.76570091  0.51513431  1
  O2-  O222  1  0.57070079  0.09370701  0.01995495  1
  O2-  O223  1  0.57360493  0.09239680  0.51546396  1
  O2-  O224  1  0.57342495  0.42575571  0.02272580  1
  O2-  O225  1  0.57024665  0.42989045  0.51866849  1
  O2-  O226  1  0.57008325  0.76156516  0.02202503  1
  O2-  O227  1  0.56895816  0.76622101  0.51935469  1
  O2-  O228  1  0.90134411  0.09589836  0.01618334  1
  O2-  O229  1  0.90554624  0.09385030  0.52136908  1
  O2-  O230  1  0.90610160  0.42661778  0.01040977  1
  O2-  O231  1  0.90659058  0.42912845  0.52282412  1
  O2-  O232  1  0.90478612  0.76063349  0.01706367  1
  O2-  O233  1  0.90669619  0.76253895  0.52294503  1
  O2-  O234  1  0.25980944  0.26237751  0.22950499  1
  O2-  O235  1  0.26185007  0.26176689  0.73007102  1
  O2-  O236  1  0.26193629  0.59480723  0.22754022  1
  O2-  O237  1  0.26007224  0.59139510  0.73703064  1
  O2-  O238  1  0.26196176  0.92869815  0.22564901  1
  O2-  O239  1  0.26072149  0.92722802  0.72878071  1
  O2-  O240  1  0.59593922  0.25892485  0.22777105  1
  O2-  O241  1  0.59590304  0.26225443  0.73180890  1
  O2-  O242  1  0.59523416  0.59559822  0.22995894  1
  O2-  O243  1  0.59728010  0.59623158  0.72867882  1
  O2-  O244  1  0.59607300  0.92959290  0.22905169  1
  O2-  O245  1  0.59437021  0.92625329  0.73267557  1
  O2-  O246  1  0.92869989  0.26116306  0.23034074  1
  O2-  O247  1  0.92564891  0.26045498  0.72553244  1
  O2-  O248  1  0.93333213  0.59905697  0.23404281  1
  O2-  O249  1  0.92644572  0.59347580  0.72540784  1
  O2-  O250  1  0.93000936  0.92797687  0.22740227  1
  O2-  O251  1  0.92988874  0.92777918  0.72900425  1
  O2-  O252  1  0.09352283  0.24150375  0.26689477  1
  O2-  O253  1  0.09779627  0.23812642  0.76736870  1
  O2-  O254  1  0.09532617  0.57063451  0.27073128  1
  O2-  O255  1  0.09295918  0.57748368  0.77232941  1
  O2-  O256  1  0.09519807  0.90461355  0.26791589  1
  O2-  O257  1  0.09768461  0.90469664  0.77452516  1
  O2-  O258  1  0.42841194  0.23871741  0.26892064  1
  O2-  O259  1  0.42843478  0.24005836  0.77411019  1
  O2-  O260  1  0.42956175  0.57354923  0.27133072  1
  O2-  O261  1  0.43251614  0.56975260  0.76940404  1
  O2-  O262  1  0.42718205  0.90646915  0.27161622  1
  O2-  O263  1  0.42671029  0.90437136  0.77107274  1
  O2-  O264  1  0.75887751  0.24109763  0.26606244  1
  O2-  O265  1  0.76280813  0.23544080  0.76648038  1
  O2-  O266  1  0.76203627  0.57453376  0.27339863  1
  O2-  O267  1  0.76103594  0.56861269  0.76878161  1
  O2-  O268  1  0.76287059  0.90612668  0.26958955  1
  O2-  O269  1  0.76084911  0.90631918  0.76303991  1
  O2-  O270  1  0.07099059  0.07009857  0.48375377  1
  O2-  O271  1  0.07235309  0.07227277  0.97679776  1
  O2-  O272  1  0.06990533  0.40610674  0.47852402  1
  O2-  O273  1  0.07955274  0.41270277  0.97933951  1
  O2-  O274  1  0.07094555  0.74007731  0.48046890  1
  O2-  O275  1  0.07361256  0.73867989  0.97757476  1
  O2-  O276  1  0.40619890  0.07054869  0.48042766  1
  O2-  O277  1  0.40674510  0.07165035  0.97633304  1
  O2-  O278  1  0.40397851  0.40432701  0.47888599  1
  O2-  O279  1  0.40586445  0.40172080  0.98370701  1
  O2-  O280  1  0.40416731  0.74124174  0.47633932  1
  O2-  O281  1  0.40241260  0.73613281  0.97707277  1
  O2-  O282  1  0.73823185  0.06918668  0.48268293  1
  O2-  O283  1  0.73579489  0.07147251  0.97625975  1
  O2-  O284  1  0.73651070  0.40714469  0.47750537  1
  O2-  O285  1  0.73733150  0.40432484  0.97858352  1
  O2-  O286  1  0.73747734  0.74275271  0.47706335  1
  O2-  O287  1  0.73502041  0.73585189  0.98429876  1
  O2-  O288  1  0.09232739  0.24144027  0.48468262  1
  O2-  O289  1  0.09739792  0.23711333  0.98248050  1
  O2-  O290  1  0.09244583  0.57465694  0.47786959  1
  O2-  O291  1  0.09581240  0.57443846  0.97837159  1
  O2-  O292  1  0.09503944  0.90502618  0.48022145  1
  O2-  O293  1  0.09892141  0.90470379  0.97799026  1
  O2-  O294  1  0.42703889  0.23913746  0.47765312  1
  O2-  O295  1  0.42977474  0.23833599  0.97944569  1
  O2-  O296  1  0.42907521  0.57209396  0.47948280  1
  O2-  O297  1  0.43142603  0.56892479  0.97960247  1
  O2-  O298  1  0.42595918  0.90699540  0.47728170  1
  O2-  O299  1  0.42778474  0.90354851  0.97993890  1
  O2-  O300  1  0.75645606  0.23895868  0.48292224  1
  O2-  O301  1  0.76380688  0.23679479  0.98402736  1
  O2-  O302  1  0.76175732  0.57041842  0.47897199  1
  O2-  O303  1  0.76049731  0.57187404  0.97792591  1
  O2-  O304  1  0.76144907  0.90520104  0.48121357  1
  O2-  O305  1  0.76030084  0.90662213  0.98568893  1
  O2-  O306  1  0.07132894  0.07014043  0.26688077  1
  O2-  O307  1  0.07439185  0.07120746  0.77368086  1
  O2-  O308  1  0.07290641  0.40794470  0.27514830  1
  O2-  O309  1  0.07464072  0.40858797  0.76865609  1
  O2-  O310  1  0.07155643  0.74176715  0.27289751  1
  O2-  O311  1  0.07132161  0.73745704  0.76802793  1
  O2-  O312  1  0.40845512  0.07159718  0.27071828  1
  O2-  O313  1  0.40562247  0.07033343  0.77239924  1
  O2-  O314  1  0.40326730  0.40543196  0.27013204  1
  O2-  O315  1  0.40421363  0.40334809  0.76810595  1
  O2-  O316  1  0.40409168  0.73872839  0.27064423  1
  O2-  O317  1  0.40376095  0.73932950  0.77551989  1
  O2-  O318  1  0.73661413  0.06957119  0.26704305  1
  O2-  O319  1  0.73726426  0.07185428  0.77378473  1
  O2-  O320  1  0.73809578  0.40623973  0.27088472  1
  O2-  O321  1  0.73745985  0.40462066  0.77106957  1
  O2-  O322  1  0.73677815  0.73957637  0.27083452  1
  O2-  O323  1  0.73479226  0.73866352  0.76615264  1
  O2-  O324  1  0.23749703  0.09330038  0.22783762  1
  O2-  O325  1  0.23723041  0.09291649  0.73048727  1
  O2-  O326  1  0.23645635  0.42777382  0.22692557  1
  O2-  O327  1  0.23964736  0.42760739  0.72866030  1
  O2-  O328  1  0.23871000  0.76279910  0.22688309  1
  O2-  O329  1  0.23744227  0.76355517  0.73339384  1
  O2-  O330  1  0.57112316  0.09328594  0.22686957  1
  O2-  O331  1  0.57318109  0.09206647  0.73609279  1
  O2-  O332  1  0.57066719  0.42707897  0.23015783  1
  O2-  O333  1  0.57246307  0.42791353  0.72791292  1
  O2-  O334  1  0.56947122  0.76184314  0.22745454  1
  O2-  O335  1  0.56790756  0.76393925  0.73160455  1
  O2-  O336  1  0.90376909  0.09368697  0.23129833  1
  O2-  O337  1  0.90216563  0.09492707  0.73271054  1
  O2-  O338  1  0.90618940  0.42920157  0.23809062  1
  O2-  O339  1  0.90514111  0.42718695  0.72824181  1
  O2-  O340  1  0.90248569  0.76513495  0.23486541  1
  O2-  O341  1  0.90768258  0.75936002  0.72698626  1
  O2-  O342  1  0.25995252  0.26270510  0.02162865  1
  O2-  O343  1  0.26215796  0.26098143  0.51890991  1
  O2-  O344  1  0.25843694  0.59394529  0.02202177  1
  O2-  O345  1  0.26139372  0.59499394  0.51266387  1
  O2-  O346  1  0.26147502  0.92812726  0.02622658  1
  O2-  O347  1  0.26240480  0.92806053  0.52027745  1
  O2-  O348  1  0.59388055  0.25892793  0.02448539  1
  O2-  O349  1  0.59543135  0.26361207  0.51544023  1
  O2-  O350  1  0.59539440  0.59564842  0.02068813  1
  O2-  O351  1  0.59844119  0.59590569  0.52171038  1
  O2-  O352  1  0.59281677  0.92659075  0.02103724  1
  O2-  O353  1  0.59757603  0.92977516  0.51689508  1
  O2-  O354  1  0.92813364  0.26010351  0.02324739  1
  O2-  O355  1  0.92878340  0.25897032  0.52198000  1
  O2-  O356  1  0.93044055  0.59765191  0.01636095  1
  O2-  O357  1  0.92899478  0.59377650  0.52339880  1
  O2-  O358  1  0.93077602  0.92799854  0.01924860  1
  O2-  O359  1  0.92809771  0.92728752  0.52667651  1
