# generated using pymatgen
data_Sr7Ca15Pr50Mn72O216
_symmetry_space_group_name_H-M   'P 1'
_cell_length_a   16.55426336
_cell_length_b   16.59876619
_cell_length_c   15.58830497
_cell_angle_alpha   89.99680737
_cell_angle_beta   90.00405548
_cell_angle_gamma   89.99848108
_symmetry_Int_Tables_number   1
_chemical_formula_structural   Sr7Ca15Pr50Mn72O216
_chemical_formula_sum   'Sr7 Ca15 Pr50 Mn72 O216'
_cell_volume   4283.35982992
_cell_formula_units_Z   1
loop_
 _symmetry_equiv_pos_site_id
 _symmetry_equiv_pos_as_xyz
  1  'x, y, z'
loop_
 _atom_type_symbol
 _atom_type_oxidation_number
  Sr2+  2.0
  Ca2+  2.0
  Pr3+  3.0
  Mn3.30+  3.3
  O2-  -2.0
loop_
 _atom_site_type_symbol
 _atom_site_label
 _atom_site_symmetry_multiplicity
 _atom_site_fract_x
 _atom_site_fract_y
 _atom_site_fract_z
 _atom_site_occupancy
  Sr2+  Sr0  1  0.16712031  0.15943510  0.87249108  1
  Sr2+  Sr1  1  -0.00114515  0.00959548  0.12512202  1
  Sr2+  Sr2  1  0.66685806  0.32238540  0.87524737  1
  Sr2+  Sr3  1  0.83188993  0.82222347  0.37360903  1
  Sr2+  Sr4  1  0.50155362  0.17895435  0.62665087  1
  Sr2+  Sr5  1  0.49943602  0.49030473  0.37430015  1
  Sr2+  Sr6  1  0.83476536  0.17718577  0.62603870  1
  Ca2+  Ca7  1  0.33093803  0.68200955  0.12489206  1
  Ca2+  Ca8  1  0.82951522  0.48680688  0.37364196  1
  Ca2+  Ca9  1  0.83851724  0.51295594  0.12249486  1
  Ca2+  Ca10  1  0.50270599  0.84873722  0.12456081  1
  Ca2+  Ca11  1  0.66244951  0.01286064  0.12640651  1
  Ca2+  Ca12  1  -0.00228407  0.01710085  0.62577971  1
  Ca2+  Ca13  1  0.32933465  0.34699106  0.62828254  1
  Ca2+  Ca14  1  0.16100423  0.81793061  0.37307851  1
  Ca2+  Ca15  1  0.16331192  0.48527463  0.37516414  1
  Ca2+  Ca16  1  0.33882116  0.31618396  0.87291390  1
  Ca2+  Ca17  1  0.82883387  0.48365758  0.87699604  1
  Ca2+  Ca18  1  0.17292722  0.18582592  0.62695944  1
  Ca2+  Ca19  1  0.49505767  0.15395397  0.87445533  1
  Ca2+  Ca20  1  0.33664952  0.65177006  0.87651519  1
  Ca2+  Ca21  1  0.16678264  0.48500394  0.87483252  1
  Pr3+  Pr22  1  0.49890217  0.50684033  0.62518967  1
  Pr3+  Pr23  1  0.83549041  0.84755584  0.12584681  1
  Pr3+  Pr24  1  0.83229061  0.15479874  0.37667298  1
  Pr3+  Pr25  1  0.67265480  0.65139814  0.37371897  1
  Pr3+  Pr26  1  0.16909246  0.84695277  0.62399945  1
  Pr3+  Pr27  1  0.83868361  0.84783789  0.62395518  1
  Pr3+  Pr28  1  0.33037726  0.34584209  0.12214910  1
  Pr3+  Pr29  1  0.32881517  0.01758802  0.62509844  1
  Pr3+  Pr30  1  1.00347837  0.98463539  0.37661606  1
  Pr3+  Pr31  1  1.00335261  0.65077419  0.37374371  1
  Pr3+  Pr32  1  -0.00148124  0.67673391  0.62597063  1
  Pr3+  Pr33  1  0.49792213  0.81992782  0.37315498  1
  Pr3+  Pr34  1  0.66966179  0.32342658  0.37475421  1
  Pr3+  Pr35  1  0.83545450  0.17681482  0.12396273  1
  Pr3+  Pr36  1  0.49445978  0.48530616  0.87623894  1
  Pr3+  Pr37  1  0.67021671  0.98653981  0.37499455  1
  Pr3+  Pr38  1  0.33536786  0.32466510  0.37641908  1
  Pr3+  Pr39  1  -0.00254157  0.34646081  0.12280246  1
  Pr3+  Pr40  1  0.50230388  0.84559301  0.62460861  1
  Pr3+  Pr41  1  0.50070706  0.51315861  0.12504956  1
  Pr3+  Pr42  1  0.66368212  0.67670723  0.62493110  1
  Pr3+  Pr43  1  0.33082410  0.67685510  0.62550450  1
  Pr3+  Pr44  1  0.33038959  0.01230699  0.12483207  1
  Pr3+  Pr45  1  -0.00289607  0.67819050  0.12429523  1
  Pr3+  Pr46  1  0.17116846  0.50934307  0.62535295  1
  Pr3+  Pr47  1  0.49310366  0.81838736  0.87623984  1
  Pr3+  Pr48  1  0.66979885  0.65228409  0.87628822  1
  Pr3+  Pr49  1  1.00423388  0.99037016  0.87386551  1
  Pr3+  Pr50  1  0.33730146  0.99180429  0.87461868  1
  Pr3+  Pr51  1  1.00236496  0.32308921  0.37569248  1
  Pr3+  Pr52  1  0.83647178  0.50891996  0.62750076  1
  Pr3+  Pr53  1  0.16911901  0.17960261  0.12295591  1
  Pr3+  Pr54  1  0.66370240  0.68072215  0.12477252  1
  Pr3+  Pr55  1  0.66518369  0.34714218  0.12278693  1
  Pr3+  Pr56  1  0.33315425  0.65304255  0.37306869  1
  Pr3+  Pr57  1  0.16257369  0.15589379  0.37731911  1
  Pr3+  Pr58  1  1.00444805  0.65053310  0.87648611  1
  Pr3+  Pr59  1  0.83039287  0.82342278  0.87614686  1
  Pr3+  Pr60  1  1.00272484  0.32167860  0.87396486  1
  Pr3+  Pr61  1  0.16992097  0.84583291  0.12618512  1
  Pr3+  Pr62  1  0.17113861  0.51493448  0.12489396  1
  Pr3+  Pr63  1  0.33429556  0.98625057  0.37568168  1
  Pr3+  Pr64  1  0.00023063  0.34291166  0.62718384  1
  Pr3+  Pr65  1  0.66420600  0.01480857  0.62353440  1
  Pr3+  Pr66  1  0.49672408  0.15486428  0.37559495  1
  Pr3+  Pr67  1  0.16707601  0.82256591  0.87617768  1
  Pr3+  Pr68  1  0.50348446  0.17821671  0.12324079  1
  Pr3+  Pr69  1  0.66351979  0.34450753  0.62785912  1
  Pr3+  Pr70  1  0.83157001  0.15617185  0.87301718  1
  Pr3+  Pr71  1  0.66485697  0.99333358  0.87459413  1
  Mn3.30+  Mn72  1  0.16743384  0.00160091  -0.00083641  1
  Mn3.30+  Mn73  1  0.16505083  0.00096593  0.50194486  1
  Mn3.30+  Mn74  1  0.16795653  0.33484641  -0.00334005  1
  Mn3.30+  Mn75  1  0.16829981  0.33435988  0.50107457  1
  Mn3.30+  Mn76  1  0.17054612  0.66570921  -0.00152873  1
  Mn3.30+  Mn77  1  0.16573809  0.66564730  0.49898487  1
  Mn3.30+  Mn78  1  0.50118602  -0.00054224  0.00188656  1
  Mn3.30+  Mn79  1  0.49918005  0.00012602  0.49913090  1
  Mn3.30+  Mn80  1  0.49817380  0.33171718  -0.00198669  1
  Mn3.30+  Mn81  1  0.49860169  0.33414583  0.50107842  1
  Mn3.30+  Mn82  1  0.49701061  0.66755164  0.00166834  1
  Mn3.30+  Mn83  1  0.49927436  0.66505109  0.49885665  1
  Mn3.30+  Mn84  1  0.83185685  0.00089657  0.00035091  1
  Mn3.30+  Mn85  1  0.83599769  0.00049897  0.50112745  1
  Mn3.30+  Mn86  1  0.83230910  0.33476781  -0.00046454  1
  Mn3.30+  Mn87  1  0.83441158  0.33441082  0.50033912  1
  Mn3.30+  Mn88  1  0.83327742  0.66441153  -0.00043302  1
  Mn3.30+  Mn89  1  0.83411621  0.66512135  0.49938504  1
  Mn3.30+  Mn90  1  -0.00020799  0.16657655  0.24977452  1
  Mn3.30+  Mn91  1  0.00239820  0.16649766  0.74781159  1
  Mn3.30+  Mn92  1  -0.00101711  0.49915350  0.24969623  1
  Mn3.30+  Mn93  1  0.00186522  0.49878936  0.75310274  1
  Mn3.30+  Mn94  1  0.00035251  0.83188828  0.25104960  1
  Mn3.30+  Mn95  1  0.00085739  0.83359106  0.74975399  1
  Mn3.30+  Mn96  1  0.33281464  0.16723402  0.25077936  1
  Mn3.30+  Mn97  1  0.33343003  0.16959126  0.74938597  1
  Mn3.30+  Mn98  1  0.33251472  0.50110131  0.24951641  1
  Mn3.30+  Mn99  1  0.33190140  0.49857216  0.75322107  1
  Mn3.30+  Mn100  1  0.33277075  0.83205343  0.24991048  1
  Mn3.30+  Mn101  1  0.33324025  0.83266257  0.74957486  1
  Mn3.30+  Mn102  1  0.66681058  0.16623403  0.24939611  1
  Mn3.30+  Mn103  1  0.66420563  0.16802806  0.75147468  1
  Mn3.30+  Mn104  1  0.67014186  0.50022043  0.24785571  1
  Mn3.30+  Mn105  1  0.66755292  0.49928242  0.75226785  1
  Mn3.30+  Mn106  1  0.66526438  0.83408005  0.24795184  1
  Mn3.30+  Mn107  1  0.66585539  0.83354452  0.75082453  1
  Mn3.30+  Mn108  1  0.16621434  -0.00058194  0.25125852  1
  Mn3.30+  Mn109  1  0.16611336  0.00314004  0.74772401  1
  Mn3.30+  Mn110  1  0.16641830  0.33516210  0.24973009  1
  Mn3.30+  Mn111  1  0.17012460  0.33407746  0.75219058  1
  Mn3.30+  Mn112  1  0.16743695  0.66662818  0.24977655  1
  Mn3.30+  Mn113  1  0.16850251  0.66488259  0.75315801  1
  Mn3.30+  Mn114  1  0.50058879  -0.00117366  0.24906483  1
  Mn3.30+  Mn115  1  0.49960645  0.00097665  0.74947159  1
  Mn3.30+  Mn116  1  0.50021999  0.33418708  0.24975739  1
  Mn3.30+  Mn117  1  0.49600463  0.33164769  0.75091501  1
  Mn3.30+  Mn118  1  0.49883568  0.66797647  0.24787093  1
  Mn3.30+  Mn119  1  0.49847513  0.66437654  0.75113828  1
  Mn3.30+  Mn120  1  0.83212760  0.00028944  0.24949188  1
  Mn3.30+  Mn121  1  0.83577792  0.00098753  0.74939942  1
  Mn3.30+  Mn122  1  0.83435831  0.33568521  0.24902695  1
  Mn3.30+  Mn123  1  0.83268665  0.33342550  0.75083485  1
  Mn3.30+  Mn124  1  0.83354211  0.66416275  0.24888921  1
  Mn3.30+  Mn125  1  0.83352049  0.66558353  0.75195732  1
  Mn3.30+  Mn126  1  0.00095964  0.16650905  -0.00051651  1
  Mn3.30+  Mn127  1  0.00098981  0.16663708  0.50320439  1
  Mn3.30+  Mn128  1  0.00029283  0.49935692  -0.00151212  1
  Mn3.30+  Mn129  1  0.00065024  0.49871580  0.49889780  1
  Mn3.30+  Mn130  1  -0.00029834  0.83329404  -0.00051812  1
  Mn3.30+  Mn131  1  0.00215197  0.83203100  0.50010146  1
  Mn3.30+  Mn132  1  0.33548247  0.16676596  -0.00233837  1
  Mn3.30+  Mn133  1  0.33080214  0.17041088  0.50224194  1
  Mn3.30+  Mn134  1  0.33162614  0.50106323  -0.00214135  1
  Mn3.30+  Mn135  1  0.33201970  0.49885004  0.49884078  1
  Mn3.30+  Mn136  1  0.33495265  0.83184279  0.00224368  1
  Mn3.30+  Mn137  1  0.33107590  0.83239895  0.49810318  1
  Mn3.30+  Mn138  1  0.66567172  0.16562382  -0.00087982  1
  Mn3.30+  Mn139  1  0.66568541  0.16859361  0.50029829  1
  Mn3.30+  Mn140  1  0.66883320  0.50038486  0.00088347  1
  Mn3.30+  Mn141  1  0.66873139  0.49892040  0.49931906  1
  Mn3.30+  Mn142  1  0.66317297  0.83593932  0.00009442  1
  Mn3.30+  Mn143  1  0.66801184  0.83188134  0.50050689  1
  O2-  O144  1  0.02440966  0.16561101  0.12399138  1
  O2-  O145  1  0.02805584  0.16413951  0.62455311  1
  O2-  O146  1  0.02770945  0.49616627  0.12364844  1
  O2-  O147  1  0.02711207  0.49499029  0.62754633  1
  O2-  O148  1  0.02510504  0.82780258  0.12416961  1
  O2-  O149  1  0.02649988  0.82303605  0.62534755  1
  O2-  O150  1  0.35831713  0.16119863  0.12506813  1
  O2-  O151  1  0.35422613  0.16275660  0.62394835  1
  O2-  O152  1  0.35760502  0.49174816  0.12410374  1
  O2-  O153  1  0.35500054  0.49599982  0.62568361  1
  O2-  O154  1  0.36008084  0.82783318  0.12593501  1
  O2-  O155  1  0.35925901  0.82546208  0.62308274  1
  O2-  O156  1  0.69208832  0.15853504  0.12540998  1
  O2-  O157  1  0.68522338  0.16338371  0.62479961  1
  O2-  O158  1  0.69552685  0.49634494  0.12369029  1
  O2-  O159  1  0.69161295  0.49622145  0.62500516  1
  O2-  O160  1  0.69258423  0.82712997  0.12233095  1
  O2-  O161  1  0.69297360  0.82472579  0.62602233  1
  O2-  O162  1  0.14324652  0.32835991  0.12347557  1
  O2-  O163  1  0.14424651  0.33412260  0.62638944  1
  O2-  O164  1  0.14045745  0.66213473  0.12389985  1
  O2-  O165  1  0.14180110  0.65781715  0.62783025  1
  O2-  O166  1  0.14856051  0.99477675  0.12649831  1
  O2-  O167  1  0.13823651  0.99125232  0.62370724  1
  O2-  O168  1  0.47468368  0.32735182  0.12387278  1
  O2-  O169  1  0.47347394  0.33717008  0.62785972  1
  O2-  O170  1  0.47334094  0.65970510  0.12530406  1
  O2-  O171  1  0.47551137  0.65884200  0.62644884  1
  O2-  O172  1  0.47331704  0.99463040  0.12740950  1
  O2-  O173  1  0.47422190  0.99279795  0.62172856  1
  O2-  O174  1  0.80830557  0.32265370  0.12493942  1
  O2-  O175  1  0.80866321  0.33376038  0.62664965  1
  O2-  O176  1  0.80808390  0.65827542  0.12278283  1
  O2-  O177  1  0.80799145  0.65767738  0.62814189  1
  O2-  O178  1  0.80632115  0.99721718  0.12347630  1
  O2-  O179  1  0.80816663  0.99533854  0.62522794  1
  O2-  O180  1  0.30632979  0.17520560  0.37751948  1
  O2-  O181  1  0.31566681  0.16346819  0.87400799  1
  O2-  O182  1  0.30586139  0.50521489  0.37283725  1
  O2-  O183  1  0.30708823  0.51146378  0.87678236  1
  O2-  O184  1  0.30334482  0.83949217  0.37623013  1
  O2-  O185  1  0.31041753  0.84369955  0.87504300  1
  O2-  O186  1  0.64077422  0.17486497  0.37463298  1
  O2-  O187  1  0.63941388  0.16349582  0.87534255  1
  O2-  O188  1  0.64815279  0.50280709  0.37360006  1
  O2-  O189  1  0.63932086  0.50528858  0.87792194  1
  O2-  O190  1  0.64242540  0.83764836  0.37568348  1
  O2-  O191  1  0.63728069  0.84273883  0.87541735  1
  O2-  O192  1  0.97688359  0.17471046  0.37649110  1
  O2-  O193  1  0.97672187  0.17189251  0.87475067  1
  O2-  O194  1  0.97171374  0.50289361  0.37327078  1
  O2-  O195  1  0.97103332  0.50404375  0.87558587  1
  O2-  O196  1  0.98063409  0.83623866  0.37691344  1
  O2-  O197  1  0.97479395  0.84037413  0.87420566  1
  O2-  O198  1  0.19206188  0.00920408  0.37684604  1
  O2-  O199  1  0.19253499  0.00122216  0.87291521  1
  O2-  O200  1  0.19039577  0.33776727  0.37430563  1
  O2-  O201  1  0.19481095  0.33934528  0.87595818  1
  O2-  O202  1  0.19071421  0.67466987  0.37315850  1
  O2-  O203  1  0.19671778  0.67713246  0.87528879  1
  O2-  O204  1  0.52478411  0.00467753  0.37502380  1
  O2-  O205  1  0.52058927  0.00488426  0.87628877  1
  O2-  O206  1  0.52477331  0.33505367  0.37215796  1
  O2-  O207  1  0.51942609  0.34038784  0.87646485  1
  O2-  O208  1  0.52720478  0.67251979  0.37218029  1
  O2-  O209  1  0.52570270  0.67050260  0.87552859  1
  O2-  O210  1  0.85790015  0.00488967  0.37682850  1
  O2-  O211  1  0.85961802  0.00463604  0.87418820  1
  O2-  O212  1  0.85887430  0.34129690  0.37321209  1
  O2-  O213  1  0.85786430  0.33695626  0.87526545  1
  O2-  O214  1  0.85896492  0.67020136  0.37379531  1
  O2-  O215  1  0.85983264  0.67729642  0.87505881  1
  O2-  O216  1  0.24144959  0.09364321  0.02132689  1
  O2-  O217  1  0.23568885  0.09758813  0.52158603  1
  O2-  O218  1  0.23827838  0.42900274  0.02246318  1
  O2-  O219  1  0.23721913  0.42983075  0.51657997  1
  O2-  O220  1  0.23634472  0.76457724  0.01909251  1
  O2-  O221  1  0.23965435  0.75981566  0.52363867  1
  O2-  O222  1  0.57181789  0.09307055  0.02160206  1
  O2-  O223  1  0.57400817  0.09262442  0.51530633  1
  O2-  O224  1  0.57161707  0.42839156  0.02148148  1
  O2-  O225  1  0.57497568  0.42622661  0.52167802  1
  O2-  O226  1  0.56987275  0.76413125  0.02062695  1
  O2-  O227  1  0.57130990  0.76013557  0.52087619  1
  O2-  O228  1  0.90304190  0.09640100  0.01574308  1
  O2-  O229  1  0.90747601  0.09502826  0.51532666  1
  O2-  O230  1  0.90613305  0.42610352  0.02294954  1
  O2-  O231  1  0.90855682  0.42706587  0.52397015  1
  O2-  O232  1  0.90402340  0.76006062  0.02092387  1
  O2-  O233  1  0.90595426  0.75914841  0.52367940  1
  O2-  O234  1  0.26132711  0.26117871  0.22866658  1
  O2-  O235  1  0.26327484  0.26326848  0.73245343  1
  O2-  O236  1  0.26196591  0.59722570  0.22793207  1
  O2-  O237  1  0.26158890  0.59373954  0.72792388  1
  O2-  O238  1  0.26358955  0.92787649  0.23082870  1
  O2-  O239  1  0.25961998  0.92988733  0.72696995  1
  O2-  O240  1  0.59575697  0.26032191  0.22749359  1
  O2-  O241  1  0.59309330  0.26337923  0.73180941  1
  O2-  O242  1  0.59665439  0.59413183  0.22891705  1
  O2-  O243  1  0.59469268  0.59420269  0.73094276  1
  O2-  O244  1  0.59522353  0.93194707  0.23278922  1
  O2-  O245  1  0.59528858  0.92633912  0.72703711  1
  O2-  O246  1  0.92768790  0.26270761  0.22976006  1
  O2-  O247  1  0.92880972  0.26155204  0.73378568  1
  O2-  O248  1  0.93191161  0.59525490  0.23030686  1
  O2-  O249  1  0.93050429  0.59280905  0.73083398  1
  O2-  O250  1  0.92435939  0.92459827  0.23370307  1
  O2-  O251  1  0.92846410  0.92836310  0.72699080  1
  O2-  O252  1  0.09495609  0.23906338  0.26920933  1
  O2-  O253  1  0.09222300  0.24478290  0.76773201  1
  O2-  O254  1  0.09592029  0.56996305  0.27108226  1
  O2-  O255  1  0.09630417  0.57185728  0.77531608  1
  O2-  O256  1  0.09670484  0.90636232  0.27068608  1
  O2-  O257  1  0.09553059  0.90482388  0.77051607  1
  O2-  O258  1  0.42680056  0.23799547  0.27018144  1
  O2-  O259  1  0.42917390  0.23709250  0.77160805  1
  O2-  O260  1  0.42528805  0.57393264  0.26764236  1
  O2-  O261  1  0.43042795  0.56780613  0.76718492  1
  O2-  O262  1  0.42645428  0.90637343  0.27393367  1
  O2-  O263  1  0.42919448  0.90442348  0.76802020  1
  O2-  O264  1  0.76328301  0.24047000  0.27138179  1
  O2-  O265  1  0.75991822  0.23887610  0.76909444  1
  O2-  O266  1  0.76281255  0.57180777  0.27220674  1
  O2-  O267  1  0.76222065  0.57249982  0.77381574  1
  O2-  O268  1  0.75784697  0.90700676  0.26692289  1
  O2-  O269  1  0.76244996  0.90707804  0.77030039  1
  O2-  O270  1  0.07186978  0.07225904  0.47676755  1
  O2-  O271  1  0.07079557  0.07355363  0.98109219  1
  O2-  O272  1  0.07071858  0.40355495  0.48234623  1
  O2-  O273  1  0.06968858  0.40543986  0.98064565  1
  O2-  O274  1  0.07000329  0.73407222  0.48327286  1
  O2-  O275  1  0.07374380  0.73772555  0.97846804  1
  O2-  O276  1  0.40260114  0.07400932  0.47895005  1
  O2-  O277  1  0.40445828  0.06773554  0.98595742  1
  O2-  O278  1  0.40476866  0.40718198  0.48050957  1
  O2-  O279  1  0.40042559  0.40426181  0.98007326  1
  O2-  O280  1  0.40368194  0.73998098  0.47722649  1
  O2-  O281  1  0.40339766  0.73852357  0.97596123  1
  O2-  O282  1  0.73804185  0.07479319  0.48014488  1
  O2-  O283  1  0.74033859  0.07385730  0.97508327  1
  O2-  O284  1  0.73842296  0.40459391  0.48236575  1
  O2-  O285  1  0.73866532  0.40507831  0.98503656  1
  O2-  O286  1  0.73592823  0.73448533  0.48366902  1
  O2-  O287  1  0.73543306  0.74143989  0.97878760  1
  O2-  O288  1  0.09489111  0.24076927  0.48065377  1
  O2-  O289  1  0.09283270  0.24264867  0.98212474  1
  O2-  O290  1  0.09373242  0.56942840  0.47737760  1
  O2-  O291  1  0.09844617  0.57195298  0.97697307  1
  O2-  O292  1  0.09784549  0.90275119  0.47873555  1
  O2-  O293  1  0.09416625  0.90689664  0.97991487  1
  O2-  O294  1  0.42651121  0.24091133  0.47724211  1
  O2-  O295  1  0.43010588  0.23354475  0.98246093  1
  O2-  O296  1  0.42367064  0.57448106  0.48194600  1
  O2-  O297  1  0.42996203  0.56768200  0.98318218  1
  O2-  O298  1  0.42663044  0.90406867  0.47786694  1
  O2-  O299  1  0.42854228  0.90523421  0.98016685  1
  O2-  O300  1  0.76029452  0.24132799  0.47745795  1
  O2-  O301  1  0.76278506  0.23622973  0.98275938  1
  O2-  O302  1  0.76329259  0.57001916  0.48056915  1
  O2-  O303  1  0.76156138  0.57388575  0.97439762  1
  O2-  O304  1  0.75967170  0.90740599  0.48423141  1
  O2-  O305  1  0.75902329  0.90672380  0.97751183  1
  O2-  O306  1  0.07246018  0.07272989  0.27270046  1
  O2-  O307  1  0.07118605  0.07052417  0.76842841  1
  O2-  O308  1  0.06832657  0.40441131  0.26682842  1
  O2-  O309  1  0.07211986  0.40551958  0.77079613  1
  O2-  O310  1  0.07054456  0.73488211  0.26689115  1
  O2-  O311  1  0.07364122  0.73734256  0.77215734  1
  O2-  O312  1  0.40390847  0.07165786  0.27223110  1
  O2-  O313  1  0.40284400  0.06986751  0.76315316  1
  O2-  O314  1  0.40278374  0.40447352  0.26569591  1
  O2-  O315  1  0.40351497  0.40640459  0.77410800  1
  O2-  O316  1  0.40384472  0.74165785  0.27528606  1
  O2-  O317  1  0.40552255  0.73454678  0.77088819  1
  O2-  O318  1  0.73866770  0.07459577  0.27484700  1
  O2-  O319  1  0.74079187  0.07261848  0.76881516  1
  O2-  O320  1  0.73727176  0.40264255  0.26547919  1
  O2-  O321  1  0.74015208  0.40748303  0.76601775  1
  O2-  O322  1  0.73580916  0.73471419  0.26445539  1
  O2-  O323  1  0.73624956  0.74025707  0.77261336  1
  O2-  O324  1  0.23806114  0.09558967  0.23112103  1
  O2-  O325  1  0.23812099  0.09555772  0.72599768  1
  O2-  O326  1  0.23901966  0.42806138  0.22785331  1
  O2-  O327  1  0.23762587  0.43004954  0.73192891  1
  O2-  O328  1  0.23796797  0.76232809  0.22884747  1
  O2-  O329  1  0.23797727  0.76135348  0.72838043  1
  O2-  O330  1  0.56734544  0.09595122  0.23369934  1
  O2-  O331  1  0.57596502  0.08846750  0.73044507  1
  O2-  O332  1  0.57551534  0.42790884  0.22576550  1
  O2-  O333  1  0.57110902  0.42760645  0.73122766  1
  O2-  O334  1  0.57015447  0.76409561  0.22760643  1
  O2-  O335  1  0.56955056  0.75938812  0.72965836  1
  O2-  O336  1  0.90291316  0.09694890  0.23462506  1
  O2-  O337  1  0.90726337  0.09397874  0.73483251  1
  O2-  O338  1  0.90562854  0.42724425  0.22299814  1
  O2-  O339  1  0.90931386  0.42517425  0.72884924  1
  O2-  O340  1  0.90389815  0.75753460  0.22571662  1
  O2-  O341  1  0.90478952  0.76095552  0.72928003  1
  O2-  O342  1  0.26087996  0.25863735  0.02010138  1
  O2-  O343  1  0.26329009  0.26679699  0.51962251  1
  O2-  O344  1  0.26253956  0.59612221  0.02552254  1
  O2-  O345  1  0.26055190  0.59495983  0.51940940  1
  O2-  O346  1  0.26320749  0.92601922  0.02046652  1
  O2-  O347  1  0.26237361  0.92959629  0.52153333  1
  O2-  O348  1  0.59534571  0.25841088  0.02321650  1
  O2-  O349  1  0.59584311  0.26352075  0.51737848  1
  O2-  O350  1  0.59526698  0.59551254  0.02135396  1
  O2-  O351  1  0.59609664  0.59166443  0.51898218  1
  O2-  O352  1  0.59695556  0.93196555  0.02034065  1
  O2-  O353  1  0.59519387  0.92542950  0.52072765  1
  O2-  O354  1  0.92768414  0.26023071  0.01874233  1
  O2-  O355  1  0.93024392  0.26337286  0.51737140  1
  O2-  O356  1  0.93331285  0.59505205  0.01700637  1
  O2-  O357  1  0.92969699  0.59314937  0.52190551  1
  O2-  O358  1  0.92188160  0.92534858  0.01807964  1
  O2-  O359  1  0.93188613  0.92645356  0.52154175  1
