# generated using pymatgen
data_Sr7Ca15Pr50Mn72O216
_symmetry_space_group_name_H-M   'P 1'
_cell_length_a   16.55432338
_cell_length_b   16.59896910
_cell_length_c   15.58927106
_cell_angle_alpha   89.99765976
_cell_angle_beta   90.00091988
_cell_angle_gamma   89.99849639
_symmetry_Int_Tables_number   1
_chemical_formula_structural   Sr7Ca15Pr50Mn72O216
_chemical_formula_sum   'Sr7 Ca15 Pr50 Mn72 O216'
_cell_volume   4283.69319925
_cell_formula_units_Z   1
loop_
 _symmetry_equiv_pos_site_id
 _symmetry_equiv_pos_as_xyz
  1  'x, y, z'
loop_
 _atom_type_symbol
 _atom_type_oxidation_number
  Sr2+  2.0
  Ca2+  2.0
  Pr3+  3.0
  Mn3.30+  3.3
  O2-  -2.0
loop_
 _atom_site_type_symbol
 _atom_site_label
 _atom_site_symmetry_multiplicity
 _atom_site_fract_x
 _atom_site_fract_y
 _atom_site_fract_z
 _atom_site_occupancy
  Sr2+  Sr0  1  0.16851657  0.84497517  0.12351300  1
  Sr2+  Sr1  1  0.50056662  0.17584148  0.12722245  1
  Sr2+  Sr2  1  0.16696712  0.82740452  0.87700675  1
  Sr2+  Sr3  1  0.83097388  0.82642325  0.87673479  1
  Sr2+  Sr4  1  0.83073738  0.15743826  0.87565742  1
  Sr2+  Sr5  1  0.16674120  0.15665628  0.87445514  1
  Sr2+  Sr6  1  0.99969941  0.32461878  0.37714973  1
  Ca2+  Ca7  1  0.83272430  0.15158091  0.37532553  1
  Ca2+  Ca8  1  0.83136125  0.48472947  0.37627781  1
  Ca2+  Ca9  1  0.33025797  0.68181946  0.62508708  1
  Ca2+  Ca10  1  0.66449652  0.68337792  0.62401778  1
  Ca2+  Ca11  1  0.33384562  0.98540114  0.87683400  1
  Ca2+  Ca12  1  -0.00465248  0.34707496  0.62551658  1
  Ca2+  Ca13  1  -0.00392106  0.01360938  0.62522958  1
  Ca2+  Ca14  1  0.49629913  0.81855113  0.37470008  1
  Ca2+  Ca15  1  1.00198688  0.98836718  0.37517393  1
  Ca2+  Ca16  1  0.83712451  0.84981099  0.12525522  1
  Ca2+  Ca17  1  0.49655574  0.15251569  0.37423953  1
  Ca2+  Ca18  1  0.33581227  0.31786557  0.87645776  1
  Ca2+  Ca19  1  0.50317047  0.84940643  0.12686454  1
  Ca2+  Ca20  1  0.33215907  0.34416437  0.12269337  1
  Ca2+  Ca21  1  0.66976417  0.31680240  0.87632750  1
  Pr3+  Pr22  1  0.16928764  0.84666469  0.62568021  1
  Pr3+  Pr23  1  0.66307833  0.34379901  0.12336101  1
  Pr3+  Pr24  1  1.00379132  0.31788252  0.87325077  1
  Pr3+  Pr25  1  0.67137238  0.65751874  0.87329923  1
  Pr3+  Pr26  1  0.50281575  0.17948386  0.62307334  1
  Pr3+  Pr27  1  0.33000320  0.01107387  0.12320758  1
  Pr3+  Pr28  1  0.49475323  0.15277864  0.87534560  1
  Pr3+  Pr29  1  0.82921261  0.48550372  0.87468279  1
  Pr3+  Pr30  1  0.33215760  0.68098153  0.12517425  1
  Pr3+  Pr31  1  0.49839321  0.48729706  0.37500515  1
  Pr3+  Pr32  1  0.67303971  0.31822490  0.37478890  1
  Pr3+  Pr33  1  0.17151932  0.50999023  0.12564873  1
  Pr3+  Pr34  1  0.66359067  0.01184692  0.12461951  1
  Pr3+  Pr35  1  -0.00301132  0.68029816  0.62437254  1
  Pr3+  Pr36  1  0.49657281  0.48285284  0.87426226  1
  Pr3+  Pr37  1  0.66339458  0.68274088  0.12559879  1
  Pr3+  Pr38  1  -0.00372216  0.68349002  0.12590119  1
  Pr3+  Pr39  1  0.16815790  0.51316919  0.62428462  1
  Pr3+  Pr40  1  0.17275226  0.18051704  0.12419522  1
  Pr3+  Pr41  1  0.66495421  0.01233382  0.62497884  1
  Pr3+  Pr42  1  0.83638037  0.51258562  0.62314786  1
  Pr3+  Pr43  1  0.66973875  0.65252872  0.37654403  1
  Pr3+  Pr44  1  0.16243839  0.82217117  0.37347458  1
  Pr3+  Pr45  1  -0.00086220  0.34341942  0.12414955  1
  Pr3+  Pr46  1  0.33776382  0.31786952  0.37487865  1
  Pr3+  Pr47  1  0.33613833  0.65675234  0.87475609  1
  Pr3+  Pr48  1  0.16399123  0.17837322  0.62602701  1
  Pr3+  Pr49  1  0.83101679  0.82378039  0.37293835  1
  Pr3+  Pr50  1  1.00219031  0.98863841  0.87375171  1
  Pr3+  Pr51  1  0.50172139  0.50889778  0.12487660  1
  Pr3+  Pr52  1  -0.00089839  0.00998322  0.12543363  1
  Pr3+  Pr53  1  1.00177044  0.65356257  0.37511422  1
  Pr3+  Pr54  1  0.83898655  0.18009755  0.62449983  1
  Pr3+  Pr55  1  0.33159915  0.34442328  0.62770872  1
  Pr3+  Pr56  1  0.33811223  0.98554696  0.37496450  1
  Pr3+  Pr57  1  0.32911550  0.01211782  0.62634993  1
  Pr3+  Pr58  1  0.49665284  0.82298927  0.87644000  1
  Pr3+  Pr59  1  0.50568051  0.51696837  0.62465905  1
  Pr3+  Pr60  1  0.16538202  0.48797945  0.87408735  1
  Pr3+  Pr61  1  0.83597563  0.84885126  0.62494696  1
  Pr3+  Pr62  1  0.16464401  0.48607237  0.37600451  1
  Pr3+  Pr63  1  0.66585023  0.98950991  0.37332475  1
  Pr3+  Pr64  1  0.50171481  0.84479879  0.62337540  1
  Pr3+  Pr65  1  0.83440582  0.17728879  0.12597412  1
  Pr3+  Pr66  1  1.00318908  0.65808529  0.87523090  1
  Pr3+  Pr67  1  0.16027188  0.15233676  0.37501654  1
  Pr3+  Pr68  1  0.83672292  0.51116045  0.12668711  1
  Pr3+  Pr69  1  0.33747626  0.65497669  0.37566233  1
  Pr3+  Pr70  1  0.66476166  0.34562969  0.62739653  1
  Pr3+  Pr71  1  0.67060425  0.98812136  0.87598269  1
  Mn3.30+  Mn72  1  0.16703682  0.00074772  -0.00188535  1
  Mn3.30+  Mn73  1  0.16336102  0.00030653  0.50057451  1
  Mn3.30+  Mn74  1  0.16947251  0.33330722  -0.00187585  1
  Mn3.30+  Mn75  1  0.16538255  0.33249333  0.50211241  1
  Mn3.30+  Mn76  1  0.16802102  0.66743057  -0.00021790  1
  Mn3.30+  Mn77  1  0.16821426  0.66765450  0.50062592  1
  Mn3.30+  Mn78  1  0.49852740  -0.00102306  0.00066181  1
  Mn3.30+  Mn79  1  0.49900052  0.00025904  0.49912551  1
  Mn3.30+  Mn80  1  0.49851932  0.33111960  -0.00021201  1
  Mn3.30+  Mn81  1  0.50136650  0.33271259  0.49909366  1
  Mn3.30+  Mn82  1  0.50179342  0.66664917  0.00063572  1
  Mn3.30+  Mn83  1  0.50086386  0.66864777  0.50098696  1
  Mn3.30+  Mn84  1  0.83237939  0.00025787  0.00142514  1
  Mn3.30+  Mn85  1  0.83523181  0.00173370  0.49701262  1
  Mn3.30+  Mn86  1  0.83149215  0.33226736  -0.00025850  1
  Mn3.30+  Mn87  1  0.83446345  0.33256574  0.49904639  1
  Mn3.30+  Mn88  1  0.83325763  0.66875216  0.00072880  1
  Mn3.30+  Mn89  1  0.83196558  0.66695347  0.49957908  1
  Mn3.30+  Mn90  1  -0.00045127  0.16617033  0.25219024  1
  Mn3.30+  Mn91  1  -0.00053153  0.16567074  0.74885739  1
  Mn3.30+  Mn92  1  0.00046466  0.49903502  0.25075862  1
  Mn3.30+  Mn93  1  -0.00098437  0.50015229  0.74973606  1
  Mn3.30+  Mn94  1  -0.00232028  0.83605470  0.25014886  1
  Mn3.30+  Mn95  1  0.00003107  0.83454213  0.74973130  1
  Mn3.30+  Mn96  1  0.33421957  0.16665060  0.25028647  1
  Mn3.30+  Mn97  1  0.33306422  0.16587680  0.75158457  1
  Mn3.30+  Mn98  1  0.33463022  0.49783027  0.24975273  1
  Mn3.30+  Mn99  1  0.33434662  0.50042620  0.74927887  1
  Mn3.30+  Mn100  1  0.33551819  0.83361476  0.24965620  1
  Mn3.30+  Mn101  1  0.33353379  0.83273025  0.75031860  1
  Mn3.30+  Mn102  1  0.66629040  0.16560514  0.25254550  1
  Mn3.30+  Mn103  1  0.66688247  0.16769227  0.75038276  1
  Mn3.30+  Mn104  1  0.66878366  0.49936581  0.25024221  1
  Mn3.30+  Mn105  1  0.66658479  0.50110232  0.75042668  1
  Mn3.30+  Mn106  1  0.66445024  0.83384731  0.25019670  1
  Mn3.30+  Mn107  1  0.66671088  0.83323809  0.74829074  1
  Mn3.30+  Mn108  1  0.16588036  -0.00029461  0.25058321  1
  Mn3.30+  Mn109  1  0.16528612  0.00064579  0.75047703  1
  Mn3.30+  Mn110  1  0.16863786  0.33269442  0.25024739  1
  Mn3.30+  Mn111  1  0.16581452  0.33335550  0.74904164  1
  Mn3.30+  Mn112  1  0.16773323  0.66681901  0.24981773  1
  Mn3.30+  Mn113  1  0.16839000  0.66805942  0.74956332  1
  Mn3.30+  Mn114  1  0.49913880  -0.00098905  0.25075285  1
  Mn3.30+  Mn115  1  0.49832875  -0.00071604  0.75020249  1
  Mn3.30+  Mn116  1  0.50005554  0.33112905  0.24960483  1
  Mn3.30+  Mn117  1  0.49967030  0.33209131  0.75190970  1
  Mn3.30+  Mn118  1  0.50111234  0.66814592  0.25000871  1
  Mn3.30+  Mn119  1  0.50190132  0.66773128  0.74829369  1
  Mn3.30+  Mn120  1  0.83398747  0.00050686  0.25169217  1
  Mn3.30+  Mn121  1  0.83360530  0.00175131  0.74956004  1
  Mn3.30+  Mn122  1  0.83354568  0.33218241  0.25191118  1
  Mn3.30+  Mn123  1  0.83236361  0.33308488  0.75027531  1
  Mn3.30+  Mn124  1  0.83267704  0.66666065  0.25035622  1
  Mn3.30+  Mn125  1  0.83238372  0.66849337  0.74892855  1
  Mn3.30+  Mn126  1  0.00120662  0.16567735  0.00036113  1
  Mn3.30+  Mn127  1  -0.00205621  0.16579403  0.49806992  1
  Mn3.30+  Mn128  1  0.00038789  0.50061240  -0.00023613  1
  Mn3.30+  Mn129  1  -0.00092471  0.49856843  0.49978094  1
  Mn3.30+  Mn130  1  -0.00175868  0.83459400  0.00087111  1
  Mn3.30+  Mn131  1  -0.00070279  0.83667471  0.49939348  1
  Mn3.30+  Mn132  1  0.33397261  0.16713972  -0.00135154  1
  Mn3.30+  Mn133  1  0.33291534  0.16579689  0.50008993  1
  Mn3.30+  Mn134  1  0.33464439  0.49725400  -0.00113482  1
  Mn3.30+  Mn135  1  0.33452333  0.50082371  0.50234553  1
  Mn3.30+  Mn136  1  0.33475567  0.83457429  0.00018161  1
  Mn3.30+  Mn137  1  0.33390028  0.83198479  0.50007429  1
  Mn3.30+  Mn138  1  0.66486245  0.16764526  -0.00026751  1
  Mn3.30+  Mn139  1  0.66813996  0.16581368  0.49818117  1
  Mn3.30+  Mn140  1  0.66679183  0.49994352  -0.00136081  1
  Mn3.30+  Mn141  1  0.66852276  0.50001575  0.50024409  1
  Mn3.30+  Mn142  1  0.66614978  0.83442600  0.00330651  1
  Mn3.30+  Mn143  1  0.66538805  0.83313042  0.49796097  1
  O2-  O144  1  0.02743045  0.16044669  0.12642291  1
  O2-  O145  1  0.02152781  0.15732796  0.62310621  1
  O2-  O146  1  0.02666316  0.49290302  0.12430570  1
  O2-  O147  1  0.02309051  0.49616101  0.62563279  1
  O2-  O148  1  0.01955081  0.83131801  0.12697266  1
  O2-  O149  1  0.02568683  0.82632110  0.62352361  1
  O2-  O150  1  0.35160396  0.15813933  0.12512369  1
  O2-  O151  1  0.35918182  0.16024410  0.62637500  1
  O2-  O152  1  0.35852163  0.49032586  0.12267225  1
  O2-  O153  1  0.36280451  0.49042361  0.62587730  1
  O2-  O154  1  0.36078057  0.82906259  0.12631721  1
  O2-  O155  1  0.35760192  0.82891673  0.62521790  1
  O2-  O156  1  0.68987952  0.16176447  0.12819374  1
  O2-  O157  1  0.69300459  0.16073178  0.62339265  1
  O2-  O158  1  0.69252571  0.49278869  0.12548106  1
  O2-  O159  1  0.69294805  0.49193877  0.62779072  1
  O2-  O160  1  0.69495973  0.82930271  0.12743576  1
  O2-  O161  1  0.69171798  0.82968460  0.62038222  1
  O2-  O162  1  0.14351924  0.33126787  0.12291223  1
  O2-  O163  1  0.13885814  0.32839897  0.62463694  1
  O2-  O164  1  0.14207308  0.65850297  0.12629589  1
  O2-  O165  1  0.14046591  0.66172731  0.62483111  1
  O2-  O166  1  0.14480168  1.00154295  0.12569395  1
  O2-  O167  1  0.13976574  0.99462201  0.62373224  1
  O2-  O168  1  0.47486805  0.33404744  0.12514719  1
  O2-  O169  1  0.47594230  0.32808683  0.62405481  1
  O2-  O170  1  0.47483958  0.65537453  0.12479998  1
  O2-  O171  1  0.47227710  0.66276620  0.62430991  1
  O2-  O172  1  0.47435942  0.99435478  0.12602929  1
  O2-  O173  1  0.47385055  0.99408878  0.62406097  1
  O2-  O174  1  0.80759635  0.32803972  0.12623940  1
  O2-  O175  1  0.80770232  0.32897138  0.62490283  1
  O2-  O176  1  0.80687555  0.65655281  0.12628946  1
  O2-  O177  1  0.80680897  0.65987801  0.62145854  1
  O2-  O178  1  0.80797131  0.99745682  0.12714758  1
  O2-  O179  1  0.80846126  0.99709993  0.62176068  1
  O2-  O180  1  0.30498368  0.17161279  0.37539936  1
  O2-  O181  1  0.31505615  0.17501889  0.87333277  1
  O2-  O182  1  0.30859318  0.50720809  0.37861248  1
  O2-  O183  1  0.30871150  0.51034237  0.87310053  1
  O2-  O184  1  0.30666431  0.83688762  0.37490610  1
  O2-  O185  1  0.31709404  0.83498223  0.87323818  1
  O2-  O186  1  0.63867878  0.17156907  0.37620679  1
  O2-  O187  1  0.64028473  0.17068983  0.87236023  1
  O2-  O188  1  0.64129725  0.50458109  0.37382225  1
  O2-  O189  1  0.63978155  0.51189881  0.87260501  1
  O2-  O190  1  0.63776359  0.84046962  0.37478700  1
  O2-  O191  1  0.64173709  0.83822670  0.87690042  1
  O2-  O192  1  0.97405505  0.17346126  0.37397901  1
  O2-  O193  1  0.98008769  0.17097930  0.87506771  1
  O2-  O194  1  0.97479565  0.50606633  0.37481826  1
  O2-  O195  1  0.97374509  0.50952797  0.87547811  1
  O2-  O196  1  0.97473671  0.84032028  0.37488027  1
  O2-  O197  1  0.97968208  0.83742811  0.87514130  1
  O2-  O198  1  0.19340585  0.00404887  0.37625594  1
  O2-  O199  1  0.19037361  0.00113492  0.87381900  1
  O2-  O200  1  0.19357427  0.33765508  0.37895518  1
  O2-  O201  1  0.19239260  0.33983783  0.87324383  1
  O2-  O202  1  0.19273230  0.67250961  0.37491335  1
  O2-  O203  1  0.19143656  0.66824891  0.87354262  1
  O2-  O204  1  0.52183151  0.00832813  0.37711415  1
  O2-  O205  1  0.52637941  0.00283799  0.87350092  1
  O2-  O206  1  0.52794978  0.34117786  0.37596050  1
  O2-  O207  1  0.52757177  0.33619637  0.87448316  1
  O2-  O208  1  0.52540436  0.67050024  0.37557847  1
  O2-  O209  1  0.52799161  0.67469831  0.87522489  1
  O2-  O210  1  0.86079564  0.00390481  0.37476129  1
  O2-  O211  1  0.85619329  0.00177196  0.87627164  1
  O2-  O212  1  0.85152588  0.34162644  0.37462128  1
  O2-  O213  1  0.85985283  0.33792006  0.87478043  1
  O2-  O214  1  0.85885085  0.67564242  0.37511566  1
  O2-  O215  1  0.85844163  0.67104207  0.87682866  1
  O2-  O216  1  0.24001919  0.09465381  0.01908498  1
  O2-  O217  1  0.23536060  0.09396098  0.52198664  1
  O2-  O218  1  0.23584095  0.43081258  0.01541932  1
  O2-  O219  1  0.24118227  0.42795277  0.52319330  1
  O2-  O220  1  0.24467115  0.75631167  0.01877363  1
  O2-  O221  1  0.23590158  0.76254497  0.51836558  1
  O2-  O222  1  0.57233091  0.09141909  0.01676016  1
  O2-  O223  1  0.57320075  0.09310444  0.52272473  1
  O2-  O224  1  0.56998945  0.42784392  0.01833734  1
  O2-  O225  1  0.57228923  0.43023467  0.52101970  1
  O2-  O226  1  0.57169468  0.76310693  0.02390540  1
  O2-  O227  1  0.57067014  0.76093183  0.52005201  1
  O2-  O228  1  0.90667094  0.09225276  0.02357417  1
  O2-  O229  1  0.90239846  0.09688430  0.51737210  1
  O2-  O230  1  0.90434864  0.42674868  0.01996538  1
  O2-  O231  1  0.90400961  0.42739321  0.51962517  1
  O2-  O232  1  0.90364533  0.76047063  0.02437844  1
  O2-  O233  1  0.90508642  0.76322947  0.52015857  1
  O2-  O234  1  0.26428547  0.26302176  0.22951171  1
  O2-  O235  1  0.25869881  0.25931515  0.72642024  1
  O2-  O236  1  0.26418679  0.59234112  0.22906321  1
  O2-  O237  1  0.26296532  0.59450430  0.72648296  1
  O2-  O238  1  0.26517046  0.92983518  0.23362008  1
  O2-  O239  1  0.25843065  0.92614560  0.72827588  1
  O2-  O240  1  0.59801405  0.26364151  0.23291053  1
  O2-  O241  1  0.59363910  0.25848066  0.72610753  1
  O2-  O242  1  0.59686123  0.59404855  0.23030042  1
  O2-  O243  1  0.59664023  0.59775377  0.72573697  1
  O2-  O244  1  0.59658945  0.92790238  0.23096263  1
  O2-  O245  1  0.59344629  0.92817790  0.72873680  1
  O2-  O246  1  0.92702101  0.25906617  0.22517056  1
  O2-  O247  1  0.92856878  0.26218969  0.72956241  1
  O2-  O248  1  0.93004562  0.59457281  0.22898331  1
  O2-  O249  1  0.92731628  0.59589253  0.72896586  1
  O2-  O250  1  0.92583570  0.92829413  0.23022766  1
  O2-  O251  1  0.92725010  0.92767012  0.72912088  1
  O2-  O252  1  0.09861050  0.23693669  0.26547351  1
  O2-  O253  1  0.09214943  0.24051193  0.76593717  1
  O2-  O254  1  0.09579233  0.57274410  0.27225345  1
  O2-  O255  1  0.09589233  0.57366465  0.76898253  1
  O2-  O256  1  0.09570913  0.90739460  0.26908340  1
  O2-  O257  1  0.09199543  0.90759255  0.76699302  1
  O2-  O258  1  0.42732021  0.23733040  0.27482043  1
  O2-  O259  1  0.42989733  0.23537411  0.76492434  1
  O2-  O260  1  0.42901767  0.57110245  0.27017253  1
  O2-  O261  1  0.43267032  0.57219072  0.77093340  1
  O2-  O262  1  0.42792359  0.90403993  0.27490137  1
  O2-  O263  1  0.43053560  0.90326499  0.76577239  1
  O2-  O264  1  0.76253878  0.23677761  0.27139114  1
  O2-  O265  1  0.76023026  0.24085027  0.76447480  1
  O2-  O266  1  0.76338536  0.56981472  0.27240499  1
  O2-  O267  1  0.76254743  0.57156605  0.77088969  1
  O2-  O268  1  0.75841172  0.90758031  0.27382100  1
  O2-  O269  1  0.75761313  0.90848896  0.76437900  1
  O2-  O270  1  0.07080083  0.07181052  0.47573721  1
  O2-  O271  1  0.07015772  0.07150956  0.98226687  1
  O2-  O272  1  0.07831806  0.40996548  0.48139011  1
  O2-  O273  1  0.07131998  0.40609417  0.97739740  1
  O2-  O274  1  0.06928556  0.74039097  0.47804268  1
  O2-  O275  1  0.06878745  0.73813004  0.98605634  1
  O2-  O276  1  0.40096069  0.07056982  0.48329680  1
  O2-  O277  1  0.40481988  0.07063835  0.97846408  1
  O2-  O278  1  0.40499643  0.40523465  0.47878655  1
  O2-  O279  1  0.40536914  0.40450806  0.97442058  1
  O2-  O280  1  0.40487829  0.73710102  0.47976309  1
  O2-  O281  1  0.40871874  0.73609368  0.98074684  1
  O2-  O282  1  0.73617592  0.06974938  0.47960625  1
  O2-  O283  1  0.73701548  0.07228298  0.98415427  1
  O2-  O284  1  0.73576834  0.40175690  0.48460662  1
  O2-  O285  1  0.73640560  0.40702681  0.97740394  1
  O2-  O286  1  0.73901270  0.74098633  0.47528181  1
  O2-  O287  1  0.73417962  0.73623491  0.98471681  1
  O2-  O288  1  0.09639167  0.23419495  0.48376429  1
  O2-  O289  1  0.09357123  0.24273391  0.98369422  1
  O2-  O290  1  0.09610442  0.57421602  0.47992493  1
  O2-  O291  1  0.09604129  0.57303549  0.97909617  1
  O2-  O292  1  0.09720172  0.90333025  0.48097943  1
  O2-  O293  1  0.08868994  0.91121271  0.98339600  1
  O2-  O294  1  0.42972933  0.23780980  0.47940871  1
  O2-  O295  1  0.42946935  0.23753849  0.98039284  1
  O2-  O296  1  0.43104801  0.57142152  0.48005846  1
  O2-  O297  1  0.42942696  0.57047698  0.97830938  1
  O2-  O298  1  0.42810634  0.90389332  0.47929439  1
  O2-  O299  1  0.42849995  0.90583417  0.98096050  1
  O2-  O300  1  0.76359599  0.23659779  0.47836157  1
  O2-  O301  1  0.75970464  0.24066061  0.98642127  1
  O2-  O302  1  0.76218676  0.56913833  0.47730301  1
  O2-  O303  1  0.76329338  0.57258304  0.97964210  1
  O2-  O304  1  0.76182235  0.90688117  0.47834702  1
  O2-  O305  1  0.75566754  0.91006332  0.98300744  1
  O2-  O306  1  0.07035240  0.07167252  0.27275848  1
  O2-  O307  1  0.07095318  0.07182786  0.76715234  1
  O2-  O308  1  0.07624587  0.40703084  0.26795232  1
  O2-  O309  1  0.07159799  0.40808552  0.77310872  1
  O2-  O310  1  0.06970071  0.74029958  0.26998419  1
  O2-  O311  1  0.06983945  0.73692398  0.76566931  1
  O2-  O312  1  0.40162126  0.07085094  0.26801617  1
  O2-  O313  1  0.40448398  0.06834902  0.77177794  1
  O2-  O314  1  0.40740760  0.40636214  0.27464026  1
  O2-  O315  1  0.40295455  0.40319149  0.77177545  1
  O2-  O316  1  0.40311467  0.73612628  0.26839162  1
  O2-  O317  1  0.40847906  0.73811726  0.77132254  1
  O2-  O318  1  0.73969352  0.07170085  0.27032046  1
  O2-  O319  1  0.73416378  0.07147281  0.76650866  1
  O2-  O320  1  0.73680499  0.40354165  0.26697896  1
  O2-  O321  1  0.73588194  0.40497280  0.77359136  1
  O2-  O322  1  0.73466877  0.73876205  0.27177266  1
  O2-  O323  1  0.73779975  0.73827666  0.76621101  1
  O2-  O324  1  0.23654230  0.09528931  0.23238942  1
  O2-  O325  1  0.23944515  0.09308310  0.72661469  1
  O2-  O326  1  0.23836536  0.42929766  0.23484435  1
  O2-  O327  1  0.23672170  0.42842124  0.72759813  1
  O2-  O328  1  0.24171011  0.75918253  0.23135652  1
  O2-  O329  1  0.23887053  0.76004047  0.72912176  1
  O2-  O330  1  0.57647260  0.08957940  0.23262348  1
  O2-  O331  1  0.56993943  0.09404287  0.72851549  1
  O2-  O332  1  0.57347198  0.42884622  0.22952415  1
  O2-  O333  1  0.57029880  0.43007025  0.73003856  1
  O2-  O334  1  0.57146061  0.76098893  0.22582429  1
  O2-  O335  1  0.57064430  0.76360650  0.73024024  1
  O2-  O336  1  0.90717141  0.09320437  0.22685079  1
  O2-  O337  1  0.90419338  0.09519127  0.73097845  1
  O2-  O338  1  0.90778119  0.42474854  0.22702259  1
  O2-  O339  1  0.90046787  0.42989867  0.73307900  1
  O2-  O340  1  0.90214997  0.76170846  0.23004633  1
  O2-  O341  1  0.90618714  0.76095649  0.72594876  1
  O2-  O342  1  0.26160608  0.26150873  0.02112996  1
  O2-  O343  1  0.26230741  0.26098952  0.52229257  1
  O2-  O344  1  0.26409806  0.59204471  0.02152724  1
  O2-  O345  1  0.26418348  0.59389158  0.52349000  1
  O2-  O346  1  0.26072437  0.92896267  0.01635852  1
  O2-  O347  1  0.26112210  0.92804759  0.52078207  1
  O2-  O348  1  0.59415995  0.26198512  0.01878471  1
  O2-  O349  1  0.59768750  0.26140207  0.52142922  1
  O2-  O350  1  0.59567860  0.59499386  0.02154820  1
  O2-  O351  1  0.59655595  0.59671445  0.52062098  1
  O2-  O352  1  0.59434825  0.92843742  0.01959897  1
  O2-  O353  1  0.59459117  0.92800405  0.52060180  1
  O2-  O354  1  0.92870648  0.25865644  0.02057263  1
  O2-  O355  1  0.92816682  0.26179365  0.52415400  1
  O2-  O356  1  0.92867966  0.59488706  0.02276750  1
  O2-  O357  1  0.92857138  0.59585910  0.51924226  1
  O2-  O358  1  0.92610541  0.92878587  0.01863084  1
  O2-  O359  1  0.92740690  0.92808324  0.52366811  1
