# generated using pymatgen
data_Sr7Ca15Pr50Mn72O216
_symmetry_space_group_name_H-M   'P 1'
_cell_length_a   16.56125752
_cell_length_b   16.60494546
_cell_length_c   15.59267339
_cell_angle_alpha   89.99526495
_cell_angle_beta   89.99877173
_cell_angle_gamma   90.00133610
_symmetry_Int_Tables_number   1
_chemical_formula_structural   Sr7Ca15Pr50Mn72O216
_chemical_formula_sum   'Sr7 Ca15 Pr50 Mn72 O216'
_cell_volume   4287.96610826
_cell_formula_units_Z   1
loop_
 _symmetry_equiv_pos_site_id
 _symmetry_equiv_pos_as_xyz
  1  'x, y, z'
loop_
 _atom_type_symbol
 _atom_type_oxidation_number
  Sr2+  2.0
  Ca2+  2.0
  Pr3+  3.0
  Mn3.30+  3.3
  O2-  -2.0
loop_
 _atom_site_type_symbol
 _atom_site_label
 _atom_site_symmetry_multiplicity
 _atom_site_fract_x
 _atom_site_fract_y
 _atom_site_fract_z
 _atom_site_occupancy
  Sr2+  Sr0  1  0.49870139  0.48980450  0.37369329  1
  Sr2+  Sr1  1  0.50006905  0.17721847  0.62576546  1
  Sr2+  Sr2  1  -0.00140352  0.34339035  0.62334198  1
  Sr2+  Sr3  1  0.33441668  0.99175121  0.87609246  1
  Sr2+  Sr4  1  0.83619257  0.50982850  0.62664502  1
  Sr2+  Sr5  1  0.50142809  0.51091001  0.12522249  1
  Sr2+  Sr6  1  0.16690648  0.17861370  0.62392360  1
  Ca2+  Ca7  1  0.66386872  0.01475233  0.12414482  1
  Ca2+  Ca8  1  0.32746642  0.01809028  0.12326243  1
  Ca2+  Ca9  1  0.83200981  0.15293335  0.37435910  1
  Ca2+  Ca10  1  0.16642047  0.81988995  0.87563325  1
  Ca2+  Ca11  1  0.16174141  0.15473671  0.37487331  1
  Ca2+  Ca12  1  1.00564989  0.31631955  0.37690161  1
  Ca2+  Ca13  1  0.49582259  0.48730102  0.87599901  1
  Ca2+  Ca14  1  0.33769256  0.65118807  0.87634041  1
  Ca2+  Ca15  1  0.66183278  0.67926011  0.12420771  1
  Ca2+  Ca16  1  0.82941248  0.81735416  0.87602812  1
  Ca2+  Ca17  1  0.83053817  0.15312869  0.87534633  1
  Ca2+  Ca18  1  0.16536411  0.48647947  0.87566380  1
  Ca2+  Ca19  1  0.66518712  0.67969206  0.62585961  1
  Ca2+  Ca20  1  0.16120121  0.48272809  0.37448731  1
  Ca2+  Ca21  1  0.17038521  0.18143855  0.12677852  1
  Pr3+  Pr22  1  0.33058023  0.67841906  0.62674460  1
  Pr3+  Pr23  1  0.49763270  0.82050527  0.37447103  1
  Pr3+  Pr24  1  0.33302353  0.67877979  0.12352698  1
  Pr3+  Pr25  1  -0.00070807  0.34473979  0.12646204  1
  Pr3+  Pr26  1  0.50389072  0.84481363  0.62645989  1
  Pr3+  Pr27  1  0.66874914  0.32011434  0.87557346  1
  Pr3+  Pr28  1  1.00187557  0.32249034  0.87304737  1
  Pr3+  Pr29  1  0.66396055  0.34383411  0.62443259  1
  Pr3+  Pr30  1  0.49611574  0.15594556  0.37490881  1
  Pr3+  Pr31  1  0.83105728  0.82101246  0.37374393  1
  Pr3+  Pr32  1  0.67099695  0.98627840  0.87712192  1
  Pr3+  Pr33  1  0.83506816  0.51347318  0.12432855  1
  Pr3+  Pr34  1  1.00391794  0.98550403  0.87576868  1
  Pr3+  Pr35  1  0.33600130  0.65289735  0.37446581  1
  Pr3+  Pr36  1  0.16927299  0.84548491  0.62732490  1
  Pr3+  Pr37  1  0.66938914  0.31910602  0.37383077  1
  Pr3+  Pr38  1  0.66996052  0.98916419  0.37307257  1
  Pr3+  Pr39  1  -0.00279980  0.01334624  0.62505394  1
  Pr3+  Pr40  1  0.33289833  0.32151138  0.37438908  1
  Pr3+  Pr41  1  -0.00275755  0.67503193  0.62672905  1
  Pr3+  Pr42  1  0.83382352  0.84666445  0.12155724  1
  Pr3+  Pr43  1  0.33452576  0.99116504  0.37452899  1
  Pr3+  Pr44  1  0.66916347  0.65306243  0.37455673  1
  Pr3+  Pr45  1  1.00347004  0.65278120  0.87534969  1
  Pr3+  Pr46  1  0.49456445  0.81865805  0.87545031  1
  Pr3+  Pr47  1  0.83141787  0.48599547  0.37627198  1
  Pr3+  Pr48  1  0.50409710  0.84706708  0.12334923  1
  Pr3+  Pr49  1  0.17262284  0.84839299  0.12268343  1
  Pr3+  Pr50  1  0.83120837  0.48698681  0.87424554  1
  Pr3+  Pr51  1  1.00196133  0.99170277  0.37404842  1
  Pr3+  Pr52  1  0.16887450  0.50927760  0.62639861  1
  Pr3+  Pr53  1  0.33432900  0.32373634  0.87569448  1
  Pr3+  Pr54  1  0.50426476  0.51355222  0.62514552  1
  Pr3+  Pr55  1  0.66912457  0.65354786  0.87589391  1
  Pr3+  Pr56  1  0.83878474  0.17919934  0.62407426  1
  Pr3+  Pr57  1  0.17200742  0.51338054  0.12404679  1
  Pr3+  Pr58  1  0.33081545  0.01446394  0.62677894  1
  Pr3+  Pr59  1  -0.00121378  0.67959167  0.12366282  1
  Pr3+  Pr60  1  0.66303587  0.34509371  0.12547315  1
  Pr3+  Pr61  1  0.32885672  0.34568130  0.62495947  1
  Pr3+  Pr62  1  0.83527173  0.84270967  0.62792904  1
  Pr3+  Pr63  1  0.49558885  0.15401820  0.87508408  1
  Pr3+  Pr64  1  1.00409208  0.65136899  0.37485005  1
  Pr3+  Pr65  1  0.16350495  0.82235243  0.37433830  1
  Pr3+  Pr66  1  0.16421786  0.15585560  0.87528342  1
  Pr3+  Pr67  1  0.32989065  0.34679645  0.12526145  1
  Pr3+  Pr68  1  -0.00072608  0.01492383  0.12463280  1
  Pr3+  Pr69  1  0.66445833  0.01428140  0.62573745  1
  Pr3+  Pr70  1  0.83596033  0.17764113  0.12536504  1
  Pr3+  Pr71  1  0.50089366  0.17759854  0.12413676  1
  Mn3.30+  Mn72  1  0.16836771  0.00086394  0.00004196  1
  Mn3.30+  Mn73  1  0.16666132  0.00128784  0.49946919  1
  Mn3.30+  Mn74  1  0.16594069  0.33348386  0.00013794  1
  Mn3.30+  Mn75  1  0.16420337  0.33384738  0.49835102  1
  Mn3.30+  Mn76  1  0.16906349  0.66738585  -0.00406108  1
  Mn3.30+  Mn77  1  0.16630776  0.66463709  0.50006104  1
  Mn3.30+  Mn78  1  0.49962938  0.00023596  0.00231049  1
  Mn3.30+  Mn79  1  0.50108584  0.00047117  0.49937435  1
  Mn3.30+  Mn80  1  0.49988436  0.33523982  -0.00084740  1
  Mn3.30+  Mn81  1  0.49901113  0.33333734  0.49956489  1
  Mn3.30+  Mn82  1  0.50024672  0.66491676  -0.00059482  1
  Mn3.30+  Mn83  1  0.50088372  0.66682253  0.50091536  1
  Mn3.30+  Mn84  1  0.83302010  0.00054564  -0.00079314  1
  Mn3.30+  Mn85  1  0.83317531  -0.00039232  0.49937206  1
  Mn3.30+  Mn86  1  0.83275318  0.33206098  0.00095658  1
  Mn3.30+  Mn87  1  0.83590437  0.33162644  0.49706750  1
  Mn3.30+  Mn88  1  0.83161458  0.66780957  0.00003413  1
  Mn3.30+  Mn89  1  0.83329818  0.66603944  0.50143629  1
  Mn3.30+  Mn90  1  0.00241937  0.16786440  0.25092276  1
  Mn3.30+  Mn91  1  -0.00246207  0.16658380  0.75139541  1
  Mn3.30+  Mn92  1  0.00180457  0.49777512  0.25058831  1
  Mn3.30+  Mn93  1  0.00166392  0.49907432  0.75072990  1
  Mn3.30+  Mn94  1  0.00050215  0.83456254  0.24789480  1
  Mn3.30+  Mn95  1  0.00063730  0.83155170  0.75331794  1
  Mn3.30+  Mn96  1  0.32917210  0.16649472  0.24973863  1
  Mn3.30+  Mn97  1  0.33229711  0.16819065  0.74990494  1
  Mn3.30+  Mn98  1  0.33137213  0.50020234  0.25078121  1
  Mn3.30+  Mn99  1  0.33494970  0.50148992  0.75292221  1
  Mn3.30+  Mn100  1  0.33360452  0.83616785  0.24846240  1
  Mn3.30+  Mn101  1  0.33290747  0.83242269  0.75327190  1
  Mn3.30+  Mn102  1  0.66787311  0.16471396  0.24911189  1
  Mn3.30+  Mn103  1  0.66789696  0.16655530  0.75137705  1
  Mn3.30+  Mn104  1  0.66674800  0.50041493  0.24959627  1
  Mn3.30+  Mn105  1  0.66494196  0.50075284  0.75007294  1
  Mn3.30+  Mn106  1  0.66604906  0.83342889  0.24762737  1
  Mn3.30+  Mn107  1  0.66777886  0.83144530  0.75170357  1
  Mn3.30+  Mn108  1  0.16873868  0.00353076  0.24837311  1
  Mn3.30+  Mn109  1  0.16655246  -0.00108342  0.75217364  1
  Mn3.30+  Mn110  1  0.16412899  0.33200562  0.25164995  1
  Mn3.30+  Mn111  1  0.16633698  0.33501216  0.74981279  1
  Mn3.30+  Mn112  1  0.16690208  0.66642185  0.24976595  1
  Mn3.30+  Mn113  1  0.16848012  0.66578620  0.75418608  1
  Mn3.30+  Mn114  1  0.49953514  0.00085129  0.24728366  1
  Mn3.30+  Mn115  1  0.50096463  -0.00028809  0.75112191  1
  Mn3.30+  Mn116  1  0.49922990  0.33344524  0.25075928  1
  Mn3.30+  Mn117  1  0.49956519  0.33498383  0.75041459  1
  Mn3.30+  Mn118  1  0.50118924  0.66657540  0.24830897  1
  Mn3.30+  Mn119  1  0.49977069  0.66533294  0.75116861  1
  Mn3.30+  Mn120  1  0.83271452  0.00110768  0.24773671  1
  Mn3.30+  Mn121  1  0.83338374  -0.00135571  0.75298706  1
  Mn3.30+  Mn122  1  0.83546464  0.33144340  0.25185125  1
  Mn3.30+  Mn123  1  0.83336046  0.33201493  0.75068028  1
  Mn3.30+  Mn124  1  0.83259311  0.66705753  0.24769028  1
  Mn3.30+  Mn125  1  0.83235581  0.66657321  0.75068790  1
  Mn3.30+  Mn126  1  -0.00017305  0.16735208  0.00033035  1
  Mn3.30+  Mn127  1  -0.00003119  0.16747658  0.49704610  1
  Mn3.30+  Mn128  1  0.00216481  0.49951157  0.00048208  1
  Mn3.30+  Mn129  1  0.00080759  0.49750364  0.49886577  1
  Mn3.30+  Mn130  1  0.00126660  0.83289230  -0.00187613  1
  Mn3.30+  Mn131  1  -0.00001274  0.83303813  0.50057613  1
  Mn3.30+  Mn132  1  0.33133818  0.16685599  0.00188096  1
  Mn3.30+  Mn133  1  0.32998727  0.16788270  0.49901971  1
  Mn3.30+  Mn134  1  0.33401946  0.50196337  -0.00243988  1
  Mn3.30+  Mn135  1  0.33246014  0.49999082  0.49858610  1
  Mn3.30+  Mn136  1  0.33347989  0.83435031  -0.00211426  1
  Mn3.30+  Mn137  1  0.33316921  0.83375860  0.50037598  1
  Mn3.30+  Mn138  1  0.66753014  0.16497639  0.00033324  1
  Mn3.30+  Mn139  1  0.66814628  0.16642475  0.49875867  1
  Mn3.30+  Mn140  1  0.66409834  0.50072172  -0.00055187  1
  Mn3.30+  Mn141  1  0.66756547  0.50005019  0.50117412  1
  Mn3.30+  Mn142  1  0.66682095  0.83270074  0.00034577  1
  Mn3.30+  Mn143  1  0.66723731  0.83234034  0.50041368  1
  O2-  O144  1  0.02808050  0.16327765  0.12511549  1
  O2-  O145  1  0.01707050  0.16080889  0.62410566  1
  O2-  O146  1  0.02792280  0.49469434  0.12460832  1
  O2-  O147  1  0.02449654  0.50285220  0.62611519  1
  O2-  O148  1  0.02801166  0.82787820  0.12367669  1
  O2-  O149  1  0.02546364  0.82589917  0.62847184  1
  O2-  O150  1  0.35727286  0.16537521  0.12544041  1
  O2-  O151  1  0.35032169  0.16448941  0.62370543  1
  O2-  O152  1  0.35095967  0.49546881  0.12443567  1
  O2-  O153  1  0.35915339  0.49484121  0.62570725  1
  O2-  O154  1  0.35983729  0.82521338  0.12448980  1
  O2-  O155  1  0.35985422  0.82584824  0.62699592  1
  O2-  O156  1  0.69256497  0.16132879  0.12468681  1
  O2-  O157  1  0.69387183  0.16315766  0.62418062  1
  O2-  O158  1  0.69259123  0.49177114  0.12521858  1
  O2-  O159  1  0.68754519  0.49066139  0.62517507  1
  O2-  O160  1  0.69169422  0.82236934  0.12433158  1
  O2-  O161  1  0.69158975  0.82678778  0.62770830  1
  O2-  O162  1  0.14248912  0.32705613  0.12583579  1
  O2-  O163  1  0.14859118  0.33671829  0.62394816  1
  O2-  O164  1  0.14246157  0.66133951  0.12334597  1
  O2-  O165  1  0.14095122  0.65907991  0.62722252  1
  O2-  O166  1  0.14111208  0.99334990  0.12320885  1
  O2-  O167  1  0.14135560  0.99293395  0.62713598  1
  O2-  O168  1  0.47599820  0.32677985  0.12553745  1
  O2-  O169  1  0.47454387  0.33207454  0.62499967  1
  O2-  O170  1  0.47650108  0.66763006  0.12375023  1
  O2-  O171  1  0.47410117  0.66357706  0.62660683  1
  O2-  O172  1  0.47064717  0.99524816  0.12542305  1
  O2-  O173  1  0.47630872  0.99334780  0.62371573  1
  O2-  O174  1  0.80683211  0.32586790  0.12567440  1
  O2-  O175  1  0.80822865  0.32587155  0.62307736  1
  O2-  O176  1  0.80547916  0.66050771  0.12406741  1
  O2-  O177  1  0.80918688  0.66663445  0.62717525  1
  O2-  O178  1  0.80656598  0.99421992  0.12411960  1
  O2-  O179  1  0.80771560  0.99061667  0.62818339  1
  O2-  O180  1  0.30499599  0.17124045  0.37439259  1
  O2-  O181  1  0.30930888  0.17346073  0.87692163  1
  O2-  O182  1  0.30465617  0.50719330  0.37449439  1
  O2-  O183  1  0.30670765  0.50533465  0.87502539  1
  O2-  O184  1  0.30661205  0.84264587  0.37329146  1
  O2-  O185  1  0.30758966  0.84029976  0.87495675  1
  O2-  O186  1  0.64038501  0.16970144  0.37363364  1
  O2-  O187  1  0.63949924  0.17174067  0.87714491  1
  O2-  O188  1  0.64857472  0.50541356  0.37561027  1
  O2-  O189  1  0.63881785  0.50554514  0.87425539  1
  O2-  O190  1  0.64128854  0.84226458  0.37238248  1
  O2-  O191  1  0.63908231  0.83999813  0.87573501  1
  O2-  O192  1  0.97360069  0.16497077  0.37348838  1
  O2-  O193  1  0.97251136  0.17365400  0.87663674  1
  O2-  O194  1  0.97369004  0.50760219  0.37170805  1
  O2-  O195  1  0.97520382  0.50353768  0.87797079  1
  O2-  O196  1  0.97571323  0.84082646  0.37198497  1
  O2-  O197  1  0.97146271  0.83814630  0.87595710  1
  O2-  O198  1  0.19079354  0.00507389  0.37287874  1
  O2-  O199  1  0.18528878  0.00893291  0.87722936  1
  O2-  O200  1  0.19110996  0.34144235  0.37460954  1
  O2-  O201  1  0.18988048  0.33821424  0.87584164  1
  O2-  O202  1  0.19255249  0.67645941  0.37430093  1
  O2-  O203  1  0.19629815  0.67733952  0.87506213  1
  O2-  O204  1  0.52565183  0.00601455  0.37345127  1
  O2-  O205  1  0.52551284  0.00482613  0.87749738  1
  O2-  O206  1  0.52360157  0.33157897  0.37412828  1
  O2-  O207  1  0.52464571  0.33953003  0.87506182  1
  O2-  O208  1  0.52423750  0.67230470  0.37452882  1
  O2-  O209  1  0.52655502  0.67280359  0.87495075  1
  O2-  O210  1  0.85749149  0.00292792  0.37114145  1
  O2-  O211  1  0.86028901  0.00880579  0.87619560  1
  O2-  O212  1  0.86273793  0.34031052  0.37235181  1
  O2-  O213  1  0.85741252  0.33956745  0.87891997  1
  O2-  O214  1  0.85958849  0.67322992  0.37231066  1
  O2-  O215  1  0.85818023  0.66990480  0.87681779  1
  O2-  O216  1  0.23533545  0.09938806  0.01824051  1
  O2-  O217  1  0.24177562  0.08937471  0.51908591  1
  O2-  O218  1  0.23762847  0.42712771  0.01985512  1
  O2-  O219  1  0.23991958  0.42905803  0.52078659  1
  O2-  O220  1  0.24006416  0.76124454  0.02297364  1
  O2-  O221  1  0.23716581  0.76090176  0.52082097  1
  O2-  O222  1  0.57143956  0.09594196  0.02003987  1
  O2-  O223  1  0.57512538  0.09287021  0.51774643  1
  O2-  O224  1  0.57589037  0.42437650  0.02013370  1
  O2-  O225  1  0.57273789  0.42614238  0.51949703  1
  O2-  O226  1  0.56921932  0.76430213  0.01591165  1
  O2-  O227  1  0.57031046  0.76362171  0.51672551  1
  O2-  O228  1  0.90750277  0.09431405  0.02395938  1
  O2-  O229  1  0.90453991  0.09074652  0.52029042  1
  O2-  O230  1  0.90400564  0.42669765  0.02244253  1
  O2-  O231  1  0.90514700  0.42947151  0.51396326  1
  O2-  O232  1  0.90766558  0.76032537  0.02344363  1
  O2-  O233  1  0.90477590  0.76106911  0.51977902  1
  O2-  O234  1  0.26239345  0.26458992  0.23223447  1
  O2-  O235  1  0.26081266  0.26460068  0.73570962  1
  O2-  O236  1  0.26087671  0.59631710  0.22913051  1
  O2-  O237  1  0.26195089  0.59302718  0.72730660  1
  O2-  O238  1  0.26372384  0.93122574  0.22763870  1
  O2-  O239  1  0.26178821  0.92517563  0.72630625  1
  O2-  O240  1  0.59679476  0.25703949  0.22931855  1
  O2-  O241  1  0.59593402  0.26479269  0.73417282  1
  O2-  O242  1  0.59919687  0.59717402  0.23367644  1
  O2-  O243  1  0.59609556  0.59651063  0.72692330  1
  O2-  O244  1  0.59708538  0.92823462  0.22617188  1
  O2-  O245  1  0.59690238  0.92684575  0.72984095  1
  O2-  O246  1  0.92726258  0.25895475  0.22617260  1
  O2-  O247  1  0.92520934  0.25783656  0.73249450  1
  O2-  O248  1  0.92980181  0.59428673  0.22737702  1
  O2-  O249  1  0.93138224  0.59474415  0.73652234  1
  O2-  O250  1  0.92811413  0.92763573  0.22660436  1
  O2-  O251  1  0.92896544  0.92708873  0.73000360  1
  O2-  O252  1  0.09573934  0.23674370  0.27252371  1
  O2-  O253  1  0.09146307  0.24065918  0.77116820  1
  O2-  O254  1  0.09429713  0.56898683  0.27061943  1
  O2-  O255  1  0.09777973  0.57265257  0.77473692  1
  O2-  O256  1  0.09699598  0.90733839  0.26913128  1
  O2-  O257  1  0.09474425  0.90324803  0.77260473  1
  O2-  O258  1  0.42464950  0.23760908  0.26972649  1
  O2-  O259  1  0.42694742  0.24242663  0.77263247  1
  O2-  O260  1  0.42292495  0.57698638  0.26771151  1
  O2-  O261  1  0.43226087  0.56886200  0.76814075  1
  O2-  O262  1  0.42893840  0.90644520  0.27178981  1
  O2-  O263  1  0.43049234  0.90276076  0.76630955  1
  O2-  O264  1  0.76207021  0.23761852  0.27210217  1
  O2-  O265  1  0.76064481  0.23717206  0.77227744  1
  O2-  O266  1  0.76369199  0.57100587  0.26950394  1
  O2-  O267  1  0.75934541  0.57186880  0.77359545  1
  O2-  O268  1  0.76141226  0.90411092  0.26883175  1
  O2-  O269  1  0.76385744  0.90386524  0.77403905  1
  O2-  O270  1  0.06927778  0.07069808  0.48286135  1
  O2-  O271  1  0.06962703  0.07201398  0.97992255  1
  O2-  O272  1  0.07118830  0.40475167  0.47829431  1
  O2-  O273  1  0.06958773  0.40275366  0.98298981  1
  O2-  O274  1  0.07180794  0.73816436  0.47976510  1
  O2-  O275  1  0.07105657  0.73669806  0.98103226  1
  O2-  O276  1  0.40590302  0.07421243  0.48002944  1
  O2-  O277  1  0.40867170  0.07757711  0.98235443  1
  O2-  O278  1  0.40166332  0.40544504  0.48104991  1
  O2-  O279  1  0.40203786  0.40664572  0.98249537  1
  O2-  O280  1  0.40386662  0.74054502  0.47846166  1
  O2-  O281  1  0.40431680  0.73691897  0.97859733  1
  O2-  O282  1  0.73669912  0.06959011  0.48245190  1
  O2-  O283  1  0.73731999  0.07236101  0.97958560  1
  O2-  O284  1  0.74064951  0.40246170  0.47860045  1
  O2-  O285  1  0.73850839  0.40563871  0.97964379  1
  O2-  O286  1  0.73934363  0.74083208  0.47692284  1
  O2-  O287  1  0.73747613  0.73925484  0.97835877  1
  O2-  O288  1  0.09403348  0.23791871  0.47904241  1
  O2-  O289  1  0.09232462  0.24056911  0.97643124  1
  O2-  O290  1  0.09634061  0.57064950  0.47754500  1
  O2-  O291  1  0.09811539  0.57299499  0.97779005  1
  O2-  O292  1  0.09551337  0.90611843  0.48010443  1
  O2-  O293  1  0.09528030  0.90370084  0.97854835  1
  O2-  O294  1  0.42478982  0.24007171  0.47791845  1
  O2-  O295  1  0.42801696  0.24094587  0.97979694  1
  O2-  O296  1  0.42494302  0.57473815  0.48275950  1
  O2-  O297  1  0.43009633  0.57178424  0.98000187  1
  O2-  O298  1  0.42829468  0.90689679  0.47897272  1
  O2-  O299  1  0.43151750  0.90225344  0.98298427  1
  O2-  O300  1  0.76160281  0.23658348  0.47546811  1
  O2-  O301  1  0.76086877  0.23735148  0.97920240  1
  O2-  O302  1  0.76220616  0.57402613  0.47862384  1
  O2-  O303  1  0.76105147  0.56971494  0.97918708  1
  O2-  O304  1  0.76259731  0.90494560  0.47973394  1
  O2-  O305  1  0.76279017  0.90289676  0.97879647  1
  O2-  O306  1  0.06950848  0.06967039  0.26698992  1
  O2-  O307  1  0.06895772  0.07333503  0.77002775  1
  O2-  O308  1  0.06709289  0.39960710  0.26764086  1
  O2-  O309  1  0.07380043  0.40733144  0.77027725  1
  O2-  O310  1  0.07208095  0.73868508  0.26938416  1
  O2-  O311  1  0.07102342  0.73630655  0.77050561  1
  O2-  O312  1  0.40402744  0.07538173  0.27266918  1
  O2-  O313  1  0.40978560  0.07559271  0.76544110  1
  O2-  O314  1  0.39991074  0.40622963  0.26694638  1
  O2-  O315  1  0.40393956  0.40534691  0.76968692  1
  O2-  O316  1  0.40389885  0.74148623  0.27176726  1
  O2-  O317  1  0.40345445  0.73640828  0.77258086  1
  O2-  O318  1  0.73747674  0.07232347  0.26910307  1
  O2-  O319  1  0.73827098  0.06762283  0.76858670  1
  O2-  O320  1  0.74172445  0.40430145  0.27034964  1
  O2-  O321  1  0.73785006  0.40475069  0.77102332  1
  O2-  O322  1  0.73819200  0.74104505  0.27371590  1
  O2-  O323  1  0.73707485  0.73964657  0.77219973  1
  O2-  O324  1  0.23680621  0.09673964  0.22734991  1
  O2-  O325  1  0.24051067  0.09180079  0.73477905  1
  O2-  O326  1  0.23552079  0.42718167  0.22905645  1
  O2-  O327  1  0.24224605  0.42864602  0.73068652  1
  O2-  O328  1  0.23995655  0.76476447  0.22943814  1
  O2-  O329  1  0.23897866  0.75935800  0.72618715  1
  O2-  O330  1  0.56907088  0.09539805  0.23013945  1
  O2-  O331  1  0.57650845  0.09295033  0.73243561  1
  O2-  O332  1  0.57849467  0.42410514  0.23265576  1
  O2-  O333  1  0.57206221  0.42749728  0.72825713  1
  O2-  O334  1  0.56993461  0.76531195  0.23352193  1
  O2-  O335  1  0.56866731  0.76240888  0.73309588  1
  O2-  O336  1  0.90780912  0.09343178  0.22626281  1
  O2-  O337  1  0.90432080  0.09117284  0.72806303  1
  O2-  O338  1  0.90534983  0.42864643  0.22616440  1
  O2-  O339  1  0.90620637  0.42595605  0.73887022  1
  O2-  O340  1  0.90431933  0.76128043  0.22647092  1
  O2-  O341  1  0.90772509  0.75954261  0.72972383  1
  O2-  O342  1  0.26222433  0.26462303  0.01740610  1
  O2-  O343  1  0.26192459  0.26536965  0.51505650  1
  O2-  O344  1  0.26203856  0.59520127  0.02116636  1
  O2-  O345  1  0.26167499  0.59519061  0.52162237  1
  O2-  O346  1  0.26200090  0.92942574  0.02351318  1
  O2-  O347  1  0.26263732  0.92662204  0.52162473  1
  O2-  O348  1  0.59601207  0.25885899  0.02034073  1
  O2-  O349  1  0.59818357  0.26172675  0.51589202  1
  O2-  O350  1  0.59895900  0.59852823  0.01823057  1
  O2-  O351  1  0.59471713  0.59625804  0.52096685  1
  O2-  O352  1  0.59739741  0.92892142  0.02301066  1
  O2-  O353  1  0.59684177  0.92674535  0.52079259  1
  O2-  O354  1  0.92807174  0.26049971  0.02299880  1
  O2-  O355  1  0.92417632  0.25704328  0.51771072  1
  O2-  O356  1  0.92877392  0.59346216  0.02123717  1
  O2-  O357  1  0.93189982  0.59716252  0.51465732  1
  O2-  O358  1  0.93018141  0.92796924  0.02098142  1
  O2-  O359  1  0.92838733  0.92664913  0.52071830  1
