# generated using pymatgen
data_Sr7Ca15Pr50Mn72O216
_symmetry_space_group_name_H-M   'P 1'
_cell_length_a   16.56048750
_cell_length_b   16.60549836
_cell_length_c   15.59222630
_cell_angle_alpha   90.00595701
_cell_angle_beta   90.00471356
_cell_angle_gamma   90.00443834
_symmetry_Int_Tables_number   1
_chemical_formula_structural   Sr7Ca15Pr50Mn72O216
_chemical_formula_sum   'Sr7 Ca15 Pr50 Mn72 O216'
_cell_volume   4287.78652997
_cell_formula_units_Z   1
loop_
 _symmetry_equiv_pos_site_id
 _symmetry_equiv_pos_as_xyz
  1  'x, y, z'
loop_
 _atom_type_symbol
 _atom_type_oxidation_number
  Sr2+  2.0
  Ca2+  2.0
  Pr3+  3.0
  Mn3.30+  3.3
  O2-  -2.0
loop_
 _atom_site_type_symbol
 _atom_site_label
 _atom_site_symmetry_multiplicity
 _atom_site_fract_x
 _atom_site_fract_y
 _atom_site_fract_z
 _atom_site_occupancy
  Sr2+  Sr0  1  0.16819018  0.84310866  0.12596903  1
  Sr2+  Sr1  1  0.83069720  0.15421248  0.37518930  1
  Sr2+  Sr2  1  0.16656750  0.15460933  0.87625052  1
  Sr2+  Sr3  1  -0.00254662  0.67914489  0.62416115  1
  Sr2+  Sr4  1  0.83324963  0.49089283  0.87359159  1
  Sr2+  Sr5  1  0.83125772  0.82602690  0.37827865  1
  Sr2+  Sr6  1  0.16097616  0.82354449  0.37614649  1
  Ca2+  Ca7  1  -0.00245310  0.34796724  0.62434737  1
  Ca2+  Ca8  1  0.50298787  0.84767586  0.62663967  1
  Ca2+  Ca9  1  0.16351733  0.48766081  0.37688018  1
  Ca2+  Ca10  1  0.50199111  0.84776640  0.12276779  1
  Ca2+  Ca11  1  0.66451387  0.68585971  0.62509834  1
  Ca2+  Ca12  1  0.17198610  0.17989728  0.12528511  1
  Ca2+  Ca13  1  0.49678840  0.48595763  0.87401220  1
  Ca2+  Ca14  1  0.16891930  0.84755834  0.62375153  1
  Ca2+  Ca15  1  1.00465668  0.65378444  0.37763769  1
  Ca2+  Ca16  1  0.67171398  0.98335132  0.37619243  1
  Ca2+  Ca17  1  0.33909647  0.98238042  0.87533655  1
  Ca2+  Ca18  1  0.49356725  0.82036614  0.87269496  1
  Ca2+  Ca19  1  0.83448125  0.84635488  0.62329038  1
  Ca2+  Ca20  1  0.33403618  0.31881060  0.37544567  1
  Ca2+  Ca21  1  0.49198158  0.14763475  0.87488456  1
  Pr3+  Pr22  1  1.00369883  0.98744330  0.87437661  1
  Pr3+  Pr23  1  0.16460005  0.15446498  0.37405407  1
  Pr3+  Pr24  1  0.66391786  0.34664680  0.12596804  1
  Pr3+  Pr25  1  0.49517123  0.48540057  0.37588328  1
  Pr3+  Pr26  1  0.00216480  0.34443706  0.12526817  1
  Pr3+  Pr27  1  1.00098481  0.98699897  0.37549019  1
  Pr3+  Pr28  1  0.83518764  0.17910762  0.12579414  1
  Pr3+  Pr29  1  0.50232178  0.51232505  0.12388504  1
  Pr3+  Pr30  1  0.50310489  0.17766535  0.62697865  1
  Pr3+  Pr31  1  0.33361826  0.98586684  0.37507737  1
  Pr3+  Pr32  1  0.66435089  0.98708763  0.87447674  1
  Pr3+  Pr33  1  0.16443341  0.48782959  0.87347417  1
  Pr3+  Pr34  1  0.83743058  0.51333737  0.62560540  1
  Pr3+  Pr35  1  0.32770301  0.68343794  0.62465127  1
  Pr3+  Pr36  1  1.00202612  0.65432412  0.87295566  1
  Pr3+  Pr37  1  0.83682782  0.51311325  0.12462598  1
  Pr3+  Pr38  1  1.00483278  0.32215880  0.37694139  1
  Pr3+  Pr39  1  0.16776663  0.82476771  0.87389872  1
  Pr3+  Pr40  1  0.00044038  0.01165644  0.12537278  1
  Pr3+  Pr41  1  0.32896505  0.34387968  0.12605787  1
  Pr3+  Pr42  1  -0.00119575  0.00539476  0.62393773  1
  Pr3+  Pr43  1  0.82837296  0.82067382  0.87214352  1
  Pr3+  Pr44  1  0.33990702  0.65344000  0.87423255  1
  Pr3+  Pr45  1  0.33284454  0.65651320  0.37495086  1
  Pr3+  Pr46  1  0.67147149  0.65854558  0.37754671  1
  Pr3+  Pr47  1  0.83549156  0.84726140  0.12535001  1
  Pr3+  Pr48  1  0.33111158  0.34603915  0.62365819  1
  Pr3+  Pr49  1  0.66785944  0.32220314  0.87437169  1
  Pr3+  Pr50  1  0.49772160  0.15184966  0.37547424  1
  Pr3+  Pr51  1  0.32863908  0.01217239  0.12366588  1
  Pr3+  Pr52  1  1.00512981  0.32046713  0.87318951  1
  Pr3+  Pr53  1  0.66435963  0.00777214  0.62273221  1
  Pr3+  Pr54  1  0.17175822  0.51386233  0.12661242  1
  Pr3+  Pr55  1  0.66520576  0.34596949  0.62429504  1
  Pr3+  Pr56  1  0.67201577  0.32024842  0.37566652  1
  Pr3+  Pr57  1  0.66535021  0.65437320  0.87247035  1
  Pr3+  Pr58  1  0.33098490  0.00920725  0.62630873  1
  Pr3+  Pr59  1  0.83842795  0.17889714  0.62444020  1
  Pr3+  Pr60  1  0.83445152  0.49183429  0.37693931  1
  Pr3+  Pr61  1  0.83153383  0.15561340  0.87501498  1
  Pr3+  Pr62  1  0.50206726  0.17891741  0.12330514  1
  Pr3+  Pr63  1  0.66118914  0.01040547  0.12730988  1
  Pr3+  Pr64  1  0.66305664  0.68215956  0.12475680  1
  Pr3+  Pr65  1  0.16890833  0.17839041  0.62565064  1
  Pr3+  Pr66  1  -0.00187179  0.68003819  0.12626061  1
  Pr3+  Pr67  1  0.33083896  0.68183723  0.12514221  1
  Pr3+  Pr68  1  0.49946495  0.82236869  0.37630287  1
  Pr3+  Pr69  1  0.50525931  0.51554262  0.62601630  1
  Pr3+  Pr70  1  0.16790741  0.51355183  0.62293151  1
  Pr3+  Pr71  1  0.33849432  0.31778653  0.87411580  1
  Mn3.30+  Mn72  1  0.16910200  0.00046118  -0.00106771  1
  Mn3.30+  Mn73  1  0.16589742  -0.00147012  0.50139118  1
  Mn3.30+  Mn74  1  0.16857309  0.33183386  0.00010121  1
  Mn3.30+  Mn75  1  0.16714709  0.33478951  0.49989655  1
  Mn3.30+  Mn76  1  0.16880499  0.66810775  -0.00104019  1
  Mn3.30+  Mn77  1  0.16406314  0.66849168  0.49966528  1
  Mn3.30+  Mn78  1  0.49666826  -0.00228260  -0.00070790  1
  Mn3.30+  Mn79  1  0.50081729  -0.00198723  0.49966443  1
  Mn3.30+  Mn80  1  0.49931586  0.33290333  -0.00128088  1
  Mn3.30+  Mn81  1  0.49907878  0.33230938  0.49942182  1
  Mn3.30+  Mn82  1  0.49956402  0.66807130  -0.00075576  1
  Mn3.30+  Mn83  1  0.50157818  0.66880485  0.50191705  1
  Mn3.30+  Mn84  1  0.83200001  0.00075127  -0.00077179  1
  Mn3.30+  Mn85  1  0.83078483  -0.00107964  0.50006765  1
  Mn3.30+  Mn86  1  0.83391013  0.33420148  -0.00083956  1
  Mn3.30+  Mn87  1  0.83557922  0.33396159  0.50101668  1
  Mn3.30+  Mn88  1  0.83140818  0.66677385  -0.00090090  1
  Mn3.30+  Mn89  1  0.83466773  0.66965050  0.50123908  1
  Mn3.30+  Mn90  1  0.00146573  0.16707833  0.24927244  1
  Mn3.30+  Mn91  1  0.00126159  0.16614328  0.74941650  1
  Mn3.30+  Mn92  1  0.00341629  0.50142107  0.25127047  1
  Mn3.30+  Mn93  1  -0.00001857  0.49927920  0.74885934  1
  Mn3.30+  Mn94  1  -0.00065718  0.83259518  0.25121845  1
  Mn3.30+  Mn95  1  -0.00137390  0.83294930  0.74774612  1
  Mn3.30+  Mn96  1  0.33270425  0.16714997  0.25073682  1
  Mn3.30+  Mn97  1  0.33527757  0.16321457  0.75142105  1
  Mn3.30+  Mn98  1  0.33259880  0.49861033  0.25322912  1
  Mn3.30+  Mn99  1  0.33610899  0.50041303  0.74871799  1
  Mn3.30+  Mn100  1  0.33372027  0.83329315  0.25014200  1
  Mn3.30+  Mn101  1  0.33505478  0.83454084  0.74864378  1
  Mn3.30+  Mn102  1  0.66672175  0.16512060  0.25054145  1
  Mn3.30+  Mn103  1  0.66504641  0.16565988  0.75144048  1
  Mn3.30+  Mn104  1  0.66648461  0.50184900  0.25127558  1
  Mn3.30+  Mn105  1  0.66630717  0.50160669  0.74979765  1
  Mn3.30+  Mn106  1  0.66544722  0.83448794  0.24994411  1
  Mn3.30+  Mn107  1  0.66232995  0.83285357  0.74912123  1
  Mn3.30+  Mn108  1  0.16636115  0.00036430  0.24816047  1
  Mn3.30+  Mn109  1  0.16852897  -0.00091748  0.75179143  1
  Mn3.30+  Mn110  1  0.16889058  0.33371424  0.25272725  1
  Mn3.30+  Mn111  1  0.16686628  0.33317702  0.74741271  1
  Mn3.30+  Mn112  1  0.16506022  0.66656015  0.25280691  1
  Mn3.30+  Mn113  1  0.16769991  0.66955968  0.74828792  1
  Mn3.30+  Mn114  1  0.49966037  -0.00197270  0.25038563  1
  Mn3.30+  Mn115  1  0.49758579  -0.00249039  0.75069860  1
  Mn3.30+  Mn116  1  0.49816232  0.33205835  0.25176554  1
  Mn3.30+  Mn117  1  0.50041812  0.33345499  0.75057486  1
  Mn3.30+  Mn118  1  0.50061703  0.66756159  0.25031882  1
  Mn3.30+  Mn119  1  0.50067105  0.66957809  0.74778278  1
  Mn3.30+  Mn120  1  0.83031522  0.00058339  0.25056417  1
  Mn3.30+  Mn121  1  0.83228752  -0.00066782  0.75019097  1
  Mn3.30+  Mn122  1  0.83452892  0.33454353  0.25003197  1
  Mn3.30+  Mn123  1  0.83514595  0.33374831  0.75023632  1
  Mn3.30+  Mn124  1  0.83466037  0.66834244  0.25248364  1
  Mn3.30+  Mn125  1  0.83111501  0.66815945  0.74725413  1
  Mn3.30+  Mn126  1  0.00254064  0.16676686  0.00176748  1
  Mn3.30+  Mn127  1  0.00013873  0.16649197  0.50011133  1
  Mn3.30+  Mn128  1  0.00185061  0.49985715  -0.00031115  1
  Mn3.30+  Mn129  1  0.00185364  0.50106255  0.49973462  1
  Mn3.30+  Mn130  1  -0.00058764  0.83345050  -0.00083578  1
  Mn3.30+  Mn131  1  -0.00134600  0.83149232  0.50155293  1
  Mn3.30+  Mn132  1  0.33394022  0.16407295  -0.00161221  1
  Mn3.30+  Mn133  1  0.33359607  0.16659774  0.50001011  1
  Mn3.30+  Mn134  1  0.33571624  0.49907399  -0.00082737  1
  Mn3.30+  Mn135  1  0.33303412  0.50018614  0.49823153  1
  Mn3.30+  Mn136  1  0.33613948  0.83441333  -0.00018017  1
  Mn3.30+  Mn137  1  0.33275712  0.83324124  0.50055065  1
  Mn3.30+  Mn138  1  0.66376569  0.16612599  -0.00200597  1
  Mn3.30+  Mn139  1  0.66813270  0.16488199  0.50047231  1
  Mn3.30+  Mn140  1  0.66556158  0.50057038  -0.00205886  1
  Mn3.30+  Mn141  1  0.66664435  0.50300537  0.50060442  1
  Mn3.30+  Mn142  1  0.66176572  0.83340524  -0.00208538  1
  Mn3.30+  Mn143  1  0.66612710  0.83353610  0.50328291  1
  O2-  O144  1  0.02918096  0.16071326  0.12504248  1
  O2-  O145  1  0.02584765  0.15478151  0.62356329  1
  O2-  O146  1  0.02765166  0.49432407  0.12516190  1
  O2-  O147  1  0.02421289  0.49399025  0.62545065  1
  O2-  O148  1  0.01792157  0.82833091  0.12355530  1
  O2-  O149  1  0.02589112  0.83667849  0.62678869  1
  O2-  O150  1  0.35897165  0.16234129  0.12363831  1
  O2-  O151  1  0.35923892  0.15942201  0.62540160  1
  O2-  O152  1  0.35927742  0.49216565  0.12838741  1
  O2-  O153  1  0.36128732  0.49379100  0.62390892  1
  O2-  O154  1  0.35964472  0.82899921  0.12639550  1
  O2-  O155  1  0.36081402  0.83095739  0.62339877  1
  O2-  O156  1  0.69070046  0.15991707  0.12253626  1
  O2-  O157  1  0.69306576  0.15879198  0.62565629  1
  O2-  O158  1  0.69165183  0.49503449  0.12699878  1
  O2-  O159  1  0.69286269  0.49218800  0.62497015  1
  O2-  O160  1  0.69187211  0.82984057  0.12181158  1
  O2-  O161  1  0.69200092  0.83278604  0.62763564  1
  O2-  O162  1  0.14624934  0.32740456  0.12706246  1
  O2-  O163  1  0.14003532  0.32694655  0.62466828  1
  O2-  O164  1  0.14315889  0.66101748  0.12595032  1
  O2-  O165  1  0.14749983  0.65964180  0.62464361  1
  O2-  O166  1  0.14445637  0.99640864  0.12361132  1
  O2-  O167  1  0.14404602  0.99619904  0.62769193  1
  O2-  O168  1  0.47342015  0.32777253  0.12702248  1
  O2-  O169  1  0.47545265  0.32687155  0.62472646  1
  O2-  O170  1  0.47358635  0.65709893  0.12486637  1
  O2-  O171  1  0.47072528  0.65877025  0.62407864  1
  O2-  O172  1  0.47314768  0.99371233  0.12538884  1
  O2-  O173  1  0.47471055  0.99468459  0.62481065  1
  O2-  O174  1  0.80788467  0.32932182  0.12522533  1
  O2-  O175  1  0.80828100  0.32789217  0.62655681  1
  O2-  O176  1  0.80836582  0.66082288  0.12481655  1
  O2-  O177  1  0.80681408  0.65831552  0.62548288  1
  O2-  O178  1  0.80584715  0.99679550  0.12258220  1
  O2-  O179  1  0.80910121  0.99749025  0.62826845  1
  O2-  O180  1  0.30878134  0.17059439  0.37729576  1
  O2-  O181  1  0.31376176  0.17279019  0.87424595  1
  O2-  O182  1  0.30574161  0.50969423  0.37517200  1
  O2-  O183  1  0.30812820  0.50501126  0.87176987  1
  O2-  O184  1  0.31210962  0.83625327  0.37581294  1
  O2-  O185  1  0.31110880  0.83457563  0.87353195  1
  O2-  O186  1  0.64124370  0.17493837  0.37642197  1
  O2-  O187  1  0.63652962  0.17495773  0.87584215  1
  O2-  O188  1  0.63926195  0.50984723  0.37524014  1
  O2-  O189  1  0.63825493  0.50598233  0.87259435  1
  O2-  O190  1  0.64318111  0.83534969  0.37623193  1
  O2-  O191  1  0.63560193  0.83876889  0.87482890  1
  O2-  O192  1  0.97975051  0.17401485  0.37577998  1
  O2-  O193  1  0.97529846  0.17288719  0.87637465  1
  O2-  O194  1  0.97705552  0.50432289  0.37408363  1
  O2-  O195  1  0.98328530  0.50495943  0.87474439  1
  O2-  O196  1  0.98049074  0.84049791  0.37525782  1
  O2-  O197  1  0.97269989  0.83904790  0.87486552  1
  O2-  O198  1  0.18911414  0.00622947  0.37390685  1
  O2-  O199  1  0.19380549  -0.00110896  0.87501897  1
  O2-  O200  1  0.19287342  0.34089295  0.37650446  1
  O2-  O201  1  0.19316407  0.34023992  0.87179186  1
  O2-  O202  1  0.19020578  0.67050677  0.37617721  1
  O2-  O203  1  0.19448095  0.67365006  0.87227526  1
  O2-  O204  1  0.52815252  0.00523712  0.37474365  1
  O2-  O205  1  0.52272626  0.00726406  0.87510656  1
  O2-  O206  1  0.52803320  0.33751466  0.37558738  1
  O2-  O207  1  0.52479709  0.34232334  0.87269667  1
  O2-  O208  1  0.52769766  0.67395144  0.37688869  1
  O2-  O209  1  0.52242065  0.67658670  0.87363436  1
  O2-  O210  1  0.85662071  0.00107853  0.37334516  1
  O2-  O211  1  0.85950378  0.00684982  0.87568850  1
  O2-  O212  1  0.85984982  0.34097640  0.37413996  1
  O2-  O213  1  0.86113598  0.33375709  0.87456990  1
  O2-  O214  1  0.85938126  0.66857577  0.37530017  1
  O2-  O215  1  0.85706590  0.67302276  0.87377229  1
  O2-  O216  1  0.23919329  0.09583112  0.02339802  1
  O2-  O217  1  0.23908353  0.09431387  0.52001951  1
  O2-  O218  1  0.23915006  0.42847135  0.01925774  1
  O2-  O219  1  0.23865355  0.42623974  0.52480553  1
  O2-  O220  1  0.24150066  0.76018789  0.01723009  1
  O2-  O221  1  0.23897267  0.76133092  0.52221774  1
  O2-  O222  1  0.57006216  0.09113738  0.02207696  1
  O2-  O223  1  0.57090970  0.09406239  0.52162096  1
  O2-  O224  1  0.57263899  0.42687952  0.02289744  1
  O2-  O225  1  0.57105103  0.42848131  0.51932019  1
  O2-  O226  1  0.57136199  0.76011271  0.02517153  1
  O2-  O227  1  0.56791422  0.76489430  0.52021476  1
  O2-  O228  1  0.90641099  0.09627603  0.02161988  1
  O2-  O229  1  0.90598784  0.09211979  0.52080536  1
  O2-  O230  1  0.90769398  0.42536680  0.02327415  1
  O2-  O231  1  0.90440512  0.42914861  0.51755979  1
  O2-  O232  1  0.90251454  0.76029666  0.01854152  1
  O2-  O233  1  0.90210460  0.76344241  0.52248010  1
  O2-  O234  1  0.26352787  0.26219547  0.23349518  1
  O2-  O235  1  0.26199507  0.26091273  0.72844929  1
  O2-  O236  1  0.26264151  0.59370992  0.22856629  1
  O2-  O237  1  0.26488376  0.59391791  0.72919341  1
  O2-  O238  1  0.26255999  0.93102349  0.23446098  1
  O2-  O239  1  0.26299781  0.92633467  0.73045175  1
  O2-  O240  1  0.59529959  0.26012651  0.22917461  1
  O2-  O241  1  0.59665261  0.26084227  0.72768348  1
  O2-  O242  1  0.59418293  0.59530243  0.22838186  1
  O2-  O243  1  0.59433881  0.59922057  0.72721897  1
  O2-  O244  1  0.59274176  0.92694238  0.23002084  1
  O2-  O245  1  0.59589245  0.93060162  0.73243414  1
  O2-  O246  1  0.92995804  0.26013291  0.22755631  1
  O2-  O247  1  0.92899617  0.26095197  0.72801364  1
  O2-  O248  1  0.92814956  0.59250755  0.22630194  1
  O2-  O249  1  0.92636807  0.59148077  0.73448101  1
  O2-  O250  1  0.92381325  0.92900054  0.22885414  1
  O2-  O251  1  0.92913503  0.92937260  0.73333674  1
  O2-  O252  1  0.09671892  0.24256249  0.27306743  1
  O2-  O253  1  0.09317709  0.23937473  0.76764974  1
  O2-  O254  1  0.09913614  0.56711770  0.26789791  1
  O2-  O255  1  0.09678229  0.57422226  0.76901326  1
  O2-  O256  1  0.08908371  0.91126228  0.26607499  1
  O2-  O257  1  0.09300607  0.90715893  0.77283107  1
  O2-  O258  1  0.43089029  0.23537630  0.26932569  1
  O2-  O259  1  0.42945131  0.23471139  0.76912973  1
  O2-  O260  1  0.42790718  0.57079857  0.27202201  1
  O2-  O261  1  0.43147012  0.57014059  0.77065690  1
  O2-  O262  1  0.42714719  0.90713012  0.27385198  1
  O2-  O263  1  0.42984694  0.90251359  0.76956608  1
  O2-  O264  1  0.75999073  0.24218486  0.26645309  1
  O2-  O265  1  0.76295894  0.23935506  0.77079090  1
  O2-  O266  1  0.76345560  0.57438031  0.27096106  1
  O2-  O267  1  0.75709740  0.57419627  0.76901136  1
  O2-  O268  1  0.75896546  0.90535793  0.26227484  1
  O2-  O269  1  0.75670032  0.90780520  0.77454980  1
  O2-  O270  1  0.07218295  0.07371508  0.47883998  1
  O2-  O271  1  0.06908228  0.07011634  0.98216730  1
  O2-  O272  1  0.07209793  0.40497875  0.48090320  1
  O2-  O273  1  0.07394000  0.40574266  0.98049782  1
  O2-  O274  1  0.06847473  0.73655947  0.48207713  1
  O2-  O275  1  0.07192147  0.73883546  0.97895666  1
  O2-  O276  1  0.40683205  0.07037648  0.47876610  1
  O2-  O277  1  0.40147957  0.06677684  0.98275719  1
  O2-  O278  1  0.40297972  0.40498377  0.47726267  1
  O2-  O279  1  0.40362227  0.40157482  0.98165591  1
  O2-  O280  1  0.40456255  0.73776959  0.47943075  1
  O2-  O281  1  0.40298503  0.73447521  0.98375856  1
  O2-  O282  1  0.73526153  0.07032031  0.48205112  1
  O2-  O283  1  0.73857105  0.07373760  0.97626985  1
  O2-  O284  1  0.73835091  0.40784196  0.47879831  1
  O2-  O285  1  0.73558018  0.40456764  0.98187290  1
  O2-  O286  1  0.73554464  0.73799839  0.48458447  1
  O2-  O287  1  0.73421492  0.74048321  0.97787221  1
  O2-  O288  1  0.09735250  0.23920984  0.47984104  1
  O2-  O289  1  0.09122107  0.24341222  0.98052952  1
  O2-  O290  1  0.09744799  0.56912116  0.48339446  1
  O2-  O291  1  0.09791430  0.57358525  0.97949771  1
  O2-  O292  1  0.08889575  0.91013967  0.48435233  1
  O2-  O293  1  0.09293645  0.90719111  0.97787801  1
  O2-  O294  1  0.43025463  0.23630994  0.48214480  1
  O2-  O295  1  0.43059510  0.23527293  0.97963302  1
  O2-  O296  1  0.43064492  0.57269982  0.47811998  1
  O2-  O297  1  0.43056784  0.56932471  0.97888291  1
  O2-  O298  1  0.42681832  0.90705062  0.47661224  1
  O2-  O299  1  0.43089330  0.90171213  0.97968723  1
  O2-  O300  1  0.76050180  0.24221326  0.48364301  1
  O2-  O301  1  0.76131666  0.24011189  0.97959260  1
  O2-  O302  1  0.76180843  0.57384111  0.47864027  1
  O2-  O303  1  0.75873083  0.57467296  0.98195743  1
  O2-  O304  1  0.75683015  0.90820233  0.48609369  1
  O2-  O305  1  0.75840313  0.90484267  0.97773162  1
  O2-  O306  1  0.07114870  0.07334325  0.27034635  1
  O2-  O307  1  0.07036667  0.07068266  0.76876598  1
  O2-  O308  1  0.07021899  0.40269430  0.26714547  1
  O2-  O309  1  0.07480034  0.40698549  0.77117206  1
  O2-  O310  1  0.06885073  0.73279942  0.26544290  1
  O2-  O311  1  0.07113577  0.74166472  0.77364118  1
  O2-  O312  1  0.40470733  0.07094222  0.27093373  1
  O2-  O313  1  0.40280999  0.06595308  0.76755707  1
  O2-  O314  1  0.40316270  0.40436073  0.27495314  1
  O2-  O315  1  0.40262994  0.40275068  0.76636795  1
  O2-  O316  1  0.40815430  0.73726177  0.27128272  1
  O2-  O317  1  0.40057187  0.73481611  0.76503534  1
  O2-  O318  1  0.73439793  0.06941470  0.26753659  1
  O2-  O319  1  0.73789906  0.07473374  0.77412235  1
  O2-  O320  1  0.73843169  0.40877776  0.27218447  1
  O2-  O321  1  0.73785800  0.40211619  0.76808200  1
  O2-  O322  1  0.73510567  0.73724065  0.26502761  1
  O2-  O323  1  0.73452069  0.74183298  0.77315524  1
  O2-  O324  1  0.23770582  0.09632019  0.23049004  1
  O2-  O325  1  0.24017118  0.09386388  0.72734990  1
  O2-  O326  1  0.23925881  0.42663769  0.22754248  1
  O2-  O327  1  0.23924657  0.42854231  0.72691345  1
  O2-  O328  1  0.24377173  0.75645869  0.23211264  1
  O2-  O329  1  0.23749830  0.76440462  0.72784825  1
  O2-  O330  1  0.56871517  0.09389468  0.22863828  1
  O2-  O331  1  0.57122640  0.09085329  0.72833641  1
  O2-  O332  1  0.57050507  0.42710797  0.23072934  1
  O2-  O333  1  0.57471482  0.42842235  0.72636844  1
  O2-  O334  1  0.57198498  0.76292956  0.22811437  1
  O2-  O335  1  0.56860015  0.76335071  0.72669987  1
  O2-  O336  1  0.90507119  0.09260303  0.22669770  1
  O2-  O337  1  0.90538345  0.09610846  0.73154137  1
  O2-  O338  1  0.90687520  0.42862278  0.22864603  1
  O2-  O339  1  0.90498255  0.42612856  0.72950461  1
  O2-  O340  1  0.90396158  0.75976145  0.22704854  1
  O2-  O341  1  0.90037511  0.76513344  0.73239298  1
  O2-  O342  1  0.26544628  0.26249642  0.01561597  1
  O2-  O343  1  0.25959972  0.26040567  0.52286161  1
  O2-  O344  1  0.26392762  0.59394432  0.02014629  1
  O2-  O345  1  0.26350896  0.59496928  0.51998212  1
  O2-  O346  1  0.26417333  0.92774151  0.01741243  1
  O2-  O347  1  0.26271869  0.92869787  0.51672069  1
  O2-  O348  1  0.59445034  0.26261201  0.02229857  1
  O2-  O349  1  0.59625142  0.25947347  0.52133316  1
  O2-  O350  1  0.59394267  0.59588589  0.01987798  1
  O2-  O351  1  0.59577098  0.59763208  0.52377401  1
  O2-  O352  1  0.59563916  0.93031843  0.01800012  1
  O2-  O353  1  0.59296887  0.92698172  0.51993724  1
  O2-  O354  1  0.92808816  0.25916436  0.02330165  1
  O2-  O355  1  0.93094377  0.26017226  0.52265582  1
  O2-  O356  1  0.92954837  0.59301458  0.01957408  1
  O2-  O357  1  0.92421795  0.59064852  0.51869623  1
  O2-  O358  1  0.92588591  0.92882262  0.02053720  1
  O2-  O359  1  0.92602447  0.92866187  0.51691796  1
