# generated using pymatgen
data_Sr7Ca15Pr50Mn72O216
_symmetry_space_group_name_H-M   'P 1'
_cell_length_a   16.56062593
_cell_length_b   16.60319090
_cell_length_c   15.59427571
_cell_angle_alpha   89.99916822
_cell_angle_beta   90.00223688
_cell_angle_gamma   89.99346459
_symmetry_Int_Tables_number   1
_chemical_formula_structural   Sr7Ca15Pr50Mn72O216
_chemical_formula_sum   'Sr7 Ca15 Pr50 Mn72 O216'
_cell_volume   4287.79007034
_cell_formula_units_Z   1
loop_
 _symmetry_equiv_pos_site_id
 _symmetry_equiv_pos_as_xyz
  1  'x, y, z'
loop_
 _atom_type_symbol
 _atom_type_oxidation_number
  Sr2+  2.0
  Ca2+  2.0
  Pr3+  3.0
  Mn3.30+  3.3
  O2-  -2.0
loop_
 _atom_site_type_symbol
 _atom_site_label
 _atom_site_symmetry_multiplicity
 _atom_site_fract_x
 _atom_site_fract_y
 _atom_site_fract_z
 _atom_site_occupancy
  Sr2+  Sr0  1  0.50033061  0.50659410  0.12319845  1
  Sr2+  Sr1  1  0.17084530  0.50726810  0.12630319  1
  Sr2+  Sr2  1  0.33164076  0.34627478  0.12437498  1
  Sr2+  Sr3  1  0.49791120  0.16048549  0.87251669  1
  Sr2+  Sr4  1  0.50572710  0.50922542  0.62632029  1
  Sr2+  Sr5  1  0.50154377  0.17807633  0.62680154  1
  Sr2+  Sr6  1  0.66640211  0.34084206  0.62410076  1
  Ca2+  Ca7  1  0.16468434  0.15532651  0.87639084  1
  Ca2+  Ca8  1  0.67025886  0.32253468  0.37734174  1
  Ca2+  Ca9  1  0.16499822  0.48568538  0.37287257  1
  Ca2+  Ca10  1  0.00138115  0.67875785  0.12477422  1
  Ca2+  Ca11  1  0.82728580  0.48200586  0.37643906  1
  Ca2+  Ca12  1  0.49799289  0.48672343  0.87368401  1
  Ca2+  Ca13  1  0.33924762  0.64810423  0.87562224  1
  Ca2+  Ca14  1  1.00524037  0.31621512  0.87542717  1
  Ca2+  Ca15  1  0.83380723  0.51235212  0.62327788  1
  Ca2+  Ca16  1  0.83587261  0.18449028  0.62477144  1
  Ca2+  Ca17  1  0.16839095  0.84459664  0.12577344  1
  Ca2+  Ca18  1  0.49612309  0.81595647  0.37525754  1
  Ca2+  Ca19  1  0.66501657  0.67523844  0.62397835  1
  Ca2+  Ca20  1  0.66169545  0.34942558  0.12647288  1
  Ca2+  Ca21  1  0.16194562  0.15358971  0.37316726  1
  Pr3+  Pr22  1  1.00223046  0.32130351  0.37383902  1
  Pr3+  Pr23  1  0.33216524  0.32473230  0.37238375  1
  Pr3+  Pr24  1  0.32884375  0.01144936  0.12581295  1
  Pr3+  Pr25  1  0.16459838  0.48486726  0.87565541  1
  Pr3+  Pr26  1  0.50142464  0.48650022  0.37557721  1
  Pr3+  Pr27  1  0.66252715  0.01310896  0.12571764  1
  Pr3+  Pr28  1  0.50149320  0.84424889  0.12686926  1
  Pr3+  Pr29  1  0.66656912  0.98903483  0.87368610  1
  Pr3+  Pr30  1  -0.00535732  0.01822797  0.62477326  1
  Pr3+  Pr31  1  0.83361357  0.84389459  0.62462439  1
  Pr3+  Pr32  1  0.83036211  0.82002376  0.87479442  1
  Pr3+  Pr33  1  0.16915850  0.18056532  0.62432657  1
  Pr3+  Pr34  1  0.50055181  0.15978118  0.37746732  1
  Pr3+  Pr35  1  0.83529326  0.18338357  0.12446552  1
  Pr3+  Pr36  1  0.33602792  0.98584271  0.37518763  1
  Pr3+  Pr37  1  0.66217880  0.67665108  0.12505940  1
  Pr3+  Pr38  1  0.33596831  0.99117667  0.87476458  1
  Pr3+  Pr39  1  0.50498398  0.84221290  0.62390172  1
  Pr3+  Pr40  1  -0.00864316  0.34810470  0.62573325  1
  Pr3+  Pr41  1  0.33811411  0.32355292  0.87769901  1
  Pr3+  Pr42  1  0.32871751  0.67626559  0.12411344  1
  Pr3+  Pr43  1  0.66825544  0.65104657  0.87395639  1
  Pr3+  Pr44  1  0.49420103  0.81863043  0.87573476  1
  Pr3+  Pr45  1  0.83202175  0.48637999  0.87355027  1
  Pr3+  Pr46  1  -0.00078037  0.01301526  0.12490484  1
  Pr3+  Pr47  1  0.83654786  0.84414219  0.12525802  1
  Pr3+  Pr48  1  0.67037610  0.65119668  0.37621445  1
  Pr3+  Pr49  1  0.82757917  0.15740989  0.37688789  1
  Pr3+  Pr50  1  0.17046784  0.18101141  0.12535214  1
  Pr3+  Pr51  1  1.00315739  0.98835730  0.37460467  1
  Pr3+  Pr52  1  1.00456929  0.98919289  0.87539270  1
  Pr3+  Pr53  1  0.83120574  0.81958973  0.37500037  1
  Pr3+  Pr54  1  0.33366829  0.67811060  0.62617163  1
  Pr3+  Pr55  1  0.66368287  0.01454677  0.62482896  1
  Pr3+  Pr56  1  -0.00146354  0.34713319  0.12342457  1
  Pr3+  Pr57  1  0.83031370  0.15686918  0.87305501  1
  Pr3+  Pr58  1  0.50216902  0.18276825  0.12411048  1
  Pr3+  Pr59  1  0.33182536  0.01505140  0.62431316  1
  Pr3+  Pr60  1  0.16527704  0.81958115  0.87677905  1
  Pr3+  Pr61  1  1.00285574  0.65347966  0.87583258  1
  Pr3+  Pr62  1  0.33372204  0.34529616  0.62545874  1
  Pr3+  Pr63  1  0.83792342  0.51428864  0.12635444  1
  Pr3+  Pr64  1  0.66809503  0.98669743  0.37638829  1
  Pr3+  Pr65  1  0.17037891  0.51134833  0.62360766  1
  Pr3+  Pr66  1  1.00393238  0.64895113  0.37431669  1
  Pr3+  Pr67  1  0.16306131  0.81948372  0.37305188  1
  Pr3+  Pr68  1  0.33646757  0.65301202  0.37532915  1
  Pr3+  Pr69  1  0.17034360  0.84744947  0.62426062  1
  Pr3+  Pr70  1  0.66390022  0.32472500  0.87444437  1
  Pr3+  Pr71  1  -0.00298525  0.67697788  0.62548269  1
  Mn3.30+  Mn72  1  0.16710638  -0.00047892  0.00044683  1
  Mn3.30+  Mn73  1  0.16574699  0.00167216  0.49862316  1
  Mn3.30+  Mn74  1  0.16655553  0.33192713  -0.00215159  1
  Mn3.30+  Mn75  1  0.16366147  0.33354496  0.49954121  1
  Mn3.30+  Mn76  1  0.16776470  0.66577849  0.00045719  1
  Mn3.30+  Mn77  1  0.16677664  0.66494181  0.49931838  1
  Mn3.30+  Mn78  1  0.49847674  0.00091990  0.00053967  1
  Mn3.30+  Mn79  1  0.50039615  -0.00077929  0.49880306  1
  Mn3.30+  Mn80  1  0.50086064  0.33578043  0.00140208  1
  Mn3.30+  Mn81  1  0.50255449  0.33378638  0.49900918  1
  Mn3.30+  Mn82  1  0.49747505  0.66361367  -0.00064286  1
  Mn3.30+  Mn83  1  0.50319038  0.66558601  0.50025678  1
  Mn3.30+  Mn84  1  0.83342706  0.00067902  -0.00008171  1
  Mn3.30+  Mn85  1  0.83315451  0.00189586  0.50093836  1
  Mn3.30+  Mn86  1  0.83345972  0.33484775  -0.00078592  1
  Mn3.30+  Mn87  1  0.83206108  0.33572262  0.50034403  1
  Mn3.30+  Mn88  1  0.83467263  0.66678054  0.00080469  1
  Mn3.30+  Mn89  1  0.83315776  0.66299232  0.50072081  1
  Mn3.30+  Mn90  1  -0.00030580  0.16758992  0.24974822  1
  Mn3.30+  Mn91  1  0.00022141  0.16900666  0.75123127  1
  Mn3.30+  Mn92  1  0.00020773  0.50038892  0.25018043  1
  Mn3.30+  Mn93  1  -0.00060303  0.49879627  0.75027550  1
  Mn3.30+  Mn94  1  0.00073064  0.83137355  0.24778186  1
  Mn3.30+  Mn95  1  0.00034290  0.83354516  0.74992146  1
  Mn3.30+  Mn96  1  0.33167542  0.16694746  0.25235359  1
  Mn3.30+  Mn97  1  0.33093720  0.16870275  0.75016467  1
  Mn3.30+  Mn98  1  0.33236782  0.50001639  0.25068948  1
  Mn3.30+  Mn99  1  0.33532278  0.50106030  0.75027302  1
  Mn3.30+  Mn100  1  0.33295630  0.83167205  0.25050065  1
  Mn3.30+  Mn101  1  0.33385511  0.83273283  0.75030156  1
  Mn3.30+  Mn102  1  0.66661720  0.16989406  0.24933158  1
  Mn3.30+  Mn103  1  0.66700859  0.16806116  0.74987805  1
  Mn3.30+  Mn104  1  0.66915295  0.49775593  0.25024417  1
  Mn3.30+  Mn105  1  0.66684569  0.49939542  0.74806737  1
  Mn3.30+  Mn106  1  0.66543570  0.83196838  0.25196263  1
  Mn3.30+  Mn107  1  0.66604935  0.83076258  0.74957792  1
  Mn3.30+  Mn108  1  0.16648501  -0.00088105  0.25003385  1
  Mn3.30+  Mn109  1  0.16639371  0.00209558  0.75042724  1
  Mn3.30+  Mn110  1  0.16644350  0.33391675  0.25143782  1
  Mn3.30+  Mn111  1  0.16350838  0.33196570  0.75022080  1
  Mn3.30+  Mn112  1  0.16557966  0.66501899  0.24803452  1
  Mn3.30+  Mn113  1  0.16894363  0.66574490  0.75175378  1
  Mn3.30+  Mn114  1  0.49895745  0.00004621  0.25186016  1
  Mn3.30+  Mn115  1  0.49993884  0.00022543  0.74987723  1
  Mn3.30+  Mn116  1  0.50339900  0.33458027  0.25060111  1
  Mn3.30+  Mn117  1  0.50006721  0.33500253  0.74950317  1
  Mn3.30+  Mn118  1  0.49986354  0.66529264  0.25026470  1
  Mn3.30+  Mn119  1  0.50084362  0.66416183  0.75047331  1
  Mn3.30+  Mn120  1  0.83276861  0.00094115  0.24987926  1
  Mn3.30+  Mn121  1  0.83381834  0.00167933  0.74936966  1
  Mn3.30+  Mn122  1  0.83039048  0.33587862  0.24948027  1
  Mn3.30+  Mn123  1  0.83481854  0.33395547  0.75086451  1
  Mn3.30+  Mn124  1  0.83545719  0.66503696  0.25063469  1
  Mn3.30+  Mn125  1  0.83221329  0.66453816  0.74763572  1
  Mn3.30+  Mn126  1  0.00138494  0.16788686  -0.00116732  1
  Mn3.30+  Mn127  1  -0.00121838  0.16881526  0.49935923  1
  Mn3.30+  Mn128  1  0.00104776  0.50044623  0.00058732  1
  Mn3.30+  Mn129  1  -0.00179615  0.49868611  0.49806848  1
  Mn3.30+  Mn130  1  0.00146048  0.83215079  0.00190402  1
  Mn3.30+  Mn131  1  -0.00013967  0.83280974  0.50020019  1
  Mn3.30+  Mn132  1  0.33188770  0.16718217  -0.00020576  1
  Mn3.30+  Mn133  1  0.33054670  0.16838647  0.49765063  1
  Mn3.30+  Mn134  1  0.33405674  0.50123648  -0.00100632  1
  Mn3.30+  Mn135  1  0.33367404  0.49976419  0.49977896  1
  Mn3.30+  Mn136  1  0.33106698  0.83193506  0.00039620  1
  Mn3.30+  Mn137  1  0.33525571  0.83253486  0.49941714  1
  Mn3.30+  Mn138  1  0.66647019  0.16816445  -0.00026758  1
  Mn3.30+  Mn139  1  0.66717758  0.16918199  0.50127216  1
  Mn3.30+  Mn140  1  0.66649469  0.49867404  -0.00003616  1
  Mn3.30+  Mn141  1  0.66987489  0.49853153  0.50200568  1
  Mn3.30+  Mn142  1  0.66563906  0.83288824  0.00004520  1
  Mn3.30+  Mn143  1  0.66583821  0.83026348  0.49924161  1
  O2-  O144  1  0.02564298  0.16257032  0.12512296  1
  O2-  O145  1  0.02584716  0.16504785  0.62632931  1
  O2-  O146  1  0.02090249  0.49340614  0.12392156  1
  O2-  O147  1  0.02678138  0.49551424  0.62589257  1
  O2-  O148  1  0.02552061  0.82660790  0.12433303  1
  O2-  O149  1  0.02618991  0.82663839  0.62526348  1
  O2-  O150  1  0.35771103  0.15912162  0.12947575  1
  O2-  O151  1  0.35117842  0.16354855  0.62284480  1
  O2-  O152  1  0.34994297  0.50446044  0.12631320  1
  O2-  O153  1  0.35420772  0.49463942  0.62417411  1
  O2-  O154  1  0.35892139  0.82663422  0.12689932  1
  O2-  O155  1  0.36056130  0.82727663  0.62518320  1
  O2-  O156  1  0.69275881  0.15805027  0.12434449  1
  O2-  O157  1  0.69307492  0.16143578  0.62761936  1
  O2-  O158  1  0.69398217  0.49620271  0.12539112  1
  O2-  O159  1  0.69345347  0.49438065  0.62496984  1
  O2-  O160  1  0.69203337  0.82676059  0.12505225  1
  O2-  O161  1  0.69116500  0.82334753  0.62428423  1
  O2-  O162  1  0.14299508  0.32827660  0.12388373  1
  O2-  O163  1  0.13603710  0.32727290  0.62483139  1
  O2-  O164  1  0.14234862  0.65977615  0.12517019  1
  O2-  O165  1  0.14133870  0.66033808  0.62466702  1
  O2-  O166  1  0.14238289  0.99118647  0.12470958  1
  O2-  O167  1  0.14010956  0.99456955  0.62266495  1
  O2-  O168  1  0.48091068  0.33059548  0.12689532  1
  O2-  O169  1  0.47790524  0.33361618  0.62208209  1
  O2-  O170  1  0.47434282  0.66384448  0.12401671  1
  O2-  O171  1  0.47686014  0.66770300  0.62651535  1
  O2-  O172  1  0.47370605  0.99340115  0.12799754  1
  O2-  O173  1  0.47586143  0.99157734  0.62241149  1
  O2-  O174  1  0.80540634  0.32984399  0.12376315  1
  O2-  O175  1  0.81681074  0.32664295  0.62690634  1
  O2-  O176  1  0.80621425  0.66275590  0.12564016  1
  O2-  O177  1  0.80813964  0.65979702  0.62443627  1
  O2-  O178  1  0.80638979  0.99274370  0.12570901  1
  O2-  O179  1  0.80692940  0.99147802  0.62549617  1
  O2-  O180  1  0.30315813  0.17457294  0.37479350  1
  O2-  O181  1  0.30722267  0.17265530  0.87248503  1
  O2-  O182  1  0.30775924  0.50530775  0.37766178  1
  O2-  O183  1  0.30816545  0.50275468  0.87211355  1
  O2-  O184  1  0.30618904  0.83700893  0.37528540  1
  O2-  O185  1  0.30739794  0.84462815  0.87321839  1
  O2-  O186  1  0.64573037  0.17247857  0.37234459  1
  O2-  O187  1  0.64792660  0.17143857  0.87617162  1
  O2-  O188  1  0.64478608  0.50709074  0.37484214  1
  O2-  O189  1  0.64309922  0.50507432  0.87522665  1
  O2-  O190  1  0.63877537  0.83948191  0.37522703  1
  O2-  O191  1  0.63968535  0.84075095  0.87623648  1
  O2-  O192  1  0.97121369  0.17180688  0.37252643  1
  O2-  O193  1  0.97396643  0.16845754  0.87551885  1
  O2-  O194  1  0.97040559  0.50294548  0.37317955  1
  O2-  O195  1  0.97535945  0.50804325  0.87626552  1
  O2-  O196  1  0.97527598  0.83956296  0.37505406  1
  O2-  O197  1  0.97501943  0.83963612  0.87492558  1
  O2-  O198  1  0.19032004  0.00599455  0.37596513  1
  O2-  O199  1  0.19201560  0.00844543  0.87655329  1
  O2-  O200  1  0.18772742  0.34088616  0.37782984  1
  O2-  O201  1  0.19319481  0.33757080  0.87273389  1
  O2-  O202  1  0.19207531  0.67436495  0.37597230  1
  O2-  O203  1  0.19519611  0.67343324  0.87379725  1
  O2-  O204  1  0.52557100  0.01045000  0.37464421  1
  O2-  O205  1  0.52230490  0.00142969  0.87590639  1
  O2-  O206  1  0.52700171  0.33514372  0.37368100  1
  O2-  O207  1  0.51861645  0.33637957  0.87735170  1
  O2-  O208  1  0.52545981  0.67178445  0.37487719  1
  O2-  O209  1  0.52563186  0.67417765  0.87525822  1
  O2-  O210  1  0.85902106  0.00750359  0.37480553  1
  O2-  O211  1  0.86041648  0.00640216  0.87416400  1
  O2-  O212  1  0.85885509  0.33604899  0.37340481  1
  O2-  O213  1  0.86324201  0.33882382  0.87568079  1
  O2-  O214  1  0.86070820  0.67455103  0.37552144  1
  O2-  O215  1  0.85866858  0.67262181  0.87458474  1
  O2-  O216  1  0.23776677  0.09221877  0.02384728  1
  O2-  O217  1  0.23844325  0.09345732  0.52076068  1
  O2-  O218  1  0.23924930  0.42715980  0.01006581  1
  O2-  O219  1  0.23739129  0.42396872  0.52283958  1
  O2-  O220  1  0.23576206  0.76326093  0.02159733  1
  O2-  O221  1  0.23934992  0.76246765  0.52136327  1
  O2-  O222  1  0.57154738  0.09246934  0.02311102  1
  O2-  O223  1  0.57576408  0.09107983  0.51733610  1
  O2-  O224  1  0.57822325  0.42490925  0.01562270  1
  O2-  O225  1  0.57353872  0.43055892  0.51092434  1
  O2-  O226  1  0.56914086  0.76057504  0.02034493  1
  O2-  O227  1  0.57154051  0.76104053  0.51834665  1
  O2-  O228  1  0.90496292  0.09481618  0.02152448  1
  O2-  O229  1  0.90407981  0.09920766  0.52270945  1
  O2-  O230  1  0.90394230  0.42890529  0.02070763  1
  O2-  O231  1  0.90382136  0.42939230  0.52252609  1
  O2-  O232  1  0.90163111  0.76349096  0.01707869  1
  O2-  O233  1  0.90431707  0.76032423  0.52163341  1
  O2-  O234  1  0.25884056  0.25827712  0.23201410  1
  O2-  O235  1  0.25732826  0.26254057  0.72549642  1
  O2-  O236  1  0.26314832  0.59959129  0.23629810  1
  O2-  O237  1  0.26134429  0.59292026  0.72744174  1
  O2-  O238  1  0.26527594  0.92786809  0.23447807  1
  O2-  O239  1  0.26291151  0.92825954  0.72705853  1
  O2-  O240  1  0.59528024  0.25961756  0.22567219  1
  O2-  O241  1  0.59325900  0.25880737  0.73892591  1
  O2-  O242  1  0.60016181  0.59539869  0.23411659  1
  O2-  O243  1  0.60057250  0.59890022  0.73313522  1
  O2-  O244  1  0.59493543  0.92834656  0.22959827  1
  O2-  O245  1  0.59722872  0.92493339  0.72813966  1
  O2-  O246  1  0.92749825  0.26299567  0.22750262  1
  O2-  O247  1  0.93072517  0.26287212  0.73415978  1
  O2-  O248  1  0.93157303  0.59730270  0.22779819  1
  O2-  O249  1  0.93172158  0.59646595  0.73289933  1
  O2-  O250  1  0.92771425  0.92780976  0.22911227  1
  O2-  O251  1  0.92696541  0.92887911  0.72844237  1
  O2-  O252  1  0.09308079  0.23709473  0.27069901  1
  O2-  O253  1  0.09774133  0.23391472  0.77069266  1
  O2-  O254  1  0.09463201  0.57106937  0.27508067  1
  O2-  O255  1  0.09516392  0.57017970  0.77036219  1
  O2-  O256  1  0.09398476  0.90666345  0.27178284  1
  O2-  O257  1  0.09797958  0.90715224  0.77118578  1
  O2-  O258  1  0.42795141  0.23949246  0.27061436  1
  O2-  O259  1  0.41929598  0.24440645  0.76622292  1
  O2-  O260  1  0.42741431  0.57353063  0.27400154  1
  O2-  O261  1  0.43066847  0.57242292  0.76986298  1
  O2-  O262  1  0.42812579  0.90327936  0.27308895  1
  O2-  O263  1  0.42711911  0.90452637  0.76980785  1
  O2-  O264  1  0.76552399  0.23593210  0.26563466  1
  O2-  O265  1  0.76035376  0.24205218  0.77256036  1
  O2-  O266  1  0.76608208  0.57009270  0.27010457  1
  O2-  O267  1  0.76248007  0.57285259  0.77272559  1
  O2-  O268  1  0.76043556  0.90501196  0.27217960  1
  O2-  O269  1  0.75964998  0.90441816  0.77052143  1
  O2-  O270  1  0.06533176  0.07176448  0.48250374  1
  O2-  O271  1  0.07048139  0.06800378  0.98459873  1
  O2-  O272  1  0.06649136  0.40252905  0.48254477  1
  O2-  O273  1  0.07254306  0.40198302  0.97854808  1
  O2-  O274  1  0.07335559  0.73590209  0.47962678  1
  O2-  O275  1  0.07360167  0.73858809  0.97694950  1
  O2-  O276  1  0.40386897  0.07456193  0.47942435  1
  O2-  O277  1  0.40152115  0.07125823  0.98365151  1
  O2-  O278  1  0.40612544  0.40575723  0.47780804  1
  O2-  O279  1  0.40644421  0.40826956  0.98240087  1
  O2-  O280  1  0.40338137  0.73759369  0.48216574  1
  O2-  O281  1  0.40234506  0.73872943  0.97818433  1
  O2-  O282  1  0.73903888  0.07120309  0.47968865  1
  O2-  O283  1  0.73854322  0.07187499  0.97916140  1
  O2-  O284  1  0.73878175  0.40364059  0.47873794  1
  O2-  O285  1  0.74205737  0.40723338  0.97470867  1
  O2-  O286  1  0.74035598  0.74006451  0.47645196  1
  O2-  O287  1  0.73821056  0.73870870  0.97872417  1
  O2-  O288  1  0.09533843  0.23646780  0.47682333  1
  O2-  O289  1  0.09623530  0.23516708  0.98134858  1
  O2-  O290  1  0.09525885  0.56751143  0.47794659  1
  O2-  O291  1  0.09564826  0.57371032  0.97528964  1
  O2-  O292  1  0.09560556  0.90520410  0.47908833  1
  O2-  O293  1  0.09539308  0.90700246  0.97689136  1
  O2-  O294  1  0.42167515  0.24200535  0.47573942  1
  O2-  O295  1  0.42517576  0.24165257  0.98627537  1
  O2-  O296  1  0.43039716  0.57507049  0.47899969  1
  O2-  O297  1  0.42976039  0.57161276  0.97692469  1
  O2-  O298  1  0.42848152  0.90432242  0.47631494  1
  O2-  O299  1  0.42719929  0.90482299  0.98214053  1
  O2-  O300  1  0.76329527  0.23975251  0.48284576  1
  O2-  O301  1  0.76407049  0.24031559  0.97937301  1
  O2-  O302  1  0.76447406  0.57106278  0.47646631  1
  O2-  O303  1  0.76362103  0.57213442  0.98019086  1
  O2-  O304  1  0.75997289  0.90396737  0.47975714  1
  O2-  O305  1  0.76152406  0.90648108  0.97807012  1
  O2-  O306  1  0.06758098  0.07048635  0.26692591  1
  O2-  O307  1  0.06640521  0.07047863  0.76615943  1
  O2-  O308  1  0.06840629  0.40370077  0.26577052  1
  O2-  O309  1  0.07005789  0.40251222  0.77235488  1
  O2-  O310  1  0.07240626  0.73776877  0.27251992  1
  O2-  O311  1  0.07348137  0.73804534  0.77110610  1
  O2-  O312  1  0.40404507  0.07332904  0.27425535  1
  O2-  O313  1  0.40125443  0.07245427  0.76390226  1
  O2-  O314  1  0.40947068  0.40772706  0.27294036  1
  O2-  O315  1  0.40199950  0.40588612  0.76667334  1
  O2-  O316  1  0.40229350  0.73787986  0.26929565  1
  O2-  O317  1  0.40292318  0.73814325  0.77180605  1
  O2-  O318  1  0.73685300  0.07180515  0.27042586  1
  O2-  O319  1  0.74028318  0.07166919  0.77172668  1
  O2-  O320  1  0.73765903  0.40319830  0.27149557  1
  O2-  O321  1  0.74180452  0.40646766  0.77461996  1
  O2-  O322  1  0.73926260  0.73802814  0.27165636  1
  O2-  O323  1  0.73887788  0.74070105  0.77347582  1
  O2-  O324  1  0.23773472  0.09143819  0.22803937  1
  O2-  O325  1  0.23718997  0.09344330  0.72762837  1
  O2-  O326  1  0.24247547  0.42597070  0.23954782  1
  O2-  O327  1  0.23579296  0.42663576  0.72968855  1
  O2-  O328  1  0.23627522  0.76269854  0.22948704  1
  O2-  O329  1  0.23940813  0.76323213  0.72729416  1
  O2-  O330  1  0.57165067  0.09646797  0.22938825  1
  O2-  O331  1  0.57764183  0.08861252  0.73198243  1
  O2-  O332  1  0.57431135  0.42980917  0.23612868  1
  O2-  O333  1  0.57633063  0.42702817  0.73874126  1
  O2-  O334  1  0.57244226  0.75920796  0.22773435  1
  O2-  O335  1  0.56852858  0.76403973  0.73549999  1
  O2-  O336  1  0.90492298  0.09583021  0.22666629  1
  O2-  O337  1  0.90506324  0.09877365  0.72772090  1
  O2-  O338  1  0.90499286  0.42675714  0.22716350  1
  O2-  O339  1  0.90392145  0.43194066  0.72934368  1
  O2-  O340  1  0.90212804  0.76305141  0.23202219  1
  O2-  O341  1  0.90299228  0.75970450  0.72899054  1
  O2-  O342  1  0.25880008  0.25827727  0.01871500  1
  O2-  O343  1  0.25871696  0.26254813  0.52113675  1
  O2-  O344  1  0.26321641  0.59723243  0.01443890  1
  O2-  O345  1  0.26158961  0.59595036  0.52120178  1
  O2-  O346  1  0.26297517  0.92960535  0.01813464  1
  O2-  O347  1  0.26413094  0.92682002  0.52016241  1
  O2-  O348  1  0.59557794  0.26022310  0.02008192  1
  O2-  O349  1  0.59085789  0.25741926  0.51380942  1
  O2-  O350  1  0.59908699  0.59673624  0.01646342  1
  O2-  O351  1  0.60150584  0.59695289  0.51602282  1
  O2-  O352  1  0.59408497  0.92734958  0.02193499  1
  O2-  O353  1  0.59758492  0.92552819  0.52122781  1
  O2-  O354  1  0.92597342  0.26187213  0.02244496  1
  O2-  O355  1  0.93136418  0.26522762  0.51463419  1
  O2-  O356  1  0.92828164  0.59861069  0.02129677  1
  O2-  O357  1  0.93350892  0.59657159  0.51789319  1
  O2-  O358  1  0.92798568  0.92804401  0.02148024  1
  O2-  O359  1  0.92606202  0.93017185  0.52059562  1
