# generated using pymatgen
data_Sr7Ca15Pr50Mn72O216
_symmetry_space_group_name_H-M   'P 1'
_cell_length_a   16.55962654
_cell_length_b   16.60510706
_cell_length_c   15.59206874
_cell_angle_alpha   89.99674128
_cell_angle_beta   90.00277726
_cell_angle_gamma   90.00362354
_symmetry_Int_Tables_number   1
_chemical_formula_structural   Sr7Ca15Pr50Mn72O216
_chemical_formula_sum   'Sr7 Ca15 Pr50 Mn72 O216'
_cell_volume   4287.41928276
_cell_formula_units_Z   1
loop_
 _symmetry_equiv_pos_site_id
 _symmetry_equiv_pos_as_xyz
  1  'x, y, z'
loop_
 _atom_type_symbol
 _atom_type_oxidation_number
  Sr2+  2.0
  Ca2+  2.0
  Pr3+  3.0
  Mn3.30+  3.3
  O2-  -2.0
loop_
 _atom_site_type_symbol
 _atom_site_label
 _atom_site_symmetry_multiplicity
 _atom_site_fract_x
 _atom_site_fract_y
 _atom_site_fract_z
 _atom_site_occupancy
  Sr2+  Sr0  1  0.49871125  0.15632194  0.87381525  1
  Sr2+  Sr1  1  0.16801982  0.49261016  0.87364142  1
  Sr2+  Sr2  1  0.33616356  0.65824635  0.87807750  1
  Sr2+  Sr3  1  -0.00032123  0.34534535  0.62430390  1
  Sr2+  Sr4  1  0.66799540  0.00580867  0.12272023  1
  Sr2+  Sr5  1  0.66883187  0.65812261  0.87673337  1
  Sr2+  Sr6  1  0.16783420  0.50795054  0.62668766  1
  Ca2+  Ca7  1  0.16170541  0.14949487  0.87456503  1
  Ca2+  Ca8  1  0.50353611  0.18470239  0.62594711  1
  Ca2+  Ca9  1  1.00245491  0.98476049  0.87593550  1
  Ca2+  Ca10  1  -0.00513039  0.68576583  0.12504580  1
  Ca2+  Ca11  1  0.32943947  0.68255422  0.12405000  1
  Ca2+  Ca12  1  0.66680424  0.68213518  0.12326545  1
  Ca2+  Ca13  1  0.32889117  0.01375923  0.12300732  1
  Ca2+  Ca14  1  1.00484760  0.98085046  0.37480274  1
  Ca2+  Ca15  1  0.33713182  0.31725859  0.37598700  1
  Ca2+  Ca16  1  0.66237979  0.34772706  0.62642352  1
  Ca2+  Ca17  1  0.83577174  0.84630964  0.12358654  1
  Ca2+  Ca18  1  0.66874464  0.98580966  0.87715184  1
  Ca2+  Ca19  1  0.16135279  0.81861399  0.37353708  1
  Ca2+  Ca20  1  0.66381006  0.68045247  0.62615507  1
  Ca2+  Ca21  1  0.83802792  0.51918216  0.12451818  1
  Pr3+  Pr22  1  0.17110919  0.51636138  0.12397478  1
  Pr3+  Pr23  1  0.32986356  0.67674260  0.62579848  1
  Pr3+  Pr24  1  0.82690256  0.15163316  0.87420170  1
  Pr3+  Pr25  1  0.49746501  0.48970919  0.87572889  1
  Pr3+  Pr26  1  0.82993650  0.82265386  0.87884776  1
  Pr3+  Pr27  1  1.00320089  0.65434063  0.87803774  1
  Pr3+  Pr28  1  0.50074737  0.84431320  0.12390539  1
  Pr3+  Pr29  1  1.00316388  0.32048138  0.37665437  1
  Pr3+  Pr30  1  -0.00439294  0.01155894  0.62587355  1
  Pr3+  Pr31  1  0.83510445  0.51266448  0.62502309  1
  Pr3+  Pr32  1  0.66882224  0.32226234  0.87400796  1
  Pr3+  Pr33  1  0.66095437  0.01417042  0.62693628  1
  Pr3+  Pr34  1  1.00382229  0.65563356  0.37229249  1
  Pr3+  Pr35  1  0.17030878  0.84432429  0.62451629  1
  Pr3+  Pr36  1  0.33434674  0.32213194  0.87384896  1
  Pr3+  Pr37  1  0.83117944  0.15268048  0.37627477  1
  Pr3+  Pr38  1  0.66966226  0.31926449  0.37573354  1
  Pr3+  Pr39  1  0.49829828  0.82072031  0.37265679  1
  Pr3+  Pr40  1  1.00632246  0.32043270  0.87359557  1
  Pr3+  Pr41  1  0.49651887  0.48332517  0.37428912  1
  Pr3+  Pr42  1  0.16343129  0.82107431  0.87638690  1
  Pr3+  Pr43  1  0.66794067  0.98762022  0.37385750  1
  Pr3+  Pr44  1  0.50640260  0.51393932  0.62471341  1
  Pr3+  Pr45  1  0.33507202  0.98860485  0.87708290  1
  Pr3+  Pr46  1  0.83602906  0.17714551  0.12449678  1
  Pr3+  Pr47  1  -0.00576659  0.00901144  0.12482524  1
  Pr3+  Pr48  1  0.33153904  0.34575931  0.62498221  1
  Pr3+  Pr49  1  0.50014776  0.82207775  0.87742498  1
  Pr3+  Pr50  1  0.83537642  0.18295179  0.62576488  1
  Pr3+  Pr51  1  0.83247899  0.82240130  0.37159099  1
  Pr3+  Pr52  1  0.16935995  0.84813162  0.12572342  1
  Pr3+  Pr53  1  0.83422036  0.84292682  0.62602035  1
  Pr3+  Pr54  1  0.33469909  0.65486293  0.37163171  1
  Pr3+  Pr55  1  0.49992669  0.17517094  0.12318574  1
  Pr3+  Pr56  1  0.50312421  0.84234688  0.62608756  1
  Pr3+  Pr57  1  0.16942709  0.17586297  0.12266617  1
  Pr3+  Pr58  1  -0.00375450  0.34784881  0.12517275  1
  Pr3+  Pr59  1  0.67161007  0.65427392  0.37309824  1
  Pr3+  Pr60  1  0.33097433  0.01349209  0.62594883  1
  Pr3+  Pr61  1  0.66488601  0.34450182  0.12413218  1
  Pr3+  Pr62  1  0.50474340  0.51592724  0.12522851  1
  Pr3+  Pr63  1  0.16562951  0.48609058  0.37489230  1
  Pr3+  Pr64  1  0.49531385  0.15439568  0.37587819  1
  Pr3+  Pr65  1  0.33464428  0.98607054  0.37313835  1
  Pr3+  Pr66  1  0.16395295  0.15185735  0.37656945  1
  Pr3+  Pr67  1  0.16811511  0.17982117  0.62741941  1
  Pr3+  Pr68  1  0.00043036  0.67498651  0.62618503  1
  Pr3+  Pr69  1  0.83183418  0.48759053  0.37229374  1
  Pr3+  Pr70  1  0.83013260  0.48968252  0.87715354  1
  Pr3+  Pr71  1  0.33032683  0.34404341  0.12479062  1
  Mn3.30+  Mn72  1  0.16473577  0.00052659  -0.00125049  1
  Mn3.30+  Mn73  1  0.16459883  -0.00234794  0.49938580  1
  Mn3.30+  Mn74  1  0.16523150  0.33280960  -0.00093351  1
  Mn3.30+  Mn75  1  0.16943007  0.33278916  0.49935927  1
  Mn3.30+  Mn76  1  0.16570391  0.66747105  0.00251880  1
  Mn3.30+  Mn77  1  0.16768780  0.66642704  0.49855895  1
  Mn3.30+  Mn78  1  0.49965050  0.00032408  -0.00060680  1
  Mn3.30+  Mn79  1  0.49889944  0.00061467  0.50109589  1
  Mn3.30+  Mn80  1  0.49944211  0.33307943  0.00038790  1
  Mn3.30+  Mn81  1  0.50076658  0.33207484  0.50072131  1
  Mn3.30+  Mn82  1  0.50076052  0.66748950  0.00289164  1
  Mn3.30+  Mn83  1  0.50183400  0.66642758  0.49847212  1
  Mn3.30+  Mn84  1  0.83342728  -0.00107946  -0.00107283  1
  Mn3.30+  Mn85  1  0.83305916  -0.00102135  0.50027283  1
  Mn3.30+  Mn86  1  0.83510929  0.33480886  0.00067453  1
  Mn3.30+  Mn87  1  0.83186704  0.33460000  0.50099981  1
  Mn3.30+  Mn88  1  0.83427654  0.66835939  0.00407924  1
  Mn3.30+  Mn89  1  0.83267817  0.66750912  0.49999380  1
  Mn3.30+  Mn90  1  0.00095212  0.16404370  0.25114785  1
  Mn3.30+  Mn91  1  -0.00061203  0.16527064  0.75169212  1
  Mn3.30+  Mn92  1  -0.00017898  0.50224995  0.24791250  1
  Mn3.30+  Mn93  1  -0.00058914  0.49995684  0.74995196  1
  Mn3.30+  Mn94  1  0.00064585  0.83357684  0.24987701  1
  Mn3.30+  Mn95  1  -0.00012086  0.83371926  0.75003998  1
  Mn3.30+  Mn96  1  0.33158386  0.16551105  0.25004810  1
  Mn3.30+  Mn97  1  0.33386885  0.16648704  0.75056572  1
  Mn3.30+  Mn98  1  0.33402894  0.49960202  0.24875894  1
  Mn3.30+  Mn99  1  0.33516511  0.50090457  0.75101526  1
  Mn3.30+  Mn100  1  0.33049442  0.83347596  0.24950212  1
  Mn3.30+  Mn101  1  0.33455831  0.83315466  0.75044828  1
  Mn3.30+  Mn102  1  0.66591784  0.16501805  0.24900520  1
  Mn3.30+  Mn103  1  0.66422234  0.16706482  0.74985055  1
  Mn3.30+  Mn104  1  0.66865567  0.50150055  0.24721626  1
  Mn3.30+  Mn105  1  0.66720234  0.50124491  0.75012813  1
  Mn3.30+  Mn106  1  0.66731494  0.83263960  0.24714054  1
  Mn3.30+  Mn107  1  0.66761477  0.83365101  0.75085428  1
  Mn3.30+  Mn108  1  0.16493707  -0.00139420  0.25104839  1
  Mn3.30+  Mn109  1  0.16405850  0.00023639  0.75090190  1
  Mn3.30+  Mn110  1  0.16753424  0.33169926  0.25040704  1
  Mn3.30+  Mn111  1  0.16741754  0.33347265  0.75100643  1
  Mn3.30+  Mn112  1  0.16659328  0.66889700  0.24756148  1
  Mn3.30+  Mn113  1  0.16689741  0.66545832  0.75110201  1
  Mn3.30+  Mn114  1  0.49810085  -0.00011362  0.24731920  1
  Mn3.30+  Mn115  1  0.50036540  0.00122439  0.75164680  1
  Mn3.30+  Mn116  1  0.49859069  0.33158654  0.24997989  1
  Mn3.30+  Mn117  1  0.50171552  0.33322390  0.74889937  1
  Mn3.30+  Mn118  1  0.50122966  0.66708983  0.24781292  1
  Mn3.30+  Mn119  1  0.50200700  0.66670344  0.75081515  1
  Mn3.30+  Mn120  1  0.83520886  -0.00130080  0.25090822  1
  Mn3.30+  Mn121  1  0.83149759  -0.00059541  0.75130109  1
  Mn3.30+  Mn122  1  0.83391808  0.33403181  0.24916399  1
  Mn3.30+  Mn123  1  0.83358653  0.33476509  0.74972546  1
  Mn3.30+  Mn124  1  0.83540165  0.66848041  0.24573510  1
  Mn3.30+  Mn125  1  0.83167723  0.66742489  0.75010920  1
  Mn3.30+  Mn126  1  0.00116626  0.16420355  -0.00261581  1
  Mn3.30+  Mn127  1  -0.00108716  0.16484961  0.50016088  1
  Mn3.30+  Mn128  1  -0.00056252  0.50214403  0.00249729  1
  Mn3.30+  Mn129  1  0.00000906  0.50072057  0.49995699  1
  Mn3.30+  Mn130  1  -0.00167651  0.83389433  0.00073241  1
  Mn3.30+  Mn131  1  0.00176925  0.83259232  0.49966427  1
  Mn3.30+  Mn132  1  0.33120910  0.16527711  -0.00242676  1
  Mn3.30+  Mn133  1  0.33428463  0.16696792  0.50153430  1
  Mn3.30+  Mn134  1  0.33421450  0.50181096  0.00122078  1
  Mn3.30+  Mn135  1  0.33468126  0.49884150  0.49855378  1
  Mn3.30+  Mn136  1  0.33239563  0.83402657  0.00243820  1
  Mn3.30+  Mn137  1  0.33226285  0.83237661  0.49731071  1
  Mn3.30+  Mn138  1  0.66629560  0.16417207  -0.00057456  1
  Mn3.30+  Mn139  1  0.66395588  0.16806015  0.50197737  1
  Mn3.30+  Mn140  1  0.66896985  0.50308084  0.00295578  1
  Mn3.30+  Mn141  1  0.66713021  0.50014629  0.49986482  1
  Mn3.30+  Mn142  1  0.66797141  0.83342054  0.00202521  1
  Mn3.30+  Mn143  1  0.66674196  0.83251927  0.49979871  1
  O2-  O144  1  0.02553565  0.15724923  0.12514129  1
  O2-  O145  1  0.02353294  0.15926072  0.62566604  1
  O2-  O146  1  0.02807286  0.49248362  0.12707515  1
  O2-  O147  1  0.01693650  0.50391508  0.62452047  1
  O2-  O148  1  0.02496444  0.83379222  0.12616702  1
  O2-  O149  1  0.02681992  0.82554210  0.62475344  1
  O2-  O150  1  0.35468678  0.16025618  0.12356987  1
  O2-  O151  1  0.36004148  0.15979334  0.62585866  1
  O2-  O152  1  0.36081332  0.48997488  0.12717894  1
  O2-  O153  1  0.36085880  0.49572606  0.62370904  1
  O2-  O154  1  0.35693512  0.82723630  0.12666925  1
  O2-  O155  1  0.35873361  0.82621363  0.62173885  1
  O2-  O156  1  0.69195285  0.16418916  0.12492046  1
  O2-  O157  1  0.69335530  0.15966168  0.62600918  1
  O2-  O158  1  0.69611037  0.48891030  0.12606147  1
  O2-  O159  1  0.69220715  0.49067281  0.62381753  1
  O2-  O160  1  0.69274706  0.82965226  0.12642740  1
  O2-  O161  1  0.68961007  0.82773842  0.62427710  1
  O2-  O162  1  0.14018448  0.32402317  0.12551958  1
  O2-  O163  1  0.14908842  0.32824583  0.62537343  1
  O2-  O164  1  0.13801377  0.66281377  0.12553814  1
  O2-  O165  1  0.14557181  0.66577800  0.62440758  1
  O2-  O166  1  0.13832043  0.99746629  0.12719735  1
  O2-  O167  1  0.13967024  0.99228672  0.62480981  1
  O2-  O168  1  0.47444903  0.32510906  0.12599899  1
  O2-  O169  1  0.47569418  0.33158965  0.62422151  1
  O2-  O170  1  0.47212056  0.66365853  0.12677230  1
  O2-  O171  1  0.47450410  0.66373572  0.62147663  1
  O2-  O172  1  0.47095659  0.99373831  0.12553522  1
  O2-  O173  1  0.47385706  0.98854167  0.62552968  1
  O2-  O174  1  0.80884392  0.32351185  0.12458434  1
  O2-  O175  1  0.80509368  0.33010461  0.62185212  1
  O2-  O176  1  0.80648019  0.66032195  0.12587831  1
  O2-  O177  1  0.80555455  0.66094203  0.62202623  1
  O2-  O178  1  0.81831884  0.99675053  0.12514805  1
  O2-  O179  1  0.80538932  0.99200141  0.62487273  1
  O2-  O180  1  0.30852705  0.17143220  0.37684443  1
  O2-  O181  1  0.30479810  0.17299613  0.87348751  1
  O2-  O182  1  0.30916301  0.50814681  0.37158562  1
  O2-  O183  1  0.31877910  0.50184221  0.87717275  1
  O2-  O184  1  0.30362596  0.83960324  0.37347618  1
  O2-  O185  1  0.30776071  0.84026201  0.87786151  1
  O2-  O186  1  0.63962645  0.17112454  0.37542163  1
  O2-  O187  1  0.64745094  0.17577349  0.87391298  1
  O2-  O188  1  0.64064766  0.50751039  0.37179392  1
  O2-  O189  1  0.64178148  0.50295034  0.87811882  1
  O2-  O190  1  0.64239657  0.83863418  0.37369381  1
  O2-  O191  1  0.64465002  0.83872839  0.87571947  1
  O2-  O192  1  0.97438452  0.17446208  0.37584408  1
  O2-  O193  1  0.97049965  0.17491987  0.87401894  1
  O2-  O194  1  0.97618261  0.50597337  0.37252793  1
  O2-  O195  1  0.97433164  0.50574634  0.87643835  1
  O2-  O196  1  0.97606840  0.83468835  0.37623153  1
  O2-  O197  1  0.97490416  0.83781095  0.87314450  1
  O2-  O198  1  0.19269740  0.00643745  0.37576983  1
  O2-  O199  1  0.19153492  0.00259889  0.87212421  1
  O2-  O200  1  0.19414832  0.33706725  0.37402424  1
  O2-  O201  1  0.18951458  0.33805282  0.87531445  1
  O2-  O202  1  0.19120931  0.67280058  0.37290407  1
  O2-  O203  1  0.18500181  0.67252750  0.87702526  1
  O2-  O204  1  0.52377417  0.00625973  0.37534522  1
  O2-  O205  1  0.52565989  0.00066642  0.87319761  1
  O2-  O206  1  0.52675093  0.33524820  0.37406003  1
  O2-  O207  1  0.52501697  0.34097637  0.87548418  1
  O2-  O208  1  0.52739547  0.67182358  0.37290984  1
  O2-  O209  1  0.51928761  0.67084856  0.87873684  1
  O2-  O210  1  0.86027922  0.00539050  0.37785306  1
  O2-  O211  1  0.86029642  0.00461380  0.87309043  1
  O2-  O212  1  0.85906176  0.33874546  0.37454623  1
  O2-  O213  1  0.86174330  0.34175967  0.87884937  1
  O2-  O214  1  0.85993266  0.67385848  0.37364635  1
  O2-  O215  1  0.85898716  0.67301358  0.87835914  1
  O2-  O216  1  0.23548750  0.09445333  0.01652555  1
  O2-  O217  1  0.23537357  0.09320757  0.52159453  1
  O2-  O218  1  0.24151749  0.42735236  0.02305018  1
  O2-  O219  1  0.24256188  0.42620628  0.51671369  1
  O2-  O220  1  0.23675698  0.76351045  0.01872080  1
  O2-  O221  1  0.24090958  0.75943762  0.52137572  1
  O2-  O222  1  0.56912016  0.09231702  0.01995364  1
  O2-  O223  1  0.57051881  0.09820560  0.52260330  1
  O2-  O224  1  0.57397107  0.42790034  0.02295803  1
  O2-  O225  1  0.56872591  0.43011532  0.51457617  1
  O2-  O226  1  0.57290012  0.76102944  0.01937506  1
  O2-  O227  1  0.57004070  0.76323508  0.51622490  1
  O2-  O228  1  0.90456781  0.09623277  0.01882062  1
  O2-  O229  1  0.90143188  0.09306998  0.52302289  1
  O2-  O230  1  0.90466451  0.43104280  0.02436957  1
  O2-  O231  1  0.90214824  0.42992030  0.51510494  1
  O2-  O232  1  0.90316604  0.76512059  0.02019825  1
  O2-  O233  1  0.90517211  0.76002011  0.52153186  1
  O2-  O234  1  0.26022806  0.25922465  0.22755488  1
  O2-  O235  1  0.26248427  0.25877625  0.72884790  1
  O2-  O236  1  0.26235125  0.59754584  0.22761374  1
  O2-  O237  1  0.26353306  0.59328761  0.73282209  1
  O2-  O238  1  0.26131881  0.93142213  0.22715386  1
  O2-  O239  1  0.26187940  0.92650117  0.72835776  1
  O2-  O240  1  0.59462169  0.26084482  0.22911631  1
  O2-  O241  1  0.59686692  0.26451029  0.73135835  1
  O2-  O242  1  0.59896486  0.59462881  0.22563302  1
  O2-  O243  1  0.59575004  0.59457795  0.72621684  1
  O2-  O244  1  0.58991014  0.92535186  0.23287404  1
  O2-  O245  1  0.59362847  0.92545999  0.72790079  1
  O2-  O246  1  0.93026432  0.26040437  0.23001708  1
  O2-  O247  1  0.92661666  0.25951639  0.73101128  1
  O2-  O248  1  0.93113065  0.60055617  0.23037676  1
  O2-  O249  1  0.92469779  0.59514921  0.73152423  1
  O2-  O250  1  0.93146126  0.92808610  0.23612581  1
  O2-  O251  1  0.92698469  0.92410208  0.72573553  1
  O2-  O252  1  0.09387179  0.23533965  0.27209965  1
  O2-  O253  1  0.09421581  0.23524289  0.76980067  1
  O2-  O254  1  0.09837925  0.57137064  0.27034515  1
  O2-  O255  1  0.08769234  0.57658940  0.76803018  1
  O2-  O256  1  0.09847757  0.90201136  0.26948423  1
  O2-  O257  1  0.09645087  0.90293695  0.76752388  1
  O2-  O258  1  0.42977840  0.23615796  0.26747147  1
  O2-  O259  1  0.42430941  0.24356371  0.76864342  1
  O2-  O260  1  0.43104827  0.57102719  0.26998151  1
  O2-  O261  1  0.43320168  0.57037684  0.76401037  1
  O2-  O262  1  0.42629554  0.90613694  0.27187310  1
  O2-  O263  1  0.42786321  0.90544209  0.77137042  1
  O2-  O264  1  0.76197300  0.23906939  0.27164575  1
  O2-  O265  1  0.76333632  0.24017453  0.76958242  1
  O2-  O266  1  0.76348781  0.57429571  0.27220621  1
  O2-  O267  1  0.76268378  0.56959420  0.76765652  1
  O2-  O268  1  0.75866527  0.90827506  0.27204087  1
  O2-  O269  1  0.76246313  0.90509803  0.76890362  1
  O2-  O270  1  0.07074169  0.06769793  0.47943373  1
  O2-  O271  1  0.06768338  0.06820593  0.97863305  1
  O2-  O272  1  0.07574700  0.40598730  0.47811255  1
  O2-  O273  1  0.06872752  0.40158494  0.98478551  1
  O2-  O274  1  0.07126011  0.73535782  0.48236676  1
  O2-  O275  1  0.06988608  0.74224992  0.98015149  1
  O2-  O276  1  0.40284476  0.07040331  0.47987727  1
  O2-  O277  1  0.40286857  0.07223980  0.98035333  1
  O2-  O278  1  0.40643449  0.40253741  0.47727398  1
  O2-  O279  1  0.40609268  0.40511138  0.98118899  1
  O2-  O280  1  0.40453795  0.73912089  0.47542053  1
  O2-  O281  1  0.40966379  0.74557379  0.98364779  1
  O2-  O282  1  0.73536469  0.07247736  0.47975608  1
  O2-  O283  1  0.74059078  0.07255020  0.97766921  1
  O2-  O284  1  0.73931388  0.40747781  0.47411343  1
  O2-  O285  1  0.73873360  0.40511548  0.97963330  1
  O2-  O286  1  0.74147514  0.74026151  0.47586467  1
  O2-  O287  1  0.74273542  0.74279406  0.98186434  1
  O2-  O288  1  0.09539921  0.23919882  0.48101705  1
  O2-  O289  1  0.09339467  0.23390104  0.97745091  1
  O2-  O290  1  0.09547705  0.57401678  0.47662827  1
  O2-  O291  1  0.09314261  0.57189908  0.98363861  1
  O2-  O292  1  0.09880040  0.90098021  0.48127449  1
  O2-  O293  1  0.09703348  0.90377836  0.98239671  1
  O2-  O294  1  0.43122368  0.23859135  0.48199056  1
  O2-  O295  1  0.42210100  0.24064709  0.98167637  1
  O2-  O296  1  0.43033167  0.57122256  0.47776797  1
  O2-  O297  1  0.43284800  0.56911176  0.98724318  1
  O2-  O298  1  0.42568086  0.90347227  0.47712746  1
  O2-  O299  1  0.42648408  0.90757026  0.97904553  1
  O2-  O300  1  0.76059570  0.23799187  0.47789949  1
  O2-  O301  1  0.76342627  0.24097741  0.97983912  1
  O2-  O302  1  0.76320725  0.57271408  0.47640174  1
  O2-  O303  1  0.76479761  0.57174915  0.98303175  1
  O2-  O304  1  0.76134910  0.90616015  0.47847471  1
  O2-  O305  1  0.76085828  0.90775520  0.98137578  1
  O2-  O306  1  0.06981108  0.06862716  0.27448692  1
  O2-  O307  1  0.06563624  0.06821827  0.76825060  1
  O2-  O308  1  0.07291301  0.40299926  0.27123883  1
  O2-  O309  1  0.07089644  0.40632135  0.76704489  1
  O2-  O310  1  0.06979905  0.73842288  0.26805831  1
  O2-  O311  1  0.07147919  0.74065968  0.77012654  1
  O2-  O312  1  0.40373354  0.07299429  0.27184043  1
  O2-  O313  1  0.40016239  0.06921887  0.76822229  1
  O2-  O314  1  0.40528148  0.40150947  0.27235328  1
  O2-  O315  1  0.40880646  0.40616301  0.76980993  1
  O2-  O316  1  0.40587838  0.74183111  0.27317552  1
  O2-  O317  1  0.40897735  0.74184746  0.76650790  1
  O2-  O318  1  0.74041365  0.07397495  0.27315047  1
  O2-  O319  1  0.73413904  0.07177197  0.77064671  1
  O2-  O320  1  0.73683196  0.40571221  0.27160308  1
  O2-  O321  1  0.73930004  0.40748953  0.77362521  1
  O2-  O322  1  0.74069419  0.73998317  0.27233268  1
  O2-  O323  1  0.74413050  0.74391766  0.76885881  1
  O2-  O324  1  0.23254341  0.09613465  0.23430877  1
  O2-  O325  1  0.23650585  0.09227056  0.72704925  1
  O2-  O326  1  0.23792141  0.42871583  0.22815705  1
  O2-  O327  1  0.24790062  0.42394195  0.73232608  1
  O2-  O328  1  0.23668124  0.76190596  0.22859198  1
  O2-  O329  1  0.24098063  0.76099643  0.73140682  1
  O2-  O330  1  0.56771401  0.09502933  0.23196919  1
  O2-  O331  1  0.56882994  0.09462430  0.72492554  1
  O2-  O332  1  0.57085036  0.42667498  0.22962951  1
  O2-  O333  1  0.57245120  0.43089885  0.73233761  1
  O2-  O334  1  0.57085309  0.76234552  0.23068440  1
  O2-  O335  1  0.57230158  0.76190176  0.73381191  1
  O2-  O336  1  0.90570670  0.09653278  0.23118743  1
  O2-  O337  1  0.90108120  0.09425289  0.72809507  1
  O2-  O338  1  0.90438456  0.42941261  0.22894472  1
  O2-  O339  1  0.90237455  0.43024828  0.73257390  1
  O2-  O340  1  0.90234066  0.76628769  0.23057371  1
  O2-  O341  1  0.90833302  0.75957048  0.72758514  1
  O2-  O342  1  0.25976354  0.26096255  0.02020882  1
  O2-  O343  1  0.26181826  0.25832238  0.52270032  1
  O2-  O344  1  0.26270387  0.59357343  0.02418847  1
  O2-  O345  1  0.26429452  0.59731424  0.51455878  1
  O2-  O346  1  0.26045065  0.92929278  0.02194679  1
  O2-  O347  1  0.26213338  0.92822115  0.52157422  1
  O2-  O348  1  0.59311418  0.25991797  0.02008791  1
  O2-  O349  1  0.59868082  0.26608688  0.51943215  1
  O2-  O350  1  0.59622420  0.59388516  0.02640405  1
  O2-  O351  1  0.59865480  0.59512614  0.52131324  1
  O2-  O352  1  0.58897428  0.92179933  0.01960185  1
  O2-  O353  1  0.59410390  0.92927667  0.51870589  1
  O2-  O354  1  0.92979584  0.26147965  0.02179665  1
  O2-  O355  1  0.92298895  0.26024760  0.51764299  1
  O2-  O356  1  0.93125598  0.59995124  0.02007370  1
  O2-  O357  1  0.92610224  0.59712505  0.51828591  1
  O2-  O358  1  0.92931146  0.92853320  0.01598721  1
  O2-  O359  1  0.92738631  0.92420275  0.52338967  1
