# generated using pymatgen
data_Sr7Ca15Pr50Mn72O216
_symmetry_space_group_name_H-M   'P 1'
_cell_length_a   16.56031875
_cell_length_b   16.60524819
_cell_length_c   15.59043116
_cell_angle_alpha   90.00446039
_cell_angle_beta   89.99092686
_cell_angle_gamma   90.00030670
_symmetry_Int_Tables_number   1
_chemical_formula_structural   Sr7Ca15Pr50Mn72O216
_chemical_formula_sum   'Sr7 Ca15 Pr50 Mn72 O216'
_cell_volume   4287.18458142
_cell_formula_units_Z   1
loop_
 _symmetry_equiv_pos_site_id
 _symmetry_equiv_pos_as_xyz
  1  'x, y, z'
loop_
 _atom_type_symbol
 _atom_type_oxidation_number
  Sr2+  2.0
  Ca2+  2.0
  Pr3+  3.0
  Mn3.30+  3.3
  O2-  -2.0
loop_
 _atom_site_type_symbol
 _atom_site_label
 _atom_site_symmetry_multiplicity
 _atom_site_fract_x
 _atom_site_fract_y
 _atom_site_fract_z
 _atom_site_occupancy
  Sr2+  Sr0  1  0.16485614  0.81974661  0.87439070  1
  Sr2+  Sr1  1  0.33308516  0.32325537  0.37605609  1
  Sr2+  Sr2  1  0.66406597  0.65850063  0.87346845  1
  Sr2+  Sr3  1  0.66928422  0.67522284  0.62764906  1
  Sr2+  Sr4  1  0.66658223  0.00961740  0.62228721  1
  Sr2+  Sr5  1  0.49907026  0.17772843  0.12529378  1
  Sr2+  Sr6  1  0.83531603  0.17333800  0.62516741  1
  Ca2+  Ca7  1  0.33583258  0.32084287  0.87466137  1
  Ca2+  Ca8  1  0.16685382  0.49032437  0.87639030  1
  Ca2+  Ca9  1  0.17379539  0.51928881  0.12260367  1
  Ca2+  Ca10  1  0.83510506  0.51367103  0.62767125  1
  Ca2+  Ca11  1  0.83584827  0.84863225  0.62457064  1
  Ca2+  Ca12  1  0.33634834  0.65432616  0.87690274  1
  Ca2+  Ca13  1  0.49362130  0.81467606  0.87350735  1
  Ca2+  Ca14  1  -0.00610954  0.01336515  0.62544562  1
  Ca2+  Ca15  1  0.50601933  0.18067113  0.62445553  1
  Ca2+  Ca16  1  0.32659547  0.68145135  0.12189305  1
  Ca2+  Ca17  1  0.16378392  0.15170873  0.37597453  1
  Ca2+  Ca18  1  1.00764353  0.64936135  0.87493536  1
  Ca2+  Ca19  1  0.82933667  0.82093536  0.37989118  1
  Ca2+  Ca20  1  0.67367803  0.98175433  0.37825254  1
  Ca2+  Ca21  1  0.16163115  0.81813431  0.37504317  1
  Pr3+  Pr22  1  0.16292761  0.48763997  0.37365047  1
  Pr3+  Pr23  1  0.83010847  0.15397848  0.87292434  1
  Pr3+  Pr24  1  0.32751844  0.34839029  0.12418174  1
  Pr3+  Pr25  1  0.50697206  0.84339367  0.62777660  1
  Pr3+  Pr26  1  0.50025810  0.84369269  0.12357613  1
  Pr3+  Pr27  1  0.16743541  0.51284905  0.62586239  1
  Pr3+  Pr28  1  0.66088854  0.34666486  0.12501519  1
  Pr3+  Pr29  1  0.16681202  0.17707023  0.62363728  1
  Pr3+  Pr30  1  1.00374175  0.32407391  0.87407866  1
  Pr3+  Pr31  1  0.83213427  0.82009037  0.87267167  1
  Pr3+  Pr32  1  0.00095802  0.67957074  0.12197902  1
  Pr3+  Pr33  1  0.83528148  0.84494564  0.12446038  1
  Pr3+  Pr34  1  0.17160392  0.84417824  0.12562558  1
  Pr3+  Pr35  1  0.16754800  0.15593167  0.87431392  1
  Pr3+  Pr36  1  0.49675005  0.48809863  0.37617903  1
  Pr3+  Pr37  1  0.17228775  0.17904080  0.12614000  1
  Pr3+  Pr38  1  0.49881916  0.51351190  0.12504567  1
  Pr3+  Pr39  1  0.66373664  0.67999681  0.12293786  1
  Pr3+  Pr40  1  1.00163661  0.65684351  0.37454048  1
  Pr3+  Pr41  1  0.33888130  0.98410725  0.87469855  1
  Pr3+  Pr42  1  0.82878257  0.14907766  0.37695108  1
  Pr3+  Pr43  1  0.49741600  0.15364775  0.37631487  1
  Pr3+  Pr44  1  -0.00733235  0.67974586  0.62813701  1
  Pr3+  Pr45  1  0.50129361  0.82448366  0.37725765  1
  Pr3+  Pr46  1  -0.00080992  0.01042360  0.12390645  1
  Pr3+  Pr47  1  0.50264126  0.51259292  0.62458541  1
  Pr3+  Pr48  1  0.83608315  0.51433133  0.12348421  1
  Pr3+  Pr49  1  0.66557776  0.34191852  0.62512749  1
  Pr3+  Pr50  1  0.33342057  0.65685664  0.37419377  1
  Pr3+  Pr51  1  0.66840252  0.98737895  0.87281482  1
  Pr3+  Pr52  1  -0.00701614  0.34930400  0.62512157  1
  Pr3+  Pr53  1  0.83149458  0.49061296  0.87313608  1
  Pr3+  Pr54  1  0.83089624  0.48807083  0.37657369  1
  Pr3+  Pr55  1  1.00578920  0.31636781  0.37545759  1
  Pr3+  Pr56  1  1.00357596  0.98760600  0.87105498  1
  Pr3+  Pr57  1  0.33111557  0.01286633  0.12542649  1
  Pr3+  Pr58  1  0.33005059  0.67947659  0.62674631  1
  Pr3+  Pr59  1  0.83655154  0.17956784  0.12544005  1
  Pr3+  Pr60  1  0.49626361  0.15482176  0.87328551  1
  Pr3+  Pr61  1  0.49391822  0.48952298  0.87357194  1
  Pr3+  Pr62  1  0.16769156  0.84686481  0.62455219  1
  Pr3+  Pr63  1  0.66812863  0.32173517  0.87539004  1
  Pr3+  Pr64  1  1.00456112  0.98412989  0.37864614  1
  Pr3+  Pr65  1  0.33452175  0.01280260  0.62490438  1
  Pr3+  Pr66  1  0.67144569  0.65666776  0.37624530  1
  Pr3+  Pr67  1  0.33170343  0.34464700  0.62583929  1
  Pr3+  Pr68  1  0.66247400  0.01210301  0.12725324  1
  Pr3+  Pr69  1  0.33198753  0.99010847  0.37562209  1
  Pr3+  Pr70  1  0.66824373  0.31971302  0.37487912  1
  Pr3+  Pr71  1  0.00119731  0.34862554  0.12442531  1
  Mn3.30+  Mn72  1  0.16741547  -0.00065309  -0.00147529  1
  Mn3.30+  Mn73  1  0.16490305  0.00003926  0.50132253  1
  Mn3.30+  Mn74  1  0.16876160  0.33686427  -0.00248384  1
  Mn3.30+  Mn75  1  0.16510287  0.33142936  0.50040080  1
  Mn3.30+  Mn76  1  0.16868352  0.66519400  -0.00293913  1
  Mn3.30+  Mn77  1  0.16449322  0.66808476  0.50057059  1
  Mn3.30+  Mn78  1  0.50039507  -0.00163120  -0.00032400  1
  Mn3.30+  Mn79  1  0.50306378  0.00019718  0.49913530  1
  Mn3.30+  Mn80  1  0.49646770  0.33416815  -0.00036347  1
  Mn3.30+  Mn81  1  0.49946906  0.33208969  0.50051295  1
  Mn3.30+  Mn82  1  0.49523345  0.66680668  0.00012250  1
  Mn3.30+  Mn83  1  0.50128214  0.66770249  0.49988220  1
  Mn3.30+  Mn84  1  0.83295986  -0.00016910  -0.00033377  1
  Mn3.30+  Mn85  1  0.83503522  -0.00320918  0.50117279  1
  Mn3.30+  Mn86  1  0.83369399  0.33444128  0.00073107  1
  Mn3.30+  Mn87  1  0.83408449  0.33281395  0.50009685  1
  Mn3.30+  Mn88  1  0.83509547  0.66702391  -0.00301872  1
  Mn3.30+  Mn89  1  0.83418121  0.66876098  0.50206115  1
  Mn3.30+  Mn90  1  0.00133872  0.16472927  0.24987071  1
  Mn3.30+  Mn91  1  -0.00027476  0.16672675  0.75002874  1
  Mn3.30+  Mn92  1  0.00161790  0.50141724  0.24758631  1
  Mn3.30+  Mn93  1  0.00081583  0.50157843  0.75216246  1
  Mn3.30+  Mn94  1  0.00021517  0.83289652  0.25143651  1
  Mn3.30+  Mn95  1  -0.00018463  0.83278063  0.74930050  1
  Mn3.30+  Mn96  1  0.33223947  0.16756071  0.25331431  1
  Mn3.30+  Mn97  1  0.33518042  0.16793550  0.74767347  1
  Mn3.30+  Mn98  1  0.33095527  0.50236051  0.24897684  1
  Mn3.30+  Mn99  1  0.33069611  0.50039107  0.75189800  1
  Mn3.30+  Mn100  1  0.33208399  0.83308979  0.25252138  1
  Mn3.30+  Mn101  1  0.33444477  0.83140418  0.75056634  1
  Mn3.30+  Mn102  1  0.66620832  0.16486285  0.25099651  1
  Mn3.30+  Mn103  1  0.66470977  0.16610464  0.74778704  1
  Mn3.30+  Mn104  1  0.66638472  0.50121101  0.24989594  1
  Mn3.30+  Mn105  1  0.66663097  0.50057983  0.74988953  1
  Mn3.30+  Mn106  1  0.66882027  0.83340474  0.25096366  1
  Mn3.30+  Mn107  1  0.66727543  0.83232009  0.75029250  1
  Mn3.30+  Mn108  1  0.16548814  -0.00068404  0.25250647  1
  Mn3.30+  Mn109  1  0.16673919  -0.00006453  0.74786299  1
  Mn3.30+  Mn110  1  0.16631418  0.33325820  0.25055901  1
  Mn3.30+  Mn111  1  0.16706182  0.33498720  0.75064462  1
  Mn3.30+  Mn112  1  0.16796280  0.66732152  0.24928391  1
  Mn3.30+  Mn113  1  0.16503036  0.66575697  0.75302366  1
  Mn3.30+  Mn114  1  0.50168196  -0.00050778  0.25249300  1
  Mn3.30+  Mn115  1  0.50177791  -0.00078915  0.74908245  1
  Mn3.30+  Mn116  1  0.49751814  0.33343265  0.24953667  1
  Mn3.30+  Mn117  1  0.49821439  0.33278365  0.75013825  1
  Mn3.30+  Mn118  1  0.49836259  0.66831904  0.24959187  1
  Mn3.30+  Mn119  1  0.49789892  0.66633618  0.75149811  1
  Mn3.30+  Mn120  1  0.83279189  -0.00296520  0.25169420  1
  Mn3.30+  Mn121  1  0.83543046  -0.00119147  0.74782586  1
  Mn3.30+  Mn122  1  0.83437479  0.33334195  0.25004622  1
  Mn3.30+  Mn123  1  0.83358353  0.33399794  0.74930615  1
  Mn3.30+  Mn124  1  0.83415517  0.66889002  0.24947454  1
  Mn3.30+  Mn125  1  0.83474230  0.66674448  0.75102116  1
  Mn3.30+  Mn126  1  0.00137990  0.16752962  -0.00006260  1
  Mn3.30+  Mn127  1  -0.00025708  0.16433914  0.50003142  1
  Mn3.30+  Mn128  1  0.00492953  0.50176029  0.00000295  1
  Mn3.30+  Mn129  1  -0.00252490  0.50138813  0.49971419  1
  Mn3.30+  Mn130  1  0.00214477  0.83202368  -0.00189468  1
  Mn3.30+  Mn131  1  -0.00182115  0.83312689  0.50054914  1
  Mn3.30+  Mn132  1  0.33397405  0.16842220  -0.00110558  1
  Mn3.30+  Mn133  1  0.33420025  0.16727984  0.50063704  1
  Mn3.30+  Mn134  1  0.32965135  0.50215436  -0.00192942  1
  Mn3.30+  Mn135  1  0.33239576  0.50045015  0.50038004  1
  Mn3.30+  Mn136  1  0.33410690  0.83004722  -0.00101761  1
  Mn3.30+  Mn137  1  0.33215140  0.83446164  0.49901771  1
  Mn3.30+  Mn138  1  0.66553821  0.16678745  0.00049700  1
  Mn3.30+  Mn139  1  0.66562170  0.16427539  0.50071313  1
  Mn3.30+  Mn140  1  0.66511950  0.50159567  -0.00150378  1
  Mn3.30+  Mn141  1  0.66803407  0.49994705  0.50188053  1
  Mn3.30+  Mn142  1  0.66509990  0.83292656  -0.00291931  1
  Mn3.30+  Mn143  1  0.67041468  0.83291882  0.50235231  1
  O2-  O144  1  0.02770337  0.15892100  0.12478935  1
  O2-  O145  1  0.02312483  0.16105429  0.62734461  1
  O2-  O146  1  0.03000239  0.49587897  0.12387165  1
  O2-  O147  1  0.02331744  0.49750984  0.62498523  1
  O2-  O148  1  0.02693232  0.83029445  0.12330914  1
  O2-  O149  1  0.02622867  0.82468690  0.62514637  1
  O2-  O150  1  0.34970689  0.16111813  0.12746132  1
  O2-  O151  1  0.36370061  0.16110050  0.62516450  1
  O2-  O152  1  0.35684923  0.49371867  0.12476415  1
  O2-  O153  1  0.35777338  0.49437086  0.62471921  1
  O2-  O154  1  0.35671140  0.82919468  0.12661647  1
  O2-  O155  1  0.36161559  0.82825726  0.62345375  1
  O2-  O156  1  0.69293050  0.16045848  0.12693171  1
  O2-  O157  1  0.68568196  0.17040527  0.62447548  1
  O2-  O158  1  0.69143483  0.49514115  0.12515769  1
  O2-  O159  1  0.69265558  0.49074017  0.62606058  1
  O2-  O160  1  0.69090802  0.82853441  0.12302923  1
  O2-  O161  1  0.69090814  0.83076222  0.62665967  1
  O2-  O162  1  0.14320532  0.32422517  0.12589717  1
  O2-  O163  1  0.13778242  0.32644795  0.62466403  1
  O2-  O164  1  0.14337489  0.66326819  0.12422058  1
  O2-  O165  1  0.13826150  0.66031731  0.62551349  1
  O2-  O166  1  0.14345112  0.99374391  0.12586828  1
  O2-  O167  1  0.13839937  0.99575103  0.62480511  1
  O2-  O168  1  0.47257547  0.33301050  0.12368865  1
  O2-  O169  1  0.47577449  0.32708195  0.62539327  1
  O2-  O170  1  0.47037870  0.66291307  0.12765902  1
  O2-  O171  1  0.47470717  0.66246374  0.62433913  1
  O2-  O172  1  0.47497805  0.99183504  0.12529186  1
  O2-  O173  1  0.47689394  0.99003462  0.62267504  1
  O2-  O174  1  0.80581885  0.32750078  0.12525524  1
  O2-  O175  1  0.81008715  0.32841570  0.62367782  1
  O2-  O176  1  0.80858842  0.66198458  0.12246010  1
  O2-  O177  1  0.81804703  0.65642265  0.62651419  1
  O2-  O178  1  0.80658497  0.99348441  0.12412163  1
  O2-  O179  1  0.81543930  0.99578288  0.62538405  1
  O2-  O180  1  0.30648546  0.16631661  0.37694023  1
  O2-  O181  1  0.31079047  0.17090271  0.87116596  1
  O2-  O182  1  0.30689300  0.50759375  0.37539157  1
  O2-  O183  1  0.30729647  0.51008973  0.87405971  1
  O2-  O184  1  0.30299583  0.84137032  0.37707250  1
  O2-  O185  1  0.31295286  0.84044061  0.87361664  1
  O2-  O186  1  0.64156380  0.17318450  0.37437984  1
  O2-  O187  1  0.64135662  0.17148358  0.87458749  1
  O2-  O188  1  0.64168675  0.50697145  0.37407105  1
  O2-  O189  1  0.63994925  0.50022808  0.87451422  1
  O2-  O190  1  0.64548515  0.83326892  0.37471605  1
  O2-  O191  1  0.63891102  0.83994118  0.87599858  1
  O2-  O192  1  0.97306135  0.17091482  0.37163840  1
  O2-  O193  1  0.97426757  0.17588888  0.87635508  1
  O2-  O194  1  0.97449788  0.50713008  0.37322098  1
  O2-  O195  1  0.97542988  0.50038467  0.87759974  1
  O2-  O196  1  0.97168129  0.83614379  0.37663579  1
  O2-  O197  1  0.97568785  0.84169210  0.87441118  1
  O2-  O198  1  0.18909086  0.00756673  0.37777503  1
  O2-  O199  1  0.19412933  0.00674579  0.87199765  1
  O2-  O200  1  0.18363486  0.34145214  0.37547861  1
  O2-  O201  1  0.19294506  0.34217178  0.87278883  1
  O2-  O202  1  0.18957571  0.67215599  0.37610297  1
  O2-  O203  1  0.19532222  0.66935796  0.87349811  1
  O2-  O204  1  0.52948377  0.00520315  0.37643166  1
  O2-  O205  1  0.52433095  0.00835489  0.87576685  1
  O2-  O206  1  0.52421235  0.34061182  0.37508029  1
  O2-  O207  1  0.52426573  0.34102051  0.87550517  1
  O2-  O208  1  0.52722477  0.67355241  0.37376134  1
  O2-  O209  1  0.51541457  0.66644203  0.87536676  1
  O2-  O210  1  0.86077387  0.00318285  0.37491529  1
  O2-  O211  1  0.85884360  0.00585830  0.87618156  1
  O2-  O212  1  0.86112883  0.34053708  0.37408111  1
  O2-  O213  1  0.85885004  0.34048530  0.87684123  1
  O2-  O214  1  0.85736557  0.67451120  0.37361622  1
  O2-  O215  1  0.86330740  0.67239429  0.87602250  1
  O2-  O216  1  0.23797566  0.09412619  0.01797058  1
  O2-  O217  1  0.24280448  0.09292135  0.52497827  1
  O2-  O218  1  0.23760962  0.42972333  0.02386307  1
  O2-  O219  1  0.23695398  0.42616934  0.52012890  1
  O2-  O220  1  0.23661902  0.76232097  0.02004830  1
  O2-  O221  1  0.24009422  0.76020841  0.52367480  1
  O2-  O222  1  0.57473851  0.09182429  0.01901877  1
  O2-  O223  1  0.56853062  0.09863749  0.51769980  1
  O2-  O224  1  0.56854008  0.42708702  0.02133891  1
  O2-  O225  1  0.57236801  0.42562714  0.52033931  1
  O2-  O226  1  0.57092578  0.75833747  0.02162175  1
  O2-  O227  1  0.57077518  0.76139225  0.51688217  1
  O2-  O228  1  0.90449340  0.09346058  0.02093001  1
  O2-  O229  1  0.90567749  0.09480815  0.51253421  1
  O2-  O230  1  0.90668471  0.42789594  0.02302532  1
  O2-  O231  1  0.90348850  0.43279328  0.52041079  1
  O2-  O232  1  0.90597526  0.76142795  0.02071259  1
  O2-  O233  1  0.90430487  0.76299307  0.52429147  1
  O2-  O234  1  0.26039425  0.26202579  0.22971110  1
  O2-  O235  1  0.25850120  0.25956245  0.72614045  1
  O2-  O236  1  0.26516131  0.59955809  0.23273419  1
  O2-  O237  1  0.25877301  0.59279796  0.72408486  1
  O2-  O238  1  0.26209827  0.92868845  0.22998885  1
  O2-  O239  1  0.26372939  0.92675077  0.72766888  1
  O2-  O240  1  0.59642018  0.26453540  0.23290506  1
  O2-  O241  1  0.59625878  0.26415756  0.73507166  1
  O2-  O242  1  0.59386030  0.59554775  0.22791545  1
  O2-  O243  1  0.58945464  0.58872360  0.73065840  1
  O2-  O244  1  0.59527137  0.92361712  0.22934004  1
  O2-  O245  1  0.59452692  0.92788290  0.73278820  1
  O2-  O246  1  0.93063721  0.26085311  0.22721714  1
  O2-  O247  1  0.93094953  0.26433120  0.73384038  1
  O2-  O248  1  0.92875570  0.59464679  0.22754514  1
  O2-  O249  1  0.93103081  0.59524312  0.73656316  1
  O2-  O250  1  0.92932544  0.92818793  0.22762823  1
  O2-  O251  1  0.93130855  0.93041550  0.73325545  1
  O2-  O252  1  0.09465290  0.23403877  0.27077578  1
  O2-  O253  1  0.09622368  0.24018348  0.77206953  1
  O2-  O254  1  0.09553713  0.57449619  0.27183243  1
  O2-  O255  1  0.09856170  0.56688975  0.76936729  1
  O2-  O256  1  0.09511884  0.90341123  0.27270813  1
  O2-  O257  1  0.09333852  0.90621119  0.76686013  1
  O2-  O258  1  0.42781003  0.23845340  0.27038728  1
  O2-  O259  1  0.42843593  0.23969395  0.77033615  1
  O2-  O260  1  0.42844042  0.57374577  0.27317433  1
  O2-  O261  1  0.42703381  0.56909863  0.76416558  1
  O2-  O262  1  0.42824550  0.90768216  0.27263592  1
  O2-  O263  1  0.43032280  0.90385577  0.76989100  1
  O2-  O264  1  0.76330772  0.23715793  0.27038310  1
  O2-  O265  1  0.75938063  0.24100680  0.77311778  1
  O2-  O266  1  0.76290934  0.57252760  0.26950510  1
  O2-  O267  1  0.76209282  0.57250712  0.76953865  1
  O2-  O268  1  0.76517034  0.89892466  0.26771587  1
  O2-  O269  1  0.76090965  0.90847510  0.77381469  1
  O2-  O270  1  0.07167255  0.07210169  0.48076867  1
  O2-  O271  1  0.07207128  0.07367453  0.97777423  1
  O2-  O272  1  0.06724079  0.40595262  0.48120017  1
  O2-  O273  1  0.07020319  0.40219071  0.98313034  1
  O2-  O274  1  0.06811213  0.73726808  0.48153832  1
  O2-  O275  1  0.07070513  0.73323625  0.98236173  1
  O2-  O276  1  0.40533057  0.07200120  0.47863429  1
  O2-  O277  1  0.40640453  0.07014344  0.98134301  1
  O2-  O278  1  0.40858034  0.40914136  0.48327373  1
  O2-  O279  1  0.40090811  0.40578714  0.97753697  1
  O2-  O280  1  0.40437243  0.74241765  0.47756921  1
  O2-  O281  1  0.40259737  0.73668043  0.98127665  1
  O2-  O282  1  0.73991567  0.07051758  0.47869024  1
  O2-  O283  1  0.73992558  0.07206256  0.97934693  1
  O2-  O284  1  0.73877812  0.40532327  0.47720662  1
  O2-  O285  1  0.73934561  0.40637877  0.98054922  1
  O2-  O286  1  0.73888536  0.73713450  0.48194364  1
  O2-  O287  1  0.74116298  0.74248491  0.98111702  1
  O2-  O288  1  0.09528080  0.23525968  0.47961928  1
  O2-  O289  1  0.09779699  0.24095842  0.97861965  1
  O2-  O290  1  0.09394892  0.57004684  0.47904920  1
  O2-  O291  1  0.09845635  0.57070464  0.97845204  1
  O2-  O292  1  0.09496111  0.90080173  0.47906352  1
  O2-  O293  1  0.09254526  0.90948851  0.98129003  1
  O2-  O294  1  0.42925091  0.23856858  0.48014735  1
  O2-  O295  1  0.42904552  0.23982659  0.97959403  1
  O2-  O296  1  0.42728371  0.57564508  0.47884748  1
  O2-  O297  1  0.42913854  0.56716200  0.98439408  1
  O2-  O298  1  0.42499733  0.90849383  0.47617318  1
  O2-  O299  1  0.43022579  0.90289526  0.98015086  1
  O2-  O300  1  0.75939805  0.23872756  0.47611425  1
  O2-  O301  1  0.76213301  0.23868545  0.98014531  1
  O2-  O302  1  0.76196899  0.57453153  0.47787057  1
  O2-  O303  1  0.76502762  0.57251015  0.98168860  1
  O2-  O304  1  0.76396296  0.90393492  0.48146959  1
  O2-  O305  1  0.76151747  0.90724917  0.97765288  1
  O2-  O306  1  0.06767936  0.06777160  0.26721044  1
  O2-  O307  1  0.07524686  0.07709981  0.77409836  1
  O2-  O308  1  0.06942574  0.40406749  0.26902388  1
  O2-  O309  1  0.06877064  0.40346962  0.76490773  1
  O2-  O310  1  0.07012290  0.73718537  0.26630356  1
  O2-  O311  1  0.06856579  0.73335904  0.76830487  1
  O2-  O312  1  0.40528438  0.07268390  0.27116317  1
  O2-  O313  1  0.40536246  0.06921399  0.76935264  1
  O2-  O314  1  0.40578681  0.41052397  0.26812822  1
  O2-  O315  1  0.40275169  0.40528564  0.77021270  1
  O2-  O316  1  0.40743714  0.74371754  0.27731536  1
  O2-  O317  1  0.40033650  0.73511957  0.76625580  1
  O2-  O318  1  0.73941130  0.06714896  0.27230908  1
  O2-  O319  1  0.74001936  0.07443714  0.77077152  1
  O2-  O320  1  0.73870903  0.40608085  0.27095527  1
  O2-  O321  1  0.73828015  0.40594378  0.77158986  1
  O2-  O322  1  0.73442020  0.73540284  0.26362340  1
  O2-  O323  1  0.74365743  0.74188770  0.77165115  1
  O2-  O324  1  0.23855905  0.09233266  0.23110521  1
  O2-  O325  1  0.24083717  0.09459942  0.72692416  1
  O2-  O326  1  0.23728255  0.43193720  0.23019323  1
  O2-  O327  1  0.23907083  0.42587929  0.72420232  1
  O2-  O328  1  0.23682639  0.76143936  0.23209771  1
  O2-  O329  1  0.23761296  0.76002934  0.72499706  1
  O2-  O330  1  0.57334268  0.09160198  0.23049221  1
  O2-  O331  1  0.56829227  0.09808222  0.73313297  1
  O2-  O332  1  0.57158587  0.42881310  0.22988172  1
  O2-  O333  1  0.57041782  0.42554835  0.72826022  1
  O2-  O334  1  0.57147893  0.76127734  0.22838716  1
  O2-  O335  1  0.57012193  0.75964265  0.73467059  1
  O2-  O336  1  0.90488794  0.09472409  0.22800463  1
  O2-  O337  1  0.90707760  0.09461190  0.73913306  1
  O2-  O338  1  0.90512741  0.42856102  0.22713342  1
  O2-  O339  1  0.90463845  0.43039308  0.73071513  1
  O2-  O340  1  0.90750259  0.76021379  0.22443004  1
  O2-  O341  1  0.90397843  0.76510380  0.72957348  1
  O2-  O342  1  0.25923861  0.26311374  0.01836786  1
  O2-  O343  1  0.26162384  0.25825155  0.52489727  1
  O2-  O344  1  0.26355226  0.59704990  0.02160569  1
  O2-  O345  1  0.25980373  0.59455701  0.52048896  1
  O2-  O346  1  0.26403222  0.92724982  0.01972649  1
  O2-  O347  1  0.26126098  0.92818610  0.52338742  1
  O2-  O348  1  0.59686266  0.26450392  0.01701456  1
  O2-  O349  1  0.59625774  0.26445145  0.51489598  1
  O2-  O350  1  0.59000894  0.59450490  0.02286237  1
  O2-  O351  1  0.59312089  0.58974109  0.51831569  1
  O2-  O352  1  0.59506989  0.92819894  0.02137980  1
  O2-  O353  1  0.59178552  0.92194800  0.51640078  1
  O2-  O354  1  0.92882569  0.26107017  0.02326094  1
  O2-  O355  1  0.93188060  0.26397586  0.51519122  1
  O2-  O356  1  0.92960862  0.59211176  0.02247410  1
  O2-  O357  1  0.93126736  0.59921453  0.51304608  1
  O2-  O358  1  0.92559805  0.92789003  0.02013718  1
  O2-  O359  1  0.93383148  0.93038388  0.51936112  1
