# generated using pymatgen
data_Sr7Ca15Pr50Mn72O216
_symmetry_space_group_name_H-M   'P 1'
_cell_length_a   16.55842863
_cell_length_b   16.60388817
_cell_length_c   15.59398710
_cell_angle_alpha   89.99226503
_cell_angle_beta   90.00400185
_cell_angle_gamma   90.00261059
_symmetry_Int_Tables_number   1
_chemical_formula_structural   Sr7Ca15Pr50Mn72O216
_chemical_formula_sum   'Sr7 Ca15 Pr50 Mn72 O216'
_cell_volume   4287.32183029
_cell_formula_units_Z   1
loop_
 _symmetry_equiv_pos_site_id
 _symmetry_equiv_pos_as_xyz
  1  'x, y, z'
loop_
 _atom_type_symbol
 _atom_type_oxidation_number
  Sr2+  2.0
  Ca2+  2.0
  Pr3+  3.0
  Mn3.30+  3.3
  O2-  -2.0
loop_
 _atom_site_type_symbol
 _atom_site_label
 _atom_site_symmetry_multiplicity
 _atom_site_fract_x
 _atom_site_fract_y
 _atom_site_fract_z
 _atom_site_occupancy
  Sr2+  Sr0  1  0.66591252  0.34024170  0.12487579  1
  Sr2+  Sr1  1  0.66526381  0.00879528  0.62150736  1
  Sr2+  Sr2  1  0.17085169  0.50786673  0.12358943  1
  Sr2+  Sr3  1  0.49749143  0.15778326  0.87837040  1
  Sr2+  Sr4  1  0.83387470  0.17646051  0.62488709  1
  Sr2+  Sr5  1  0.16453806  0.15952895  0.87642653  1
  Sr2+  Sr6  1  1.00045643  0.32498344  0.37611628  1
  Ca2+  Ca7  1  0.33614745  0.32176423  0.37150019  1
  Ca2+  Ca8  1  0.32966788  0.67925406  0.12515124  1
  Ca2+  Ca9  1  0.16166712  0.48118050  0.87344808  1
  Ca2+  Ca10  1  0.50590993  0.85074660  0.62332400  1
  Ca2+  Ca11  1  1.00097689  0.98570675  0.37453566  1
  Ca2+  Ca12  1  1.00418462  0.31711383  0.87340466  1
  Ca2+  Ca13  1  0.32867784  0.34623880  0.12280597  1
  Ca2+  Ca14  1  0.83038952  0.81964730  0.37543157  1
  Ca2+  Ca15  1  -0.00238274  0.34419431  0.62771801  1
  Ca2+  Ca16  1  0.67144395  0.98159268  0.37546726  1
  Ca2+  Ca17  1  0.83572506  0.18339860  0.12620230  1
  Ca2+  Ca18  1  0.50313497  0.84560324  0.12606950  1
  Ca2+  Ca19  1  0.50180515  0.18412755  0.12520767  1
  Ca2+  Ca20  1  0.50363085  0.51412679  0.62557609  1
  Ca2+  Ca21  1  0.16835228  0.51128519  0.62652454  1
  Pr3+  Pr22  1  0.33727889  0.65327321  0.37405991  1
  Pr3+  Pr23  1  0.83167679  0.48549524  0.37623351  1
  Pr3+  Pr24  1  0.49583630  0.48604313  0.37552616  1
  Pr3+  Pr25  1  0.83751704  0.50862811  0.12542205  1
  Pr3+  Pr26  1  0.33389159  0.01364275  0.12700097  1
  Pr3+  Pr27  1  0.50030140  0.82218418  0.37560716  1
  Pr3+  Pr28  1  0.17086511  0.84405805  0.12577622  1
  Pr3+  Pr29  1  1.00234722  0.65478539  0.37597983  1
  Pr3+  Pr30  1  0.33495394  0.65274822  0.87561385  1
  Pr3+  Pr31  1  0.49611869  0.48659017  0.87413960  1
  Pr3+  Pr32  1  0.67018795  0.32068457  0.37375224  1
  Pr3+  Pr33  1  0.32910695  0.34703482  0.62564256  1
  Pr3+  Pr34  1  0.33248645  0.32065616  0.87755025  1
  Pr3+  Pr35  1  0.49890351  0.50954701  0.12380470  1
  Pr3+  Pr36  1  0.83708652  0.84567395  0.12729869  1
  Pr3+  Pr37  1  0.66685013  0.98958759  0.87451068  1
  Pr3+  Pr38  1  1.00728294  0.65093213  0.87410425  1
  Pr3+  Pr39  1  0.66158619  0.34601260  0.62518250  1
  Pr3+  Pr40  1  1.00394930  0.99037329  0.87544364  1
  Pr3+  Pr41  1  0.49683678  0.82331629  0.87428703  1
  Pr3+  Pr42  1  0.83267751  0.48286791  0.87430599  1
  Pr3+  Pr43  1  0.83041773  0.15599685  0.87681444  1
  Pr3+  Pr44  1  -0.00607389  0.01402607  0.62251261  1
  Pr3+  Pr45  1  0.16629803  0.82155992  0.87512781  1
  Pr3+  Pr46  1  0.50431424  0.17787576  0.62491065  1
  Pr3+  Pr47  1  0.16891553  0.84747807  0.62386293  1
  Pr3+  Pr48  1  0.66759495  0.31803263  0.87655103  1
  Pr3+  Pr49  1  0.16940914  0.18336443  0.12470966  1
  Pr3+  Pr50  1  -0.00236528  0.34522859  0.12375709  1
  Pr3+  Pr51  1  0.33562256  0.98824017  0.37356693  1
  Pr3+  Pr52  1  0.33365362  0.67948642  0.62476093  1
  Pr3+  Pr53  1  0.16637851  0.48647562  0.37642896  1
  Pr3+  Pr54  1  0.82817309  0.15237025  0.37319599  1
  Pr3+  Pr55  1  0.83040332  0.82114191  0.87480690  1
  Pr3+  Pr56  1  -0.00091489  0.67787768  0.62499103  1
  Pr3+  Pr57  1  0.83573535  0.84685798  0.62266385  1
  Pr3+  Pr58  1  0.16406052  0.82006633  0.37453570  1
  Pr3+  Pr59  1  -0.00077591  0.67716945  0.12526506  1
  Pr3+  Pr60  1  0.67023830  0.65589306  0.37485534  1
  Pr3+  Pr61  1  0.83695691  0.50833597  0.62513928  1
  Pr3+  Pr62  1  0.33727123  0.99121246  0.87618989  1
  Pr3+  Pr63  1  0.49868768  0.15611211  0.37189553  1
  Pr3+  Pr64  1  0.16076895  0.15491464  0.37377547  1
  Pr3+  Pr65  1  0.66318470  0.67947293  0.12424754  1
  Pr3+  Pr66  1  0.66109077  0.68151707  0.62517046  1
  Pr3+  Pr67  1  -0.00547595  0.01735169  0.12803209  1
  Pr3+  Pr68  1  0.33345040  0.01384774  0.62251692  1
  Pr3+  Pr69  1  0.66152518  0.01373698  0.12848014  1
  Pr3+  Pr70  1  0.16615140  0.17988716  0.62478848  1
  Pr3+  Pr71  1  0.66882370  0.65287642  0.87508295  1
  Mn3.30+  Mn72  1  0.16689740  0.00112173  0.00152420  1
  Mn3.30+  Mn73  1  0.16407621  0.00093757  0.49806626  1
  Mn3.30+  Mn74  1  0.16491517  0.33462167  -0.00141727  1
  Mn3.30+  Mn75  1  0.16636941  0.33430644  0.50098040  1
  Mn3.30+  Mn76  1  0.16954690  0.66427956  0.00019269  1
  Mn3.30+  Mn77  1  0.16835129  0.66511064  0.50163168  1
  Mn3.30+  Mn78  1  0.50035867  0.00027094  0.00323432  1
  Mn3.30+  Mn79  1  0.50265924  0.00017893  0.49652120  1
  Mn3.30+  Mn80  1  0.49813798  0.33284841  0.00265813  1
  Mn3.30+  Mn81  1  0.49764964  0.33436614  0.49927606  1
  Mn3.30+  Mn82  1  0.49798709  0.66828091  0.00171710  1
  Mn3.30+  Mn83  1  0.50100262  0.66646316  0.50096824  1
  Mn3.30+  Mn84  1  0.83296296  0.00142347  0.00258018  1
  Mn3.30+  Mn85  1  0.83262565  -0.00115958  0.49567844  1
  Mn3.30+  Mn86  1  0.83476283  0.33165280  -0.00028091  1
  Mn3.30+  Mn87  1  0.83448097  0.33118333  0.50217748  1
  Mn3.30+  Mn88  1  0.83454921  0.66532471  -0.00092475  1
  Mn3.30+  Mn89  1  0.83317470  0.66626055  0.50088454  1
  Mn3.30+  Mn90  1  -0.00303298  0.16782440  0.25174543  1
  Mn3.30+  Mn91  1  -0.00062258  0.16850693  0.74984199  1
  Mn3.30+  Mn92  1  0.00268647  0.49975901  0.25057467  1
  Mn3.30+  Mn93  1  0.00316515  0.49635590  0.74943517  1
  Mn3.30+  Mn94  1  -0.00068412  0.83395723  0.25199259  1
  Mn3.30+  Mn95  1  0.00029003  0.83349082  0.74989906  1
  Mn3.30+  Mn96  1  0.33331971  0.17067754  0.24939873  1
  Mn3.30+  Mn97  1  0.33344482  0.16713247  0.74985949  1
  Mn3.30+  Mn98  1  0.33319667  0.49836023  0.24909706  1
  Mn3.30+  Mn99  1  0.33131326  0.50020145  0.74897766  1
  Mn3.30+  Mn100  1  0.33583994  0.83208939  0.24839610  1
  Mn3.30+  Mn101  1  0.33502724  0.83527696  0.74787249  1
  Mn3.30+  Mn102  1  0.66497090  0.16600362  0.24821541  1
  Mn3.30+  Mn103  1  0.66624914  0.16543243  0.74951668  1
  Mn3.30+  Mn104  1  0.66595526  0.49939773  0.24843074  1
  Mn3.30+  Mn105  1  0.66557256  0.49925461  0.75022088  1
  Mn3.30+  Mn106  1  0.66834180  0.83322313  0.25007908  1
  Mn3.30+  Mn107  1  0.66465825  0.83439986  0.74956883  1
  Mn3.30+  Mn108  1  0.16431601  0.00028867  0.25028359  1
  Mn3.30+  Mn109  1  0.16689344  0.00209230  0.74976671  1
  Mn3.30+  Mn110  1  0.16927848  0.33424602  0.25162124  1
  Mn3.30+  Mn111  1  0.16257438  0.33469862  0.74844857  1
  Mn3.30+  Mn112  1  0.16967326  0.66495693  0.24927368  1
  Mn3.30+  Mn113  1  0.16819112  0.66419151  0.74872183  1
  Mn3.30+  Mn114  1  0.50193799  -0.00030199  0.25029919  1
  Mn3.30+  Mn115  1  0.50064399  0.00066368  0.74924650  1
  Mn3.30+  Mn116  1  0.49781454  0.33355596  0.24822670  1
  Mn3.30+  Mn117  1  0.49768827  0.33412173  0.74968501  1
  Mn3.30+  Mn118  1  0.49938279  0.66773158  0.24738331  1
  Mn3.30+  Mn119  1  0.49988855  0.66709690  0.74977189  1
  Mn3.30+  Mn120  1  0.83135046  -0.00094885  0.25175681  1
  Mn3.30+  Mn121  1  0.83407491  0.00081235  0.75000434  1
  Mn3.30+  Mn122  1  0.83365668  0.33196194  0.24965990  1
  Mn3.30+  Mn123  1  0.83568203  0.33103296  0.74960931  1
  Mn3.30+  Mn124  1  0.83354584  0.66634693  0.25033280  1
  Mn3.30+  Mn125  1  0.83402641  0.66540478  0.74990045  1
  Mn3.30+  Mn126  1  -0.00186414  0.16835808  0.00117411  1
  Mn3.30+  Mn127  1  -0.00225088  0.16789149  0.49808711  1
  Mn3.30+  Mn128  1  0.00331735  0.49827834  -0.00220127  1
  Mn3.30+  Mn129  1  0.00238880  0.49799829  0.50305869  1
  Mn3.30+  Mn130  1  0.00079891  0.83333049  0.00093926  1
  Mn3.30+  Mn131  1  -0.00117440  0.83388185  0.49726799  1
  Mn3.30+  Mn132  1  0.33391334  0.16789088  0.00312702  1
  Mn3.30+  Mn133  1  0.33284481  0.16948981  0.49711357  1
  Mn3.30+  Mn134  1  0.33014389  0.49940484  -0.00143867  1
  Mn3.30+  Mn135  1  0.33432269  0.49938934  0.50305320  1
  Mn3.30+  Mn136  1  0.33527483  0.83307763  0.00271439  1
  Mn3.30+  Mn137  1  0.33533336  0.83431101  0.50037740  1
  Mn3.30+  Mn138  1  0.66520243  0.16593045  0.00314816  1
  Mn3.30+  Mn139  1  0.66614690  0.16520443  0.49952816  1
  Mn3.30+  Mn140  1  0.66654269  0.49838570  0.00059293  1
  Mn3.30+  Mn141  1  0.66499034  0.50015375  0.50068938  1
  Mn3.30+  Mn142  1  0.66561368  0.83416197  0.00120627  1
  Mn3.30+  Mn143  1  0.66747799  0.83363826  0.49855298  1
  O2-  O144  1  0.02411478  0.16344756  0.12778876  1
  O2-  O145  1  0.02317553  0.15758586  0.62060094  1
  O2-  O146  1  0.01946042  0.49488422  0.12305955  1
  O2-  O147  1  0.02589463  0.49185090  0.62610627  1
  O2-  O148  1  0.02600166  0.82589639  0.12549216  1
  O2-  O149  1  0.02499327  0.82809432  0.62334790  1
  O2-  O150  1  0.36011027  0.16030196  0.12721613  1
  O2-  O151  1  0.35958239  0.16168116  0.62139144  1
  O2-  O152  1  0.35631421  0.49052774  0.12372285  1
  O2-  O153  1  0.36352631  0.49348419  0.62583797  1
  O2-  O154  1  0.36120271  0.82429433  0.12631558  1
  O2-  O155  1  0.36271192  0.82920914  0.62245338  1
  O2-  O156  1  0.69417832  0.16045054  0.12629199  1
  O2-  O157  1  0.68311626  0.16601071  0.62421456  1
  O2-  O158  1  0.69273656  0.49924830  0.12449993  1
  O2-  O159  1  0.69184269  0.49503208  0.62740634  1
  O2-  O160  1  0.69366529  0.82755649  0.12458690  1
  O2-  O161  1  0.69200562  0.82931438  0.62429060  1
  O2-  O162  1  0.14201722  0.33183563  0.12503775  1
  O2-  O163  1  0.13942368  0.32628203  0.62467931  1
  O2-  O164  1  0.14249597  0.66516644  0.12695930  1
  O2-  O165  1  0.14240960  0.66089846  0.62610071  1
  O2-  O166  1  0.13972058  0.99238284  0.12681653  1
  O2-  O167  1  0.13888464  0.99561312  0.62114708  1
  O2-  O168  1  0.47227111  0.33232349  0.12593211  1
  O2-  O169  1  0.47366769  0.32452925  0.62423213  1
  O2-  O170  1  0.47071150  0.65663092  0.12413393  1
  O2-  O171  1  0.47606223  0.65707385  0.62667460  1
  O2-  O172  1  0.47638762  0.98819205  0.12787240  1
  O2-  O173  1  0.47759427  0.99601833  0.61929734  1
  O2-  O174  1  0.81602486  0.33641637  0.12501192  1
  O2-  O175  1  0.80617711  0.33603057  0.62590981  1
  O2-  O176  1  0.80904151  0.65791895  0.12250402  1
  O2-  O177  1  0.80659208  0.65811149  0.62621993  1
  O2-  O178  1  0.80509356  0.99022971  0.12704130  1
  O2-  O179  1  0.81563355  0.99390461  0.62157745  1
  O2-  O180  1  0.30486694  0.17447542  0.37379963  1
  O2-  O181  1  0.31461054  0.16860389  0.87741997  1
  O2-  O182  1  0.30999028  0.50791535  0.37783735  1
  O2-  O183  1  0.30478887  0.50650196  0.87253198  1
  O2-  O184  1  0.30771026  0.83825453  0.37563578  1
  O2-  O185  1  0.30887545  0.84251843  0.87480869  1
  O2-  O186  1  0.64272553  0.17470410  0.37358632  1
  O2-  O187  1  0.64801583  0.16836973  0.87640490  1
  O2-  O188  1  0.64117458  0.50593426  0.37369175  1
  O2-  O189  1  0.64096746  0.50433965  0.87419655  1
  O2-  O190  1  0.64397773  0.82804469  0.37349555  1
  O2-  O191  1  0.64185873  0.83910974  0.87680138  1
  O2-  O192  1  0.97241836  0.17350056  0.37449554  1
  O2-  O193  1  0.97481342  0.17017334  0.87837475  1
  O2-  O194  1  0.97594659  0.50711231  0.37812408  1
  O2-  O195  1  0.97427926  0.50745854  0.87347371  1
  O2-  O196  1  0.97299218  0.83606223  0.37494683  1
  O2-  O197  1  0.97471387  0.84034976  0.87660540  1
  O2-  O198  1  0.19202419  0.00524105  0.37449842  1
  O2-  O199  1  0.19226910  0.00213558  0.87724270  1
  O2-  O200  1  0.19391660  0.33834650  0.37807209  1
  O2-  O201  1  0.18887951  0.33464310  0.87212502  1
  O2-  O202  1  0.19283158  0.67237357  0.37540321  1
  O2-  O203  1  0.19176356  0.67561545  0.87189392  1
  O2-  O204  1  0.52758231  0.00838879  0.37230345  1
  O2-  O205  1  0.52249224  0.00205039  0.87948220  1
  O2-  O206  1  0.52642558  0.33948275  0.37503293  1
  O2-  O207  1  0.52317915  0.33906373  0.87490070  1
  O2-  O208  1  0.52655063  0.67256259  0.37345209  1
  O2-  O209  1  0.52601911  0.67517210  0.87542487  1
  O2-  O210  1  0.86123681  0.00679667  0.37246425  1
  O2-  O211  1  0.86015886  0.00662024  0.87886847  1
  O2-  O212  1  0.85024230  0.33726720  0.37602162  1
  O2-  O213  1  0.86026619  0.33429937  0.87430988  1
  O2-  O214  1  0.85781651  0.67226992  0.37718214  1
  O2-  O215  1  0.86129113  0.67383836  0.87446436  1
  O2-  O216  1  0.24098676  0.09383306  0.02528073  1
  O2-  O217  1  0.23820294  0.09470548  0.51877025  1
  O2-  O218  1  0.23964750  0.42581365  0.01208022  1
  O2-  O219  1  0.23968578  0.43035277  0.52424672  1
  O2-  O220  1  0.23823323  0.76423914  0.01640192  1
  O2-  O221  1  0.23887929  0.76090505  0.52164594  1
  O2-  O222  1  0.57145395  0.09304418  0.02630143  1
  O2-  O223  1  0.56815422  0.09807367  0.51452302  1
  O2-  O224  1  0.56931423  0.42911985  0.01714080  1
  O2-  O225  1  0.56923069  0.42959688  0.52175286  1
  O2-  O226  1  0.56990978  0.76120829  0.02272928  1
  O2-  O227  1  0.57042109  0.76171892  0.52206435  1
  O2-  O228  1  0.90164838  0.09666855  0.02457075  1
  O2-  O229  1  0.90616953  0.09265671  0.51537356  1
  O2-  O230  1  0.90511564  0.42971142  0.01661550  1
  O2-  O231  1  0.90337077  0.42883370  0.51620312  1
  O2-  O232  1  0.90610029  0.76122036  0.02071702  1
  O2-  O233  1  0.90720430  0.75845330  0.52409528  1
  O2-  O234  1  0.26103319  0.26202990  0.22487927  1
  O2-  O235  1  0.25934701  0.26150963  0.73013099  1
  O2-  O236  1  0.26645801  0.59789715  0.23360942  1
  O2-  O237  1  0.26618466  0.59668868  0.72908608  1
  O2-  O238  1  0.26396203  0.92566922  0.22952443  1
  O2-  O239  1  0.26036110  0.92954059  0.72598157  1
  O2-  O240  1  0.59153036  0.26121445  0.23469208  1
  O2-  O241  1  0.59255403  0.26264968  0.73251949  1
  O2-  O242  1  0.59329825  0.59589894  0.22792599  1
  O2-  O243  1  0.59671798  0.59788591  0.73425202  1
  O2-  O244  1  0.59913039  0.92585684  0.23382583  1
  O2-  O245  1  0.59436681  0.92833836  0.73601616  1
  O2-  O246  1  0.92737206  0.26226887  0.22974446  1
  O2-  O247  1  0.92808109  0.26276952  0.73016726  1
  O2-  O248  1  0.92850534  0.59417616  0.23105431  1
  O2-  O249  1  0.93090366  0.59300559  0.72844896  1
  O2-  O250  1  0.92698391  0.92790227  0.22693021  1
  O2-  O251  1  0.92803714  0.92739295  0.73107611  1
  O2-  O252  1  0.09877867  0.23825424  0.26638451  1
  O2-  O253  1  0.09354963  0.23672598  0.76303578  1
  O2-  O254  1  0.09476693  0.57452348  0.27373878  1
  O2-  O255  1  0.09425202  0.56936685  0.77160746  1
  O2-  O256  1  0.09591066  0.90309449  0.26988091  1
  O2-  O257  1  0.09607329  0.90567557  0.76948563  1
  O2-  O258  1  0.42729352  0.24072413  0.27169943  1
  O2-  O259  1  0.42471387  0.24240246  0.76731279  1
  O2-  O260  1  0.42959693  0.57226732  0.27073077  1
  O2-  O261  1  0.42779335  0.57419793  0.77385396  1
  O2-  O262  1  0.42728102  0.90698765  0.27417114  1
  O2-  O263  1  0.42669327  0.90767070  0.77037475  1
  O2-  O264  1  0.75874512  0.23884288  0.26836686  1
  O2-  O265  1  0.75980646  0.24014540  0.77130959  1
  O2-  O266  1  0.76229155  0.57202944  0.27119796  1
  O2-  O267  1  0.76324670  0.57198363  0.77292633  1
  O2-  O268  1  0.76592380  0.89964794  0.27048250  1
  O2-  O269  1  0.76262669  0.90600173  0.77053501  1
  O2-  O270  1  0.07142141  0.07040666  0.47603600  1
  O2-  O271  1  0.06581486  0.07133650  0.98599538  1
  O2-  O272  1  0.07748681  0.40975327  0.47895317  1
  O2-  O273  1  0.06787568  0.40200272  0.98004500  1
  O2-  O274  1  0.07126308  0.74010819  0.47984405  1
  O2-  O275  1  0.07376884  0.73649219  0.97999072  1
  O2-  O276  1  0.40352574  0.07372894  0.47665480  1
  O2-  O277  1  0.40335602  0.06837141  0.98720507  1
  O2-  O278  1  0.40315602  0.40374527  0.47796959  1
  O2-  O279  1  0.40537826  0.40957781  0.97554897  1
  O2-  O280  1  0.40737646  0.73806889  0.47878103  1
  O2-  O281  1  0.40601952  0.74105266  0.97460105  1
  O2-  O282  1  0.74035148  0.06946247  0.47534308  1
  O2-  O283  1  0.73784853  0.07017542  0.98094614  1
  O2-  O284  1  0.73673595  0.40514388  0.48210114  1
  O2-  O285  1  0.74240820  0.40376491  0.97613679  1
  O2-  O286  1  0.73569847  0.73561730  0.48510662  1
  O2-  O287  1  0.73854914  0.73898080  0.97912309  1
  O2-  O288  1  0.09662078  0.23515332  0.48231210  1
  O2-  O289  1  0.09310306  0.23856136  0.98858437  1
  O2-  O290  1  0.09479236  0.57536811  0.47957835  1
  O2-  O291  1  0.09598872  0.57062363  0.97615354  1
  O2-  O292  1  0.09624164  0.90316726  0.48064107  1
  O2-  O293  1  0.09485071  0.90423604  0.97977759  1
  O2-  O294  1  0.42930371  0.23793926  0.47913207  1
  O2-  O295  1  0.42219032  0.24406710  0.98239132  1
  O2-  O296  1  0.42921573  0.57322695  0.47856508  1
  O2-  O297  1  0.42816686  0.57253993  0.97703160  1
  O2-  O298  1  0.42728116  0.90949542  0.47455651  1
  O2-  O299  1  0.42740576  0.90621821  0.97949863  1
  O2-  O300  1  0.75896315  0.23873611  0.47935574  1
  O2-  O301  1  0.75993018  0.23944766  0.98158158  1
  O2-  O302  1  0.76211343  0.57069838  0.47932177  1
  O2-  O303  1  0.76197381  0.57186246  0.97709300  1
  O2-  O304  1  0.76514192  0.90036535  0.48004337  1
  O2-  O305  1  0.76375335  0.90572626  0.97863948  1
  O2-  O306  1  0.06655920  0.07238467  0.27104654  1
  O2-  O307  1  0.07078957  0.06992943  0.76671421  1
  O2-  O308  1  0.07632578  0.40816714  0.26831803  1
  O2-  O309  1  0.06878448  0.40245078  0.77249935  1
  O2-  O310  1  0.07337704  0.73785001  0.27144664  1
  O2-  O311  1  0.07217434  0.73903006  0.76894694  1
  O2-  O312  1  0.40269093  0.07407021  0.27103134  1
  O2-  O313  1  0.40333483  0.06931254  0.76353606  1
  O2-  O314  1  0.40667801  0.40815356  0.27426810  1
  O2-  O315  1  0.40244386  0.40583709  0.77239743  1
  O2-  O316  1  0.40826360  0.74063822  0.27471382  1
  O2-  O317  1  0.40563200  0.73859343  0.77095824  1
  O2-  O318  1  0.73531611  0.06746394  0.27252951  1
  O2-  O319  1  0.74282651  0.07232882  0.77175197  1
  O2-  O320  1  0.74115209  0.40673977  0.27057729  1
  O2-  O321  1  0.73831971  0.40359958  0.77179111  1
  O2-  O322  1  0.73672002  0.73480150  0.26404843  1
  O2-  O323  1  0.73737071  0.73940586  0.77078236  1
  O2-  O324  1  0.23752187  0.09502469  0.22974641  1
  O2-  O325  1  0.24024182  0.09356219  0.72572722  1
  O2-  O326  1  0.23942861  0.42948326  0.23815299  1
  O2-  O327  1  0.23791430  0.42729500  0.72624871  1
  O2-  O328  1  0.23831469  0.76266739  0.23290844  1
  O2-  O329  1  0.24115048  0.76387432  0.72765840  1
  O2-  O330  1  0.56968818  0.09651169  0.22630789  1
  O2-  O331  1  0.57071501  0.09456360  0.73306301  1
  O2-  O332  1  0.56880908  0.42984688  0.23187808  1
  O2-  O333  1  0.56867270  0.42747405  0.72862748  1
  O2-  O334  1  0.57090296  0.76058026  0.22659297  1
  O2-  O335  1  0.56977242  0.76240676  0.72786987  1
  O2-  O336  1  0.89899102  0.09554121  0.22806942  1
  O2-  O337  1  0.90788846  0.09271867  0.73422519  1
  O2-  O338  1  0.90727556  0.42830097  0.23441124  1
  O2-  O339  1  0.90229527  0.43039159  0.73363338  1
  O2-  O340  1  0.90726128  0.75806926  0.22747236  1
  O2-  O341  1  0.90461007  0.76036579  0.72841841  1
  O2-  O342  1  0.25870946  0.26134111  0.01929832  1
  O2-  O343  1  0.25941837  0.26081102  0.52466402  1
  O2-  O344  1  0.26638229  0.59936558  0.01743605  1
  O2-  O345  1  0.26670445  0.59575386  0.51957655  1
  O2-  O346  1  0.26411234  0.92578201  0.02421590  1
  O2-  O347  1  0.25974398  0.92906081  0.52012783  1
  O2-  O348  1  0.59225428  0.25937112  0.01453427  1
  O2-  O349  1  0.59241096  0.26437128  0.51841181  1
  O2-  O350  1  0.59236999  0.59664187  0.01869790  1
  O2-  O351  1  0.59754326  0.59768722  0.51785305  1
  O2-  O352  1  0.59759120  0.93026572  0.01865070  1
  O2-  O353  1  0.59482612  0.92475600  0.51058772  1
  O2-  O354  1  0.92747845  0.26147350  0.02110789  1
  O2-  O355  1  0.92807668  0.26340089  0.52152559  1
  O2-  O356  1  0.93068025  0.59390901  0.01887273  1
  O2-  O357  1  0.92919538  0.59276017  0.52247216  1
  O2-  O358  1  0.92761632  0.92986140  0.02293034  1
  O2-  O359  1  0.92836915  0.92559038  0.51982510  1
