# generated using pymatgen
data_Sr7Ca15Pr50Mn72O216
_symmetry_space_group_name_H-M   'P 1'
_cell_length_a   16.55912320
_cell_length_b   16.60594978
_cell_length_c   15.59258254
_cell_angle_alpha   89.99839293
_cell_angle_beta   89.99978138
_cell_angle_gamma   90.00472411
_symmetry_Int_Tables_number   1
_chemical_formula_structural   Sr7Ca15Pr50Mn72O216
_chemical_formula_sum   'Sr7 Ca15 Pr50 Mn72 O216'
_cell_volume   4287.64783268
_cell_formula_units_Z   1
loop_
 _symmetry_equiv_pos_site_id
 _symmetry_equiv_pos_as_xyz
  1  'x, y, z'
loop_
 _atom_type_symbol
 _atom_type_oxidation_number
  Sr2+  2.0
  Ca2+  2.0
  Pr3+  3.0
  Mn3.30+  3.3
  O2-  -2.0
loop_
 _atom_site_type_symbol
 _atom_site_label
 _atom_site_symmetry_multiplicity
 _atom_site_fract_x
 _atom_site_fract_y
 _atom_site_fract_z
 _atom_site_occupancy
  Sr2+  Sr0  1  0.66811214  0.01078395  0.12588414  1
  Sr2+  Sr1  1  -0.00412908  0.01377856  0.12502138  1
  Sr2+  Sr2  1  0.50093660  0.84461135  0.62297820  1
  Sr2+  Sr3  1  0.50219827  0.49038163  0.37542751  1
  Sr2+  Sr4  1  0.33444640  0.00978894  0.62490492  1
  Sr2+  Sr5  1  0.16557254  0.17602890  0.12374768  1
  Sr2+  Sr6  1  -0.00261469  0.67713556  0.12477861  1
  Ca2+  Ca7  1  0.83758129  0.17884091  0.12293556  1
  Ca2+  Ca8  1  0.66798193  0.65418768  0.37667275  1
  Ca2+  Ca9  1  1.00154087  0.65053979  0.37524079  1
  Ca2+  Ca10  1  0.15968439  0.81749119  0.87490204  1
  Ca2+  Ca11  1  0.67077077  0.31999683  0.37451373  1
  Ca2+  Ca12  1  0.83274976  0.48906669  0.87349262  1
  Ca2+  Ca13  1  0.33811843  0.31512773  0.87466548  1
  Ca2+  Ca14  1  0.83048985  0.15111789  0.87653329  1
  Ca2+  Ca15  1  0.67073271  0.98462291  0.37509549  1
  Ca2+  Ca16  1  0.83671766  0.51528986  0.62632505  1
  Ca2+  Ca17  1  0.49802412  0.15199970  0.87496792  1
  Ca2+  Ca18  1  0.50061380  0.82148708  0.37586513  1
  Ca2+  Ca19  1  -0.00341565  0.01468438  0.62596305  1
  Ca2+  Ca20  1  -0.00627970  0.35217372  0.62644069  1
  Ca2+  Ca21  1  1.00184712  0.65275292  0.87465268  1
  Pr3+  Pr22  1  0.83230014  0.82241094  0.87600296  1
  Pr3+  Pr23  1  0.50347220  0.17651690  0.62700527  1
  Pr3+  Pr24  1  0.66914812  0.98882602  0.87567835  1
  Pr3+  Pr25  1  1.00159611  0.32160778  0.37816308  1
  Pr3+  Pr26  1  0.50420961  0.51328985  0.62385359  1
  Pr3+  Pr27  1  1.00358148  0.98784971  0.87553690  1
  Pr3+  Pr28  1  0.66779581  0.34233888  0.12661913  1
  Pr3+  Pr29  1  0.33593854  0.32182868  0.37574310  1
  Pr3+  Pr30  1  0.16540896  0.15575806  0.87539702  1
  Pr3+  Pr31  1  0.83777762  0.18155823  0.62738890  1
  Pr3+  Pr32  1  0.83725122  0.51262886  0.12377005  1
  Pr3+  Pr33  1  0.50497601  0.17794366  0.12278359  1
  Pr3+  Pr34  1  0.67222384  0.65156341  0.87480383  1
  Pr3+  Pr35  1  0.82956860  0.81875303  0.37421304  1
  Pr3+  Pr36  1  0.16223276  0.48744089  0.87421327  1
  Pr3+  Pr37  1  1.00250723  0.98826605  0.37501807  1
  Pr3+  Pr38  1  0.50310836  0.51146126  0.12573046  1
  Pr3+  Pr39  1  0.33504511  0.98973514  0.87512370  1
  Pr3+  Pr40  1  0.16149375  0.81778168  0.37532368  1
  Pr3+  Pr41  1  0.16775211  0.17751346  0.62604832  1
  Pr3+  Pr42  1  0.33004975  0.01494810  0.12506590  1
  Pr3+  Pr43  1  0.50313136  0.15620336  0.37449908  1
  Pr3+  Pr44  1  0.32866268  0.67886835  0.12576941  1
  Pr3+  Pr45  1  0.67262497  0.31799233  0.87472946  1
  Pr3+  Pr46  1  0.83697197  0.84910326  0.62495011  1
  Pr3+  Pr47  1  0.66192457  0.01244626  0.62411340  1
  Pr3+  Pr48  1  0.33840272  0.65364133  0.37578633  1
  Pr3+  Pr49  1  0.32844475  0.34391384  0.12296033  1
  Pr3+  Pr50  1  0.66387388  0.34658898  0.62359375  1
  Pr3+  Pr51  1  0.33771140  0.98675880  0.37494693  1
  Pr3+  Pr52  1  0.82770964  0.15321889  0.37447693  1
  Pr3+  Pr53  1  0.33461728  0.65556107  0.87404881  1
  Pr3+  Pr54  1  0.33181670  0.34418576  0.62707947  1
  Pr3+  Pr55  1  0.50343846  0.84653419  0.12632590  1
  Pr3+  Pr56  1  0.17097589  0.84740202  0.62602783  1
  Pr3+  Pr57  1  0.16294195  0.15420773  0.37482012  1
  Pr3+  Pr58  1  0.16618432  0.51258875  0.12371412  1
  Pr3+  Pr59  1  0.16170581  0.48851908  0.37572472  1
  Pr3+  Pr60  1  0.49591791  0.48455749  0.87386759  1
  Pr3+  Pr61  1  -0.00418149  0.34159801  0.12348138  1
  Pr3+  Pr62  1  -0.00448606  0.67876201  0.62563219  1
  Pr3+  Pr63  1  0.16705356  0.84601067  0.12408003  1
  Pr3+  Pr64  1  0.99793878  0.32119805  0.87182041  1
  Pr3+  Pr65  1  0.49850013  0.82334971  0.87458669  1
  Pr3+  Pr66  1  0.82812354  0.48805130  0.37637794  1
  Pr3+  Pr67  1  0.83833136  0.84775240  0.12543029  1
  Pr3+  Pr68  1  0.16591947  0.51288847  0.62629919  1
  Pr3+  Pr69  1  0.33083922  0.68010845  0.62439352  1
  Pr3+  Pr70  1  0.66611848  0.67761341  0.12796920  1
  Pr3+  Pr71  1  0.66594249  0.67870052  0.62234956  1
  Mn3.30+  Mn72  1  0.16668506  0.00005696  -0.00009327  1
  Mn3.30+  Mn73  1  0.16593074  0.00015558  0.50112873  1
  Mn3.30+  Mn74  1  0.16666562  0.33256976  -0.00303263  1
  Mn3.30+  Mn75  1  0.16473593  0.33400346  0.50347597  1
  Mn3.30+  Mn76  1  0.16414156  0.66784354  -0.00180327  1
  Mn3.30+  Mn77  1  0.16394380  0.66601660  0.49963481  1
  Mn3.30+  Mn78  1  0.50094938  0.00120162  0.00031037  1
  Mn3.30+  Mn79  1  0.50279212  -0.00101363  0.49724893  1
  Mn3.30+  Mn80  1  0.49934391  0.33115356  -0.00141390  1
  Mn3.30+  Mn81  1  0.50155151  0.33311336  0.49852911  1
  Mn3.30+  Mn82  1  0.50032031  0.66625613  0.00014520  1
  Mn3.30+  Mn83  1  0.50147320  0.66845451  0.49809943  1
  Mn3.30+  Mn84  1  0.83489521  0.00292150  -0.00009008  1
  Mn3.30+  Mn85  1  0.83299373  0.00077210  0.50048913  1
  Mn3.30+  Mn86  1  0.83244239  0.33246595  -0.00225109  1
  Mn3.30+  Mn87  1  0.83337528  0.33507269  0.50222408  1
  Mn3.30+  Mn88  1  0.83569083  0.66580908  -0.00215220  1
  Mn3.30+  Mn89  1  0.83358368  0.66572528  0.49937864  1
  Mn3.30+  Mn90  1  -0.00311963  0.16804696  0.24956702  1
  Mn3.30+  Mn91  1  -0.00140541  0.16664368  0.74983804  1
  Mn3.30+  Mn92  1  -0.00189706  0.49990632  0.25063044  1
  Mn3.30+  Mn93  1  -0.00382547  0.50075216  0.75062669  1
  Mn3.30+  Mn94  1  -0.00109636  0.83194251  0.25098815  1
  Mn3.30+  Mn95  1  0.00159189  0.83372612  0.75000767  1
  Mn3.30+  Mn96  1  0.33378906  0.16737731  0.25046361  1
  Mn3.30+  Mn97  1  0.33495967  0.16630149  0.75028724  1
  Mn3.30+  Mn98  1  0.33340993  0.49911341  0.25008886  1
  Mn3.30+  Mn99  1  0.33283666  0.49888278  0.75054168  1
  Mn3.30+  Mn100  1  0.33491467  0.83310170  0.25088221  1
  Mn3.30+  Mn101  1  0.33036293  0.83442109  0.75181149  1
  Mn3.30+  Mn102  1  0.66914361  0.16641950  0.24866395  1
  Mn3.30+  Mn103  1  0.66878289  0.16643120  0.75265041  1
  Mn3.30+  Mn104  1  0.66749047  0.49941941  0.25188929  1
  Mn3.30+  Mn105  1  0.66958035  0.49915820  0.74922643  1
  Mn3.30+  Mn106  1  0.66635442  0.83281379  0.25272942  1
  Mn3.30+  Mn107  1  0.66702440  0.83295843  0.74925938  1
  Mn3.30+  Mn108  1  0.16700076  0.00033351  0.24955030  1
  Mn3.30+  Mn109  1  0.16558963  -0.00043363  0.74983017  1
  Mn3.30+  Mn110  1  0.16560051  0.33323252  0.24954790  1
  Mn3.30+  Mn111  1  0.16557676  0.33309933  0.74971057  1
  Mn3.30+  Mn112  1  0.16449376  0.66626680  0.25013721  1
  Mn3.30+  Mn113  1  0.16360926  0.66787982  0.75154648  1
  Mn3.30+  Mn114  1  0.50348400  -0.00080533  0.25196205  1
  Mn3.30+  Mn115  1  0.50030303  0.00092305  0.74983705  1
  Mn3.30+  Mn116  1  0.50077573  0.33317596  0.25113230  1
  Mn3.30+  Mn117  1  0.49973451  0.33088021  0.75174337  1
  Mn3.30+  Mn118  1  0.50036743  0.66722041  0.25168535  1
  Mn3.30+  Mn119  1  0.50157980  0.66742744  0.75023688  1
  Mn3.30+  Mn120  1  0.83289485  0.00130824  0.25046501  1
  Mn3.30+  Mn121  1  0.83494216  0.00195308  0.75006628  1
  Mn3.30+  Mn122  1  0.83234848  0.33194639  0.25075712  1
  Mn3.30+  Mn123  1  0.83379155  0.33648635  0.74913462  1
  Mn3.30+  Mn124  1  0.83401926  0.66586264  0.25205326  1
  Mn3.30+  Mn125  1  0.83477166  0.66555198  0.75088236  1
  Mn3.30+  Mn126  1  -0.00336978  0.16746093  -0.00174086  1
  Mn3.30+  Mn127  1  -0.00141665  0.16745103  0.50277677  1
  Mn3.30+  Mn128  1  -0.00201138  0.50003743  -0.00322960  1
  Mn3.30+  Mn129  1  -0.00384457  0.50045408  0.50195997  1
  Mn3.30+  Mn130  1  0.00086547  0.83189660  -0.00150710  1
  Mn3.30+  Mn131  1  -0.00046638  0.83375560  0.50076884  1
  Mn3.30+  Mn132  1  0.33539526  0.16791445  -0.00183802  1
  Mn3.30+  Mn133  1  0.33378081  0.16618099  0.50068268  1
  Mn3.30+  Mn134  1  0.33299063  0.49846957  -0.00195122  1
  Mn3.30+  Mn135  1  0.33344164  0.49963816  0.50132129  1
  Mn3.30+  Mn136  1  0.33157863  0.83336273  -0.00140767  1
  Mn3.30+  Mn137  1  0.33377918  0.83409110  0.49893800  1
  Mn3.30+  Mn138  1  0.66936418  0.16599141  0.00009349  1
  Mn3.30+  Mn139  1  0.66883669  0.16705076  0.49903486  1
  Mn3.30+  Mn140  1  0.66776340  0.49808057  -0.00058066  1
  Mn3.30+  Mn141  1  0.66893426  0.49995422  0.49927392  1
  Mn3.30+  Mn142  1  0.66717677  0.83275057  0.00129902  1
  Mn3.30+  Mn143  1  0.66652888  0.83336688  0.49696943  1
  O2-  O144  1  0.01618469  0.17409077  0.12388285  1
  O2-  O145  1  0.02449504  0.15829428  0.62587546  1
  O2-  O146  1  0.02262874  0.49108017  0.12169756  1
  O2-  O147  1  0.02338056  0.49778847  0.62602826  1
  O2-  O148  1  0.02306312  0.83028583  0.12363743  1
  O2-  O149  1  0.02762333  0.82477497  0.62422502  1
  O2-  O150  1  0.35958559  0.16432044  0.12409046  1
  O2-  O151  1  0.35895522  0.16634730  0.62437373  1
  O2-  O152  1  0.35859255  0.49264541  0.12172680  1
  O2-  O153  1  0.35971789  0.49367538  0.62672813  1
  O2-  O154  1  0.35956131  0.82624017  0.12525010  1
  O2-  O155  1  0.35037210  0.82776647  0.62571249  1
  O2-  O156  1  0.69509110  0.16744366  0.12437232  1
  O2-  O157  1  0.69319462  0.16004786  0.62561318  1
  O2-  O158  1  0.69224528  0.49306304  0.12527647  1
  O2-  O159  1  0.69355992  0.49406155  0.62463915  1
  O2-  O160  1  0.69353568  0.82498402  0.12637725  1
  O2-  O161  1  0.69283011  0.82753648  0.62334721  1
  O2-  O162  1  0.14125118  0.33279617  0.12105354  1
  O2-  O163  1  0.13694788  0.32569118  0.62630695  1
  O2-  O164  1  0.14697913  0.66158904  0.12400788  1
  O2-  O165  1  0.13994303  0.66172101  0.62564677  1
  O2-  O166  1  0.14713324  0.99436321  0.12519439  1
  O2-  O167  1  0.13908404  0.99393403  0.62590996  1
  O2-  O168  1  0.47229086  0.32604785  0.12455985  1
  O2-  O169  1  0.47610919  0.32648890  0.62631567  1
  O2-  O170  1  0.47320731  0.66021817  0.12370756  1
  O2-  O171  1  0.47574891  0.66120227  0.62436052  1
  O2-  O172  1  0.47403816  0.99515825  0.12680038  1
  O2-  O173  1  0.48417179  1.00222916  0.62319909  1
  O2-  O174  1  0.81197342  0.32552208  0.12345905  1
  O2-  O175  1  0.80611020  0.32675458  0.62561421  1
  O2-  O176  1  0.80975352  0.66166102  0.12394791  1
  O2-  O177  1  0.80924874  0.66282174  0.62545661  1
  O2-  O178  1  0.81639446  0.99366652  0.12514159  1
  O2-  O179  1  0.80570044  0.99603098  0.62429584  1
  O2-  O180  1  0.30719778  0.17352619  0.37685684  1
  O2-  O181  1  0.30963947  0.16946160  0.87416246  1
  O2-  O182  1  0.30618260  0.50455948  0.37765019  1
  O2-  O183  1  0.30703550  0.50886547  0.87390563  1
  O2-  O184  1  0.30580142  0.83745258  0.37370703  1
  O2-  O185  1  0.30334655  0.84036075  0.87599760  1
  O2-  O186  1  0.64566738  0.17673067  0.37427348  1
  O2-  O187  1  0.63975495  0.17168655  0.87570598  1
  O2-  O188  1  0.64984441  0.50845717  0.37473801  1
  O2-  O189  1  0.63978107  0.50389837  0.87453657  1
  O2-  O190  1  0.64189457  0.84068370  0.37416521  1
  O2-  O191  1  0.64310586  0.83794701  0.87606691  1
  O2-  O192  1  0.97345861  0.17386445  0.37838130  1
  O2-  O193  1  0.97286561  0.17259549  0.87212834  1
  O2-  O194  1  0.97426466  0.50273964  0.37865851  1
  O2-  O195  1  0.97423843  0.50610098  0.87363866  1
  O2-  O196  1  0.97387868  0.84210725  0.37897978  1
  O2-  O197  1  0.97461667  0.84187618  0.87320069  1
  O2-  O198  1  0.19102465  0.00525876  0.37396077  1
  O2-  O199  1  0.19111624  0.00783095  0.87530029  1
  O2-  O200  1  0.19136152  0.34106601  0.37881176  1
  O2-  O201  1  0.19465655  0.33986706  0.87330520  1
  O2-  O202  1  0.19377415  0.66854201  0.37546616  1
  O2-  O203  1  0.19220858  0.67079861  0.87470965  1
  O2-  O204  1  0.52973738  0.00944247  0.37361104  1
  O2-  O205  1  0.52438972  0.00270286  0.87598622  1
  O2-  O206  1  0.52671666  0.33399233  0.37347501  1
  O2-  O207  1  0.52878086  0.34027984  0.87456249  1
  O2-  O208  1  0.52401692  0.67362757  0.37440861  1
  O2-  O209  1  0.52679205  0.67363323  0.87692672  1
  O2-  O210  1  0.85959424  0.00515361  0.37674458  1
  O2-  O211  1  0.85861985  0.00281984  0.87432521  1
  O2-  O212  1  0.85862727  0.34004705  0.37924222  1
  O2-  O213  1  0.85508988  0.34525162  0.87226186  1
  O2-  O214  1  0.86114737  0.67171341  0.37645226  1
  O2-  O215  1  0.86006187  0.67616948  0.87412425  1
  O2-  O216  1  0.24345431  0.09311755  0.01687287  1
  O2-  O217  1  0.23678186  0.09676720  0.51761412  1
  O2-  O218  1  0.23730949  0.42886367  0.01976240  1
  O2-  O219  1  0.23672811  0.42665407  0.52433009  1
  O2-  O220  1  0.23985210  0.76068288  0.02246376  1
  O2-  O221  1  0.23456643  0.75889049  0.51900868  1
  O2-  O222  1  0.57396076  0.09552503  0.01918688  1
  O2-  O223  1  0.57377803  0.09645915  0.51825301  1
  O2-  O224  1  0.56854582  0.42654093  0.02071100  1
  O2-  O225  1  0.57322547  0.42677173  0.52242665  1
  O2-  O226  1  0.57154242  0.75966337  0.02194667  1
  O2-  O227  1  0.57611816  0.75793882  0.51947356  1
  O2-  O228  1  0.90312771  0.09806388  0.01596684  1
  O2-  O229  1  0.90098553  0.09754918  0.51854716  1
  O2-  O230  1  0.90431666  0.42489680  0.02053693  1
  O2-  O231  1  0.90060388  0.43233941  0.52070541  1
  O2-  O232  1  0.90200144  0.76447102  0.01628272  1
  O2-  O233  1  0.90445431  0.76329264  0.52191991  1
  O2-  O234  1  0.26231239  0.26470805  0.23394210  1
  O2-  O235  1  0.25990879  0.25930201  0.72845248  1
  O2-  O236  1  0.26125403  0.59317257  0.22971546  1
  O2-  O237  1  0.25980165  0.59532420  0.72895944  1
  O2-  O238  1  0.26508229  0.92553891  0.22953186  1
  O2-  O239  1  0.25840874  0.92690893  0.73156340  1
  O2-  O240  1  0.59262114  0.25846284  0.22648262  1
  O2-  O241  1  0.59766957  0.26158939  0.72913292  1
  O2-  O242  1  0.59217756  0.59168830  0.22740206  1
  O2-  O243  1  0.59901444  0.59190484  0.72870061  1
  O2-  O244  1  0.59147533  0.92356095  0.22825793  1
  O2-  O245  1  0.59657681  0.92916478  0.73452467  1
  O2-  O246  1  0.93034624  0.26649747  0.23754136  1
  O2-  O247  1  0.92848150  0.26649525  0.72867273  1
  O2-  O248  1  0.92560962  0.59059441  0.23165909  1
  O2-  O249  1  0.92886667  0.59693205  0.73037220  1
  O2-  O250  1  0.92687122  0.92788481  0.23570613  1
  O2-  O251  1  0.93052266  0.92885044  0.72789474  1
  O2-  O252  1  0.09306864  0.24110207  0.27298601  1
  O2-  O253  1  0.09522796  0.23932990  0.77184330  1
  O2-  O254  1  0.09581561  0.56934103  0.26662604  1
  O2-  O255  1  0.09629704  0.57042278  0.76772767  1
  O2-  O256  1  0.09437929  0.90425548  0.27017864  1
  O2-  O257  1  0.09572678  0.90340977  0.77214877  1
  O2-  O258  1  0.42797732  0.23899986  0.27167050  1
  O2-  O259  1  0.43305799  0.23665381  0.76916049  1
  O2-  O260  1  0.42517353  0.57403343  0.26781141  1
  O2-  O261  1  0.42980135  0.57383039  0.77060460  1
  O2-  O262  1  0.42870815  0.90417334  0.27295780  1
  O2-  O263  1  0.42446165  0.90697447  0.77275826  1
  O2-  O264  1  0.76226888  0.23961392  0.27002754  1
  O2-  O265  1  0.76367782  0.23701404  0.77116040  1
  O2-  O266  1  0.76441679  0.57137218  0.26506238  1
  O2-  O267  1  0.76149939  0.57204823  0.77398515  1
  O2-  O268  1  0.76253618  0.90284811  0.26768020  1
  O2-  O269  1  0.76244372  0.90536747  0.76930536  1
  O2-  O270  1  0.07293018  0.07336821  0.47796540  1
  O2-  O271  1  0.07236735  0.07601410  0.97934361  1
  O2-  O272  1  0.07175748  0.40766093  0.48124266  1
  O2-  O273  1  0.07096231  0.40634568  0.97509406  1
  O2-  O274  1  0.07039382  0.73615775  0.47692712  1
  O2-  O275  1  0.07027231  0.73816479  0.97742434  1
  O2-  O276  1  0.40965003  0.07327500  0.47567183  1
  O2-  O277  1  0.40449225  0.07040554  0.98323706  1
  O2-  O278  1  0.40301361  0.40372543  0.48389791  1
  O2-  O279  1  0.40239335  0.40435648  0.97639459  1
  O2-  O280  1  0.40252459  0.73900505  0.48295368  1
  O2-  O281  1  0.40373486  0.74015096  0.97783068  1
  O2-  O282  1  0.73706818  0.07059208  0.47787491  1
  O2-  O283  1  0.73867370  0.07200265  0.97813189  1
  O2-  O284  1  0.73684654  0.40321534  0.47874103  1
  O2-  O285  1  0.73501940  0.40170912  0.98430271  1
  O2-  O286  1  0.73895945  0.73777720  0.47830448  1
  O2-  O287  1  0.73882957  0.73708090  0.97993720  1
  O2-  O288  1  0.09598893  0.23927198  0.47952943  1
  O2-  O289  1  0.09213056  0.24154217  0.97487513  1
  O2-  O290  1  0.09629931  0.57022245  0.48282983  1
  O2-  O291  1  0.09716136  0.56987891  0.98232350  1
  O2-  O292  1  0.09442893  0.90386891  0.47904089  1
  O2-  O293  1  0.09521472  0.90410360  0.97932884  1
  O2-  O294  1  0.42757017  0.23965608  0.47899547  1
  O2-  O295  1  0.43233001  0.23590328  0.97904616  1
  O2-  O296  1  0.42605459  0.57590417  0.48237528  1
  O2-  O297  1  0.42844583  0.57131271  0.97829714  1
  O2-  O298  1  0.42930780  0.90870693  0.47537813  1
  O2-  O299  1  0.42568450  0.90408966  0.97942278  1
  O2-  O300  1  0.76452493  0.23680038  0.48437707  1
  O2-  O301  1  0.76201110  0.23916577  0.97467497  1
  O2-  O302  1  0.76262286  0.57247034  0.48210111  1
  O2-  O303  1  0.76235824  0.57156766  0.97814402  1
  O2-  O304  1  0.76511845  0.90281964  0.48189858  1
  O2-  O305  1  0.76089274  0.90684785  0.98083362  1
  O2-  O306  1  0.07033152  0.07675234  0.27110410  1
  O2-  O307  1  0.07389308  0.07250174  0.77269132  1
  O2-  O308  1  0.07088195  0.40598021  0.27117283  1
  O2-  O309  1  0.07150942  0.40786921  0.77130326  1
  O2-  O310  1  0.07159499  0.73868658  0.27421087  1
  O2-  O311  1  0.06862280  0.73576961  0.76978035  1
  O2-  O312  1  0.40771107  0.07165142  0.27073497  1
  O2-  O313  1  0.40609541  0.07206869  0.76991635  1
  O2-  O314  1  0.40274569  0.40353213  0.26743962  1
  O2-  O315  1  0.40500719  0.40230340  0.77206980  1
  O2-  O316  1  0.40198424  0.73737068  0.26790895  1
  O2-  O317  1  0.40285078  0.74212264  0.77166692  1
  O2-  O318  1  0.73883823  0.07114550  0.27374331  1
  O2-  O319  1  0.73668553  0.07088372  0.77003848  1
  O2-  O320  1  0.73903989  0.40290546  0.26988961  1
  O2-  O321  1  0.73357777  0.40191439  0.76630535  1
  O2-  O322  1  0.73668768  0.73571380  0.27190695  1
  O2-  O323  1  0.74027381  0.73779028  0.77021223  1
  O2-  O324  1  0.24363383  0.09393390  0.23261425  1
  O2-  O325  1  0.23596703  0.09555395  0.73253683  1
  O2-  O326  1  0.23700667  0.42832655  0.22943431  1
  O2-  O327  1  0.23593683  0.42584665  0.72697746  1
  O2-  O328  1  0.23737185  0.76154600  0.23008785  1
  O2-  O329  1  0.23773410  0.75874353  0.72911756  1
  O2-  O330  1  0.57172766  0.09749955  0.23174372  1
  O2-  O331  1  0.57558753  0.09534061  0.73067786  1
  O2-  O332  1  0.57200868  0.42439569  0.22647651  1
  O2-  O333  1  0.56962146  0.42813546  0.72917999  1
  O2-  O334  1  0.57283921  0.75888093  0.22608940  1
  O2-  O335  1  0.57479190  0.75896574  0.73194904  1
  O2-  O336  1  0.90169920  0.10064207  0.23530623  1
  O2-  O337  1  0.90417875  0.09512292  0.72978728  1
  O2-  O338  1  0.90295094  0.42686683  0.23040281  1
  O2-  O339  1  0.90240085  0.43135645  0.72890278  1
  O2-  O340  1  0.90089153  0.76346772  0.23387584  1
  O2-  O341  1  0.90518801  0.76394959  0.72860832  1
  O2-  O342  1  0.26313354  0.26118503  0.01578102  1
  O2-  O343  1  0.25940392  0.26296017  0.52203376  1
  O2-  O344  1  0.26294368  0.59387970  0.01892004  1
  O2-  O345  1  0.26024633  0.59400530  0.52293746  1
  O2-  O346  1  0.26326780  0.92684616  0.02230105  1
  O2-  O347  1  0.25908768  0.92603764  0.51629337  1
  O2-  O348  1  0.59753155  0.26072101  0.02158679  1
  O2-  O349  1  0.59412145  0.25783895  0.52277713  1
  O2-  O350  1  0.59654146  0.59250057  0.02123351  1
  O2-  O351  1  0.59418891  0.59150423  0.52166353  1
  O2-  O352  1  0.59094526  0.92376921  0.01840017  1
  O2-  O353  1  0.59828682  0.92908941  0.51738932  1
  O2-  O354  1  0.92956693  0.26580722  0.01151433  1
  O2-  O355  1  0.92958313  0.26587978  0.52358358  1
  O2-  O356  1  0.92498777  0.59109304  0.01907265  1
  O2-  O357  1  0.92916321  0.59654106  0.51985997  1
  O2-  O358  1  0.92725212  0.92681894  0.01478346  1
  O2-  O359  1  0.92906976  0.93109324  0.52331741  1
