# generated using pymatgen
data_Sr7Ca15Pr50Mn72O216
_symmetry_space_group_name_H-M   'P 1'
_cell_length_a   16.55999152
_cell_length_b   16.60305888
_cell_length_c   15.59354273
_cell_angle_alpha   89.99911944
_cell_angle_beta   90.00405724
_cell_angle_gamma   89.99517847
_symmetry_Int_Tables_number   1
_chemical_formula_structural   Sr7Ca15Pr50Mn72O216
_chemical_formula_sum   'Sr7 Ca15 Pr50 Mn72 O216'
_cell_volume   4287.39019242
_cell_formula_units_Z   1
loop_
 _symmetry_equiv_pos_site_id
 _symmetry_equiv_pos_as_xyz
  1  'x, y, z'
loop_
 _atom_type_symbol
 _atom_type_oxidation_number
  Sr2+  2.0
  Ca2+  2.0
  Pr3+  3.0
  Mn3.30+  3.3
  O2-  -2.0
loop_
 _atom_site_type_symbol
 _atom_site_label
 _atom_site_symmetry_multiplicity
 _atom_site_fract_x
 _atom_site_fract_y
 _atom_site_fract_z
 _atom_site_occupancy
  Sr2+  Sr0  1  0.83468921  0.82516767  0.37381829  1
  Sr2+  Sr1  1  -0.00272759  0.67701551  0.12554008  1
  Sr2+  Sr2  1  0.16564483  0.84028997  0.62528945  1
  Sr2+  Sr3  1  1.00185270  0.32395474  0.37463551  1
  Sr2+  Sr4  1  0.16784827  0.50831200  0.12573094  1
  Sr2+  Sr5  1  1.00014265  0.65990048  0.37711882  1
  Sr2+  Sr6  1  0.33658076  0.32445885  0.87710427  1
  Ca2+  Ca7  1  0.66463705  0.34795940  0.12392745  1
  Ca2+  Ca8  1  0.82638283  0.15011046  0.87561593  1
  Ca2+  Ca9  1  0.49679411  0.82006218  0.87263648  1
  Ca2+  Ca10  1  0.16827942  0.17841919  0.62524883  1
  Ca2+  Ca11  1  0.67053424  0.98291747  0.87542304  1
  Ca2+  Ca12  1  1.00138816  0.98417832  0.37557792  1
  Ca2+  Ca13  1  0.50318949  0.84824025  0.62824830  1
  Ca2+  Ca14  1  0.33059269  0.68355557  0.62639843  1
  Ca2+  Ca15  1  0.83780578  0.84550080  0.12320526  1
  Ca2+  Ca16  1  0.67191454  0.31740387  0.87532368  1
  Ca2+  Ca17  1  0.66338455  0.34741953  0.62595949  1
  Ca2+  Ca18  1  0.67435022  0.31938061  0.37524174  1
  Ca2+  Ca19  1  -0.00428882  0.68254996  0.62425753  1
  Ca2+  Ca20  1  0.82881219  0.81909378  0.87647937  1
  Ca2+  Ca21  1  0.33051566  0.34921777  0.12298848  1
  Pr3+  Pr22  1  0.16505268  0.48650691  0.87534084  1
  Pr3+  Pr23  1  0.83126432  0.48745185  0.37461181  1
  Pr3+  Pr24  1  -0.00150181  0.34441422  0.62378797  1
  Pr3+  Pr25  1  0.17031753  0.51419969  0.62413638  1
  Pr3+  Pr26  1  0.67332756  0.65557811  0.37613207  1
  Pr3+  Pr27  1  -0.00307064  0.34718611  0.12576570  1
  Pr3+  Pr28  1  0.83567450  0.18000068  0.12308755  1
  Pr3+  Pr29  1  0.33543438  0.32181354  0.37298681  1
  Pr3+  Pr30  1  0.82876043  0.48587848  0.87534517  1
  Pr3+  Pr31  1  0.67027442  0.98725451  0.37489649  1
  Pr3+  Pr32  1  0.49870083  0.48607499  0.87448262  1
  Pr3+  Pr33  1  0.33460844  0.98714735  0.37543743  1
  Pr3+  Pr34  1  0.33218775  0.34340845  0.62670427  1
  Pr3+  Pr35  1  0.16010739  0.82142739  0.37691028  1
  Pr3+  Pr36  1  0.16423463  0.82010370  0.87303083  1
  Pr3+  Pr37  1  0.66308331  0.01072337  0.62658908  1
  Pr3+  Pr38  1  0.16125545  0.48715884  0.37460134  1
  Pr3+  Pr39  1  0.83683080  0.84564071  0.62707523  1
  Pr3+  Pr40  1  0.83643716  0.51372119  0.62500898  1
  Pr3+  Pr41  1  0.50365039  0.51244426  0.62609102  1
  Pr3+  Pr42  1  0.66724658  0.01121472  0.12381374  1
  Pr3+  Pr43  1  0.83309239  0.15516435  0.37502264  1
  Pr3+  Pr44  1  0.33838677  0.98596779  0.87396242  1
  Pr3+  Pr45  1  -0.00611703  0.00801402  0.12590665  1
  Pr3+  Pr46  1  0.66775591  0.65599384  0.87426645  1
  Pr3+  Pr47  1  0.83693323  0.51166593  0.12483950  1
  Pr3+  Pr48  1  1.00062743  0.65566085  0.87294577  1
  Pr3+  Pr49  1  0.50060598  0.48717859  0.37547720  1
  Pr3+  Pr50  1  0.49981652  0.15506977  0.37469112  1
  Pr3+  Pr51  1  0.66243838  0.68349127  0.62638567  1
  Pr3+  Pr52  1  0.32953203  0.01282239  0.62555943  1
  Pr3+  Pr53  1  0.50416783  0.18333009  0.12426262  1
  Pr3+  Pr54  1  0.16970000  0.18086752  0.12412539  1
  Pr3+  Pr55  1  0.16570488  0.84250911  0.12477624  1
  Pr3+  Pr56  1  0.49899573  0.15649168  0.87478950  1
  Pr3+  Pr57  1  0.50557210  0.18138101  0.62526286  1
  Pr3+  Pr58  1  0.99825335  0.98647999  0.87440440  1
  Pr3+  Pr59  1  0.83405143  0.17959424  0.62710269  1
  Pr3+  Pr60  1  0.49811643  0.82119427  0.37615194  1
  Pr3+  Pr61  1  1.00246792  0.31930570  0.87517784  1
  Pr3+  Pr62  1  0.33393373  0.65463989  0.37800085  1
  Pr3+  Pr63  1  0.15864092  0.15165989  0.37669397  1
  Pr3+  Pr64  1  0.16543012  0.15446377  0.87277742  1
  Pr3+  Pr65  1  0.32956535  0.01240496  0.12395111  1
  Pr3+  Pr66  1  0.32790099  0.67730883  0.12453879  1
  Pr3+  Pr67  1  -0.00260116  0.01105325  0.62456598  1
  Pr3+  Pr68  1  0.33639837  0.65535823  0.87242936  1
  Pr3+  Pr69  1  0.66582941  0.67991671  0.12407893  1
  Pr3+  Pr70  1  0.50323200  0.84628833  0.12274465  1
  Pr3+  Pr71  1  0.50123990  0.51074192  0.12383560  1
  Mn3.30+  Mn72  1  0.16542472  -0.00074521  -0.00151526  1
  Mn3.30+  Mn73  1  0.16513628  -0.00025237  0.50198363  1
  Mn3.30+  Mn74  1  0.16834635  0.33285964  -0.00067767  1
  Mn3.30+  Mn75  1  0.16710971  0.33125984  0.50161740  1
  Mn3.30+  Mn76  1  0.16618682  0.66595934  -0.00039086  1
  Mn3.30+  Mn77  1  0.16739557  0.66784386  0.50319776  1
  Mn3.30+  Mn78  1  0.50216112  0.00017380  -0.00228034  1
  Mn3.30+  Mn79  1  0.49917594  -0.00057055  0.50095132  1
  Mn3.30+  Mn80  1  0.50337570  0.33389311  0.00131486  1
  Mn3.30+  Mn81  1  0.50405589  0.33334134  0.49783662  1
  Mn3.30+  Mn82  1  0.49955865  0.66804866  -0.00093714  1
  Mn3.30+  Mn83  1  0.49985946  0.66839157  0.50233384  1
  Mn3.30+  Mn84  1  0.83020877  -0.00167413  -0.00211951  1
  Mn3.30+  Mn85  1  0.83310438  0.00030035  0.49976147  1
  Mn3.30+  Mn86  1  0.83032988  0.33106550  -0.00137696  1
  Mn3.30+  Mn87  1  0.83085663  0.33321259  0.50101278  1
  Mn3.30+  Mn88  1  0.83315296  0.66847367  -0.00056932  1
  Mn3.30+  Mn89  1  0.83452154  0.66795041  0.50096163  1
  Mn3.30+  Mn90  1  0.00021285  0.16535074  0.24982637  1
  Mn3.30+  Mn91  1  -0.00225060  0.16549282  0.75050356  1
  Mn3.30+  Mn92  1  -0.00004757  0.50168008  0.25084895  1
  Mn3.30+  Mn93  1  -0.00040651  0.50048622  0.74896693  1
  Mn3.30+  Mn94  1  -0.00148833  0.83297719  0.24978609  1
  Mn3.30+  Mn95  1  -0.00248661  0.83265123  0.75062863  1
  Mn3.30+  Mn96  1  0.33290567  0.16805404  0.24916398  1
  Mn3.30+  Mn97  1  0.33347891  0.16735554  0.74982645  1
  Mn3.30+  Mn98  1  0.33323777  0.49928561  0.25094331  1
  Mn3.30+  Mn99  1  0.33484672  0.50063550  0.74828630  1
  Mn3.30+  Mn100  1  0.33272571  0.83299116  0.25044593  1
  Mn3.30+  Mn101  1  0.33580013  0.83318380  0.74766834  1
  Mn3.30+  Mn102  1  0.66718495  0.16960327  0.24889102  1
  Mn3.30+  Mn103  1  0.66838679  0.16682453  0.75243193  1
  Mn3.30+  Mn104  1  0.66717264  0.49809728  0.24945059  1
  Mn3.30+  Mn105  1  0.66726362  0.49783677  0.74990342  1
  Mn3.30+  Mn106  1  0.66859019  0.83357090  0.24764744  1
  Mn3.30+  Mn107  1  0.66547922  0.83486796  0.75362634  1
  Mn3.30+  Mn108  1  0.16384845  -0.00056936  0.24939553  1
  Mn3.30+  Mn109  1  0.16659235  -0.00030890  0.74939583  1
  Mn3.30+  Mn110  1  0.16857879  0.33301956  0.24905522  1
  Mn3.30+  Mn111  1  0.16691354  0.33115005  0.74951648  1
  Mn3.30+  Mn112  1  0.16586002  0.66632867  0.24974071  1
  Mn3.30+  Mn113  1  0.16733512  0.66698901  0.74769118  1
  Mn3.30+  Mn114  1  0.49983657  0.00083106  0.24865182  1
  Mn3.30+  Mn115  1  0.50156616  -0.00130253  0.75167571  1
  Mn3.30+  Mn116  1  0.50345574  0.33431382  0.25007482  1
  Mn3.30+  Mn117  1  0.50420980  0.33288793  0.75099760  1
  Mn3.30+  Mn118  1  0.50031845  0.66631667  0.25055820  1
  Mn3.30+  Mn119  1  0.49915078  0.67032015  0.74797323  1
  Mn3.30+  Mn120  1  0.83393122  -0.00113587  0.25028973  1
  Mn3.30+  Mn121  1  0.82921799  -0.00009454  0.75306351  1
  Mn3.30+  Mn122  1  0.83088518  0.33287743  0.24989932  1
  Mn3.30+  Mn123  1  0.83038456  0.33155899  0.75052761  1
  Mn3.30+  Mn124  1  0.83416117  0.66824583  0.25017162  1
  Mn3.30+  Mn125  1  0.83323003  0.66787116  0.75019549  1
  Mn3.30+  Mn126  1  -0.00225072  0.16481552  -0.00185025  1
  Mn3.30+  Mn127  1  0.00064510  0.16599741  0.50144434  1
  Mn3.30+  Mn128  1  -0.00137263  0.50053547  -0.00096661  1
  Mn3.30+  Mn129  1  0.00083154  0.50168188  0.50101361  1
  Mn3.30+  Mn130  1  -0.00404912  0.83225957  -0.00153441  1
  Mn3.30+  Mn131  1  -0.00008084  0.83372614  0.50123775  1
  Mn3.30+  Mn132  1  0.33458185  0.16814772  0.00010489  1
  Mn3.30+  Mn133  1  0.33167352  0.16705879  0.49968571  1
  Mn3.30+  Mn134  1  0.33386357  0.49930605  -0.00009438  1
  Mn3.30+  Mn135  1  0.33414908  0.50038695  0.50097213  1
  Mn3.30+  Mn136  1  0.33512267  0.83308122  -0.00142845  1
  Mn3.30+  Mn137  1  0.33356248  0.83305819  0.50277862  1
  Mn3.30+  Mn138  1  0.66814173  0.16726741  -0.00118311  1
  Mn3.30+  Mn139  1  0.66723122  0.16903092  0.50017864  1
  Mn3.30+  Mn140  1  0.66699652  0.49791671  -0.00000747  1
  Mn3.30+  Mn141  1  0.66748418  0.49825837  0.50103800  1
  Mn3.30+  Mn142  1  0.66813618  0.83429680  -0.00215212  1
  Mn3.30+  Mn143  1  0.66578768  0.83413926  0.50125964  1
  O2-  O144  1  0.02560156  0.15745323  0.12244823  1
  O2-  O145  1  0.02595270  0.15890037  0.62577443  1
  O2-  O146  1  0.01622985  0.49542481  0.12253264  1
  O2-  O147  1  0.02564539  0.49129788  0.62580223  1
  O2-  O148  1  0.02237070  0.83619712  0.12100697  1
  O2-  O149  1  0.01593690  0.83170963  0.62814677  1
  O2-  O150  1  0.35937657  0.15728280  0.12388640  1
  O2-  O151  1  0.36057034  0.16189173  0.62324831  1
  O2-  O152  1  0.35714216  0.49787908  0.12551458  1
  O2-  O153  1  0.36048355  0.49049928  0.62364285  1
  O2-  O154  1  0.35939297  0.82648234  0.12374814  1
  O2-  O155  1  0.36187637  0.82998005  0.62461782  1
  O2-  O156  1  0.69318644  0.15776512  0.12463176  1
  O2-  O157  1  0.69123273  0.15640118  0.62748865  1
  O2-  O158  1  0.69304289  0.49404112  0.12441313  1
  O2-  O159  1  0.69199514  0.49284435  0.62541317  1
  O2-  O160  1  0.69382521  0.82864584  0.12378724  1
  O2-  O161  1  0.69221083  0.83248183  0.62870872  1
  O2-  O162  1  0.14147904  0.32877259  0.12209724  1
  O2-  O163  1  0.14291908  0.32630310  0.62638636  1
  O2-  O164  1  0.14918113  0.66758428  0.12274576  1
  O2-  O165  1  0.13833542  0.66085028  0.62714377  1
  O2-  O166  1  0.13926817  0.99232822  0.12275273  1
  O2-  O167  1  0.14103814  0.99478762  0.62804792  1
  O2-  O168  1  0.47296335  0.33128702  0.12695590  1
  O2-  O169  1  0.47609360  0.32910556  0.62202565  1
  O2-  O170  1  0.47181604  0.66027016  0.12343341  1
  O2-  O171  1  0.47192913  0.65823213  0.62380825  1
  O2-  O172  1  0.47371886  0.99449676  0.12380014  1
  O2-  O173  1  0.47476364  0.99531559  0.62602663  1
  O2-  O174  1  0.80690220  0.32826116  0.12343162  1
  O2-  O175  1  0.80461098  0.32730323  0.62645057  1
  O2-  O176  1  0.80852951  0.65773143  0.12344707  1
  O2-  O177  1  0.80661764  0.66216133  0.62654653  1
  O2-  O178  1  0.81069002  0.99281635  0.12379655  1
  O2-  O179  1  0.80694031  0.99428942  0.62792224  1
  O2-  O180  1  0.30464548  0.17332315  0.37499715  1
  O2-  O181  1  0.31002296  0.16923430  0.87652453  1
  O2-  O182  1  0.30625300  0.50575077  0.37886824  1
  O2-  O183  1  0.30964304  0.50654502  0.87186417  1
  O2-  O184  1  0.30575099  0.83909517  0.37606904  1
  O2-  O185  1  0.30821053  0.83837254  0.87507006  1
  O2-  O186  1  0.64259764  0.17399369  0.37249095  1
  O2-  O187  1  0.64075130  0.17625198  0.87578449  1
  O2-  O188  1  0.64278759  0.51055809  0.37561090  1
  O2-  O189  1  0.64154951  0.50887815  0.87508963  1
  O2-  O190  1  0.64187350  0.83704200  0.37272101  1
  O2-  O191  1  0.63761841  0.83573553  0.87599392  1
  O2-  O192  1  0.97680294  0.17156267  0.37652437  1
  O2-  O193  1  0.96944464  0.17307413  0.87515206  1
  O2-  O194  1  0.97738643  0.50144594  0.37845716  1
  O2-  O195  1  0.97361103  0.50515331  0.87314603  1
  O2-  O196  1  0.98423191  0.83748537  0.37671563  1
  O2-  O197  1  0.97202196  0.83702379  0.87440525  1
  O2-  O198  1  0.19161417  0.00503599  0.37448909  1
  O2-  O199  1  0.19362529  0.00612468  0.87386168  1
  O2-  O200  1  0.19074589  0.33719815  0.37684767  1
  O2-  O201  1  0.18597163  0.33652589  0.87440132  1
  O2-  O202  1  0.19031318  0.67307376  0.37688877  1
  O2-  O203  1  0.19152538  0.67033141  0.87337044  1
  O2-  O204  1  0.52505827  0.00587362  0.37323967  1
  O2-  O205  1  0.52783252  0.01026468  0.87581360  1
  O2-  O206  1  0.53246399  0.33911217  0.37440449  1
  O2-  O207  1  0.52872127  0.33796004  0.87677765  1
  O2-  O208  1  0.52908290  0.67335770  0.37779397  1
  O2-  O209  1  0.52434483  0.67304150  0.87489304  1
  O2-  O210  1  0.85815008  0.00770222  0.37434145  1
  O2-  O211  1  0.85701710  0.00906789  0.87489973  1
  O2-  O212  1  0.85334546  0.33729460  0.37586631  1
  O2-  O213  1  0.86072691  0.33965468  0.87434125  1
  O2-  O214  1  0.84834630  0.66725105  0.37652831  1
  O2-  O215  1  0.85588705  0.67111368  0.87440412  1
  O2-  O216  1  0.23740387  0.09276797  0.02026652  1
  O2-  O217  1  0.23539416  0.09428084  0.52116573  1
  O2-  O218  1  0.24185528  0.42813731  0.01244566  1
  O2-  O219  1  0.23987469  0.42609170  0.52215115  1
  O2-  O220  1  0.24005857  0.76284814  0.01760631  1
  O2-  O221  1  0.24238617  0.75995728  0.51748307  1
  O2-  O222  1  0.57227487  0.09708424  0.02190619  1
  O2-  O223  1  0.57151663  0.09571996  0.51814270  1
  O2-  O224  1  0.57236242  0.43009927  0.01998475  1
  O2-  O225  1  0.56977728  0.43139987  0.51802526  1
  O2-  O226  1  0.57268341  0.75980435  0.02375707  1
  O2-  O227  1  0.56991915  0.76357147  0.52340341  1
  O2-  O228  1  0.90515127  0.09233825  0.02234967  1
  O2-  O229  1  0.90455876  0.09461305  0.52242861  1
  O2-  O230  1  0.90421924  0.42620096  0.01847601  1
  O2-  O231  1  0.90387599  0.42584647  0.52160225  1
  O2-  O232  1  0.90193919  0.76243973  0.01833854  1
  O2-  O233  1  0.90438438  0.76086812  0.51947597  1
  O2-  O234  1  0.26455565  0.26227519  0.22703337  1
  O2-  O235  1  0.26258741  0.25959644  0.73052933  1
  O2-  O236  1  0.26355715  0.59800909  0.23601304  1
  O2-  O237  1  0.26157434  0.59501041  0.72662374  1
  O2-  O238  1  0.26030703  0.92889778  0.22816503  1
  O2-  O239  1  0.26647722  0.92917029  0.73335190  1
  O2-  O240  1  0.59575820  0.26236642  0.22407999  1
  O2-  O241  1  0.59711159  0.26111528  0.72696765  1
  O2-  O242  1  0.59426205  0.59417137  0.22791019  1
  O2-  O243  1  0.59298542  0.59625304  0.72931251  1
  O2-  O244  1  0.59395782  0.92638181  0.22837517  1
  O2-  O245  1  0.59587525  0.92950517  0.73119846  1
  O2-  O246  1  0.92752826  0.25942901  0.22673208  1
  O2-  O247  1  0.92818230  0.26204453  0.72738558  1
  O2-  O248  1  0.92142724  0.59126544  0.23335618  1
  O2-  O249  1  0.93041423  0.59432749  0.72897343  1
  O2-  O250  1  0.92759847  0.92790778  0.23338305  1
  O2-  O251  1  0.92603414  0.93010369  0.73187547  1
  O2-  O252  1  0.09877433  0.23480608  0.26408389  1
  O2-  O253  1  0.09058092  0.23768256  0.77238245  1
  O2-  O254  1  0.09671137  0.57407226  0.26893207  1
  O2-  O255  1  0.09571197  0.57080838  0.77125698  1
  O2-  O256  1  0.09791362  0.90405678  0.26571732  1
  O2-  O257  1  0.09230127  0.90741230  0.77397942  1
  O2-  O258  1  0.43276018  0.24148092  0.27248665  1
  O2-  O259  1  0.43320763  0.23804103  0.76531837  1
  O2-  O260  1  0.42823741  0.57255862  0.27288388  1
  O2-  O261  1  0.42897995  0.57330464  0.77069026  1
  O2-  O262  1  0.42575878  0.90446553  0.27009493  1
  O2-  O263  1  0.42926355  0.90689607  0.77421243  1
  O2-  O264  1  0.76452735  0.23651277  0.26757965  1
  O2-  O265  1  0.76593653  0.23254423  0.76954948  1
  O2-  O266  1  0.75960186  0.57063609  0.26877015  1
  O2-  O267  1  0.76157806  0.57106528  0.76908339  1
  O2-  O268  1  0.75635414  0.91103158  0.26986253  1
  O2-  O269  1  0.76320115  0.90154332  0.77146169  1
  O2-  O270  1  0.06931456  0.06988364  0.47910428  1
  O2-  O271  1  0.07023569  0.07312984  0.97520585  1
  O2-  O272  1  0.07671447  0.40587615  0.48439154  1
  O2-  O273  1  0.07089987  0.40618839  0.97980113  1
  O2-  O274  1  0.07658517  0.74281459  0.48541754  1
  O2-  O275  1  0.07218042  0.74121642  0.97657251  1
  O2-  O276  1  0.40406654  0.07332846  0.47843136  1
  O2-  O277  1  0.40531772  0.07227823  0.97929451  1
  O2-  O278  1  0.40801936  0.40449738  0.47675779  1
  O2-  O279  1  0.41205857  0.41074560  0.98170457  1
  O2-  O280  1  0.40766341  0.74132037  0.47521577  1
  O2-  O281  1  0.40365884  0.73729228  0.98061182  1
  O2-  O282  1  0.73784790  0.07398079  0.47889701  1
  O2-  O283  1  0.73397387  0.06699518  0.98277377  1
  O2-  O284  1  0.73832516  0.40671161  0.47695790  1
  O2-  O285  1  0.74013405  0.40334069  0.97588278  1
  O2-  O286  1  0.73452994  0.73685599  0.48717612  1
  O2-  O287  1  0.73434044  0.73543098  0.98178278  1
  O2-  O288  1  0.09693235  0.23624896  0.48410791  1
  O2-  O289  1  0.09348976  0.23642192  0.97952329  1
  O2-  O290  1  0.09987198  0.57049990  0.48421778  1
  O2-  O291  1  0.09155787  0.57296861  0.97574182  1
  O2-  O292  1  0.09512779  0.90722774  0.48261575  1
  O2-  O293  1  0.09458519  0.90542381  0.97691019  1
  O2-  O294  1  0.43094383  0.24032797  0.47692247  1
  O2-  O295  1  0.43403196  0.23794249  0.98393282  1
  O2-  O296  1  0.42950059  0.57337100  0.47746875  1
  O2-  O297  1  0.42854640  0.57366298  0.97763298  1
  O2-  O298  1  0.42600156  0.90738693  0.47589956  1
  O2-  O299  1  0.42882879  0.90400776  0.97818450  1
  O2-  O300  1  0.76456196  0.23625813  0.48261747  1
  O2-  O301  1  0.76611203  0.23283138  0.98116427  1
  O2-  O302  1  0.76185483  0.57027888  0.48292293  1
  O2-  O303  1  0.75933120  0.57103161  0.97976500  1
  O2-  O304  1  0.75786114  0.90871048  0.48229616  1
  O2-  O305  1  0.76172942  0.90292859  0.97714467  1
  O2-  O306  1  0.06971077  0.06870647  0.27130956  1
  O2-  O307  1  0.06977282  0.07299349  0.77304176  1
  O2-  O308  1  0.07606042  0.40709286  0.26490944  1
  O2-  O309  1  0.07094193  0.40559728  0.77002314  1
  O2-  O310  1  0.07680984  0.74262010  0.26613088  1
  O2-  O311  1  0.07368332  0.73985952  0.77196626  1
  O2-  O312  1  0.40350958  0.07389488  0.27071310  1
  O2-  O313  1  0.40540862  0.07225825  0.76994082  1
  O2-  O314  1  0.41020758  0.40705470  0.27492684  1
  O2-  O315  1  0.41064603  0.40712964  0.76728440  1
  O2-  O316  1  0.40597865  0.73801015  0.27264307  1
  O2-  O317  1  0.40504140  0.73931716  0.76996869  1
  O2-  O318  1  0.73867734  0.07370867  0.26999450  1
  O2-  O319  1  0.73350439  0.06776526  0.77046820  1
  O2-  O320  1  0.73772640  0.40644876  0.27279626  1
  O2-  O321  1  0.74048339  0.40323880  0.77457358  1
  O2-  O322  1  0.73462035  0.73556936  0.26451350  1
  O2-  O323  1  0.73298833  0.73751990  0.76765928  1
  O2-  O324  1  0.23406824  0.09246508  0.22782446  1
  O2-  O325  1  0.23773369  0.09453936  0.72921749  1
  O2-  O326  1  0.24283743  0.42651588  0.23643073  1
  O2-  O327  1  0.24047770  0.42802231  0.72998810  1
  O2-  O328  1  0.24021659  0.76182986  0.22993329  1
  O2-  O329  1  0.24047184  0.76101764  0.73556090  1
  O2-  O330  1  0.57346640  0.09668869  0.22938103  1
  O2-  O331  1  0.57046334  0.09581140  0.72946572  1
  O2-  O332  1  0.57000854  0.43152285  0.23105787  1
  O2-  O333  1  0.57149446  0.43000356  0.73178985  1
  O2-  O334  1  0.57096657  0.76163107  0.22798538  1
  O2-  O335  1  0.57103175  0.76206856  0.72626520  1
  O2-  O336  1  0.90403490  0.09400977  0.22832290  1
  O2-  O337  1  0.90558233  0.09286503  0.72729394  1
  O2-  O338  1  0.90312076  0.42473926  0.23124814  1
  O2-  O339  1  0.90455992  0.42753706  0.72878473  1
  O2-  O340  1  0.90361189  0.76177020  0.23121709  1
  O2-  O341  1  0.90305960  0.76021853  0.73159945  1
  O2-  O342  1  0.26196855  0.25875758  0.02337904  1
  O2-  O343  1  0.26520997  0.26356773  0.51855705  1
  O2-  O344  1  0.26456708  0.59596433  0.01454144  1
  O2-  O345  1  0.26230399  0.59622695  0.52375660  1
  O2-  O346  1  0.26291120  0.92620388  0.02011783  1
  O2-  O347  1  0.26410382  0.93115628  0.51750513  1
  O2-  O348  1  0.59685380  0.26180705  0.02494510  1
  O2-  O349  1  0.59638372  0.26118416  0.52364565  1
  O2-  O350  1  0.59220839  0.59503866  0.02096112  1
  O2-  O351  1  0.59542056  0.59518573  0.52271485  1
  O2-  O352  1  0.59510304  0.92643530  0.02345596  1
  O2-  O353  1  0.59479150  0.92980127  0.51609321  1
  O2-  O354  1  0.92952327  0.26163654  0.02198946  1
  O2-  O355  1  0.92689390  0.25931340  0.52380793  1
  O2-  O356  1  0.92404385  0.59264758  0.01466160  1
  O2-  O357  1  0.92605654  0.59461683  0.52441876  1
  O2-  O358  1  0.92920225  0.93058240  0.01447348  1
  O2-  O359  1  0.92530438  0.92680125  0.52114920  1
