# generated using pymatgen
data_Sr7Ca15Pr50Mn72O216
_symmetry_space_group_name_H-M   'P 1'
_cell_length_a   16.55967161
_cell_length_b   16.60399936
_cell_length_c   15.59427064
_cell_angle_alpha   89.99456282
_cell_angle_beta   89.99905955
_cell_angle_gamma   89.99699010
_symmetry_Int_Tables_number   1
_chemical_formula_structural   Sr7Ca15Pr50Mn72O216
_chemical_formula_sum   'Sr7 Ca15 Pr50 Mn72 O216'
_cell_volume   4287.75036569
_cell_formula_units_Z   1
loop_
 _symmetry_equiv_pos_site_id
 _symmetry_equiv_pos_as_xyz
  1  'x, y, z'
loop_
 _atom_type_symbol
 _atom_type_oxidation_number
  Sr2+  2.0
  Ca2+  2.0
  Pr3+  3.0
  Mn3.30+  3.3
  O2-  -2.0
loop_
 _atom_site_type_symbol
 _atom_site_label
 _atom_site_symmetry_multiplicity
 _atom_site_fract_x
 _atom_site_fract_y
 _atom_site_fract_z
 _atom_site_occupancy
  Sr2+  Sr0  1  0.83361311  0.48948695  0.37407392  1
  Sr2+  Sr1  1  0.49800910  0.82300126  0.37448901  1
  Sr2+  Sr2  1  0.49625653  0.48662669  0.87493796  1
  Sr2+  Sr3  1  0.16902012  0.84560557  0.62522918  1
  Sr2+  Sr4  1  0.16573174  0.17374754  0.62540662  1
  Sr2+  Sr5  1  0.99898456  0.32560783  0.87480701  1
  Sr2+  Sr6  1  0.66595963  0.00917178  0.62467654  1
  Ca2+  Ca7  1  0.50300968  0.84585039  0.12661597  1
  Ca2+  Ca8  1  0.33516271  0.31990301  0.87368979  1
  Ca2+  Ca9  1  0.66980060  0.98527617  0.87367725  1
  Ca2+  Ca10  1  -0.00265008  0.01507659  0.62446059  1
  Ca2+  Ca11  1  0.15892728  0.48325796  0.37657090  1
  Ca2+  Ca12  1  0.66841685  0.98553410  0.37668486  1
  Ca2+  Ca13  1  0.33545442  0.65333176  0.37590506  1
  Ca2+  Ca14  1  0.32876503  0.01431118  0.62372468  1
  Ca2+  Ca15  1  -0.00012719  0.34763242  0.62388949  1
  Ca2+  Ca16  1  0.16760067  0.51075866  0.62330249  1
  Ca2+  Ca17  1  0.83190194  0.48480645  0.87643068  1
  Ca2+  Ca18  1  1.00399573  0.32201189  0.37676869  1
  Ca2+  Ca19  1  0.83756855  0.51249443  0.12377687  1
  Ca2+  Ca20  1  0.33173610  0.68075198  0.12686201  1
  Ca2+  Ca21  1  -0.00484573  0.35131443  0.12578903  1
  Pr3+  Pr22  1  0.67206846  0.32179102  0.37509900  1
  Pr3+  Pr23  1  0.82811596  0.82159420  0.37561889  1
  Pr3+  Pr24  1  0.83248350  0.15488119  0.37518480  1
  Pr3+  Pr25  1  0.49905341  0.15652495  0.87439225  1
  Pr3+  Pr26  1  0.33566083  0.98987554  0.87245623  1
  Pr3+  Pr27  1  0.83533077  0.84652430  0.12584637  1
  Pr3+  Pr28  1  0.84121582  0.18009141  0.62499186  1
  Pr3+  Pr29  1  0.16649758  0.81856091  0.37619291  1
  Pr3+  Pr30  1  1.00452779  0.64984039  0.37443489  1
  Pr3+  Pr31  1  0.67180525  0.32219140  0.87438354  1
  Pr3+  Pr32  1  0.50053426  0.51204212  0.62550965  1
  Pr3+  Pr33  1  0.33612267  0.65392720  0.87521273  1
  Pr3+  Pr34  1  0.16738765  0.18200378  0.12501158  1
  Pr3+  Pr35  1  0.83812939  0.51024561  0.62554147  1
  Pr3+  Pr36  1  0.66213501  0.01052627  0.12520232  1
  Pr3+  Pr37  1  0.16361715  0.48583182  0.87350890  1
  Pr3+  Pr38  1  0.50110033  0.17706874  0.62433481  1
  Pr3+  Pr39  1  1.00413773  0.98970322  0.87270414  1
  Pr3+  Pr40  1  0.50425215  0.18047872  0.12572682  1
  Pr3+  Pr41  1  0.83841899  0.18218952  0.12484753  1
  Pr3+  Pr42  1  0.67105459  0.64982899  0.87534265  1
  Pr3+  Pr43  1  0.00001200  0.67686752  0.62361019  1
  Pr3+  Pr44  1  0.32803072  0.67800108  0.62464293  1
  Pr3+  Pr45  1  0.32495096  0.34598500  0.62620892  1
  Pr3+  Pr46  1  0.50094020  0.84683829  0.62397918  1
  Pr3+  Pr47  1  0.49528057  0.49133306  0.37509834  1
  Pr3+  Pr48  1  0.66570326  0.34839202  0.12545716  1
  Pr3+  Pr49  1  0.82973284  0.15306896  0.87481255  1
  Pr3+  Pr50  1  0.17036263  0.84390359  0.12527360  1
  Pr3+  Pr51  1  0.66372794  0.67765547  0.62387600  1
  Pr3+  Pr52  1  0.33199486  0.32204780  0.37514418  1
  Pr3+  Pr53  1  -0.00406130  0.01403430  0.12536966  1
  Pr3+  Pr54  1  0.33606706  0.98741234  0.37758847  1
  Pr3+  Pr55  1  0.16287281  0.15548338  0.37649310  1
  Pr3+  Pr56  1  0.16415476  0.82006805  0.87403226  1
  Pr3+  Pr57  1  0.32984228  0.34714501  0.12384119  1
  Pr3+  Pr58  1  0.66762870  0.65429409  0.37512555  1
  Pr3+  Pr59  1  0.66306212  0.67917048  0.12658410  1
  Pr3+  Pr60  1  1.00198694  0.65223607  0.87530288  1
  Pr3+  Pr61  1  -0.00389666  0.67680364  0.12631229  1
  Pr3+  Pr62  1  0.50009461  0.82298325  0.87479913  1
  Pr3+  Pr63  1  0.50057015  0.51406513  0.12447843  1
  Pr3+  Pr64  1  0.49906815  0.15247069  0.37546234  1
  Pr3+  Pr65  1  1.00405370  0.98778287  0.37715322  1
  Pr3+  Pr66  1  0.82871406  0.82190037  0.87459762  1
  Pr3+  Pr67  1  0.16854930  0.51361386  0.12512680  1
  Pr3+  Pr68  1  0.83931026  0.85075079  0.62422552  1
  Pr3+  Pr69  1  0.16558362  0.15742349  0.87349133  1
  Pr3+  Pr70  1  0.33410822  0.01076598  0.12589133  1
  Pr3+  Pr71  1  0.66558720  0.34406175  0.62447050  1
  Mn3.30+  Mn72  1  0.16706002  0.00058145  0.00053013  1
  Mn3.30+  Mn73  1  0.16759566  -0.00020794  0.50261038  1
  Mn3.30+  Mn74  1  0.16525256  0.33464462  -0.00025346  1
  Mn3.30+  Mn75  1  0.16347428  0.33417999  0.50153597  1
  Mn3.30+  Mn76  1  0.16806005  0.66665478  0.00123946  1
  Mn3.30+  Mn77  1  0.16830626  0.66305808  0.49859018  1
  Mn3.30+  Mn78  1  0.50205128  -0.00068656  -0.00134086  1
  Mn3.30+  Mn79  1  0.50017979  -0.00076369  0.50068512  1
  Mn3.30+  Mn80  1  0.49902047  0.33400703  -0.00136436  1
  Mn3.30+  Mn81  1  0.49878251  0.33337914  0.49963992  1
  Mn3.30+  Mn82  1  0.49893336  0.66838295  0.00138604  1
  Mn3.30+  Mn83  1  0.49615217  0.66709371  0.49877571  1
  Mn3.30+  Mn84  1  0.83145659  -0.00013367  -0.00066076  1
  Mn3.30+  Mn85  1  0.83395710  0.00209219  0.49974349  1
  Mn3.30+  Mn86  1  0.83508952  0.33556642  0.00083724  1
  Mn3.30+  Mn87  1  0.83775998  0.33401478  0.49862980  1
  Mn3.30+  Mn88  1  0.83303144  0.66405409  0.00016787  1
  Mn3.30+  Mn89  1  0.83336783  0.66605803  0.50009165  1
  Mn3.30+  Mn90  1  -0.00003320  0.17087905  0.25021960  1
  Mn3.30+  Mn91  1  0.00055227  0.16867791  0.74954041  1
  Mn3.30+  Mn92  1  0.00017812  0.49685488  0.25012177  1
  Mn3.30+  Mn93  1  0.00080234  0.49814028  0.74919201  1
  Mn3.30+  Mn94  1  0.00018072  0.83253494  0.25102124  1
  Mn3.30+  Mn95  1  -0.00010378  0.83461521  0.74855019  1
  Mn3.30+  Mn96  1  0.33327891  0.16710439  0.24973567  1
  Mn3.30+  Mn97  1  0.33295910  0.16718307  0.74982519  1
  Mn3.30+  Mn98  1  0.32971750  0.50261220  0.25201931  1
  Mn3.30+  Mn99  1  0.33178416  0.49809263  0.74992361  1
  Mn3.30+  Mn100  1  0.33525002  0.83089918  0.24856603  1
  Mn3.30+  Mn101  1  0.33251028  0.83481561  0.75021708  1
  Mn3.30+  Mn102  1  0.66865373  0.16537312  0.25073891  1
  Mn3.30+  Mn103  1  0.66773396  0.16475138  0.74855079  1
  Mn3.30+  Mn104  1  0.66784591  0.50101640  0.24900469  1
  Mn3.30+  Mn105  1  0.66805643  0.49818354  0.75089726  1
  Mn3.30+  Mn106  1  0.66453691  0.83387772  0.25130391  1
  Mn3.30+  Mn107  1  0.66703148  0.83332188  0.74914426  1
  Mn3.30+  Mn108  1  0.16657540  -0.00022396  0.24963631  1
  Mn3.30+  Mn109  1  0.16797576  0.00073971  0.74750021  1
  Mn3.30+  Mn110  1  0.16285120  0.33579744  0.24964216  1
  Mn3.30+  Mn111  1  0.16543472  0.33314421  0.74905545  1
  Mn3.30+  Mn112  1  0.16969529  0.66435842  0.25153340  1
  Mn3.30+  Mn113  1  0.16673139  0.66484193  0.74895155  1
  Mn3.30+  Mn114  1  0.50091348  -0.00240835  0.25085778  1
  Mn3.30+  Mn115  1  0.50131917  0.00085838  0.74955211  1
  Mn3.30+  Mn116  1  0.49992570  0.33489117  0.25113800  1
  Mn3.30+  Mn117  1  0.49771394  0.33284811  0.74964259  1
  Mn3.30+  Mn118  1  0.49559039  0.66868975  0.24934896  1
  Mn3.30+  Mn119  1  0.49933998  0.66623722  0.75062687  1
  Mn3.30+  Mn120  1  0.83164533  0.00068028  0.25115815  1
  Mn3.30+  Mn121  1  0.83372595  0.00148954  0.74989493  1
  Mn3.30+  Mn122  1  0.83734855  0.33568693  0.25035274  1
  Mn3.30+  Mn123  1  0.83568681  0.33407021  0.74995060  1
  Mn3.30+  Mn124  1  0.83298350  0.66483875  0.24972110  1
  Mn3.30+  Mn125  1  0.83366807  0.66547036  0.75006167  1
  Mn3.30+  Mn126  1  -0.00012842  0.16986208  -0.00092562  1
  Mn3.30+  Mn127  1  0.00072833  0.16912446  0.50067833  1
  Mn3.30+  Mn128  1  -0.00202121  0.49874967  0.00026820  1
  Mn3.30+  Mn129  1  0.00305585  0.49657647  0.50024320  1
  Mn3.30+  Mn130  1  -0.00059550  0.83340640  -0.00013346  1
  Mn3.30+  Mn131  1  0.00045518  0.83384883  0.50063264  1
  Mn3.30+  Mn132  1  0.33423739  0.16798016  0.00033329  1
  Mn3.30+  Mn133  1  0.33211543  0.16624143  0.50043723  1
  Mn3.30+  Mn134  1  0.33364650  0.50022455  0.00000424  1
  Mn3.30+  Mn135  1  0.32827039  0.50030757  0.49768224  1
  Mn3.30+  Mn136  1  0.33542746  0.83317992  0.00158748  1
  Mn3.30+  Mn137  1  0.33269309  0.83282361  0.50007316  1
  Mn3.30+  Mn138  1  0.66756491  0.16558966  -0.00042398  1
  Mn3.30+  Mn139  1  0.66848097  0.16464828  0.50061723  1
  Mn3.30+  Mn140  1  0.66900383  0.49952548  0.00033902  1
  Mn3.30+  Mn141  1  0.66687652  0.49927546  0.49993460  1
  Mn3.30+  Mn142  1  0.66533112  0.83327913  0.00041627  1
  Mn3.30+  Mn143  1  0.66593714  0.83422782  0.49962003  1
  O2-  O144  1  0.02356028  0.15854572  0.12451106  1
  O2-  O145  1  0.01612823  0.15719580  0.62579936  1
  O2-  O146  1  0.02493890  0.49854207  0.12530690  1
  O2-  O147  1  0.02516456  0.49699324  0.62428534  1
  O2-  O148  1  0.02543435  0.82689056  0.12499458  1
  O2-  O149  1  0.01984436  0.82451552  0.62363414  1
  O2-  O150  1  0.36007540  0.16110091  0.12640457  1
  O2-  O151  1  0.35695496  0.16195973  0.62457878  1
  O2-  O152  1  0.35794493  0.49215827  0.12511782  1
  O2-  O153  1  0.35785524  0.49306307  0.62476176  1
  O2-  O154  1  0.36068688  0.82719708  0.12324277  1
  O2-  O155  1  0.35781879  0.82438009  0.62752224  1
  O2-  O156  1  0.69397729  0.15708111  0.12734965  1
  O2-  O157  1  0.69560123  0.16418958  0.62479079  1
  O2-  O158  1  0.69337704  0.49721500  0.12452422  1
  O2-  O159  1  0.69214589  0.49508522  0.62533302  1
  O2-  O160  1  0.69218418  0.82787768  0.12609707  1
  O2-  O161  1  0.69341996  0.82546473  0.62497019  1
  O2-  O162  1  0.13923620  0.32951189  0.12461523  1
  O2-  O163  1  0.14194130  0.32756232  0.62511211  1
  O2-  O164  1  0.13932960  0.66368617  0.12497741  1
  O2-  O165  1  0.14318207  0.65951644  0.62415044  1
  O2-  O166  1  0.13942773  0.99285939  0.12523142  1
  O2-  O167  1  0.14012058  0.99940599  0.62492128  1
  O2-  O168  1  0.47490969  0.32831715  0.12722945  1
  O2-  O169  1  0.47118114  0.32639711  0.62425348  1
  O2-  O170  1  0.47300572  0.65954403  0.12462940  1
  O2-  O171  1  0.47324478  0.66044258  0.62461739  1
  O2-  O172  1  0.47770128  0.99498074  0.12437935  1
  O2-  O173  1  0.47259263  0.99617692  0.62609599  1
  O2-  O174  1  0.80764863  0.32653644  0.12587568  1
  O2-  O175  1  0.80899626  0.32850406  0.62434809  1
  O2-  O176  1  0.80882508  0.66029116  0.12653140  1
  O2-  O177  1  0.80822006  0.65869022  0.62597503  1
  O2-  O178  1  0.80710860  0.99605286  0.12571536  1
  O2-  O179  1  0.81507269  1.00020109  0.62515511  1
  O2-  O180  1  0.30791893  0.17165947  0.37231817  1
  O2-  O181  1  0.31056669  0.17184587  0.87750638  1
  O2-  O182  1  0.30218200  0.50818539  0.37398115  1
  O2-  O183  1  0.30785364  0.50744372  0.87592953  1
  O2-  O184  1  0.30851935  0.84178311  0.37283033  1
  O2-  O185  1  0.30730967  0.84143832  0.87589944  1
  O2-  O186  1  0.64241410  0.17607687  0.37435256  1
  O2-  O187  1  0.64250178  0.17635073  0.87304906  1
  O2-  O188  1  0.64045467  0.50416516  0.37513277  1
  O2-  O189  1  0.64586655  0.50133690  0.87513711  1
  O2-  O190  1  0.64852152  0.83850329  0.37525770  1
  O2-  O191  1  0.64511185  0.83734898  0.87413090  1
  O2-  O192  1  0.97659404  0.17465923  0.37348008  1
  O2-  O193  1  0.97457606  0.16916009  0.87636662  1
  O2-  O194  1  0.98065035  0.50524609  0.37452028  1
  O2-  O195  1  0.97407440  0.50605297  0.87554315  1
  O2-  O196  1  0.97339549  0.83861176  0.37622631  1
  O2-  O197  1  0.97331049  0.84015311  0.87489583  1
  O2-  O198  1  0.19120243  0.00561465  0.37317942  1
  O2-  O199  1  0.19145275  0.00637893  0.87681958  1
  O2-  O200  1  0.18980830  0.33757218  0.37371752  1
  O2-  O201  1  0.19306377  0.33861027  0.87604900  1
  O2-  O202  1  0.19444821  0.67315624  0.37426870  1
  O2-  O203  1  0.19127375  0.67160179  0.87684771  1
  O2-  O204  1  0.52591125  0.00518422  0.37482401  1
  O2-  O205  1  0.52872418  0.00782977  0.87438994  1
  O2-  O206  1  0.52689624  0.34148052  0.37403040  1
  O2-  O207  1  0.52672600  0.33084574  0.87411956  1
  O2-  O208  1  0.52382313  0.66435914  0.37479683  1
  O2-  O209  1  0.52691073  0.67378865  0.87641157  1
  O2-  O210  1  0.86045636  0.00410295  0.37446165  1
  O2-  O211  1  0.85972941  0.00217979  0.87492886  1
  O2-  O212  1  0.86048949  0.33378848  0.37374448  1
  O2-  O213  1  0.84945173  0.33793844  0.87575443  1
  O2-  O214  1  0.85845252  0.67365415  0.37475380  1
  O2-  O215  1  0.85913449  0.67662356  0.87360242  1
  O2-  O216  1  0.24013071  0.09364364  0.02267388  1
  O2-  O217  1  0.23993798  0.09314865  0.51320060  1
  O2-  O218  1  0.23762330  0.42883426  0.02093020  1
  O2-  O219  1  0.23692674  0.42677005  0.52194149  1
  O2-  O220  1  0.23602290  0.76333486  0.01741793  1
  O2-  O221  1  0.23936782  0.75950247  0.51731061  1
  O2-  O222  1  0.57192018  0.09536373  0.02158245  1
  O2-  O223  1  0.57025387  0.09577280  0.51711753  1
  O2-  O224  1  0.57119224  0.42632128  0.02231691  1
  O2-  O225  1  0.57100927  0.42646255  0.52176150  1
  O2-  O226  1  0.57054608  0.76210027  0.02256332  1
  O2-  O227  1  0.57172388  0.75732681  0.52243441  1
  O2-  O228  1  0.90391577  0.09482561  0.01943751  1
  O2-  O229  1  0.90290581  0.09897443  0.51216423  1
  O2-  O230  1  0.90312763  0.42994331  0.02001074  1
  O2-  O231  1  0.90545168  0.42862727  0.52096692  1
  O2-  O232  1  0.90388526  0.76066609  0.02119565  1
  O2-  O233  1  0.90441656  0.76092530  0.52003995  1
  O2-  O234  1  0.25998386  0.26334943  0.22917471  1
  O2-  O235  1  0.26221554  0.26259937  0.73382931  1
  O2-  O236  1  0.26097649  0.59499972  0.22242270  1
  O2-  O237  1  0.26263426  0.59456015  0.73374938  1
  O2-  O238  1  0.26186964  0.92584742  0.22714398  1
  O2-  O239  1  0.26511599  0.93133152  0.73247162  1
  O2-  O240  1  0.59825399  0.25867577  0.22857545  1
  O2-  O241  1  0.59462492  0.25950527  0.72647148  1
  O2-  O242  1  0.59093435  0.59533919  0.22919494  1
  O2-  O243  1  0.59580068  0.59281105  0.73046252  1
  O2-  O244  1  0.59545958  0.92740658  0.23040452  1
  O2-  O245  1  0.58986809  0.92328646  0.73043612  1
  O2-  O246  1  0.92887029  0.26192113  0.22507596  1
  O2-  O247  1  0.92746691  0.26228486  0.72808353  1
  O2-  O248  1  0.93188327  0.59495759  0.23436474  1
  O2-  O249  1  0.92950848  0.59556681  0.72875576  1
  O2-  O250  1  0.92631669  0.93044563  0.22932299  1
  O2-  O251  1  0.93013166  0.93059726  0.72927383  1
  O2-  O252  1  0.09929015  0.23567049  0.26567820  1
  O2-  O253  1  0.09569526  0.23852572  0.77063840  1
  O2-  O254  1  0.09778878  0.56951486  0.26882973  1
  O2-  O255  1  0.09197878  0.57373717  0.77304162  1
  O2-  O256  1  0.09449430  0.90497562  0.27147051  1
  O2-  O257  1  0.09550609  0.90784494  0.77322756  1
  O2-  O258  1  0.42805075  0.23947332  0.27159133  1
  O2-  O259  1  0.43022240  0.23669752  0.76700882  1
  O2-  O260  1  0.42792000  0.56957280  0.26748632  1
  O2-  O261  1  0.42579441  0.57404874  0.76721301  1
  O2-  O262  1  0.42399249  0.90880048  0.26812335  1
  O2-  O263  1  0.42837025  0.90618026  0.77191695  1
  O2-  O264  1  0.76405546  0.23809857  0.26912357  1
  O2-  O265  1  0.76146733  0.23777949  0.76916622  1
  O2-  O266  1  0.75511166  0.57678463  0.27153448  1
  O2-  O267  1  0.76501602  0.57135361  0.77179548  1
  O2-  O268  1  0.76433312  0.90383592  0.26667458  1
  O2-  O269  1  0.76525723  0.90390072  0.76498805  1
  O2-  O270  1  0.07303533  0.07428718  0.47738563  1
  O2-  O271  1  0.07109642  0.07360736  0.98048157  1
  O2-  O272  1  0.06972355  0.40242507  0.48034370  1
  O2-  O273  1  0.07476374  0.41034648  0.98049680  1
  O2-  O274  1  0.07365778  0.73624959  0.47904715  1
  O2-  O275  1  0.07135554  0.73935943  0.97832732  1
  O2-  O276  1  0.40860029  0.07401450  0.47746330  1
  O2-  O277  1  0.40751864  0.07118389  0.98029791  1
  O2-  O278  1  0.40074982  0.40871582  0.47672536  1
  O2-  O279  1  0.40344054  0.39988420  0.98259590  1
  O2-  O280  1  0.40251097  0.73523748  0.48277638  1
  O2-  O281  1  0.40670571  0.74185300  0.97442268  1
  O2-  O282  1  0.73920775  0.07261733  0.47488175  1
  O2-  O283  1  0.73653636  0.07039276  0.97693227  1
  O2-  O284  1  0.73812469  0.40225194  0.48313890  1
  O2-  O285  1  0.73581596  0.40059075  0.98540004  1
  O2-  O286  1  0.73773599  0.73903696  0.47999426  1
  O2-  O287  1  0.73728578  0.73674836  0.98097066  1
  O2-  O288  1  0.09570853  0.23824393  0.47966183  1
  O2-  O289  1  0.09841903  0.23680980  0.98317867  1
  O2-  O290  1  0.09450277  0.57148257  0.47743558  1
  O2-  O291  1  0.09534605  0.57286917  0.97985550  1
  O2-  O292  1  0.09484961  0.90639838  0.47686251  1
  O2-  O293  1  0.09473728  0.90626544  0.97859061  1
  O2-  O294  1  0.42833398  0.23973181  0.47731326  1
  O2-  O295  1  0.43199620  0.23664509  0.98459373  1
  O2-  O296  1  0.42724287  0.56966333  0.48283214  1
  O2-  O297  1  0.42667669  0.57471229  0.98154677  1
  O2-  O298  1  0.42563380  0.90667733  0.48326344  1
  O2-  O299  1  0.42858534  0.90890381  0.97555617  1
  O2-  O300  1  0.76335371  0.23905618  0.47951849  1
  O2-  O301  1  0.76221380  0.23670272  0.98237147  1
  O2-  O302  1  0.75722953  0.57545727  0.48239704  1
  O2-  O303  1  0.76325502  0.57237005  0.97609676  1
  O2-  O304  1  0.76573741  0.90560794  0.48520028  1
  O2-  O305  1  0.76411511  0.90221625  0.98387418  1
  O2-  O306  1  0.06979244  0.07312034  0.26975504  1
  O2-  O307  1  0.07446210  0.07490681  0.77258178  1
  O2-  O308  1  0.06863078  0.40232562  0.26894514  1
  O2-  O309  1  0.07523527  0.40880696  0.77048574  1
  O2-  O310  1  0.07449518  0.73534138  0.27140324  1
  O2-  O311  1  0.07164091  0.73930481  0.77024573  1
  O2-  O312  1  0.40727461  0.07160505  0.27029414  1
  O2-  O313  1  0.40882723  0.07454213  0.77316382  1
  O2-  O314  1  0.40117960  0.40929136  0.27234287  1
  O2-  O315  1  0.40064339  0.40230671  0.76783685  1
  O2-  O316  1  0.40120774  0.73583452  0.27019281  1
  O2-  O317  1  0.40581329  0.74136558  0.77293861  1
  O2-  O318  1  0.73748713  0.07012215  0.27401897  1
  O2-  O319  1  0.73919596  0.07161123  0.77495376  1
  O2-  O320  1  0.73751458  0.40133573  0.26732093  1
  O2-  O321  1  0.73660702  0.40208099  0.76413251  1
  O2-  O322  1  0.73705391  0.74015197  0.27004094  1
  O2-  O323  1  0.73784242  0.73616440  0.77016527  1
  O2-  O324  1  0.23929105  0.09345081  0.22724521  1
  O2-  O325  1  0.24134847  0.09401493  0.73740667  1
  O2-  O326  1  0.23786560  0.42738770  0.22721422  1
  O2-  O327  1  0.23617838  0.42910630  0.72893406  1
  O2-  O328  1  0.23644243  0.76349555  0.23090414  1
  O2-  O329  1  0.24067907  0.75950690  0.73521259  1
  O2-  O330  1  0.57159418  0.09408469  0.23004162  1
  O2-  O331  1  0.57092299  0.09698877  0.73006057  1
  O2-  O332  1  0.57285505  0.42943198  0.22820520  1
  O2-  O333  1  0.57029747  0.42383148  0.72656837  1
  O2-  O334  1  0.57129729  0.75942618  0.22828708  1
  O2-  O335  1  0.57139394  0.75919058  0.72802753  1
  O2-  O336  1  0.90390595  0.09608604  0.23116624  1
  O2-  O337  1  0.90301959  0.09807098  0.73727512  1
  O2-  O338  1  0.90310937  0.43027868  0.22690123  1
  O2-  O339  1  0.90545017  0.42900415  0.73106166  1
  O2-  O340  1  0.90517397  0.76071697  0.22972454  1
  O2-  O341  1  0.90322813  0.76100082  0.72895012  1
  O2-  O342  1  0.25935587  0.26128321  0.02361993  1
  O2-  O343  1  0.26279137  0.26420967  0.51412923  1
  O2-  O344  1  0.26073520  0.59721900  0.02216278  1
  O2-  O345  1  0.26160081  0.59366002  0.52271142  1
  O2-  O346  1  0.26302930  0.92710895  0.02238026  1
  O2-  O347  1  0.26289424  0.93056082  0.51702922  1
  O2-  O348  1  0.59566988  0.26099479  0.02240636  1
  O2-  O349  1  0.59680686  0.25793578  0.52048200  1
  O2-  O350  1  0.59503701  0.59557605  0.01992782  1
  O2-  O351  1  0.59115773  0.59347084  0.52067233  1
  O2-  O352  1  0.59552255  0.92846718  0.01846513  1
  O2-  O353  1  0.59009118  0.92360398  0.52016433  1
  O2-  O354  1  0.92749097  0.26233539  0.02279591  1
  O2-  O355  1  0.92912299  0.26197059  0.52331443  1
  O2-  O356  1  0.93162426  0.59734889  0.01757231  1
  O2-  O357  1  0.92916285  0.59322134  0.51927378  1
  O2-  O358  1  0.92818878  0.92786803  0.02220351  1
  O2-  O359  1  0.92906811  0.93194416  0.51958731  1
