# generated using pymatgen
data_Sr7Ca15Pr50Mn72O216
_symmetry_space_group_name_H-M   'P 1'
_cell_length_a   16.56034042
_cell_length_b   16.60216890
_cell_length_c   15.59455134
_cell_angle_alpha   90.00075788
_cell_angle_beta   89.99719155
_cell_angle_gamma   90.00562935
_symmetry_Int_Tables_number   1
_chemical_formula_structural   Sr7Ca15Pr50Mn72O216
_chemical_formula_sum   'Sr7 Ca15 Pr50 Mn72 O216'
_cell_volume   4287.52800139
_cell_formula_units_Z   1
loop_
 _symmetry_equiv_pos_site_id
 _symmetry_equiv_pos_as_xyz
  1  'x, y, z'
loop_
 _atom_type_symbol
 _atom_type_oxidation_number
  Sr2+  2.0
  Ca2+  2.0
  Pr3+  3.0
  Mn3.30+  3.3
  O2-  -2.0
loop_
 _atom_site_type_symbol
 _atom_site_label
 _atom_site_symmetry_multiplicity
 _atom_site_fract_x
 _atom_site_fract_y
 _atom_site_fract_z
 _atom_site_occupancy
  Sr2+  Sr0  1  0.83174475  0.50917166  0.62353971  1
  Sr2+  Sr1  1  0.66531133  0.00859757  0.12506200  1
  Sr2+  Sr2  1  0.50277992  0.84679984  0.12514656  1
  Sr2+  Sr3  1  0.83610467  0.50948605  0.12655541  1
  Sr2+  Sr4  1  -0.00642177  0.01281220  0.12517728  1
  Sr2+  Sr5  1  0.50249292  0.82907859  0.37369466  1
  Sr2+  Sr6  1  0.83186224  0.15508640  0.37430341  1
  Ca2+  Ca7  1  0.16888162  0.85072721  0.62434278  1
  Ca2+  Ca8  1  0.33635782  0.98700449  0.87451684  1
  Ca2+  Ca9  1  0.15689061  0.14873692  0.37687781  1
  Ca2+  Ca10  1  0.66693814  0.98753506  0.87539053  1
  Ca2+  Ca11  1  0.99870568  0.31689911  0.37581959  1
  Ca2+  Ca12  1  1.00098574  0.98860703  0.37640492  1
  Ca2+  Ca13  1  0.66493969  0.68274281  0.62431839  1
  Ca2+  Ca14  1  0.50461795  0.18307979  0.62574283  1
  Ca2+  Ca15  1  0.49622548  0.14893403  0.87370492  1
  Ca2+  Ca16  1  0.83499687  0.17554812  0.12796238  1
  Ca2+  Ca17  1  0.66668058  0.34462587  0.62191109  1
  Ca2+  Ca18  1  0.67017963  0.98762665  0.37407231  1
  Ca2+  Ca19  1  0.83053177  0.48418215  0.37575713  1
  Ca2+  Ca20  1  1.00287142  0.98569101  0.87316339  1
  Ca2+  Ca21  1  -0.00396013  0.01300862  0.62326685  1
  Pr3+  Pr22  1  0.66166823  0.01467130  0.62468270  1
  Pr3+  Pr23  1  0.83076583  0.82921034  0.37502282  1
  Pr3+  Pr24  1  0.50623320  0.51209877  0.12585905  1
  Pr3+  Pr25  1  0.66997108  0.65592939  0.87391449  1
  Pr3+  Pr26  1  0.66575920  0.68144400  0.12518193  1
  Pr3+  Pr27  1  0.83205962  0.82460221  0.87520581  1
  Pr3+  Pr28  1  0.67287413  0.65539812  0.37606021  1
  Pr3+  Pr29  1  -0.00551163  0.33996977  0.12772102  1
  Pr3+  Pr30  1  0.50895158  0.51475723  0.62412627  1
  Pr3+  Pr31  1  0.33745955  0.65558135  0.87455150  1
  Pr3+  Pr32  1  0.16716742  0.17665293  0.12682881  1
  Pr3+  Pr33  1  0.16830371  0.51226847  0.12641187  1
  Pr3+  Pr34  1  0.50389162  0.84689243  0.62494096  1
  Pr3+  Pr35  1  0.32956381  0.68387860  0.62430056  1
  Pr3+  Pr36  1  -0.00363666  0.68012381  0.62450830  1
  Pr3+  Pr37  1  0.83537574  0.84856864  0.12473450  1
  Pr3+  Pr38  1  1.00176041  0.65385212  0.87420089  1
  Pr3+  Pr39  1  0.16364018  0.82309922  0.87340283  1
  Pr3+  Pr40  1  0.33324184  0.34477793  0.62426888  1
  Pr3+  Pr41  1  0.16062355  0.82291352  0.37657491  1
  Pr3+  Pr42  1  0.16754552  0.84919037  0.12519288  1
  Pr3+  Pr43  1  0.82937677  0.15089298  0.87524170  1
  Pr3+  Pr44  1  0.16149347  0.48305099  0.37579721  1
  Pr3+  Pr45  1  0.33177845  0.68290877  0.12529817  1
  Pr3+  Pr46  1  -0.00357330  0.34414674  0.62314550  1
  Pr3+  Pr47  1  0.49933125  0.48702965  0.37529403  1
  Pr3+  Pr48  1  0.33624377  0.31835306  0.37573677  1
  Pr3+  Pr49  1  0.16503418  0.48615819  0.87404373  1
  Pr3+  Pr50  1  0.83504617  0.84867493  0.62565650  1
  Pr3+  Pr51  1  0.33160236  0.01091538  0.12478919  1
  Pr3+  Pr52  1  0.99941512  0.65310301  0.37594834  1
  Pr3+  Pr53  1  0.67291764  0.32097414  0.37730533  1
  Pr3+  Pr54  1  0.50059589  0.15414409  0.37718832  1
  Pr3+  Pr55  1  0.49870278  0.82568659  0.87565693  1
  Pr3+  Pr56  1  1.00149067  0.31987130  0.87355057  1
  Pr3+  Pr57  1  0.49793954  0.48589604  0.87476258  1
  Pr3+  Pr58  1  0.33046951  0.01150016  0.62550509  1
  Pr3+  Pr59  1  0.66885565  0.31971462  0.87304638  1
  Pr3+  Pr60  1  0.16696945  0.17632018  0.62353514  1
  Pr3+  Pr61  1  0.67021076  0.33971354  0.12734435  1
  Pr3+  Pr62  1  -0.00545455  0.68027912  0.12531240  1
  Pr3+  Pr63  1  0.16952059  0.51173363  0.62355965  1
  Pr3+  Pr64  1  0.16327756  0.15002737  0.87366285  1
  Pr3+  Pr65  1  0.32992692  0.34500774  0.12542743  1
  Pr3+  Pr66  1  0.50337503  0.17390327  0.12406221  1
  Pr3+  Pr67  1  0.33218185  0.98924318  0.37550781  1
  Pr3+  Pr68  1  0.83517020  0.17768664  0.62370887  1
  Pr3+  Pr69  1  0.33832238  0.65720711  0.37500838  1
  Pr3+  Pr70  1  0.83100981  0.48660654  0.87506851  1
  Pr3+  Pr71  1  0.34070904  0.31610248  0.87398874  1
  Mn3.30+  Mn72  1  0.16507569  0.00073191  -0.00166789  1
  Mn3.30+  Mn73  1  0.16230680  0.00007102  0.50179403  1
  Mn3.30+  Mn74  1  0.16732521  0.33150321  -0.00043930  1
  Mn3.30+  Mn75  1  0.16493641  0.32942668  0.49847660  1
  Mn3.30+  Mn76  1  0.16650055  0.66705126  -0.00005327  1
  Mn3.30+  Mn77  1  0.16642560  0.66783602  0.50017035  1
  Mn3.30+  Mn78  1  0.49997426  0.00123596  -0.00278244  1
  Mn3.30+  Mn79  1  0.49980392  0.00183116  0.49995046  1
  Mn3.30+  Mn80  1  0.50054471  0.33011435  0.00019276  1
  Mn3.30+  Mn81  1  0.50260491  0.33238078  0.50089552  1
  Mn3.30+  Mn82  1  0.50110625  0.66753331  0.00012438  1
  Mn3.30+  Mn83  1  0.50256505  0.66915943  0.49951210  1
  Mn3.30+  Mn84  1  0.83292495  0.00150491  -0.00157528  1
  Mn3.30+  Mn85  1  0.83311340  0.00162098  0.49958550  1
  Mn3.30+  Mn86  1  0.83425108  0.33007111  -0.00012016  1
  Mn3.30+  Mn87  1  0.83387683  0.33345645  0.49972567  1
  Mn3.30+  Mn88  1  0.83399261  0.66656137  -0.00032687  1
  Mn3.30+  Mn89  1  0.83272063  0.66715083  0.50164191  1
  Mn3.30+  Mn90  1  -0.00038115  0.16484950  0.25312078  1
  Mn3.30+  Mn91  1  -0.00045160  0.16246919  0.74967270  1
  Mn3.30+  Mn92  1  -0.00164322  0.49672905  0.25239550  1
  Mn3.30+  Mn93  1  0.00002435  0.49981437  0.74826051  1
  Mn3.30+  Mn94  1  -0.00161414  0.83578571  0.25199978  1
  Mn3.30+  Mn95  1  0.00127108  0.83653064  0.74741823  1
  Mn3.30+  Mn96  1  0.33143803  0.16599236  0.25260245  1
  Mn3.30+  Mn97  1  0.33651985  0.16421441  0.74885088  1
  Mn3.30+  Mn98  1  0.33344508  0.50027194  0.25055418  1
  Mn3.30+  Mn99  1  0.33537085  0.50027890  0.74843260  1
  Mn3.30+  Mn100  1  0.33247269  0.83531846  0.25040973  1
  Mn3.30+  Mn101  1  0.33163311  0.83603999  0.75002744  1
  Mn3.30+  Mn102  1  0.66908419  0.16422229  0.24935547  1
  Mn3.30+  Mn103  1  0.66278698  0.16615798  0.75094254  1
  Mn3.30+  Mn104  1  0.66968235  0.49971805  0.25032449  1
  Mn3.30+  Mn105  1  0.66673535  0.50013898  0.74821464  1
  Mn3.30+  Mn106  1  0.66626538  0.83580235  0.25113321  1
  Mn3.30+  Mn107  1  0.66691909  0.83493588  0.74991215  1
  Mn3.30+  Mn108  1  0.16243766  0.00204141  0.25106527  1
  Mn3.30+  Mn109  1  0.16499349  -0.00126449  0.74927316  1
  Mn3.30+  Mn110  1  0.16390794  0.32934842  0.25240239  1
  Mn3.30+  Mn111  1  0.16880610  0.33166194  0.74926819  1
  Mn3.30+  Mn112  1  0.16581322  0.66657195  0.25089164  1
  Mn3.30+  Mn113  1  0.16700416  0.66833654  0.74836260  1
  Mn3.30+  Mn114  1  0.50112883  0.00067552  0.25150283  1
  Mn3.30+  Mn115  1  0.49915553  0.00286448  0.75124303  1
  Mn3.30+  Mn116  1  0.50031983  0.33155296  0.24993185  1
  Mn3.30+  Mn117  1  0.50304283  0.33083752  0.74852210  1
  Mn3.30+  Mn118  1  0.50200237  0.66852837  0.25131316  1
  Mn3.30+  Mn119  1  0.50158004  0.66815368  0.74884135  1
  Mn3.30+  Mn120  1  0.83331256  0.00289921  0.25094956  1
  Mn3.30+  Mn121  1  0.83328448  0.00046343  0.75100327  1
  Mn3.30+  Mn122  1  0.83536217  0.33169287  0.25244678  1
  Mn3.30+  Mn123  1  0.83252820  0.33230743  0.74823846  1
  Mn3.30+  Mn124  1  0.83408611  0.66643197  0.25131383  1
  Mn3.30+  Mn125  1  0.83257501  0.66720243  0.74764597  1
  Mn3.30+  Mn126  1  -0.00181775  0.16428701  -0.00042912  1
  Mn3.30+  Mn127  1  0.00028843  0.16355629  0.49857870  1
  Mn3.30+  Mn128  1  0.00035581  0.49815816  0.00052968  1
  Mn3.30+  Mn129  1  -0.00219377  0.49789709  0.49847840  1
  Mn3.30+  Mn130  1  -0.00032662  0.83539909  -0.00182411  1
  Mn3.30+  Mn131  1  -0.00012624  0.83696322  0.50299125  1
  Mn3.30+  Mn132  1  0.33458282  0.16383260  -0.00169594  1
  Mn3.30+  Mn133  1  0.33231026  0.16612567  0.50025091  1
  Mn3.30+  Mn134  1  0.33400654  0.49982633  0.00071019  1
  Mn3.30+  Mn135  1  0.33461221  0.50045731  0.49949508  1
  Mn3.30+  Mn136  1  0.33273481  0.83647029  -0.00084800  1
  Mn3.30+  Mn137  1  0.33169154  0.83515118  0.50011132  1
  Mn3.30+  Mn138  1  0.66592599  0.16381523  -0.00181016  1
  Mn3.30+  Mn139  1  0.66620696  0.16681897  0.50109172  1
  Mn3.30+  Mn140  1  0.66734169  0.49893930  0.00064287  1
  Mn3.30+  Mn141  1  0.66896023  0.50085871  0.50074069  1
  Mn3.30+  Mn142  1  0.66585738  0.83634257  -0.00148311  1
  Mn3.30+  Mn143  1  0.66736487  0.83428619  0.50070852  1
  O2-  O144  1  0.02367998  0.16841236  0.12406577  1
  O2-  O145  1  0.02362554  0.15905389  0.62607047  1
  O2-  O146  1  0.02599452  0.49131205  0.12664524  1
  O2-  O147  1  0.02642559  0.49402102  0.62372797  1
  O2-  O148  1  0.02388571  0.82686759  0.12308376  1
  O2-  O149  1  0.02927947  0.82414783  0.62554397  1
  O2-  O150  1  0.35840467  0.16013492  0.12633455  1
  O2-  O151  1  0.36096210  0.15962843  0.62487980  1
  O2-  O152  1  0.36103947  0.49314900  0.12676168  1
  O2-  O153  1  0.36256624  0.49372821  0.62333952  1
  O2-  O154  1  0.35215341  0.83154920  0.12433764  1
  O2-  O155  1  0.35912066  0.83109831  0.62485568  1
  O2-  O156  1  0.69104425  0.16564988  0.12326562  1
  O2-  O157  1  0.69178424  0.15983629  0.62665907  1
  O2-  O158  1  0.68690726  0.49105721  0.12459797  1
  O2-  O159  1  0.68363636  0.48954574  0.62592805  1
  O2-  O160  1  0.69023741  0.82934008  0.12347513  1
  O2-  O161  1  0.68982869  0.82915397  0.62696810  1
  O2-  O162  1  0.14051664  0.32609049  0.12672248  1
  O2-  O163  1  0.14157322  0.32725561  0.62438658  1
  O2-  O164  1  0.13828512  0.65978603  0.12734146  1
  O2-  O165  1  0.14018853  0.65714455  0.62509963  1
  O2-  O166  1  0.14403620  0.99828150  0.12426293  1
  O2-  O167  1  0.13864850  0.99590772  0.62592364  1
  O2-  O168  1  0.47239189  0.32405986  0.12485601  1
  O2-  O169  1  0.47536751  0.32915331  0.62407339  1
  O2-  O170  1  0.47601240  0.65996065  0.12570243  1
  O2-  O171  1  0.47394620  0.66207918  0.62490936  1
  O2-  O172  1  0.47639388  1.00514538  0.12541991  1
  O2-  O173  1  0.47435604  0.99340182  0.62440621  1
  O2-  O174  1  0.81428841  0.32425011  0.12412538  1
  O2-  O175  1  0.80927751  0.32647933  0.62659892  1
  O2-  O176  1  0.81045458  0.66509602  0.12561157  1
  O2-  O177  1  0.80697180  0.66469044  0.62620248  1
  O2-  O178  1  0.81454527  0.99515885  0.12267580  1
  O2-  O179  1  0.80591956  0.99839553  0.62697173  1
  O2-  O180  1  0.30219995  0.17200387  0.37610702  1
  O2-  O181  1  0.30665989  0.17285632  0.87237468  1
  O2-  O182  1  0.30670676  0.50828335  0.37478008  1
  O2-  O183  1  0.30890547  0.50684692  0.87435830  1
  O2-  O184  1  0.30526256  0.83789282  0.37553791  1
  O2-  O185  1  0.30759660  0.83744345  0.87510461  1
  O2-  O186  1  0.64284262  0.17551333  0.37667531  1
  O2-  O187  1  0.63660603  0.17603708  0.87282207  1
  O2-  O188  1  0.64180848  0.50597269  0.37455004  1
  O2-  O189  1  0.64116029  0.50658703  0.87530006  1
  O2-  O190  1  0.65239941  0.83902458  0.37689777  1
  O2-  O191  1  0.64321536  0.83781506  0.87325301  1
  O2-  O192  1  0.98043046  0.17361437  0.37733773  1
  O2-  O193  1  0.97451324  0.17438563  0.87320355  1
  O2-  O194  1  0.97337104  0.50644161  0.37578367  1
  O2-  O195  1  0.97651109  0.50478276  0.87346716  1
  O2-  O196  1  0.97575713  0.84000690  0.37909583  1
  O2-  O197  1  0.97655440  0.83756669  0.87278165  1
  O2-  O198  1  0.18904026  0.00308302  0.37602242  1
  O2-  O199  1  0.19378445  0.00329028  0.87413235  1
  O2-  O200  1  0.19451911  0.33831664  0.37565188  1
  O2-  O201  1  0.19627159  0.33858078  0.87291244  1
  O2-  O202  1  0.19366664  0.67341802  0.37488769  1
  O2-  O203  1  0.19395332  0.67289761  0.87214382  1
  O2-  O204  1  0.52593121  0.00729897  0.37796904  1
  O2-  O205  1  0.52534647  0.00513609  0.87222344  1
  O2-  O206  1  0.52688111  0.33788586  0.37530285  1
  O2-  O207  1  0.52482518  0.34016640  0.87540597  1
  O2-  O208  1  0.52688677  0.67016393  0.37491129  1
  O2-  O209  1  0.52429423  0.67332942  0.87416848  1
  O2-  O210  1  0.85723893  -0.00484163  0.37744763  1
  O2-  O211  1  0.86096236  0.00342254  0.87377768  1
  O2-  O212  1  0.85580065  0.33880680  0.37692344  1
  O2-  O213  1  0.85713502  0.33736819  0.87277414  1
  O2-  O214  1  0.85817450  0.68077247  0.37583314  1
  O2-  O215  1  0.85895567  0.67433681  0.87319957  1
  O2-  O216  1  0.23684635  0.09588121  0.01916095  1
  O2-  O217  1  0.23731171  0.09092083  0.52351005  1
  O2-  O218  1  0.23872964  0.42773530  0.02177128  1
  O2-  O219  1  0.23834065  0.42670327  0.51965907  1
  O2-  O220  1  0.23693149  0.76083817  0.02104388  1
  O2-  O221  1  0.23786682  0.76317802  0.52262170  1
  O2-  O222  1  0.56902382  0.09684579  0.01608658  1
  O2-  O223  1  0.56884266  0.09909744  0.52163451  1
  O2-  O224  1  0.56961860  0.42582778  0.01955849  1
  O2-  O225  1  0.56778314  0.43152487  0.51421589  1
  O2-  O226  1  0.57541181  0.75835432  0.01715044  1
  O2-  O227  1  0.57231486  0.76189851  0.52034183  1
  O2-  O228  1  0.89987051  0.10000614  0.01577905  1
  O2-  O229  1  0.90286732  0.09457357  0.51984465  1
  O2-  O230  1  0.90913648  0.42550922  0.01549801  1
  O2-  O231  1  0.90903847  0.42374739  0.52159222  1
  O2-  O232  1  0.90627281  0.76097063  0.01901417  1
  O2-  O233  1  0.90651048  0.76305417  0.52309138  1
  O2-  O234  1  0.26244847  0.26150399  0.22835531  1
  O2-  O235  1  0.26344729  0.26016945  0.72758376  1
  O2-  O236  1  0.26254302  0.59453656  0.22729558  1
  O2-  O237  1  0.26186025  0.59618492  0.72813752  1
  O2-  O238  1  0.25689600  0.92912612  0.23111527  1
  O2-  O239  1  0.26063199  0.92822186  0.72874410  1
  O2-  O240  1  0.59401258  0.25900285  0.22913022  1
  O2-  O241  1  0.59959815  0.26762714  0.72964334  1
  O2-  O242  1  0.59700765  0.59278261  0.22894640  1
  O2-  O243  1  0.59786778  0.59682189  0.72915585  1
  O2-  O244  1  0.59137091  0.92592140  0.23740514  1
  O2-  O245  1  0.59235424  0.92959759  0.72883560  1
  O2-  O246  1  0.93092551  0.26030413  0.23576880  1
  O2-  O247  1  0.92938445  0.25940470  0.72920009  1
  O2-  O248  1  0.93142649  0.59872341  0.23386673  1
  O2-  O249  1  0.92976329  0.59826306  0.73282644  1
  O2-  O250  1  0.92432487  0.92446696  0.23233973  1
  O2-  O251  1  0.92899031  0.92753532  0.72568971  1
  O2-  O252  1  0.09981280  0.23216428  0.26790037  1
  O2-  O253  1  0.09470184  0.23668585  0.76950425  1
  O2-  O254  1  0.09615790  0.56925969  0.27146185  1
  O2-  O255  1  0.09682308  0.57207372  0.77042428  1
  O2-  O256  1  0.09488493  0.90217942  0.26631456  1
  O2-  O257  1  0.09619320  0.90503525  0.77108830  1
  O2-  O258  1  0.42598496  0.23884036  0.27365406  1
  O2-  O259  1  0.43057998  0.23836196  0.77166060  1
  O2-  O260  1  0.42982567  0.57363386  0.27112919  1
  O2-  O261  1  0.42933261  0.57266198  0.77050745  1
  O2-  O262  1  0.42095475  0.91326359  0.26894950  1
  O2-  O263  1  0.43115985  0.90527446  0.76843199  1
  O2-  O264  1  0.75705346  0.24343399  0.26821502  1
  O2-  O265  1  0.76040017  0.23710480  0.77119045  1
  O2-  O266  1  0.76401653  0.57500591  0.27395135  1
  O2-  O267  1  0.76112479  0.57333341  0.77380997  1
  O2-  O268  1  0.76276099  0.90495281  0.26334878  1
  O2-  O269  1  0.76502382  0.90499272  0.76767825  1
  O2-  O270  1  0.06877832  0.06894106  0.48062724  1
  O2-  O271  1  0.07100810  0.07219376  0.97569328  1
  O2-  O272  1  0.07340943  0.40050712  0.47833515  1
  O2-  O273  1  0.07502889  0.40463583  0.97686161  1
  O2-  O274  1  0.07115401  0.73789955  0.47848093  1
  O2-  O275  1  0.07212557  0.73825903  0.97824022  1
  O2-  O276  1  0.40242611  0.07436059  0.47724246  1
  O2-  O277  1  0.40032815  0.06926508  0.98097732  1
  O2-  O278  1  0.40516356  0.40548095  0.47764480  1
  O2-  O279  1  0.40628920  0.40267697  0.98001229  1
  O2-  O280  1  0.40139172  0.73861960  0.48349568  1
  O2-  O281  1  0.40506777  0.73968947  0.98078539  1
  O2-  O282  1  0.73292391  0.06861593  0.48381564  1
  O2-  O283  1  0.73712919  0.07218022  0.97323556  1
  O2-  O284  1  0.73795319  0.40731400  0.48145742  1
  O2-  O285  1  0.73955890  0.40532389  0.98002307  1
  O2-  O286  1  0.74057419  0.74042094  0.48085732  1
  O2-  O287  1  0.73942339  0.74036221  0.97984306  1
  O2-  O288  1  0.09924048  0.23260243  0.48508437  1
  O2-  O289  1  0.09571025  0.23735521  0.97790369  1
  O2-  O290  1  0.09515933  0.56974850  0.47915584  1
  O2-  O291  1  0.09689290  0.57079847  0.97931326  1
  O2-  O292  1  0.09548663  0.90424624  0.48145312  1
  O2-  O293  1  0.09659123  0.90313778  0.98209073  1
  O2-  O294  1  0.42744934  0.24167501  0.47760616  1
  O2-  O295  1  0.42932478  0.23588294  0.97789905  1
  O2-  O296  1  0.43045941  0.57373347  0.47827239  1
  O2-  O297  1  0.42881891  0.57259430  0.97997281  1
  O2-  O298  1  0.42288600  0.90912899  0.48124196  1
  O2-  O299  1  0.42751887  0.90774088  0.97989528  1
  O2-  O300  1  0.75986274  0.23995497  0.48415051  1
  O2-  O301  1  0.75750226  0.23909596  0.97592851  1
  O2-  O302  1  0.76277908  0.57346428  0.47571439  1
  O2-  O303  1  0.76194517  0.57445277  0.97715909  1
  O2-  O304  1  0.76438793  0.90412030  0.48783723  1
  O2-  O305  1  0.76257514  0.90507423  0.98165973  1
  O2-  O306  1  0.06922472  0.07000454  0.27043907  1
  O2-  O307  1  0.07192221  0.07141752  0.77414598  1
  O2-  O308  1  0.07302097  0.40063923  0.27388721  1
  O2-  O309  1  0.07607656  0.40470695  0.77002762  1
  O2-  O310  1  0.06994316  0.73896093  0.27182751  1
  O2-  O311  1  0.07229780  0.73806357  0.77157064  1
  O2-  O312  1  0.40452854  0.07502595  0.27347005  1
  O2-  O313  1  0.40094475  0.06781374  0.76935637  1
  O2-  O314  1  0.40463160  0.40551541  0.27167296  1
  O2-  O315  1  0.40642525  0.40263371  0.77017253  1
  O2-  O316  1  0.40295715  0.73851123  0.26597381  1
  O2-  O317  1  0.40276383  0.73998176  0.76950749  1
  O2-  O318  1  0.73612221  0.07037508  0.27065418  1
  O2-  O319  1  0.73423548  0.07176416  0.77241896  1
  O2-  O320  1  0.73815261  0.40482835  0.26683010  1
  O2-  O321  1  0.73978849  0.40844818  0.77286450  1
  O2-  O322  1  0.73987318  0.73930821  0.26768628  1
  O2-  O323  1  0.74132522  0.74022812  0.77259403  1
  O2-  O324  1  0.24087817  0.09296941  0.22838183  1
  O2-  O325  1  0.23580461  0.09342156  0.72848203  1
  O2-  O326  1  0.23697493  0.42683791  0.22991842  1
  O2-  O327  1  0.24136914  0.42885931  0.72735388  1
  O2-  O328  1  0.23674087  0.76085078  0.22854686  1
  O2-  O329  1  0.23629106  0.76143110  0.72694555  1
  O2-  O330  1  0.56906725  0.09821469  0.23589385  1
  O2-  O331  1  0.56897911  0.09686726  0.72533332  1
  O2-  O332  1  0.57058743  0.42565336  0.23025720  1
  O2-  O333  1  0.56713902  0.43222501  0.73591306  1
  O2-  O334  1  0.57724399  0.75700658  0.23040443  1
  O2-  O335  1  0.56902342  0.76378223  0.73280904  1
  O2-  O336  1  0.90255881  0.09696745  0.23294257  1
  O2-  O337  1  0.90034338  0.09650739  0.73294639  1
  O2-  O338  1  0.90863217  0.42324983  0.23039816  1
  O2-  O339  1  0.90940043  0.42447903  0.73233458  1
  O2-  O340  1  0.90578202  0.76221635  0.22964769  1
  O2-  O341  1  0.90678834  0.76259252  0.72895387  1
  O2-  O342  1  0.26294832  0.26045195  0.02050459  1
  O2-  O343  1  0.26300229  0.26096515  0.52268689  1
  O2-  O344  1  0.26095591  0.59628960  0.02159894  1
  O2-  O345  1  0.26246367  0.59482996  0.52150387  1
  O2-  O346  1  0.25830423  0.92858522  0.02151885  1
  O2-  O347  1  0.26045623  0.92966958  0.51807068  1
  O2-  O348  1  0.59518634  0.26191987  0.02169344  1
  O2-  O349  1  0.59725788  0.26513721  0.51860969  1
  O2-  O350  1  0.59563454  0.59350214  0.02079122  1
  O2-  O351  1  0.59854888  0.59557795  0.52113339  1
  O2-  O352  1  0.59196415  0.92684568  0.01250526  1
  O2-  O353  1  0.59359339  0.92619773  0.52186491  1
  O2-  O354  1  0.93249103  0.26240938  0.01369373  1
  O2-  O355  1  0.92900155  0.25787680  0.52210907  1
  O2-  O356  1  0.93213853  0.59610226  0.01603464  1
  O2-  O357  1  0.92944244  0.59983614  0.51680154  1
  O2-  O358  1  0.92480692  0.92409306  0.01631239  1
  O2-  O359  1  0.92727614  0.92743644  0.52649676  1
