# generated using pymatgen
data_Sr7Ca15Pr50Mn72O216
_symmetry_space_group_name_H-M   'P 1'
_cell_length_a   16.55495968
_cell_length_b   16.59867117
_cell_length_c   15.58810029
_cell_angle_alpha   90.00266583
_cell_angle_beta   89.99861366
_cell_angle_gamma   89.99314996
_symmetry_Int_Tables_number   1
_chemical_formula_structural   Sr7Ca15Pr50Mn72O216
_chemical_formula_sum   'Sr7 Ca15 Pr50 Mn72 O216'
_cell_volume   4283.45921598
_cell_formula_units_Z   1
loop_
 _symmetry_equiv_pos_site_id
 _symmetry_equiv_pos_as_xyz
  1  'x, y, z'
loop_
 _atom_type_symbol
 _atom_type_oxidation_number
  Sr2+  2.0
  Ca2+  2.0
  Pr3+  3.0
  Mn3.30+  3.3
  O2-  -2.0
loop_
 _atom_site_type_symbol
 _atom_site_label
 _atom_site_symmetry_multiplicity
 _atom_site_fract_x
 _atom_site_fract_y
 _atom_site_fract_z
 _atom_site_occupancy
  Sr2+  Sr0  1  0.49804120  0.15635141  0.87658958  1
  Sr2+  Sr1  1  0.50054910  0.48896063  0.37455814  1
  Sr2+  Sr2  1  0.66522922  0.34326341  0.62372154  1
  Sr2+  Sr3  1  0.66752445  0.65426780  0.87475951  1
  Sr2+  Sr4  1  0.16513512  0.84171934  0.12538163  1
  Sr2+  Sr5  1  0.83061707  0.49205832  0.87478215  1
  Sr2+  Sr6  1  0.33596765  0.32554854  0.37587847  1
  Ca2+  Ca7  1  1.00181040  0.98485142  0.37517162  1
  Ca2+  Ca8  1  0.49810122  0.48525918  0.87470656  1
  Ca2+  Ca9  1  -0.00558032  0.35033586  0.12492435  1
  Ca2+  Ca10  1  0.16962770  0.84930790  0.62425070  1
  Ca2+  Ca11  1  0.82613150  0.48408992  0.37444948  1
  Ca2+  Ca12  1  0.83666105  0.84723950  0.62215758  1
  Ca2+  Ca13  1  0.16486017  0.15119288  0.87528828  1
  Ca2+  Ca14  1  0.33467379  0.98693255  0.87469220  1
  Ca2+  Ca15  1  0.33237117  0.34788546  0.62525356  1
  Ca2+  Ca16  1  -0.00355173  0.68195712  0.12545850  1
  Ca2+  Ca17  1  0.66750527  0.32186600  0.37587193  1
  Ca2+  Ca18  1  0.50218636  0.18130643  0.12475596  1
  Ca2+  Ca19  1  0.67202724  0.64943798  0.37533157  1
  Ca2+  Ca20  1  0.83163001  0.81763312  0.37731992  1
  Ca2+  Ca21  1  0.16135761  0.48515372  0.87520550  1
  Pr3+  Pr22  1  -0.00454805  0.68279213  0.62453471  1
  Pr3+  Pr23  1  -0.00126553  0.01247489  0.62373004  1
  Pr3+  Pr24  1  0.16810192  0.17836591  0.12274508  1
  Pr3+  Pr25  1  0.49705631  0.82197396  0.87416416  1
  Pr3+  Pr26  1  1.00287704  0.98820108  0.87478533  1
  Pr3+  Pr27  1  0.16552209  0.82310684  0.87432346  1
  Pr3+  Pr28  1  0.83593769  0.18227475  0.62443019  1
  Pr3+  Pr29  1  1.00465050  0.65228705  0.87706799  1
  Pr3+  Pr30  1  0.50059049  0.18123757  0.62671828  1
  Pr3+  Pr31  1  0.50348826  0.51087218  0.12537633  1
  Pr3+  Pr32  1  0.66621534  0.67745626  0.12556012  1
  Pr3+  Pr33  1  0.16482317  0.48664457  0.37400504  1
  Pr3+  Pr34  1  0.33731554  0.65195432  0.87577699  1
  Pr3+  Pr35  1  0.33514751  0.32162698  0.87470244  1
  Pr3+  Pr36  1  0.17081060  0.51034892  0.62582526  1
  Pr3+  Pr37  1  -0.00323432  0.34775675  0.62505902  1
  Pr3+  Pr38  1  0.33588104  0.98931361  0.37487186  1
  Pr3+  Pr39  1  0.33086022  0.67867734  0.12643200  1
  Pr3+  Pr40  1  0.50228340  0.50734375  0.62397549  1
  Pr3+  Pr41  1  0.16156483  0.82247916  0.37595200  1
  Pr3+  Pr42  1  0.33439007  0.34392465  0.12469666  1
  Pr3+  Pr43  1  0.33032685  0.01257842  0.12282570  1
  Pr3+  Pr44  1  0.66390696  0.34584110  0.12649366  1
  Pr3+  Pr45  1  0.83063481  0.81950609  0.87256303  1
  Pr3+  Pr46  1  1.00621527  0.32052351  0.87645792  1
  Pr3+  Pr47  1  0.83010042  0.15561128  0.37548659  1
  Pr3+  Pr48  1  0.66488392  0.01198381  0.62432712  1
  Pr3+  Pr49  1  -0.00196924  0.01101790  0.12595009  1
  Pr3+  Pr50  1  0.16285712  0.15223350  0.37429595  1
  Pr3+  Pr51  1  0.16545910  0.51169927  0.12386979  1
  Pr3+  Pr52  1  0.32888154  0.01296363  0.62705428  1
  Pr3+  Pr53  1  0.50397445  0.84578411  0.12461725  1
  Pr3+  Pr54  1  0.83830310  0.84261389  0.12695450  1
  Pr3+  Pr55  1  0.49809735  0.81929822  0.37570874  1
  Pr3+  Pr56  1  0.32891887  0.68024217  0.62365266  1
  Pr3+  Pr57  1  0.66217263  0.01498267  0.12583047  1
  Pr3+  Pr58  1  0.66930169  0.98759361  0.87413637  1
  Pr3+  Pr59  1  0.83370927  0.51163185  0.62440638  1
  Pr3+  Pr60  1  0.99990358  0.65490804  0.37287029  1
  Pr3+  Pr61  1  0.50351685  0.84620165  0.62483836  1
  Pr3+  Pr62  1  0.82914303  0.15611864  0.87456613  1
  Pr3+  Pr63  1  0.66553238  0.67527356  0.62438181  1
  Pr3+  Pr64  1  0.67174257  0.98473333  0.37625263  1
  Pr3+  Pr65  1  0.33588402  0.65359791  0.37398346  1
  Pr3+  Pr66  1  0.83871523  0.51590423  0.12603026  1
  Pr3+  Pr67  1  1.00325529  0.32260162  0.37296901  1
  Pr3+  Pr68  1  0.83905963  0.18406440  0.12505949  1
  Pr3+  Pr69  1  0.17228851  0.18260030  0.62677288  1
  Pr3+  Pr70  1  0.49876676  0.16153487  0.37352997  1
  Pr3+  Pr71  1  0.66742683  0.32447482  0.87431985  1
  Mn3.30+  Mn72  1  0.16737101  0.00012421  -0.00143384  1
  Mn3.30+  Mn73  1  0.16483059  -0.00066917  0.50006930  1
  Mn3.30+  Mn74  1  0.16538843  0.33342701  0.00106463  1
  Mn3.30+  Mn75  1  0.16818994  0.33340492  0.49950029  1
  Mn3.30+  Mn76  1  0.16676161  0.66617398  0.00037002  1
  Mn3.30+  Mn77  1  0.16507456  0.66743783  0.50046104  1
  Mn3.30+  Mn78  1  0.49804096  0.00140675  -0.00078909  1
  Mn3.30+  Mn79  1  0.50029628  0.00137069  0.49958001  1
  Mn3.30+  Mn80  1  0.49988602  0.33297590  -0.00029819  1
  Mn3.30+  Mn81  1  0.49987084  0.33419678  0.49988601  1
  Mn3.30+  Mn82  1  0.50001346  0.66490261  -0.00092787  1
  Mn3.30+  Mn83  1  0.50107340  0.66496295  0.49940646  1
  Mn3.30+  Mn84  1  0.83278320  0.00029101  0.00095299  1
  Mn3.30+  Mn85  1  0.83505069  -0.00230153  0.49886091  1
  Mn3.30+  Mn86  1  0.83570097  0.33565055  -0.00020676  1
  Mn3.30+  Mn87  1  0.83234214  0.33543798  0.49800910  1
  Mn3.30+  Mn88  1  0.83428883  0.66691751  0.00009453  1
  Mn3.30+  Mn89  1  0.83185026  0.66692844  0.49855018  1
  Mn3.30+  Mn90  1  -0.00087620  0.16693976  0.24970038  1
  Mn3.30+  Mn91  1  0.00249716  0.16696672  0.75074610  1
  Mn3.30+  Mn92  1  -0.00319590  0.50087365  0.25037210  1
  Mn3.30+  Mn93  1  0.00221317  0.50063979  0.75113107  1
  Mn3.30+  Mn94  1  -0.00220617  0.83398285  0.25241277  1
  Mn3.30+  Mn95  1  0.00001443  0.83435991  0.74744242  1
  Mn3.30+  Mn96  1  0.33360968  0.16766829  0.24854432  1
  Mn3.30+  Mn97  1  0.33216078  0.16667568  0.75308714  1
  Mn3.30+  Mn98  1  0.33415553  0.49908606  0.24855746  1
  Mn3.30+  Mn99  1  0.33286217  0.49860669  0.75235950  1
  Mn3.30+  Mn100  1  0.33311009  0.83423630  0.25022493  1
  Mn3.30+  Mn101  1  0.33150150  0.83415647  0.74951271  1
  Mn3.30+  Mn102  1  0.66655574  0.16811946  0.24997585  1
  Mn3.30+  Mn103  1  0.66567450  0.16711446  0.75023168  1
  Mn3.30+  Mn104  1  0.67004004  0.49894473  0.25280069  1
  Mn3.30+  Mn105  1  0.66555242  0.49910398  0.75050166  1
  Mn3.30+  Mn106  1  0.66991341  0.83065177  0.25271695  1
  Mn3.30+  Mn107  1  0.66825795  0.83231223  0.74719171  1
  Mn3.30+  Mn108  1  0.16495334  -0.00089969  0.24940848  1
  Mn3.30+  Mn109  1  0.16718889  0.00039059  0.75139161  1
  Mn3.30+  Mn110  1  0.16481854  0.33261314  0.24724661  1
  Mn3.30+  Mn111  1  0.16882771  0.33392185  0.75171687  1
  Mn3.30+  Mn112  1  0.16482016  0.66694354  0.24913835  1
  Mn3.30+  Mn113  1  0.16664510  0.66710232  0.74971033  1
  Mn3.30+  Mn114  1  0.50109107  0.00210748  0.25016089  1
  Mn3.30+  Mn115  1  0.49744063  0.00050255  0.75140348  1
  Mn3.30+  Mn116  1  0.50121729  0.33285825  0.25052918  1
  Mn3.30+  Mn117  1  0.49828973  0.33426255  0.75055369  1
  Mn3.30+  Mn118  1  0.50265368  0.66596575  0.25122781  1
  Mn3.30+  Mn119  1  0.49851711  0.66397395  0.75025235  1
  Mn3.30+  Mn120  1  0.83351365  -0.00135770  0.25242509  1
  Mn3.30+  Mn121  1  0.83424311  -0.00010723  0.74777219  1
  Mn3.30+  Mn122  1  0.83319272  0.33506885  0.25124948  1
  Mn3.30+  Mn123  1  0.83451389  0.33571731  0.75091119  1
  Mn3.30+  Mn124  1  0.83285796  0.66706848  0.25323964  1
  Mn3.30+  Mn125  1  0.83310398  0.66729286  0.74844931  1
  Mn3.30+  Mn126  1  0.00132500  0.16757205  -0.00035678  1
  Mn3.30+  Mn127  1  0.00060784  0.16641190  0.49918702  1
  Mn3.30+  Mn128  1  0.00063910  0.49976029  0.00040508  1
  Mn3.30+  Mn129  1  -0.00156072  0.50130930  0.49787941  1
  Mn3.30+  Mn130  1  -0.00018149  0.83259982  0.00040365  1
  Mn3.30+  Mn131  1  -0.00194890  0.83491787  0.49986026  1
  Mn3.30+  Mn132  1  0.33339674  0.16558817  -0.00128837  1
  Mn3.30+  Mn133  1  0.33253988  0.16899886  0.49972670  1
  Mn3.30+  Mn134  1  0.33231359  0.49905820  -0.00152935  1
  Mn3.30+  Mn135  1  0.33484940  0.49883957  0.50089919  1
  Mn3.30+  Mn136  1  0.33291028  0.83418805  0.00016456  1
  Mn3.30+  Mn137  1  0.33162703  0.83424081  0.50023448  1
  Mn3.30+  Mn138  1  0.66582593  0.16738845  0.00090547  1
  Mn3.30+  Mn139  1  0.66607731  0.16796517  0.49955646  1
  Mn3.30+  Mn140  1  0.66734165  0.49977757  -0.00075723  1
  Mn3.30+  Mn141  1  0.66868331  0.49823420  0.49745330  1
  Mn3.30+  Mn142  1  0.66789651  0.83314257  0.00015774  1
  Mn3.30+  Mn143  1  0.67025292  0.83004334  0.49953151  1
  O2-  O144  1  0.02461440  0.15747855  0.12408130  1
  O2-  O145  1  0.02782469  0.16131113  0.62371269  1
  O2-  O146  1  0.02247907  0.49441457  0.12483997  1
  O2-  O147  1  0.02639559  0.49587358  0.62345033  1
  O2-  O148  1  0.01557740  0.82903231  0.12664991  1
  O2-  O149  1  0.02813906  0.82942469  0.62518782  1
  O2-  O150  1  0.35953808  0.15917911  0.12387757  1
  O2-  O151  1  0.35660048  0.15844896  0.62661721  1
  O2-  O152  1  0.35882883  0.49569343  0.12308206  1
  O2-  O153  1  0.35666522  0.49678013  0.62773241  1
  O2-  O154  1  0.36003966  0.82746751  0.12553950  1
  O2-  O155  1  0.35955511  0.82870409  0.62255842  1
  O2-  O156  1  0.69451259  0.16157323  0.12536543  1
  O2-  O157  1  0.69148827  0.16081614  0.62485664  1
  O2-  O158  1  0.69380640  0.49383743  0.12708529  1
  O2-  O159  1  0.68983710  0.49824691  0.62256881  1
  O2-  O160  1  0.69393150  0.82703530  0.12832300  1
  O2-  O161  1  0.69439610  0.82531601  0.62281429  1
  O2-  O162  1  0.13584632  0.32568919  0.12492344  1
  O2-  O163  1  0.14028666  0.33039689  0.62524274  1
  O2-  O164  1  0.13912120  0.66008679  0.12701488  1
  O2-  O165  1  0.13953449  0.65655018  0.62541214  1
  O2-  O166  1  0.14182949  0.99888176  0.12431251  1
  O2-  O167  1  0.14263883  0.99609025  0.62569622  1
  O2-  O168  1  0.47891819  0.32923396  0.12382006  1
  O2-  O169  1  0.47514869  0.32984680  0.62627362  1
  O2-  O170  1  0.47541560  0.66186317  0.12579018  1
  O2-  O171  1  0.47250594  0.65813359  0.62684658  1
  O2-  O172  1  0.47468297  0.99130721  0.12465041  1
  O2-  O173  1  0.47371312  0.99405166  0.62428524  1
  O2-  O174  1  0.80868151  0.32982359  0.12554768  1
  O2-  O175  1  0.81625362  0.33072186  0.62391564  1
  O2-  O176  1  0.81052255  0.66646036  0.12848665  1
  O2-  O177  1  0.81002074  0.65936908  0.62307448  1
  O2-  O178  1  0.80627514  0.99084393  0.12859751  1
  O2-  O179  1  0.80829731  0.99372360  0.62417814  1
  O2-  O180  1  0.30696374  0.16981329  0.37351129  1
  O2-  O181  1  0.30471371  0.17599971  0.87542903  1
  O2-  O182  1  0.30888342  0.50525479  0.37311445  1
  O2-  O183  1  0.30259255  0.50577525  0.87676807  1
  O2-  O184  1  0.30719759  0.83981760  0.37637258  1
  O2-  O185  1  0.30975044  0.83843029  0.87568180  1
  O2-  O186  1  0.64416052  0.17151905  0.37516431  1
  O2-  O187  1  0.64978681  0.17266166  0.87541949  1
  O2-  O188  1  0.64782737  0.50758886  0.37426445  1
  O2-  O189  1  0.64211083  0.49883899  0.87615017  1
  O2-  O190  1  0.63946376  0.83901809  0.37613002  1
  O2-  O191  1  0.64167032  0.83973941  0.87228477  1
  O2-  O192  1  0.97342032  0.17622564  0.37508672  1
  O2-  O193  1  0.97264735  0.17198668  0.87658615  1
  O2-  O194  1  0.97071863  0.50705576  0.37508580  1
  O2-  O195  1  0.97979890  0.50521366  0.87679437  1
  O2-  O196  1  0.97369523  0.83962792  0.37685002  1
  O2-  O197  1  0.97453932  0.83935960  0.87207142  1
  O2-  O198  1  0.19204564  0.00450738  0.37435167  1
  O2-  O199  1  0.19125399  0.00407177  0.87525626  1
  O2-  O200  1  0.18551841  0.33798431  0.37203871  1
  O2-  O201  1  0.19209726  0.34254011  0.87710929  1
  O2-  O202  1  0.19156195  0.67299520  0.37504004  1
  O2-  O203  1  0.19331086  0.67629176  0.87281529  1
  O2-  O204  1  0.52743985  0.01050723  0.37561500  1
  O2-  O205  1  0.52612738  -0.00064734  0.87572830  1
  O2-  O206  1  0.52344368  0.32922799  0.37433554  1
  O2-  O207  1  0.52306367  0.33885989  0.87631487  1
  O2-  O208  1  0.52764292  0.67318864  0.37305949  1
  O2-  O209  1  0.51899155  0.67558242  0.87313155  1
  O2-  O210  1  0.86008795  0.00990362  0.37473688  1
  O2-  O211  1  0.85836388  0.00821612  0.87260054  1
  O2-  O212  1  0.86051556  0.33633684  0.37507281  1
  O2-  O213  1  0.86086698  0.33434305  0.87562931  1
  O2-  O214  1  0.85843619  0.67428153  0.37702287  1
  O2-  O215  1  0.85921945  0.67182053  0.87150114  1
  O2-  O216  1  0.23899528  0.09415146  0.02161438  1
  O2-  O217  1  0.23731596  0.09622962  0.51920437  1
  O2-  O218  1  0.23941220  0.42576455  0.02636388  1
  O2-  O219  1  0.23708502  0.43082816  0.51566410  1
  O2-  O220  1  0.24229133  0.75797343  0.01923630  1
  O2-  O221  1  0.23618033  0.76140396  0.52147824  1
  O2-  O222  1  0.57055303  0.09281763  0.02308172  1
  O2-  O223  1  0.57204759  0.09263013  0.52297233  1
  O2-  O224  1  0.57433318  0.42713789  0.02261119  1
  O2-  O225  1  0.57216666  0.42774172  0.51704419  1
  O2-  O226  1  0.57427823  0.76129263  0.02025543  1
  O2-  O227  1  0.57076591  0.76046900  0.52209500  1
  O2-  O228  1  0.90395711  0.09497033  0.02102004  1
  O2-  O229  1  0.90618861  0.09687755  0.52224949  1
  O2-  O230  1  0.90446964  0.42947452  0.02027022  1
  O2-  O231  1  0.90727967  0.42808944  0.52097204  1
  O2-  O232  1  0.90370687  0.76368063  0.01421591  1
  O2-  O233  1  0.90476494  0.76204508  0.52302502  1
  O2-  O234  1  0.25941582  0.25791975  0.22400074  1
  O2-  O235  1  0.26198039  0.26383774  0.72809152  1
  O2-  O236  1  0.25890945  0.59223365  0.22944718  1
  O2-  O237  1  0.26234416  0.59635698  0.72903005  1
  O2-  O238  1  0.26517098  0.92909599  0.23278649  1
  O2-  O239  1  0.26158210  0.92846382  0.73069536  1
  O2-  O240  1  0.59540895  0.26043118  0.23035027  1
  O2-  O241  1  0.59056994  0.25834087  0.73391962  1
  O2-  O242  1  0.59483531  0.59201872  0.22691506  1
  O2-  O243  1  0.59130704  0.59131231  0.72748298  1
  O2-  O244  1  0.59748258  0.92740708  0.23084382  1
  O2-  O245  1  0.59620058  0.92544646  0.72711128  1
  O2-  O246  1  0.93016842  0.26384628  0.22869381  1
  O2-  O247  1  0.93138551  0.26036461  0.73002240  1
  O2-  O248  1  0.93019351  0.59903288  0.22895473  1
  O2-  O249  1  0.92868854  0.59651866  0.72996814  1
  O2-  O250  1  0.92620021  0.92876651  0.22901397  1
  O2-  O251  1  0.93051075  0.93166153  0.73119557  1
  O2-  O252  1  0.09469961  0.23758091  0.27052304  1
  O2-  O253  1  0.09891276  0.23823510  0.77230275  1
  O2-  O254  1  0.09425817  0.57258877  0.27225651  1
  O2-  O255  1  0.09657139  0.57165047  0.77208784  1
  O2-  O256  1  0.09370431  0.90601413  0.26991630  1
  O2-  O257  1  0.09437465  0.90690814  0.77212798  1
  O2-  O258  1  0.42811761  0.23834720  0.26547514  1
  O2-  O259  1  0.42508140  0.23970649  0.76811499  1
  O2-  O260  1  0.42553349  0.57779036  0.26711875  1
  O2-  O261  1  0.42599479  0.57022214  0.77461782  1
  O2-  O262  1  0.43093533  0.90722278  0.27244027  1
  O2-  O263  1  0.43080173  0.90266423  0.76662560  1
  O2-  O264  1  0.76657310  0.23638269  0.26652248  1
  O2-  O265  1  0.76294258  0.24053707  0.76747180  1
  O2-  O266  1  0.76743259  0.56841319  0.26668169  1
  O2-  O267  1  0.75951739  0.57321118  0.76096406  1
  O2-  O268  1  0.76224260  0.90135785  0.27533365  1
  O2-  O269  1  0.76186815  0.90898711  0.77161828  1
  O2-  O270  1  0.07003698  0.07144027  0.47705400  1
  O2-  O271  1  0.06915128  0.07141199  0.98107659  1
  O2-  O272  1  0.07072240  0.40717058  0.47906318  1
  O2-  O273  1  0.07190651  0.40466182  0.98190491  1
  O2-  O274  1  0.06825822  0.73954219  0.47914328  1
  O2-  O275  1  0.07438796  0.74050720  0.97794795  1
  O2-  O276  1  0.40374165  0.07491443  0.47947241  1
  O2-  O277  1  0.40093022  0.06670563  0.98064002  1
  O2-  O278  1  0.40684188  0.40787241  0.48652909  1
  O2-  O279  1  0.40178877  0.40510199  0.98248264  1
  O2-  O280  1  0.40470547  0.73982148  0.47884427  1
  O2-  O281  1  0.40492802  0.73891921  0.98118093  1
  O2-  O282  1  0.73939876  0.07075872  0.48074156  1
  O2-  O283  1  0.73778507  0.07137775  0.98102424  1
  O2-  O284  1  0.73874607  0.40328477  0.47794926  1
  O2-  O285  1  0.73667604  0.40285226  0.98302583  1
  O2-  O286  1  0.73355731  0.73182704  0.48107101  1
  O2-  O287  1  0.74154185  0.74125417  0.98181051  1
  O2-  O288  1  0.09481492  0.23764004  0.47953183  1
  O2-  O289  1  0.09630625  0.23669094  0.97669089  1
  O2-  O290  1  0.09367496  0.57217970  0.47640588  1
  O2-  O291  1  0.09734569  0.57090356  0.97974730  1
  O2-  O292  1  0.09462801  0.90447135  0.48066811  1
  O2-  O293  1  0.09281132  0.90704532  0.97828727  1
  O2-  O294  1  0.42916558  0.23640005  0.48470053  1
  O2-  O295  1  0.42198595  0.24133233  0.98166897  1
  O2-  O296  1  0.42459476  0.57585253  0.48088698  1
  O2-  O297  1  0.42688358  0.56995516  0.97872039  1
  O2-  O298  1  0.42989601  0.90738998  0.47770361  1
  O2-  O299  1  0.43158100  0.90160811  0.98316125  1
  O2-  O300  1  0.76475565  0.23746537  0.48388370  1
  O2-  O301  1  0.76558405  0.23970812  0.98205277  1
  O2-  O302  1  0.76612654  0.56768828  0.48335197  1
  O2-  O303  1  0.76145727  0.57324710  0.98953479  1
  O2-  O304  1  0.76089535  0.90280436  0.47642666  1
  O2-  O305  1  0.76133729  0.90611819  0.97756341  1
  O2-  O306  1  0.06923700  0.07255573  0.27165358  1
  O2-  O307  1  0.06970525  0.07104689  0.76885934  1
  O2-  O308  1  0.07131851  0.40896680  0.27072053  1
  O2-  O309  1  0.07205044  0.40219620  0.76752008  1
  O2-  O310  1  0.07286496  0.74166648  0.27296891  1
  O2-  O311  1  0.07095500  0.73772783  0.77083375  1
  O2-  O312  1  0.40401708  0.07364512  0.27089431  1
  O2-  O313  1  0.39990216  0.06953840  0.76879255  1
  O2-  O314  1  0.40692280  0.40593403  0.26122737  1
  O2-  O315  1  0.40357761  0.40572016  0.77145708  1
  O2-  O316  1  0.40666371  0.74118857  0.27168012  1
  O2-  O317  1  0.40267025  0.73797632  0.76800057  1
  O2-  O318  1  0.73814924  0.06965265  0.27069484  1
  O2-  O319  1  0.73930654  0.07191283  0.76851583  1
  O2-  O320  1  0.73586142  0.39986620  0.27002653  1
  O2-  O321  1  0.73811895  0.40599649  0.76811495  1
  O2-  O322  1  0.73404745  0.73223375  0.26959902  1
  O2-  O323  1  0.74061173  0.74120207  0.76826111  1
  O2-  O324  1  0.23758438  0.09423734  0.22973263  1
  O2-  O325  1  0.23719010  0.09510020  0.72891624  1
  O2-  O326  1  0.23675612  0.42530487  0.22747883  1
  O2-  O327  1  0.23835959  0.42886708  0.73002263  1
  O2-  O328  1  0.24135455  0.75643355  0.23241299  1
  O2-  O329  1  0.23600492  0.76264285  0.72660043  1
  O2-  O330  1  0.57084080  0.09516446  0.22751422  1
  O2-  O331  1  0.57204511  0.09082446  0.72845446  1
  O2-  O332  1  0.57405430  0.42664448  0.22872085  1
  O2-  O333  1  0.56996539  0.42786285  0.73264557  1
  O2-  O334  1  0.57248167  0.76147723  0.22816481  1
  O2-  O335  1  0.57140449  0.75836514  0.72706957  1
  O2-  O336  1  0.90429426  0.09625264  0.22826118  1
  O2-  O337  1  0.90386901  0.09493275  0.72761853  1
  O2-  O338  1  0.90231719  0.42907041  0.23138841  1
  O2-  O339  1  0.90848133  0.42836387  0.72883956  1
  O2-  O340  1  0.90245045  0.76264048  0.23578500  1
  O2-  O341  1  0.90490767  0.76423695  0.72723237  1
  O2-  O342  1  0.25893803  0.26107010  0.02291349  1
  O2-  O343  1  0.26173962  0.26086875  0.52381672  1
  O2-  O344  1  0.26211261  0.59404726  0.02257172  1
  O2-  O345  1  0.26113139  0.59411894  0.51901861  1
  O2-  O346  1  0.26311203  0.92691061  0.01905637  1
  O2-  O347  1  0.26317279  0.93042421  0.51819481  1
  O2-  O348  1  0.59815854  0.26148105  0.01695654  1
  O2-  O349  1  0.58946647  0.25650510  0.51963529  1
  O2-  O350  1  0.59369217  0.59198072  0.02337939  1
  O2-  O351  1  0.59353183  0.59164166  0.52120910  1
  O2-  O352  1  0.59608180  0.92789298  0.02103600  1
  O2-  O353  1  0.59671672  0.92578536  0.52034312  1
  O2-  O354  1  0.93090892  0.26295537  0.02213260  1
  O2-  O355  1  0.92998228  0.26175291  0.51985833  1
  O2-  O356  1  0.93029915  0.59784747  0.02015225  1
  O2-  O357  1  0.92972343  0.59657890  0.52091960  1
  O2-  O358  1  0.92700200  0.92941514  0.01881557  1
  O2-  O359  1  0.92989275  0.92886649  0.52140834  1
