# generated using pymatgen
data_Sr7Ca15Pr50Mn72O216
_symmetry_space_group_name_H-M   'P 1'
_cell_length_a   16.55937676
_cell_length_b   16.60541558
_cell_length_c   15.59292755
_cell_angle_alpha   89.99536065
_cell_angle_beta   90.00369943
_cell_angle_gamma   89.99248039
_symmetry_Int_Tables_number   1
_chemical_formula_structural   Sr7Ca15Pr50Mn72O216
_chemical_formula_sum   'Sr7 Ca15 Pr50 Mn72 O216'
_cell_volume   4287.67038435
_cell_formula_units_Z   1
loop_
 _symmetry_equiv_pos_site_id
 _symmetry_equiv_pos_as_xyz
  1  'x, y, z'
loop_
 _atom_type_symbol
 _atom_type_oxidation_number
  Sr2+  2.0
  Ca2+  2.0
  Pr3+  3.0
  Mn3.30+  3.3
  O2-  -2.0
loop_
 _atom_site_type_symbol
 _atom_site_label
 _atom_site_symmetry_multiplicity
 _atom_site_fract_x
 _atom_site_fract_y
 _atom_site_fract_z
 _atom_site_occupancy
  Sr2+  Sr0  1  0.66724855  0.65897695  0.37417927  1
  Sr2+  Sr1  1  0.66541706  0.67531432  0.62500243  1
  Sr2+  Sr2  1  0.33032001  0.00775069  0.12452341  1
  Sr2+  Sr3  1  0.66600787  0.99218671  0.37629176  1
  Sr2+  Sr4  1  0.66651301  0.32300680  0.37651111  1
  Sr2+  Sr5  1  0.17122624  0.84382555  0.12239764  1
  Sr2+  Sr6  1  0.33786813  0.31998771  0.37585272  1
  Ca2+  Ca7  1  0.49739772  0.15207987  0.37511283  1
  Ca2+  Ca8  1  0.16901779  0.18066341  0.62530702  1
  Ca2+  Ca9  1  0.83212839  0.48844008  0.87302487  1
  Ca2+  Ca10  1  0.32785718  0.68342175  0.12048242  1
  Ca2+  Ca11  1  0.83687252  0.84778208  0.62628849  1
  Ca2+  Ca12  1  0.16130157  0.81570589  0.87629859  1
  Ca2+  Ca13  1  1.00671153  0.98267354  0.87152646  1
  Ca2+  Ca14  1  0.66292045  0.68208452  0.12433178  1
  Ca2+  Ca15  1  0.50445356  0.51564078  0.62386156  1
  Ca2+  Ca16  1  0.16909990  0.51610684  0.62655877  1
  Ca2+  Ca17  1  1.00389080  0.65296661  0.87445814  1
  Ca2+  Ca18  1  -0.00535212  0.01652309  0.62796645  1
  Ca2+  Ca19  1  0.49490023  0.81326245  0.87474527  1
  Ca2+  Ca20  1  0.33479022  0.65491965  0.87527293  1
  Ca2+  Ca21  1  0.83633110  0.18061236  0.62410268  1
  Pr3+  Pr22  1  0.83510212  0.17850540  0.12565642  1
  Pr3+  Pr23  1  0.49976756  0.84340352  0.12224493  1
  Pr3+  Pr24  1  0.17184741  0.51608177  0.12405753  1
  Pr3+  Pr25  1  0.50373099  0.17790017  0.62336144  1
  Pr3+  Pr26  1  0.83479095  0.51450004  0.12406779  1
  Pr3+  Pr27  1  0.33783961  0.65589345  0.37325298  1
  Pr3+  Pr28  1  0.16123654  0.15201457  0.87165250  1
  Pr3+  Pr29  1  -0.00022393  0.01011527  0.12232397  1
  Pr3+  Pr30  1  -0.00236351  0.34681519  0.12446948  1
  Pr3+  Pr31  1  0.83388940  0.82031523  0.87315568  1
  Pr3+  Pr32  1  0.16546056  0.15370770  0.37813578  1
  Pr3+  Pr33  1  1.00201147  0.98737370  0.37799356  1
  Pr3+  Pr34  1  -0.00518894  0.68097209  0.62833525  1
  Pr3+  Pr35  1  0.17144754  0.17582802  0.12427334  1
  Pr3+  Pr36  1  0.66293800  0.34649121  0.12616614  1
  Pr3+  Pr37  1  0.66911155  0.98428147  0.87369737  1
  Pr3+  Pr38  1  0.16507614  0.48663240  0.37728452  1
  Pr3+  Pr39  1  0.82787785  0.48816695  0.37639676  1
  Pr3+  Pr40  1  0.82691366  0.82295376  0.37700354  1
  Pr3+  Pr41  1  0.50097562  0.17758946  0.12645847  1
  Pr3+  Pr42  1  0.33557017  0.32160723  0.87340437  1
  Pr3+  Pr43  1  0.83508540  0.51263101  0.62589817  1
  Pr3+  Pr44  1  0.83422372  0.84492667  0.12408909  1
  Pr3+  Pr45  1  0.33476543  0.98265413  0.87495984  1
  Pr3+  Pr46  1  1.00283555  0.31913981  0.37656525  1
  Pr3+  Pr47  1  0.16536537  0.49215379  0.87276069  1
  Pr3+  Pr48  1  0.33191293  0.67637756  0.62798934  1
  Pr3+  Pr49  1  0.33755139  0.98994592  0.37558413  1
  Pr3+  Pr50  1  0.16563230  0.82160077  0.37454766  1
  Pr3+  Pr51  1  -0.00080085  0.34545643  0.62572559  1
  Pr3+  Pr52  1  0.49825039  0.48861864  0.37811033  1
  Pr3+  Pr53  1  0.49514168  0.49087856  0.87195814  1
  Pr3+  Pr54  1  0.66390461  0.34763129  0.62349031  1
  Pr3+  Pr55  1  0.82790062  0.15305966  0.37895985  1
  Pr3+  Pr56  1  0.33061170  0.34477933  0.12619249  1
  Pr3+  Pr57  1  0.32871956  0.34976063  0.62332024  1
  Pr3+  Pr58  1  0.83224319  0.15259466  0.87161213  1
  Pr3+  Pr59  1  1.00141026  0.32316724  0.87339523  1
  Pr3+  Pr60  1  0.16873811  0.84538080  0.62816577  1
  Pr3+  Pr61  1  -0.00112455  0.68192046  0.12133884  1
  Pr3+  Pr62  1  0.50290352  0.51618559  0.12560478  1
  Pr3+  Pr63  1  0.50015707  0.82218100  0.37523737  1
  Pr3+  Pr64  1  0.66252686  0.01147258  0.12450637  1
  Pr3+  Pr65  1  0.32894362  0.01480484  0.62661243  1
  Pr3+  Pr66  1  0.49723940  0.15349147  0.87372939  1
  Pr3+  Pr67  1  0.67043498  0.32309765  0.87403049  1
  Pr3+  Pr68  1  0.66853198  0.00952210  0.62483684  1
  Pr3+  Pr69  1  0.50439754  0.84242560  0.62778640  1
  Pr3+  Pr70  1  0.66863302  0.65223844  0.87496776  1
  Pr3+  Pr71  1  1.00203664  0.65544496  0.37497807  1
  Mn3.30+  Mn72  1  0.16628372  -0.00284684  -0.00328002  1
  Mn3.30+  Mn73  1  0.16518699  0.00103925  0.50426489  1
  Mn3.30+  Mn74  1  0.16682458  0.33392664  -0.00094233  1
  Mn3.30+  Mn75  1  0.16734052  0.33263982  0.50140870  1
  Mn3.30+  Mn76  1  0.16800123  0.66799777  -0.00338742  1
  Mn3.30+  Mn77  1  0.16638442  0.66644470  0.50209820  1
  Mn3.30+  Mn78  1  0.49902601  -0.00254301  -0.00203401  1
  Mn3.30+  Mn79  1  0.50014434  -0.00031630  0.50111942  1
  Mn3.30+  Mn80  1  0.49972072  0.33443905  -0.00051995  1
  Mn3.30+  Mn81  1  0.49856310  0.33223859  0.50004039  1
  Mn3.30+  Mn82  1  0.49754753  0.66752073  0.00038848  1
  Mn3.30+  Mn83  1  0.50065082  0.66603888  0.50050123  1
  Mn3.30+  Mn84  1  0.83499275  -0.00076224  -0.00312467  1
  Mn3.30+  Mn85  1  0.83587699  0.00001533  0.50417624  1
  Mn3.30+  Mn86  1  0.83299498  0.33451203  -0.00108944  1
  Mn3.30+  Mn87  1  0.83326263  0.33251557  0.50160998  1
  Mn3.30+  Mn88  1  0.83323190  0.66592326  -0.00215241  1
  Mn3.30+  Mn89  1  0.83304419  0.66913891  0.50200659  1
  Mn3.30+  Mn90  1  0.00027931  0.16545131  0.25028935  1
  Mn3.30+  Mn91  1  -0.00080446  0.16531342  0.74712128  1
  Mn3.30+  Mn92  1  0.00015362  0.50101140  0.24971081  1
  Mn3.30+  Mn93  1  0.00029114  0.50153866  0.75079831  1
  Mn3.30+  Mn94  1  -0.00032977  0.83414031  0.24957679  1
  Mn3.30+  Mn95  1  0.00127667  0.83474655  0.75110141  1
  Mn3.30+  Mn96  1  0.33477913  0.16536078  0.25096561  1
  Mn3.30+  Mn97  1  0.33133549  0.16734555  0.74899822  1
  Mn3.30+  Mn98  1  0.33413414  0.50098250  0.24934039  1
  Mn3.30+  Mn99  1  0.33238745  0.50244584  0.74808094  1
  Mn3.30+  Mn100  1  0.33244126  0.83299646  0.24908129  1
  Mn3.30+  Mn101  1  0.33326536  0.83017095  0.75302729  1
  Mn3.30+  Mn102  1  0.66601588  0.16681909  0.25240180  1
  Mn3.30+  Mn103  1  0.66853932  0.16619364  0.74827633  1
  Mn3.30+  Mn104  1  0.66663165  0.50228612  0.24969423  1
  Mn3.30+  Mn105  1  0.66556257  0.50034341  0.75035942  1
  Mn3.30+  Mn106  1  0.66669720  0.83354280  0.24863170  1
  Mn3.30+  Mn107  1  0.66733351  0.83102537  0.75081083  1
  Mn3.30+  Mn108  1  0.16755527  -0.00066287  0.25066284  1
  Mn3.30+  Mn109  1  0.16301017  -0.00075248  0.74889172  1
  Mn3.30+  Mn110  1  0.16678979  0.33250398  0.25133204  1
  Mn3.30+  Mn111  1  0.16722220  0.33424691  0.74817820  1
  Mn3.30+  Mn112  1  0.16904684  0.66738216  0.24973027  1
  Mn3.30+  Mn113  1  0.16504154  0.66687012  0.75130713  1
  Mn3.30+  Mn114  1  0.49943532  -0.00010338  0.24976834  1
  Mn3.30+  Mn115  1  0.49960473  -0.00264308  0.75091676  1
  Mn3.30+  Mn116  1  0.49863344  0.33222477  0.25189027  1
  Mn3.30+  Mn117  1  0.50014597  0.33470126  0.74796326  1
  Mn3.30+  Mn118  1  0.50006700  0.66807606  0.24763879  1
  Mn3.30+  Mn119  1  0.49896353  0.66573914  0.75139824  1
  Mn3.30+  Mn120  1  0.83286516  0.00023595  0.24957637  1
  Mn3.30+  Mn121  1  0.83847448  -0.00116621  0.75006711  1
  Mn3.30+  Mn122  1  0.83245487  0.33352578  0.25041355  1
  Mn3.30+  Mn123  1  0.83356549  0.33378864  0.74927137  1
  Mn3.30+  Mn124  1  0.83223300  0.66803045  0.24812746  1
  Mn3.30+  Mn125  1  0.83470548  0.66659848  0.75212724  1
  Mn3.30+  Mn126  1  0.00053929  0.16519816  -0.00202548  1
  Mn3.30+  Mn127  1  -0.00086915  0.16561153  0.50385292  1
  Mn3.30+  Mn128  1  -0.00035693  0.50166722  -0.00213245  1
  Mn3.30+  Mn129  1  0.00085306  0.50095123  0.50165765  1
  Mn3.30+  Mn130  1  0.00246762  0.83379765  -0.00292478  1
  Mn3.30+  Mn131  1  -0.00145561  0.83527811  0.50261516  1
  Mn3.30+  Mn132  1  0.33250351  0.16528324  -0.00159632  1
  Mn3.30+  Mn133  1  0.33400767  0.16722499  0.50142805  1
  Mn3.30+  Mn134  1  0.33367209  0.50247455  -0.00014740  1
  Mn3.30+  Mn135  1  0.33264888  0.50153574  0.50208933  1
  Mn3.30+  Mn136  1  0.33181871  0.82949925  -0.00417038  1
  Mn3.30+  Mn137  1  0.33371918  0.83337800  0.50257038  1
  Mn3.30+  Mn138  1  0.66683159  0.16672493  -0.00134293  1
  Mn3.30+  Mn139  1  0.66767225  0.16605264  0.50087500  1
  Mn3.30+  Mn140  1  0.66707282  0.50119264  -0.00004078  1
  Mn3.30+  Mn141  1  0.66535557  0.50160946  0.50011828  1
  Mn3.30+  Mn142  1  0.66496212  0.83074767  -0.00246019  1
  Mn3.30+  Mn143  1  0.66870205  0.83355008  0.50277618  1
  O2-  O144  1  0.02736663  0.15934543  0.12222340  1
  O2-  O145  1  0.02797024  0.16199560  0.62569473  1
  O2-  O146  1  0.02697773  0.49483870  0.12476739  1
  O2-  O147  1  0.02720210  0.49432922  0.62470925  1
  O2-  O148  1  0.02141463  0.83040938  0.12238291  1
  O2-  O149  1  0.02694176  0.82525836  0.62636641  1
  O2-  O150  1  0.35595943  0.16509596  0.12213195  1
  O2-  O151  1  0.35955428  0.16215735  0.62676301  1
  O2-  O152  1  0.35897841  0.49035687  0.12349073  1
  O2-  O153  1  0.36129996  0.49785574  0.62498886  1
  O2-  O154  1  0.35541272  0.82876246  0.12045012  1
  O2-  O155  1  0.35985510  0.82601516  0.62726206  1
  O2-  O156  1  0.69103882  0.16136078  0.12323990  1
  O2-  O157  1  0.69439896  0.15910969  0.62734183  1
  O2-  O158  1  0.69159468  0.49299481  0.12427216  1
  O2-  O159  1  0.69070885  0.49672840  0.62614494  1
  O2-  O160  1  0.68999000  0.82951054  0.12166551  1
  O2-  O161  1  0.69173091  0.83132536  0.62943201  1
  O2-  O162  1  0.14156576  0.32532431  0.12630879  1
  O2-  O163  1  0.14234140  0.32578043  0.62479181  1
  O2-  O164  1  0.14201509  0.66220810  0.12406208  1
  O2-  O165  1  0.13925186  0.66275526  0.62509113  1
  O2-  O166  1  0.14355022  1.00093043  0.12213079  1
  O2-  O167  1  0.13718305  0.99078212  0.62601843  1
  O2-  O168  1  0.47416524  0.32607271  0.12640883  1
  O2-  O169  1  0.47250873  0.32383181  0.62524359  1
  O2-  O170  1  0.47012362  0.66320345  0.12431341  1
  O2-  O171  1  0.47614778  0.66336830  0.62548920  1
  O2-  O172  1  0.47993031  0.99343157  0.12101017  1
  O2-  O173  1  0.47383939  0.99157327  0.62867857  1
  O2-  O174  1  0.80757857  0.32588389  0.12410243  1
  O2-  O175  1  0.80888033  0.32872291  0.62604991  1
  O2-  O176  1  0.80606976  0.66171330  0.12054426  1
  O2-  O177  1  0.81534539  0.65919251  0.62705531  1
  O2-  O178  1  0.80692681  0.99449890  0.12041485  1
  O2-  O179  1  0.81036749  0.99148528  0.62812432  1
  O2-  O180  1  0.30935824  0.16259545  0.37896909  1
  O2-  O181  1  0.30704867  0.17393625  0.87276882  1
  O2-  O182  1  0.30799687  0.50818096  0.37608123  1
  O2-  O183  1  0.30980146  0.50487012  0.87474092  1
  O2-  O184  1  0.30974030  0.83947405  0.37959447  1
  O2-  O185  1  0.30318486  0.83797155  0.87273967  1
  O2-  O186  1  0.64217690  0.16669420  0.37660953  1
  O2-  O187  1  0.64090479  0.17361780  0.87359419  1
  O2-  O188  1  0.64361632  0.50298469  0.37345255  1
  O2-  O189  1  0.63933148  0.50158155  0.87625623  1
  O2-  O190  1  0.64501480  0.83655098  0.37404864  1
  O2-  O191  1  0.63898208  0.83751072  0.87496844  1
  O2-  O192  1  0.97201251  0.17114389  0.37717765  1
  O2-  O193  1  0.97456822  0.17646783  0.87449592  1
  O2-  O194  1  0.97263911  0.50675419  0.37449471  1
  O2-  O195  1  0.97450829  0.50428419  0.87604272  1
  O2-  O196  1  0.97198924  0.83875152  0.37708142  1
  O2-  O197  1  0.97509620  0.84127512  0.87444199  1
  O2-  O198  1  0.19218032  0.00567708  0.38101030  1
  O2-  O199  1  0.19198132  0.00813378  0.87093846  1
  O2-  O200  1  0.18735762  0.33835623  0.37621749  1
  O2-  O201  1  0.19231396  0.34260221  0.87262373  1
  O2-  O202  1  0.19254455  0.67239746  0.37705721  1
  O2-  O203  1  0.19267791  0.66682079  0.87348317  1
  O2-  O204  1  0.51597481  0.00342055  0.37680422  1
  O2-  O205  1  0.52575731  0.00755199  0.87388838  1
  O2-  O206  1  0.51831525  0.34185232  0.37534436  1
  O2-  O207  1  0.52619025  0.34181967  0.87215782  1
  O2-  O208  1  0.51777168  0.67319348  0.37321095  1
  O2-  O209  1  0.52452071  0.66630027  0.87719794  1
  O2-  O210  1  0.85838888  0.00544674  0.37816774  1
  O2-  O211  1  0.86388545  0.00684392  0.87395266  1
  O2-  O212  1  0.85916776  0.33968721  0.37592095  1
  O2-  O213  1  0.85696812  0.34049034  0.87448013  1
  O2-  O214  1  0.85890494  0.67433231  0.37659465  1
  O2-  O215  1  0.86224842  0.67329946  0.87558200  1
  O2-  O216  1  0.23478346  0.09723710  0.01302573  1
  O2-  O217  1  0.23708889  0.09582282  0.52488990  1
  O2-  O218  1  0.23929443  0.42837894  0.02090369  1
  O2-  O219  1  0.23778848  0.43128535  0.52145082  1
  O2-  O220  1  0.23834537  0.75884282  0.01542361  1
  O2-  O221  1  0.23961617  0.76268564  0.52154054  1
  O2-  O222  1  0.57296172  0.09513001  0.01877334  1
  O2-  O223  1  0.57540771  0.09104967  0.52417028  1
  O2-  O224  1  0.57076514  0.42864231  0.02230033  1
  O2-  O225  1  0.57169816  0.42557857  0.52057341  1
  O2-  O226  1  0.56805249  0.75935724  0.01968900  1
  O2-  O227  1  0.56941632  0.76238574  0.51592684  1
  O2-  O228  1  0.90458215  0.09476911  0.02126184  1
  O2-  O229  1  0.90344116  0.09832230  0.52118003  1
  O2-  O230  1  0.90633534  0.42595736  0.02322703  1
  O2-  O231  1  0.90717878  0.42960986  0.52145527  1
  O2-  O232  1  0.90453698  0.76178181  0.01971428  1
  O2-  O233  1  0.90608353  0.76347588  0.52279923  1
  O2-  O234  1  0.26126177  0.25920450  0.23007691  1
  O2-  O235  1  0.26436774  0.26480254  0.73185020  1
  O2-  O236  1  0.26406691  0.59496677  0.22771062  1
  O2-  O237  1  0.25905673  0.59380402  0.72885528  1
  O2-  O238  1  0.26029190  0.92784041  0.23941859  1
  O2-  O239  1  0.26269727  0.92851933  0.72894262  1
  O2-  O240  1  0.59326545  0.26007170  0.22787334  1
  O2-  O241  1  0.59567481  0.26124466  0.72808216  1
  O2-  O242  1  0.59292621  0.59584306  0.22561201  1
  O2-  O243  1  0.59402281  0.59331447  0.73728623  1
  O2-  O244  1  0.59332470  0.92532839  0.22808185  1
  O2-  O245  1  0.59646897  0.92729840  0.73058767  1
  O2-  O246  1  0.92924521  0.26102857  0.22875122  1
  O2-  O247  1  0.93088847  0.26294289  0.73173905  1
  O2-  O248  1  0.92976083  0.59631601  0.22834595  1
  O2-  O249  1  0.92841338  0.59228459  0.72879557  1
  O2-  O250  1  0.92729372  0.92876514  0.22954172  1
  O2-  O251  1  0.93303602  0.93075185  0.73027013  1
  O2-  O252  1  0.09362539  0.23713584  0.27187670  1
  O2-  O253  1  0.09314488  0.24105949  0.77134834  1
  O2-  O254  1  0.09711817  0.57257063  0.27094518  1
  O2-  O255  1  0.09442888  0.57225190  0.77012781  1
  O2-  O256  1  0.09166326  0.90751096  0.27370792  1
  O2-  O257  1  0.09982631  0.89965643  0.76974285  1
  O2-  O258  1  0.43115844  0.23398902  0.26707410  1
  O2-  O259  1  0.43064551  0.23987979  0.77149640  1
  O2-  O260  1  0.42966412  0.57172414  0.26998434  1
  O2-  O261  1  0.42694889  0.57250207  0.76835201  1
  O2-  O262  1  0.42722659  0.90520241  0.26837211  1
  O2-  O263  1  0.42746053  0.90102790  0.77353814  1
  O2-  O264  1  0.76415518  0.23723099  0.26765646  1
  O2-  O265  1  0.75973561  0.23961690  0.77293532  1
  O2-  O266  1  0.76620595  0.57146148  0.26679557  1
  O2-  O267  1  0.76064076  0.57039477  0.77212877  1
  O2-  O268  1  0.76319788  0.90487137  0.26492299  1
  O2-  O269  1  0.76238514  0.90744108  0.77428434  1
  O2-  O270  1  0.07146290  0.07413599  0.47732418  1
  O2-  O271  1  0.06977355  0.07065947  0.97671381  1
  O2-  O272  1  0.07017986  0.40633797  0.47887623  1
  O2-  O273  1  0.07240471  0.40537427  0.98010554  1
  O2-  O274  1  0.07160623  0.74007629  0.47875039  1
  O2-  O275  1  0.06848182  0.73552389  0.98059550  1
  O2-  O276  1  0.40258446  0.06948626  0.48847085  1
  O2-  O277  1  0.40708585  0.07212636  0.97547869  1
  O2-  O278  1  0.40438885  0.40867898  0.48385446  1
  O2-  O279  1  0.40456584  0.40516380  0.97873656  1
  O2-  O280  1  0.40470400  0.73910873  0.48138791  1
  O2-  O281  1  0.40290103  0.73547086  0.97736702  1
  O2-  O282  1  0.74156324  0.07285730  0.48496196  1
  O2-  O283  1  0.74017263  0.07062341  0.97674637  1
  O2-  O284  1  0.74175867  0.40858910  0.48475082  1
  O2-  O285  1  0.73469592  0.40383685  0.98326268  1
  O2-  O286  1  0.74267314  0.74252275  0.48160550  1
  O2-  O287  1  0.74027206  0.73876583  0.97587340  1
  O2-  O288  1  0.09163614  0.23860540  0.47857602  1
  O2-  O289  1  0.09469361  0.23882176  0.97789944  1
  O2-  O290  1  0.09243653  0.57264326  0.47605708  1
  O2-  O291  1  0.09842639  0.57101462  0.98234466  1
  O2-  O292  1  0.09538348  0.90429046  0.47905952  1
  O2-  O293  1  0.09533966  0.90476332  0.97770713  1
  O2-  O294  1  0.43203265  0.23292333  0.48266594  1
  O2-  O295  1  0.42827745  0.23898746  0.97801466  1
  O2-  O296  1  0.42498352  0.57473006  0.47755044  1
  O2-  O297  1  0.43239889  0.56824632  0.98373188  1
  O2-  O298  1  0.42725063  0.90418534  0.48161630  1
  O2-  O299  1  0.42750707  0.90097879  0.97657883  1
  O2-  O300  1  0.76177016  0.23768354  0.48234902  1
  O2-  O301  1  0.76207536  0.23818228  0.97830191  1
  O2-  O302  1  0.76480197  0.57228682  0.48437073  1
  O2-  O303  1  0.76273615  0.56974295  0.97594195  1
  O2-  O304  1  0.76447463  0.90681590  0.48484111  1
  O2-  O305  1  0.76302778  0.90606426  0.97662023  1
  O2-  O306  1  0.07188021  0.07148738  0.27136904  1
  O2-  O307  1  0.06960751  0.07193952  0.77311821  1
  O2-  O308  1  0.07066914  0.40550185  0.27044843  1
  O2-  O309  1  0.07156870  0.40734185  0.77077813  1
  O2-  O310  1  0.07171302  0.73994076  0.27050909  1
  O2-  O311  1  0.06874008  0.73585212  0.76968328  1
  O2-  O312  1  0.40475055  0.07152095  0.26699920  1
  O2-  O313  1  0.40400767  0.07164832  0.77000840  1
  O2-  O314  1  0.40638834  0.40758445  0.26683020  1
  O2-  O315  1  0.40352649  0.40584028  0.76962300  1
  O2-  O316  1  0.40692932  0.74210389  0.27050735  1
  O2-  O317  1  0.40178259  0.73450927  0.76953804  1
  O2-  O318  1  0.74269499  0.07425705  0.26600821  1
  O2-  O319  1  0.73926265  0.07051857  0.77242602  1
  O2-  O320  1  0.74151942  0.40716680  0.26707368  1
  O2-  O321  1  0.73510280  0.40464215  0.76609760  1
  O2-  O322  1  0.74198958  0.74392294  0.26643668  1
  O2-  O323  1  0.73971548  0.73911299  0.77514787  1
  O2-  O324  1  0.23603135  0.09709698  0.23513870  1
  O2-  O325  1  0.23441339  0.09503193  0.72773876  1
  O2-  O326  1  0.23820515  0.42837573  0.23021167  1
  O2-  O327  1  0.23878139  0.42994212  0.72692857  1
  O2-  O328  1  0.23944942  0.76080474  0.23717186  1
  O2-  O329  1  0.23878995  0.75893207  0.72680657  1
  O2-  O330  1  0.57357760  0.09174090  0.22779527  1
  O2-  O331  1  0.57383005  0.09451633  0.72995681  1
  O2-  O332  1  0.57179202  0.42709978  0.22954373  1
  O2-  O333  1  0.56996977  0.42776149  0.72575446  1
  O2-  O334  1  0.57010083  0.76303060  0.23096072  1
  O2-  O335  1  0.56878348  0.75970976  0.73404575  1
  O2-  O336  1  0.90725323  0.09367513  0.22758693  1
  O2-  O337  1  0.90126022  0.09992785  0.73015328  1
  O2-  O338  1  0.90530474  0.42765789  0.22767687  1
  O2-  O339  1  0.90789058  0.42731229  0.72796186  1
  O2-  O340  1  0.90609704  0.76092945  0.22819617  1
  O2-  O341  1  0.90596712  0.76580055  0.73049170  1
  O2-  O342  1  0.26113842  0.26279840  0.01853370  1
  O2-  O343  1  0.26372358  0.26102887  0.51994620  1
  O2-  O344  1  0.26218017  0.59291610  0.02265783  1
  O2-  O345  1  0.26215352  0.59645390  0.51991968  1
  O2-  O346  1  0.26242515  0.92933429  0.01028418  1
  O2-  O347  1  0.26186006  0.92794037  0.52388986  1
  O2-  O348  1  0.59349829  0.26268105  0.01960453  1
  O2-  O349  1  0.59554196  0.25819363  0.52440465  1
  O2-  O350  1  0.59646879  0.59585513  0.02176459  1
  O2-  O351  1  0.58962648  0.59149072  0.51556527  1
  O2-  O352  1  0.59532606  0.92822604  0.01823830  1
  O2-  O353  1  0.59322905  0.92527389  0.52306232  1
  O2-  O354  1  0.92916518  0.26009100  0.02084216  1
  O2-  O355  1  0.93134244  0.26347936  0.51924386  1
  O2-  O356  1  0.92671736  0.59421194  0.02401547  1
  O2-  O357  1  0.92993850  0.59581241  0.51934825  1
  O2-  O358  1  0.92614920  0.92670743  0.02216990  1
  O2-  O359  1  0.93373697  0.93308735  0.51973278  1
