# generated using pymatgen
data_Sr7Ca15Pr50Mn72O216
_symmetry_space_group_name_H-M   'P 1'
_cell_length_a   16.55878718
_cell_length_b   16.60474637
_cell_length_c   15.59397828
_cell_angle_alpha   89.99703509
_cell_angle_beta   89.99841105
_cell_angle_gamma   90.00492421
_symmetry_Int_Tables_number   1
_chemical_formula_structural   Sr7Ca15Pr50Mn72O216
_chemical_formula_sum   'Sr7 Ca15 Pr50 Mn72 O216'
_cell_volume   4287.63387534
_cell_formula_units_Z   1
loop_
 _symmetry_equiv_pos_site_id
 _symmetry_equiv_pos_as_xyz
  1  'x, y, z'
loop_
 _atom_type_symbol
 _atom_type_oxidation_number
  Sr2+  2.0
  Ca2+  2.0
  Pr3+  3.0
  Mn3.30+  3.3
  O2-  -2.0
loop_
 _atom_site_type_symbol
 _atom_site_label
 _atom_site_symmetry_multiplicity
 _atom_site_fract_x
 _atom_site_fract_y
 _atom_site_fract_z
 _atom_site_occupancy
  Sr2+  Sr0  1  0.83189242  0.82417439  0.37228719  1
  Sr2+  Sr1  1  0.83297316  0.15735319  0.37397370  1
  Sr2+  Sr2  1  0.33189806  0.67530768  0.62365963  1
  Sr2+  Sr3  1  0.83098942  0.15446293  0.87569105  1
  Sr2+  Sr4  1  0.16525235  0.49172764  0.87556666  1
  Sr2+  Sr5  1  0.83454267  0.84301059  0.12674030  1
  Sr2+  Sr6  1  1.00128451  0.31986728  0.37441813  1
  Ca2+  Ca7  1  0.33618260  0.31729060  0.37123771  1
  Ca2+  Ca8  1  1.00451601  0.65011460  0.87796648  1
  Ca2+  Ca9  1  0.66341112  0.34668727  0.62424490  1
  Ca2+  Ca10  1  0.66209828  0.34806691  0.12626459  1
  Ca2+  Ca11  1  0.83524483  0.51274750  0.12596990  1
  Ca2+  Ca12  1  0.33261626  0.67896637  0.12672568  1
  Ca2+  Ca13  1  0.66941658  0.98748580  0.87756171  1
  Ca2+  Ca14  1  0.33290688  0.01494509  0.12584518  1
  Ca2+  Ca15  1  0.33931574  0.65224660  0.37201215  1
  Ca2+  Ca16  1  0.17068624  0.18233021  0.62190912  1
  Ca2+  Ca17  1  0.16424072  0.15512463  0.37442163  1
  Ca2+  Ca18  1  0.50203525  0.18278791  0.12604269  1
  Ca2+  Ca19  1  0.33209812  0.34698595  0.12806172  1
  Ca2+  Ca20  1  0.50237204  0.84775040  0.12382871  1
  Ca2+  Ca21  1  0.50062790  0.51269394  0.12602530  1
  Pr3+  Pr22  1  -0.00345327  0.67664876  0.12368836  1
  Pr3+  Pr23  1  -0.00149848  0.67644150  0.62588301  1
  Pr3+  Pr24  1  0.67027602  0.32003613  0.37284760  1
  Pr3+  Pr25  1  0.17183085  0.18094145  0.12711898  1
  Pr3+  Pr26  1  0.16735712  0.48678493  0.37418888  1
  Pr3+  Pr27  1  0.32907733  0.01620038  0.62514439  1
  Pr3+  Pr28  1  0.33562391  0.65234779  0.87793910  1
  Pr3+  Pr29  1  1.00035548  0.65512120  0.37249360  1
  Pr3+  Pr30  1  0.82880199  0.48674934  0.37163047  1
  Pr3+  Pr31  1  0.33455186  0.99021331  0.37233197  1
  Pr3+  Pr32  1  -0.00375772  0.01175853  0.12525931  1
  Pr3+  Pr33  1  0.50262005  0.51207561  0.62410140  1
  Pr3+  Pr34  1  0.49862695  0.82101174  0.87848710  1
  Pr3+  Pr35  1  0.50108340  0.84666445  0.62542707  1
  Pr3+  Pr36  1  0.50353628  0.18355332  0.62394955  1
  Pr3+  Pr37  1  -0.00131528  0.01378452  0.62501782  1
  Pr3+  Pr38  1  0.83524023  0.18037859  0.62482095  1
  Pr3+  Pr39  1  0.32938637  0.34513305  0.62240246  1
  Pr3+  Pr40  1  1.00384339  0.32227843  0.87587028  1
  Pr3+  Pr41  1  0.00014876  0.34421460  0.62311823  1
  Pr3+  Pr42  1  0.33651872  0.98697464  0.87795457  1
  Pr3+  Pr43  1  1.00255103  0.99051708  0.37349158  1
  Pr3+  Pr44  1  0.66266758  0.01278882  0.12350099  1
  Pr3+  Pr45  1  -0.00437678  0.34655926  0.12669586  1
  Pr3+  Pr46  1  0.66843815  0.65266018  0.87723982  1
  Pr3+  Pr47  1  0.83568694  0.84627797  0.62419318  1
  Pr3+  Pr48  1  0.67003155  0.65419761  0.37229206  1
  Pr3+  Pr49  1  0.49691964  0.15464541  0.87757505  1
  Pr3+  Pr50  1  0.49607847  0.15588860  0.37221070  1
  Pr3+  Pr51  1  1.00254979  0.98681474  0.87618620  1
  Pr3+  Pr52  1  0.16277358  0.81626035  0.87642654  1
  Pr3+  Pr53  1  0.16448710  0.15582786  0.87545617  1
  Pr3+  Pr54  1  0.16590161  0.82054908  0.37403612  1
  Pr3+  Pr55  1  0.17258750  0.84478512  0.62514606  1
  Pr3+  Pr56  1  0.49508473  0.48541847  0.37153230  1
  Pr3+  Pr57  1  0.33560455  0.32194676  0.87867599  1
  Pr3+  Pr58  1  0.83366785  0.50964222  0.62385918  1
  Pr3+  Pr59  1  0.66314573  0.68114682  0.12477597  1
  Pr3+  Pr60  1  0.17294220  0.84735184  0.12515335  1
  Pr3+  Pr61  1  0.66935769  0.98890966  0.37328384  1
  Pr3+  Pr62  1  0.66905512  0.32136304  0.87722325  1
  Pr3+  Pr63  1  0.66405794  0.01359321  0.62630999  1
  Pr3+  Pr64  1  0.83196412  0.48805428  0.87821845  1
  Pr3+  Pr65  1  0.66152989  0.68013887  0.62524046  1
  Pr3+  Pr66  1  0.49510231  0.81943324  0.37191451  1
  Pr3+  Pr67  1  0.17200723  0.51279780  0.12552811  1
  Pr3+  Pr68  1  0.49587555  0.48665838  0.87845459  1
  Pr3+  Pr69  1  0.83069078  0.82047011  0.87693375  1
  Pr3+  Pr70  1  0.83488566  0.17670348  0.12506866  1
  Pr3+  Pr71  1  0.16972207  0.51166736  0.62397951  1
  Mn3.30+  Mn72  1  0.16905960  0.00058620  0.00126674  1
  Mn3.30+  Mn73  1  0.16755903  0.00232880  0.49997609  1
  Mn3.30+  Mn74  1  0.16852112  0.33482382  0.00238626  1
  Mn3.30+  Mn75  1  0.16767959  0.33008589  0.49670530  1
  Mn3.30+  Mn76  1  0.16682258  0.66573301  0.00255031  1
  Mn3.30+  Mn77  1  0.16916555  0.66595094  0.49686958  1
  Mn3.30+  Mn78  1  0.49979237  0.00141086  0.00212027  1
  Mn3.30+  Mn79  1  0.49921353  0.00104059  0.49930491  1
  Mn3.30+  Mn80  1  0.50099211  0.33346851  0.00565750  1
  Mn3.30+  Mn81  1  0.49908614  0.33386762  0.49748944  1
  Mn3.30+  Mn82  1  0.49898931  0.66654782  0.00418951  1
  Mn3.30+  Mn83  1  0.49862823  0.66671550  0.49801134  1
  Mn3.30+  Mn84  1  0.83113407  -0.00067746  -0.00084557  1
  Mn3.30+  Mn85  1  0.83290009  0.00093088  0.49964140  1
  Mn3.30+  Mn86  1  0.83133413  0.33351762  0.00250836  1
  Mn3.30+  Mn87  1  0.83134969  0.33276538  0.49983205  1
  Mn3.30+  Mn88  1  0.83463435  0.66481090  -0.00012471  1
  Mn3.30+  Mn89  1  0.83192541  0.66650380  0.49986185  1
  Mn3.30+  Mn90  1  0.00277235  0.16633370  0.25146952  1
  Mn3.30+  Mn91  1  0.00144910  0.16715070  0.74898959  1
  Mn3.30+  Mn92  1  -0.00007022  0.49879088  0.24987138  1
  Mn3.30+  Mn93  1  -0.00003843  0.49995476  0.75010966  1
  Mn3.30+  Mn94  1  0.00136730  0.83264222  0.25010860  1
  Mn3.30+  Mn95  1  0.00073920  0.83135983  0.75023263  1
  Mn3.30+  Mn96  1  0.33380225  0.16804695  0.24834534  1
  Mn3.30+  Mn97  1  0.33229354  0.16812220  0.74998814  1
  Mn3.30+  Mn98  1  0.33522147  0.49977372  0.24839602  1
  Mn3.30+  Mn99  1  0.33287820  0.49904119  0.75080905  1
  Mn3.30+  Mn100  1  0.33532800  0.83295088  0.24709310  1
  Mn3.30+  Mn101  1  0.33325211  0.83254113  0.75162485  1
  Mn3.30+  Mn102  1  0.66421983  0.16846578  0.24712102  1
  Mn3.30+  Mn103  1  0.66666141  0.16709629  0.75136758  1
  Mn3.30+  Mn104  1  0.66389194  0.49944342  0.24543684  1
  Mn3.30+  Mn105  1  0.66614498  0.49831274  0.75096024  1
  Mn3.30+  Mn106  1  0.66384463  0.83463406  0.24780543  1
  Mn3.30+  Mn107  1  0.66698175  0.83470444  0.75207376  1
  Mn3.30+  Mn108  1  0.16921340  0.00176772  0.24899865  1
  Mn3.30+  Mn109  1  0.16754148  0.00088631  0.75045581  1
  Mn3.30+  Mn110  1  0.16904144  0.33238988  0.25130949  1
  Mn3.30+  Mn111  1  0.16721168  0.33294162  0.74968513  1
  Mn3.30+  Mn112  1  0.17110862  0.66639310  0.25057580  1
  Mn3.30+  Mn113  1  0.16518860  0.66516009  0.75050802  1
  Mn3.30+  Mn114  1  0.49854768  0.00107302  0.24569430  1
  Mn3.30+  Mn115  1  0.50032871  0.00129549  0.75233254  1
  Mn3.30+  Mn116  1  0.49858479  0.33362469  0.24645392  1
  Mn3.30+  Mn117  1  0.50108437  0.33390587  0.75015862  1
  Mn3.30+  Mn118  1  0.49769429  0.66640229  0.24672175  1
  Mn3.30+  Mn119  1  0.49956727  0.66687085  0.75076214  1
  Mn3.30+  Mn120  1  0.83215736  0.00014745  0.24968244  1
  Mn3.30+  Mn121  1  0.83174320  0.00020379  0.75164407  1
  Mn3.30+  Mn122  1  0.83050713  0.33291112  0.24751064  1
  Mn3.30+  Mn123  1  0.83203092  0.33348245  0.74966475  1
  Mn3.30+  Mn124  1  0.83287623  0.66557287  0.24840032  1
  Mn3.30+  Mn125  1  0.83369766  0.66530933  0.75137889  1
  Mn3.30+  Mn126  1  0.00032977  0.16672082  0.00002487  1
  Mn3.30+  Mn127  1  0.00354017  0.16637724  0.49975055  1
  Mn3.30+  Mn128  1  -0.00046248  0.49992241  0.00172376  1
  Mn3.30+  Mn129  1  0.00025013  0.49886109  0.49768820  1
  Mn3.30+  Mn130  1  0.00016181  0.83147961  0.00064273  1
  Mn3.30+  Mn131  1  0.00171125  0.83278697  0.49959715  1
  Mn3.30+  Mn132  1  0.33489233  0.16742968  0.00468119  1
  Mn3.30+  Mn133  1  0.33112497  0.16804903  0.49705882  1
  Mn3.30+  Mn134  1  0.33472737  0.49909436  0.00477779  1
  Mn3.30+  Mn135  1  0.33388158  0.49946454  0.49663344  1
  Mn3.30+  Mn136  1  0.33476428  0.83304134  0.00358277  1
  Mn3.30+  Mn137  1  0.33377045  0.83250989  0.49861641  1
  Mn3.30+  Mn138  1  0.66478522  0.16752728  0.00085265  1
  Mn3.30+  Mn139  1  0.66607659  0.16827512  0.50028757  1
  Mn3.30+  Mn140  1  0.66522738  0.49899506  0.00430851  1
  Mn3.30+  Mn141  1  0.66505949  0.49910897  0.49908985  1
  Mn3.30+  Mn142  1  0.66532800  0.83567147  0.00041670  1
  Mn3.30+  Mn143  1  0.66623929  0.83398342  0.49931750  1
  O2-  O144  1  0.02591884  0.16075456  0.12509296  1
  O2-  O145  1  0.02822065  0.16192775  0.62547401  1
  O2-  O146  1  0.02645658  0.49498141  0.12710087  1
  O2-  O147  1  0.02451272  0.49439626  0.62129705  1
  O2-  O148  1  0.02812440  0.82607374  0.12647090  1
  O2-  O149  1  0.02880964  0.82475240  0.62573498  1
  O2-  O150  1  0.36088708  0.15748338  0.12491588  1
  O2-  O151  1  0.35992948  0.16335066  0.62371970  1
  O2-  O152  1  0.35995950  0.49035068  0.12670038  1
  O2-  O153  1  0.35850385  0.49284989  0.62232145  1
  O2-  O154  1  0.36057351  0.82289056  0.12502136  1
  O2-  O155  1  0.35730703  0.83067888  0.62615689  1
  O2-  O156  1  0.69194340  0.15873081  0.12392477  1
  O2-  O157  1  0.69096069  0.15962087  0.62745852  1
  O2-  O158  1  0.69428146  0.49477668  0.12411623  1
  O2-  O159  1  0.68960111  0.49378753  0.62431177  1
  O2-  O160  1  0.68575760  0.83027609  0.12364540  1
  O2-  O161  1  0.69045336  0.82790618  0.62767655  1
  O2-  O162  1  0.14026971  0.32896330  0.12683682  1
  O2-  O163  1  0.14410974  0.32829662  0.62182655  1
  O2-  O164  1  0.14065293  0.66268024  0.12688518  1
  O2-  O165  1  0.14289556  0.66205420  0.62091056  1
  O2-  O166  1  0.14057655  0.99479091  0.12357456  1
  O2-  O167  1  0.14253256  0.99026452  0.62607275  1
  O2-  O168  1  0.47157007  0.32491945  0.12611435  1
  O2-  O169  1  0.47336119  0.33123457  0.62221955  1
  O2-  O170  1  0.47319229  0.65772046  0.12522713  1
  O2-  O171  1  0.48211605  0.66179216  0.62453396  1
  O2-  O172  1  0.47262532  0.99082574  0.12447776  1
  O2-  O173  1  0.47308250  0.99474070  0.62805368  1
  O2-  O174  1  0.80568603  0.32337534  0.12430841  1
  O2-  O175  1  0.80648330  0.32986163  0.62480339  1
  O2-  O176  1  0.80854281  0.66000734  0.12390304  1
  O2-  O177  1  0.80495024  0.65873853  0.62633703  1
  O2-  O178  1  0.80946713  0.99982262  0.12430480  1
  O2-  O179  1  0.80837178  0.99444119  0.62619976  1
  O2-  O180  1  0.30742896  0.17012155  0.37387618  1
  O2-  O181  1  0.30860783  0.17377161  0.87759605  1
  O2-  O182  1  0.30989492  0.50962772  0.37291859  1
  O2-  O183  1  0.31536990  0.50315118  0.87921984  1
  O2-  O184  1  0.30877193  0.84371357  0.37210385  1
  O2-  O185  1  0.30699793  0.83961268  0.87785412  1
  O2-  O186  1  0.64012310  0.17223112  0.37262678  1
  O2-  O187  1  0.63930283  0.17611524  0.87542830  1
  O2-  O188  1  0.64021550  0.50677746  0.37268526  1
  O2-  O189  1  0.63998207  0.50453011  0.87856895  1
  O2-  O190  1  0.63997383  0.83929053  0.37264192  1
  O2-  O191  1  0.64253646  0.83856311  0.87502491  1
  O2-  O192  1  0.98220131  0.16149913  0.37533684  1
  O2-  O193  1  0.98131492  0.17424888  0.87439140  1
  O2-  O194  1  0.97357241  0.50589307  0.37440942  1
  O2-  O195  1  0.97631530  0.50274374  0.87675410  1
  O2-  O196  1  0.98178569  0.83949626  0.37467230  1
  O2-  O197  1  0.97456126  0.84051037  0.87357315  1
  O2-  O198  1  0.19091133  0.00712904  0.37450624  1
  O2-  O199  1  0.19277713  0.00731008  0.87634462  1
  O2-  O200  1  0.19498105  0.34048567  0.37341760  1
  O2-  O201  1  0.19093446  0.33544358  0.87834153  1
  O2-  O202  1  0.19744217  0.67293567  0.37386237  1
  O2-  O203  1  0.19136958  0.66881001  0.87904061  1
  O2-  O204  1  0.52515038  0.00779254  0.37148714  1
  O2-  O205  1  0.52693243  0.00822825  0.87491919  1
  O2-  O206  1  0.52704448  0.33696417  0.37277943  1
  O2-  O207  1  0.52519373  0.33890441  0.87854649  1
  O2-  O208  1  0.52687292  0.67162363  0.37270418  1
  O2-  O209  1  0.52455526  0.67142939  0.87729521  1
  O2-  O210  1  0.85684846  0.00211091  0.37592770  1
  O2-  O211  1  0.85893486  -0.00008672  0.87387705  1
  O2-  O212  1  0.85014890  0.33883068  0.37314544  1
  O2-  O213  1  0.85946286  0.33997450  0.87686132  1
  O2-  O214  1  0.85506627  0.66701466  0.37479918  1
  O2-  O215  1  0.86174515  0.67162709  0.87450466  1
  O2-  O216  1  0.23763651  0.09806040  0.01811202  1
  O2-  O217  1  0.23886409  0.09449287  0.52392887  1
  O2-  O218  1  0.23818417  0.42760989  0.02199134  1
  O2-  O219  1  0.23922457  0.42702559  0.51879451  1
  O2-  O220  1  0.23575409  0.76313057  0.01760492  1
  O2-  O221  1  0.23659956  0.76465292  0.51614405  1
  O2-  O222  1  0.56773529  0.09844198  0.02210417  1
  O2-  O223  1  0.57110335  0.09656225  0.52059952  1
  O2-  O224  1  0.56861873  0.43107144  0.02122750  1
  O2-  O225  1  0.56888023  0.43132850  0.51627849  1
  O2-  O226  1  0.56999587  0.76154108  0.01984841  1
  O2-  O227  1  0.57114989  0.76343104  0.51944215  1
  O2-  O228  1  0.90609182  0.09207517  0.01988031  1
  O2-  O229  1  0.90741262  0.09307834  0.52414728  1
  O2-  O230  1  0.90378252  0.42781705  0.02344928  1
  O2-  O231  1  0.90465039  0.42543368  0.51930868  1
  O2-  O232  1  0.90738040  0.75798547  0.01921891  1
  O2-  O233  1  0.90734426  0.75803978  0.52311593  1
  O2-  O234  1  0.26326915  0.26108792  0.22539301  1
  O2-  O235  1  0.26447343  0.26346651  0.73281956  1
  O2-  O236  1  0.26223813  0.59400460  0.22480505  1
  O2-  O237  1  0.25854422  0.59101861  0.73380039  1
  O2-  O238  1  0.26329759  0.92953845  0.22719394  1
  O2-  O239  1  0.26312695  0.92908334  0.73104428  1
  O2-  O240  1  0.59588914  0.26534312  0.23009883  1
  O2-  O241  1  0.59478757  0.26389955  0.72822855  1
  O2-  O242  1  0.59708982  0.59770479  0.23003504  1
  O2-  O243  1  0.59662778  0.59373274  0.73206517  1
  O2-  O244  1  0.59350628  0.93064509  0.23123778  1
  O2-  O245  1  0.59164010  0.92827419  0.72776116  1
  O2-  O246  1  0.92669744  0.25764032  0.22899182  1
  O2-  O247  1  0.92787358  0.26114917  0.72770389  1
  O2-  O248  1  0.93041280  0.59312735  0.23200065  1
  O2-  O249  1  0.92425792  0.59175526  0.72579193  1
  O2-  O250  1  0.93153007  0.92722873  0.23323371  1
  O2-  O251  1  0.93078170  0.92499570  0.72780524  1
  O2-  O252  1  0.09918324  0.23543123  0.26669421  1
  O2-  O253  1  0.09563638  0.24093942  0.77081793  1
  O2-  O254  1  0.09722438  0.57413434  0.27219463  1
  O2-  O255  1  0.09172628  0.57275339  0.76240650  1
  O2-  O256  1  0.09768408  0.90588939  0.26872372  1
  O2-  O257  1  0.09627884  0.90461871  0.77220668  1
  O2-  O258  1  0.42864947  0.23859565  0.27052963  1
  O2-  O259  1  0.43004015  0.23927312  0.76970697  1
  O2-  O260  1  0.42945974  0.57157047  0.26987221  1
  O2-  O261  1  0.42817632  0.57246713  0.76914354  1
  O2-  O262  1  0.42684169  0.90710862  0.27235750  1
  O2-  O263  1  0.42922130  0.90614986  0.77344767  1
  O2-  O264  1  0.75831545  0.24013317  0.26680863  1
  O2-  O265  1  0.75942630  0.24000110  0.76849576  1
  O2-  O266  1  0.75911715  0.57220400  0.27007327  1
  O2-  O267  1  0.76190326  0.57155197  0.77247209  1
  O2-  O268  1  0.75567167  0.90979909  0.26801921  1
  O2-  O269  1  0.76423570  0.90181950  0.76741595  1
  O2-  O270  1  0.06999613  0.06733998  0.48515164  1
  O2-  O271  1  0.07214276  0.07208115  0.97935376  1
  O2-  O272  1  0.07594947  0.40603652  0.48094442  1
  O2-  O273  1  0.06744447  0.40295526  0.98540017  1
  O2-  O274  1  0.07339718  0.73768297  0.47776921  1
  O2-  O275  1  0.07071125  0.73788240  0.97880508  1
  O2-  O276  1  0.40338527  0.07230684  0.47988589  1
  O2-  O277  1  0.40593917  0.07307226  0.97695639  1
  O2-  O278  1  0.40397007  0.40327630  0.47538930  1
  O2-  O279  1  0.40777244  0.40540105  0.97959092  1
  O2-  O280  1  0.40620060  0.73872962  0.47608269  1
  O2-  O281  1  0.40561959  0.74007572  0.97712823  1
  O2-  O282  1  0.73473545  0.07133475  0.48392401  1
  O2-  O283  1  0.73248913  0.07075112  0.98218471  1
  O2-  O284  1  0.73644832  0.40869060  0.47752777  1
  O2-  O285  1  0.73931937  0.40741220  0.97745353  1
  O2-  O286  1  0.73518936  0.73632607  0.48385724  1
  O2-  O287  1  0.74001511  0.73843721  0.97952761  1
  O2-  O288  1  0.09826765  0.23617317  0.48039368  1
  O2-  O289  1  0.09700718  0.23982640  0.98227328  1
  O2-  O290  1  0.09375005  0.57412138  0.47622055  1
  O2-  O291  1  0.09381411  0.57233316  0.98791349  1
  O2-  O292  1  0.09759168  0.90636961  0.47996491  1
  O2-  O293  1  0.09614772  0.90437443  0.97953727  1
  O2-  O294  1  0.42991188  0.23604514  0.48107302  1
  O2-  O295  1  0.42765554  0.24032809  0.97814972  1
  O2-  O296  1  0.43046196  0.56928382  0.48233494  1
  O2-  O297  1  0.42789417  0.57394396  0.97935935  1
  O2-  O298  1  0.42854217  0.90512494  0.47989152  1
  O2-  O299  1  0.42850596  0.90760485  0.97651345  1
  O2-  O300  1  0.75875183  0.23962385  0.48337323  1
  O2-  O301  1  0.75920083  0.23999246  0.98111140  1
  O2-  O302  1  0.76033045  0.57002665  0.47962406  1
  O2-  O303  1  0.75997340  0.57385862  0.97661587  1
  O2-  O304  1  0.75810417  0.90628170  0.48362536  1
  O2-  O305  1  0.76230117  0.90544169  0.98004557  1
  O2-  O306  1  0.07155246  0.06846190  0.26502249  1
  O2-  O307  1  0.07209485  0.07067255  0.77097368  1
  O2-  O308  1  0.07390856  0.40695411  0.26869072  1
  O2-  O309  1  0.06924211  0.40236776  0.76458394  1
  O2-  O310  1  0.07521462  0.73874606  0.27246909  1
  O2-  O311  1  0.06902842  0.73697983  0.77233555  1
  O2-  O312  1  0.40559706  0.07414155  0.27218946  1
  O2-  O313  1  0.40365451  0.07233345  0.77130369  1
  O2-  O314  1  0.40489644  0.40477122  0.27386290  1
  O2-  O315  1  0.40556708  0.40434726  0.77071269  1
  O2-  O316  1  0.40528538  0.73892730  0.27361835  1
  O2-  O317  1  0.40516146  0.74060366  0.77422657  1
  O2-  O318  1  0.73442179  0.07300657  0.26644970  1
  O2-  O319  1  0.73226613  0.06934328  0.76811067  1
  O2-  O320  1  0.73550684  0.40764413  0.27003391  1
  O2-  O321  1  0.73921352  0.40813885  0.77347224  1
  O2-  O322  1  0.73514237  0.73856120  0.26413068  1
  O2-  O323  1  0.73976850  0.73660573  0.77204266  1
  O2-  O324  1  0.23966532  0.09520531  0.22926694  1
  O2-  O325  1  0.23772011  0.09685704  0.72907705  1
  O2-  O326  1  0.23752116  0.43074033  0.23318137  1
  O2-  O327  1  0.23903316  0.42560421  0.72762283  1
  O2-  O328  1  0.23759866  0.76469864  0.23118114  1
  O2-  O329  1  0.23428503  0.76249013  0.73582541  1
  O2-  O330  1  0.57002981  0.09649954  0.22623279  1
  O2-  O331  1  0.56946902  0.09750501  0.72858959  1
  O2-  O332  1  0.56710693  0.43141429  0.23017287  1
  O2-  O333  1  0.56857878  0.42942140  0.73291135  1
  O2-  O334  1  0.56823253  0.76247769  0.22817120  1
  O2-  O335  1  0.57192635  0.76206703  0.73150870  1
  O2-  O336  1  0.90775663  0.09218349  0.22848540  1
  O2-  O337  1  0.90637690  0.09302930  0.72788889  1
  O2-  O338  1  0.90236337  0.42552222  0.22823219  1
  O2-  O339  1  0.90520932  0.42766232  0.72901323  1
  O2-  O340  1  0.91210983  0.75532140  0.23229267  1
  O2-  O341  1  0.90400563  0.75970947  0.72674080  1
  O2-  O342  1  0.26387777  0.26212104  0.02330756  1
  O2-  O343  1  0.26363582  0.26154403  0.51919927  1
  O2-  O344  1  0.26298814  0.59514610  0.02284609  1
  O2-  O345  1  0.25669405  0.58894557  0.51940271  1
  O2-  O346  1  0.26458147  0.92890903  0.02296328  1
  O2-  O347  1  0.26202542  0.93020853  0.51957276  1
  O2-  O348  1  0.59716982  0.26604333  0.01998952  1
  O2-  O349  1  0.59456062  0.26352713  0.52071042  1
  O2-  O350  1  0.59713486  0.59724130  0.01862782  1
  O2-  O351  1  0.59652216  0.59513860  0.51921544  1
  O2-  O352  1  0.59279239  0.93132654  0.01773723  1
  O2-  O353  1  0.59334498  0.92889621  0.52049507  1
  O2-  O354  1  0.92769738  0.26087538  0.02115186  1
  O2-  O355  1  0.92807648  0.25741447  0.52165692  1
  O2-  O356  1  0.92753600  0.59204179  0.02023117  1
  O2-  O357  1  0.92628880  0.59345765  0.52051801  1
  O2-  O358  1  0.93236082  0.92702966  0.01735936  1
  O2-  O359  1  0.92850450  0.92619724  0.52215306  1
