# generated using pymatgen
data_Sr7Ca15Pr50Mn72O216
_symmetry_space_group_name_H-M   'P 1'
_cell_length_a   16.55980013
_cell_length_b   16.60457627
_cell_length_c   15.59208815
_cell_angle_alpha   89.99814084
_cell_angle_beta   90.00822391
_cell_angle_gamma   90.01906752
_symmetry_Int_Tables_number   1
_chemical_formula_structural   Sr7Ca15Pr50Mn72O216
_chemical_formula_sum   'Sr7 Ca15 Pr50 Mn72 O216'
_cell_volume   4287.33225232
_cell_formula_units_Z   1
loop_
 _symmetry_equiv_pos_site_id
 _symmetry_equiv_pos_as_xyz
  1  'x, y, z'
loop_
 _atom_type_symbol
 _atom_type_oxidation_number
  Sr2+  2.0
  Ca2+  2.0
  Pr3+  3.0
  Mn3.30+  3.3
  O2-  -2.0
loop_
 _atom_site_type_symbol
 _atom_site_label
 _atom_site_symmetry_multiplicity
 _atom_site_fract_x
 _atom_site_fract_y
 _atom_site_fract_z
 _atom_site_occupancy
  Sr2+  Sr0  1  1.00144018  0.32346248  0.37505514  1
  Sr2+  Sr1  1  0.33553226  0.32425633  0.37511443  1
  Sr2+  Sr2  1  0.50018433  0.51014966  0.62336168  1
  Sr2+  Sr3  1  0.50223344  0.51067007  0.12659918  1
  Sr2+  Sr4  1  1.00475442  0.98737896  0.37628832  1
  Sr2+  Sr5  1  0.66089984  0.67610024  0.12750512  1
  Sr2+  Sr6  1  1.00362892  0.98979883  0.87320908  1
  Ca2+  Ca7  1  0.32802945  0.01478833  0.12533532  1
  Ca2+  Ca8  1  0.00074376  0.01087651  0.62478853  1
  Ca2+  Ca9  1  -0.00294631  0.68229851  0.12668344  1
  Ca2+  Ca10  1  0.16792755  0.84870739  0.12724204  1
  Ca2+  Ca11  1  0.16302048  0.14832425  0.87633389  1
  Ca2+  Ca12  1  0.16202243  0.82121244  0.37474040  1
  Ca2+  Ca13  1  0.83078985  0.48580817  0.87581761  1
  Ca2+  Ca14  1  0.50222546  0.84689074  0.12534297  1
  Ca2+  Ca15  1  0.17019612  0.17787216  0.12580517  1
  Ca2+  Ca16  1  0.67029346  0.64902302  0.37330775  1
  Ca2+  Ca17  1  0.83247065  0.48717505  0.37404403  1
  Ca2+  Ca18  1  0.17055582  0.85136385  0.62320508  1
  Ca2+  Ca19  1  0.32766482  0.68446940  0.62402650  1
  Ca2+  Ca20  1  0.32876808  0.01454122  0.62473647  1
  Ca2+  Ca21  1  0.50029660  0.18088346  0.62419867  1
  Pr3+  Pr22  1  0.66082810  0.01562611  0.62404369  1
  Pr3+  Pr23  1  0.66267344  0.67712587  0.62190827  1
  Pr3+  Pr24  1  0.83721872  0.51227194  0.62419232  1
  Pr3+  Pr25  1  0.49684679  0.82098711  0.37422721  1
  Pr3+  Pr26  1  0.50033117  0.48977135  0.37443098  1
  Pr3+  Pr27  1  0.16330222  0.48511992  0.37528310  1
  Pr3+  Pr28  1  0.16355261  0.48717318  0.87513409  1
  Pr3+  Pr29  1  0.66454107  0.34760387  0.12458290  1
  Pr3+  Pr30  1  0.66942808  0.65209060  0.87584293  1
  Pr3+  Pr31  1  0.83647305  0.84242984  0.12618361  1
  Pr3+  Pr32  1  0.83905194  0.84769947  0.62357026  1
  Pr3+  Pr33  1  0.66187172  0.00865708  0.12564967  1
  Pr3+  Pr34  1  0.83827707  0.51516638  0.12581028  1
  Pr3+  Pr35  1  0.33570441  0.31832874  0.87552346  1
  Pr3+  Pr36  1  0.17004273  0.51439053  0.12658396  1
  Pr3+  Pr37  1  0.49749596  0.48821958  0.87559738  1
  Pr3+  Pr38  1  0.49915318  0.17722136  0.12518123  1
  Pr3+  Pr39  1  0.33178117  0.68338444  0.12602418  1
  Pr3+  Pr40  1  0.83290057  0.82138603  0.87539437  1
  Pr3+  Pr41  1  0.33331388  0.65781191  0.37657684  1
  Pr3+  Pr42  1  0.67005396  0.32209964  0.87526604  1
  Pr3+  Pr43  1  0.66335079  0.34694446  0.62527065  1
  Pr3+  Pr44  1  0.00190258  0.01071830  0.12503561  1
  Pr3+  Pr45  1  0.83233457  0.15350073  0.37460603  1
  Pr3+  Pr46  1  0.32942443  0.34682756  0.12594667  1
  Pr3+  Pr47  1  1.00225169  0.65414584  0.87681860  1
  Pr3+  Pr48  1  0.83869393  0.17734791  0.62522349  1
  Pr3+  Pr49  1  0.66917105  0.98517335  0.87481301  1
  Pr3+  Pr50  1  0.49371585  0.15634139  0.37614213  1
  Pr3+  Pr51  1  0.00036489  0.34297696  0.12587273  1
  Pr3+  Pr52  1  0.83131571  0.15116212  0.87510865  1
  Pr3+  Pr53  1  0.33312044  0.98795774  0.37569784  1
  Pr3+  Pr54  1  0.49558817  0.82057545  0.87515726  1
  Pr3+  Pr55  1  0.49747371  0.84517820  0.62381797  1
  Pr3+  Pr56  1  0.17248818  0.51434452  0.62377338  1
  Pr3+  Pr57  1  0.66861740  0.98706742  0.37462030  1
  Pr3+  Pr58  1  0.83089716  0.81798195  0.37463768  1
  Pr3+  Pr59  1  1.00420106  0.31738192  0.87488053  1
  Pr3+  Pr60  1  -0.00236146  0.34442371  0.62418331  1
  Pr3+  Pr61  1  0.16286181  0.82379457  0.87550678  1
  Pr3+  Pr62  1  0.16625762  0.17291071  0.62571725  1
  Pr3+  Pr63  1  -0.00146391  0.68068609  0.62416979  1
  Pr3+  Pr64  1  1.00415885  0.65461396  0.37347091  1
  Pr3+  Pr65  1  0.49582648  0.15284811  0.87410259  1
  Pr3+  Pr66  1  0.67113752  0.32515813  0.37457560  1
  Pr3+  Pr67  1  0.83754346  0.17827421  0.12451486  1
  Pr3+  Pr68  1  0.33261410  0.98769902  0.87440867  1
  Pr3+  Pr69  1  0.16376843  0.15391426  0.37406187  1
  Pr3+  Pr70  1  0.33539272  0.65718667  0.87355566  1
  Pr3+  Pr71  1  0.33284262  0.34383725  0.62434089  1
  Mn3.30+  Mn72  1  0.16817764  0.00026976  0.00180653  1
  Mn3.30+  Mn73  1  0.16693835  -0.00224678  0.50160429  1
  Mn3.30+  Mn74  1  0.16740277  0.33054760  -0.00056625  1
  Mn3.30+  Mn75  1  0.16639580  0.33135286  0.50051809  1
  Mn3.30+  Mn76  1  0.16567095  0.66988641  0.00264159  1
  Mn3.30+  Mn77  1  0.16764441  0.67069855  0.50036820  1
  Mn3.30+  Mn78  1  0.49738119  -0.00169558  0.00142462  1
  Mn3.30+  Mn79  1  0.49750600  0.00192568  0.50173273  1
  Mn3.30+  Mn80  1  0.50002122  0.33274920  0.00007634  1
  Mn3.30+  Mn81  1  0.50086944  0.33322071  0.50040032  1
  Mn3.30+  Mn82  1  0.50014869  0.66796994  0.00152678  1
  Mn3.30+  Mn83  1  0.49939003  0.66717926  0.49969939  1
  Mn3.30+  Mn84  1  0.83357356  -0.00225287  0.00058304  1
  Mn3.30+  Mn85  1  0.83488080  -0.00061390  0.49963951  1
  Mn3.30+  Mn86  1  0.83489891  0.33397718  -0.00065501  1
  Mn3.30+  Mn87  1  0.83344291  0.33323856  0.49904639  1
  Mn3.30+  Mn88  1  0.83428886  0.66642128  0.00131519  1
  Mn3.30+  Mn89  1  0.83191931  0.66442057  0.49788824  1
  Mn3.30+  Mn90  1  0.00231760  0.16576518  0.24925852  1
  Mn3.30+  Mn91  1  0.00200087  0.16336768  0.75059361  1
  Mn3.30+  Mn92  1  0.00049128  0.50073280  0.24943758  1
  Mn3.30+  Mn93  1  -0.00040449  0.49970625  0.75139142  1
  Mn3.30+  Mn94  1  0.00318584  0.83295260  0.24969758  1
  Mn3.30+  Mn95  1  0.00238551  0.83507428  0.74796094  1
  Mn3.30+  Mn96  1  0.33075448  0.16615910  0.24918422  1
  Mn3.30+  Mn97  1  0.33250159  0.16478985  0.74912867  1
  Mn3.30+  Mn98  1  0.33393923  0.50245430  0.25078330  1
  Mn3.30+  Mn99  1  0.33283943  0.50171872  0.74910247  1
  Mn3.30+  Mn100  1  0.33089288  0.83652955  0.24914711  1
  Mn3.30+  Mn101  1  0.32971373  0.83458360  0.74736756  1
  Mn3.30+  Mn102  1  0.66545377  0.16664727  0.24986583  1
  Mn3.30+  Mn103  1  0.66506176  0.16690804  0.74925826  1
  Mn3.30+  Mn104  1  0.66898434  0.50130057  0.25068352  1
  Mn3.30+  Mn105  1  0.66829237  0.50004949  0.75035943  1
  Mn3.30+  Mn106  1  0.66459903  0.83046178  0.25035588  1
  Mn3.30+  Mn107  1  0.66624192  0.83248847  0.74791340  1
  Mn3.30+  Mn108  1  0.16820681  -0.00161151  0.24917046  1
  Mn3.30+  Mn109  1  0.16709961  -0.00038608  0.74806247  1
  Mn3.30+  Mn110  1  0.16682360  0.33111916  0.24975131  1
  Mn3.30+  Mn111  1  0.16697283  0.33087922  0.75049514  1
  Mn3.30+  Mn112  1  0.16562002  0.67120016  0.24840374  1
  Mn3.30+  Mn113  1  0.16770359  0.66957978  0.74884206  1
  Mn3.30+  Mn114  1  0.49694375  -0.00086395  0.24901409  1
  Mn3.30+  Mn115  1  0.49764399  0.00108099  0.74735271  1
  Mn3.30+  Mn116  1  0.50027318  0.33337212  0.24981942  1
  Mn3.30+  Mn117  1  0.50052138  0.33243588  0.75004312  1
  Mn3.30+  Mn118  1  0.50109942  0.66797712  0.25151638  1
  Mn3.30+  Mn119  1  0.49865632  0.66672969  0.74677520  1
  Mn3.30+  Mn120  1  0.83406974  -0.00191447  0.25037933  1
  Mn3.30+  Mn121  1  0.83414902  -0.00091797  0.74867824  1
  Mn3.30+  Mn122  1  0.83443891  0.33414758  0.25024683  1
  Mn3.30+  Mn123  1  0.83417687  0.33338672  0.75136359  1
  Mn3.30+  Mn124  1  0.83323428  0.66549425  0.25010215  1
  Mn3.30+  Mn125  1  0.83326655  0.66546717  0.75045257  1
  Mn3.30+  Mn126  1  0.00418084  0.16462601  0.00032160  1
  Mn3.30+  Mn127  1  0.00048591  0.16456572  0.49930046  1
  Mn3.30+  Mn128  1  -0.00048512  0.49996903  0.00008279  1
  Mn3.30+  Mn129  1  0.00049783  0.50012443  0.49941374  1
  Mn3.30+  Mn130  1  0.00191382  0.83315490  0.00213055  1
  Mn3.30+  Mn131  1  0.00374310  0.83463848  0.50017080  1
  Mn3.30+  Mn132  1  0.32944394  0.16438876  -0.00010354  1
  Mn3.30+  Mn133  1  0.33334736  0.16635422  0.50243929  1
  Mn3.30+  Mn134  1  0.33271468  0.50238069  0.00010082  1
  Mn3.30+  Mn135  1  0.33403521  0.50208548  0.50063364  1
  Mn3.30+  Mn136  1  0.33202715  0.83683901  0.00399096  1
  Mn3.30+  Mn137  1  0.32860990  0.83445188  0.49984034  1
  Mn3.30+  Mn138  1  0.66625597  0.16545939  0.00038039  1
  Mn3.30+  Mn139  1  0.66473792  0.16798357  0.50003758  1
  Mn3.30+  Mn140  1  0.66818837  0.50082444  -0.00007919  1
  Mn3.30+  Mn141  1  0.66922435  0.50051089  0.49898916  1
  Mn3.30+  Mn142  1  0.66437812  0.83120040  0.00143255  1
  Mn3.30+  Mn143  1  0.66661687  0.83188011  0.49963569  1
  O2-  O144  1  0.02553754  0.16247021  0.12408446  1
  O2-  O145  1  0.01992380  0.16286340  0.62541800  1
  O2-  O146  1  0.02754568  0.49067919  0.12381566  1
  O2-  O147  1  0.02671177  0.49474752  0.62654831  1
  O2-  O148  1  0.02487563  0.82611911  0.12551268  1
  O2-  O149  1  0.02724792  0.82447728  0.62466004  1
  O2-  O150  1  0.35728988  0.16060690  0.12383555  1
  O2-  O151  1  0.35953222  0.16092177  0.62635299  1
  O2-  O152  1  0.35167003  0.49686603  0.12525796  1
  O2-  O153  1  0.35129341  0.49204947  0.62639845  1
  O2-  O154  1  0.36250670  0.82817623  0.12624936  1
  O2-  O155  1  0.35634931  0.82653780  0.62390048  1
  O2-  O156  1  0.69319919  0.15819151  0.12386732  1
  O2-  O157  1  0.69465252  0.16281319  0.62386814  1
  O2-  O158  1  0.69231807  0.49658631  0.12436081  1
  O2-  O159  1  0.69345044  0.49618219  0.62568654  1
  O2-  O160  1  0.69106736  0.83294163  0.12642178  1
  O2-  O161  1  0.69373688  0.82550015  0.62335893  1
  O2-  O162  1  0.14446004  0.32752127  0.12206461  1
  O2-  O163  1  0.14087839  0.32485003  0.62657480  1
  O2-  O164  1  0.13839625  0.65854874  0.12506435  1
  O2-  O165  1  0.14027624  0.65838765  0.62525477  1
  O2-  O166  1  0.14378465  0.99178627  0.12625714  1
  O2-  O167  1  0.14196056  0.99765169  0.62403533  1
  O2-  O168  1  0.47424908  0.32729235  0.12445365  1
  O2-  O169  1  0.47730710  0.32836737  0.62810304  1
  O2-  O170  1  0.47585605  0.66241250  0.12820969  1
  O2-  O171  1  0.47351412  0.66476963  0.62407241  1
  O2-  O172  1  0.47265620  0.99309679  0.12728494  1
  O2-  O173  1  0.47047975  0.99175003  0.62495095  1
  O2-  O174  1  0.80831018  0.32514485  0.12329925  1
  O2-  O175  1  0.80782567  0.32461401  0.62456532  1
  O2-  O176  1  0.81066259  0.66334719  0.12572614  1
  O2-  O177  1  0.80667612  0.65931072  0.62366802  1
  O2-  O178  1  0.80658089  0.99321002  0.12643456  1
  O2-  O179  1  0.80562290  0.99663502  0.62459377  1
  O2-  O180  1  0.30873656  0.16947441  0.37602498  1
  O2-  O181  1  0.30543302  0.17157985  0.87464243  1
  O2-  O182  1  0.30693976  0.50702988  0.37515950  1
  O2-  O183  1  0.30680928  0.50779939  0.87386876  1
  O2-  O184  1  0.30379888  0.83996169  0.37492114  1
  O2-  O185  1  0.30729217  0.83843556  0.87542219  1
  O2-  O186  1  0.63838967  0.17498971  0.37534374  1
  O2-  O187  1  0.64051865  0.17237359  0.87653704  1
  O2-  O188  1  0.64592529  0.49648441  0.37518449  1
  O2-  O189  1  0.64236039  0.50263474  0.87436710  1
  O2-  O190  1  0.64114518  0.84133034  0.37684350  1
  O2-  O191  1  0.64052001  0.83820590  0.87252449  1
  O2-  O192  1  0.97654638  0.16812062  0.37364579  1
  O2-  O193  1  0.97479287  0.16938767  0.87596468  1
  O2-  O194  1  0.97548246  0.50631617  0.37415633  1
  O2-  O195  1  0.97281683  0.50651467  0.87583530  1
  O2-  O196  1  0.97540414  0.83328951  0.37592948  1
  O2-  O197  1  0.97701868  0.83540085  0.87394284  1
  O2-  O198  1  0.19040163  0.00772535  0.37467005  1
  O2-  O199  1  0.18907024  0.00203108  0.87526429  1
  O2-  O200  1  0.18607379  0.33624028  0.37697602  1
  O2-  O201  1  0.19287903  0.34134543  0.87501726  1
  O2-  O202  1  0.18982508  0.67542467  0.37419091  1
  O2-  O203  1  0.19176125  0.67506746  0.87556572  1
  O2-  O204  1  0.52521931  0.00819154  0.37631037  1
  O2-  O205  1  0.52615274  0.00554188  0.87161875  1
  O2-  O206  1  0.52542869  0.33663091  0.37293715  1
  O2-  O207  1  0.52474480  0.33721949  0.87483046  1
  O2-  O208  1  0.52631087  0.67495683  0.37595268  1
  O2-  O209  1  0.52388434  0.67396099  0.87163635  1
  O2-  O210  1  0.85326464  0.00522859  0.37377277  1
  O2-  O211  1  0.85180040  0.00163014  0.87439049  1
  O2-  O212  1  0.85209068  0.34015667  0.37460699  1
  O2-  O213  1  0.86065517  0.34021660  0.87748701  1
  O2-  O214  1  0.86090403  0.67134373  0.37437896  1
  O2-  O215  1  0.85934719  0.67491897  0.87591775  1
  O2-  O216  1  0.23569911  0.09753940  0.01979600  1
  O2-  O217  1  0.23826866  0.09567054  0.51852645  1
  O2-  O218  1  0.23814964  0.43044943  0.01921019  1
  O2-  O219  1  0.23874584  0.42544527  0.51911064  1
  O2-  O220  1  0.23908030  0.76662290  0.02353539  1
  O2-  O221  1  0.23571330  0.76359251  0.52162067  1
  O2-  O222  1  0.56939896  0.09169086  0.02104156  1
  O2-  O223  1  0.57045346  0.09718454  0.52331618  1
  O2-  O224  1  0.57577572  0.42487257  0.01711682  1
  O2-  O225  1  0.57718539  0.42634864  0.51715973  1
  O2-  O226  1  0.56784230  0.76567237  0.01668902  1
  O2-  O227  1  0.57006395  0.76117551  0.52198126  1
  O2-  O228  1  0.90614126  0.09423774  0.02016319  1
  O2-  O229  1  0.90175427  0.09499398  0.51622542  1
  O2-  O230  1  0.90696977  0.42580219  0.02475516  1
  O2-  O231  1  0.90676431  0.42500704  0.52315005  1
  O2-  O232  1  0.90374030  0.76262280  0.01725433  1
  O2-  O233  1  0.90372996  0.76072754  0.52011942  1
  O2-  O234  1  0.26328314  0.26166363  0.22945127  1
  O2-  O235  1  0.26365097  0.26077586  0.72872881  1
  O2-  O236  1  0.25907061  0.59911182  0.23039930  1
  O2-  O237  1  0.26067967  0.59862052  0.72918573  1
  O2-  O238  1  0.26693320  0.93406429  0.23160132  1
  O2-  O239  1  0.26487101  0.93221070  0.73178592  1
  O2-  O240  1  0.59473945  0.25929097  0.22648445  1
  O2-  O241  1  0.59801800  0.26177116  0.73271260  1
  O2-  O242  1  0.59459971  0.59112638  0.24052427  1
  O2-  O243  1  0.59980390  0.59691334  0.73350078  1
  O2-  O244  1  0.59534102  0.93005666  0.23451854  1
  O2-  O245  1  0.59330466  0.92892348  0.72723999  1
  O2-  O246  1  0.92598754  0.25915211  0.22772955  1
  O2-  O247  1  0.92963294  0.26050323  0.73197183  1
  O2-  O248  1  0.93121111  0.59446255  0.22679858  1
  O2-  O249  1  0.92825254  0.59506894  0.72881604  1
  O2-  O250  1  0.92963919  0.92319251  0.22717361  1
  O2-  O251  1  0.92835651  0.92575089  0.72526824  1
  O2-  O252  1  0.09448127  0.23715720  0.26654981  1
  O2-  O253  1  0.09679216  0.23802525  0.77221595  1
  O2-  O254  1  0.09662409  0.57169860  0.27131851  1
  O2-  O255  1  0.09592447  0.57261857  0.77143819  1
  O2-  O256  1  0.09880236  0.90246273  0.26755429  1
  O2-  O257  1  0.09799049  0.90375254  0.76679876  1
  O2-  O258  1  0.43001745  0.23705296  0.26524367  1
  O2-  O259  1  0.42514531  0.23869893  0.77271812  1
  O2-  O260  1  0.42527229  0.57674195  0.27504101  1
  O2-  O261  1  0.42793636  0.57391502  0.77280406  1
  O2-  O262  1  0.42645797  0.90743224  0.27634631  1
  O2-  O263  1  0.42799400  0.90542322  0.77020885  1
  O2-  O264  1  0.76204770  0.23940170  0.26976416  1
  O2-  O265  1  0.76384396  0.23919377  0.77331919  1
  O2-  O266  1  0.76674833  0.56820902  0.26822685  1
  O2-  O267  1  0.76380464  0.56923279  0.77266579  1
  O2-  O268  1  0.75926063  0.90295234  0.27086414  1
  O2-  O269  1  0.76066370  0.90411754  0.76836990  1
  O2-  O270  1  0.07687958  0.07381272  0.48309123  1
  O2-  O271  1  0.07172142  0.06910668  0.98670346  1
  O2-  O272  1  0.07458876  0.40741115  0.48458421  1
  O2-  O273  1  0.07091711  0.40468003  0.97844697  1
  O2-  O274  1  0.06774567  0.73471438  0.48320108  1
  O2-  O275  1  0.07226305  0.73961730  0.97755901  1
  O2-  O276  1  0.40590206  0.07389905  0.47743909  1
  O2-  O277  1  0.40468256  0.07414783  0.97679441  1
  O2-  O278  1  0.41146627  0.40987906  0.48286978  1
  O2-  O279  1  0.40555808  0.40642694  0.97876778  1
  O2-  O280  1  0.40400701  0.74339864  0.47753888  1
  O2-  O281  1  0.40272304  0.73983858  0.98021511  1
  O2-  O282  1  0.73428090  0.07389092  0.47937883  1
  O2-  O283  1  0.73742224  0.07209333  0.97913372  1
  O2-  O284  1  0.73791273  0.40168404  0.48601135  1
  O2-  O285  1  0.73962373  0.40300678  0.98252621  1
  O2-  O286  1  0.73959292  0.73314887  0.47705872  1
  O2-  O287  1  0.73759698  0.74028111  0.97772278  1
  O2-  O288  1  0.09615314  0.23686571  0.48466804  1
  O2-  O289  1  0.09402022  0.23779648  0.97532272  1
  O2-  O290  1  0.09702660  0.57305398  0.47918809  1
  O2-  O291  1  0.09484580  0.57062937  0.97826938  1
  O2-  O292  1  0.09989215  0.90197939  0.48136120  1
  O2-  O293  1  0.09725895  0.90427689  0.98488499  1
  O2-  O294  1  0.42788768  0.23897380  0.48412623  1
  O2-  O295  1  0.42745843  0.23689947  0.97970087  1
  O2-  O296  1  0.42847900  0.57620443  0.47544376  1
  O2-  O297  1  0.42547015  0.57471476  0.97705042  1
  O2-  O298  1  0.42713467  0.90555506  0.47874020  1
  O2-  O299  1  0.42733280  0.90645628  0.97573933  1
  O2-  O300  1  0.76135554  0.23785818  0.47744463  1
  O2-  O301  1  0.76341708  0.23933526  0.97842552  1
  O2-  O302  1  0.76675942  0.56579768  0.48091309  1
  O2-  O303  1  0.76392030  0.57110554  0.97863388  1
  O2-  O304  1  0.76295941  0.90518726  0.48064908  1
  O2-  O305  1  0.75913287  0.90277565  0.97998221  1
  O2-  O306  1  0.07387317  0.07077996  0.26530568  1
  O2-  O307  1  0.07465273  0.07299675  0.76400366  1
  O2-  O308  1  0.07469750  0.40792200  0.26634024  1
  O2-  O309  1  0.07115805  0.40469311  0.77154216  1
  O2-  O310  1  0.07004046  0.73707697  0.26907378  1
  O2-  O311  1  0.07028543  0.73688258  0.77058813  1
  O2-  O312  1  0.40535659  0.07478127  0.27219577  1
  O2-  O313  1  0.40556015  0.07360534  0.77461478  1
  O2-  O314  1  0.41215864  0.40938723  0.26753667  1
  O2-  O315  1  0.40612704  0.40596231  0.77173272  1
  O2-  O316  1  0.40171518  0.74129267  0.27217757  1
  O2-  O317  1  0.40388295  0.74260959  0.77043376  1
  O2-  O318  1  0.73590542  0.07417589  0.27121308  1
  O2-  O319  1  0.73482205  0.07243907  0.76946357  1
  O2-  O320  1  0.73877320  0.40291229  0.26329795  1
  O2-  O321  1  0.73787389  0.40330325  0.76819922  1
  O2-  O322  1  0.73727066  0.73817911  0.27381608  1
  O2-  O323  1  0.73952687  0.73656351  0.77047787  1
  O2-  O324  1  0.23553521  0.09789028  0.23261243  1
  O2-  O325  1  0.23910746  0.09403833  0.73046773  1
  O2-  O326  1  0.24003189  0.42815647  0.23191841  1
  O2-  O327  1  0.23705441  0.42698560  0.73017472  1
  O2-  O328  1  0.23914938  0.76332007  0.22465781  1
  O2-  O329  1  0.23402702  0.76614330  0.73089828  1
  O2-  O330  1  0.56966860  0.09293734  0.22842104  1
  O2-  O331  1  0.56848293  0.09513587  0.72627867  1
  O2-  O332  1  0.57756130  0.42377354  0.23167109  1
  O2-  O333  1  0.57566236  0.42751058  0.73297822  1
  O2-  O334  1  0.56734926  0.76647868  0.23276693  1
  O2-  O335  1  0.57138743  0.76160006  0.72685378  1
  O2-  O336  1  0.90705481  0.09427619  0.22835188  1
  O2-  O337  1  0.90134614  0.09532342  0.73457538  1
  O2-  O338  1  0.90731503  0.42565611  0.22612396  1
  O2-  O339  1  0.90612674  0.42495448  0.72664877  1
  O2-  O340  1  0.90237407  0.76191343  0.23387750  1
  O2-  O341  1  0.90506360  0.76136189  0.72878204  1
  O2-  O342  1  0.26688395  0.26484511  0.01724198  1
  O2-  O343  1  0.26008080  0.25863178  0.52503695  1
  O2-  O344  1  0.25993530  0.59899693  0.02017658  1
  O2-  O345  1  0.26065930  0.59771752  0.52007241  1
  O2-  O346  1  0.26674319  0.93420940  0.01729005  1
  O2-  O347  1  0.26569382  0.93304721  0.51910161  1
  O2-  O348  1  0.59512735  0.25873944  0.02168941  1
  O2-  O349  1  0.59752811  0.26260432  0.51924624  1
  O2-  O350  1  0.59436531  0.59502468  0.01032844  1
  O2-  O351  1  0.59811879  0.59414808  0.51517658  1
  O2-  O352  1  0.59697163  0.92888794  0.01634112  1
  O2-  O353  1  0.59170045  0.93069230  0.52092071  1
  O2-  O354  1  0.92890965  0.26046927  0.01966684  1
  O2-  O355  1  0.92517250  0.25987890  0.52060587  1
  O2-  O356  1  0.93108777  0.59443793  0.02281079  1
  O2-  O357  1  0.92867726  0.59482305  0.52180704  1
  O2-  O358  1  0.92769804  0.92405128  0.02361471  1
  O2-  O359  1  0.93079130  0.92534729  0.52355340  1
