# generated using pymatgen
data_Sr7Ca15Pr50Mn72O216
_symmetry_space_group_name_H-M   'P 1'
_cell_length_a   16.56208626
_cell_length_b   16.60433199
_cell_length_c   15.59542545
_cell_angle_alpha   90.00309166
_cell_angle_beta   89.99899373
_cell_angle_gamma   89.99574439
_symmetry_Int_Tables_number   1
_chemical_formula_structural   Sr7Ca15Pr50Mn72O216
_chemical_formula_sum   'Sr7 Ca15 Pr50 Mn72 O216'
_cell_volume   4288.77907696
_cell_formula_units_Z   1
loop_
 _symmetry_equiv_pos_site_id
 _symmetry_equiv_pos_as_xyz
  1  'x, y, z'
loop_
 _atom_type_symbol
 _atom_type_oxidation_number
  Sr2+  2.0
  Ca2+  2.0
  Pr3+  3.0
  Mn3.30+  3.3
  O2-  -2.0
loop_
 _atom_site_type_symbol
 _atom_site_label
 _atom_site_symmetry_multiplicity
 _atom_site_fract_x
 _atom_site_fract_y
 _atom_site_fract_z
 _atom_site_occupancy
  Sr2+  Sr0  1  0.49535641  0.15266589  0.37600871  1
  Sr2+  Sr1  1  0.33330033  0.34147420  0.62361863  1
  Sr2+  Sr2  1  0.83499499  0.17313024  0.12325964  1
  Sr2+  Sr3  1  0.83556354  0.82724050  0.37520168  1
  Sr2+  Sr4  1  0.82947867  0.15278453  0.87633772  1
  Sr2+  Sr5  1  1.00239081  0.32167167  0.37428970  1
  Sr2+  Sr6  1  0.49635623  0.17343301  0.62300358  1
  Ca2+  Ca7  1  0.83139025  0.82411502  0.87592007  1
  Ca2+  Ca8  1  -0.00285129  0.68330586  0.12540470  1
  Ca2+  Ca9  1  0.33119009  0.01057336  0.62395173  1
  Ca2+  Ca10  1  0.33496484  0.65686276  0.37496825  1
  Ca2+  Ca11  1  0.49230340  0.82059150  0.37290646  1
  Ca2+  Ca12  1  0.33807194  0.98346816  0.37580238  1
  Ca2+  Ca13  1  1.00499453  0.98603610  0.37050215  1
  Ca2+  Ca14  1  0.50347978  0.84904792  0.12431303  1
  Ca2+  Ca15  1  0.33837810  0.98194996  0.87374987  1
  Ca2+  Ca16  1  0.16746380  0.84905261  0.12514785  1
  Ca2+  Ca17  1  -0.00371221  0.01214040  0.12697886  1
  Ca2+  Ca18  1  0.33642717  0.65501560  0.87491864  1
  Ca2+  Ca19  1  0.17490032  0.85250510  0.62491326  1
  Ca2+  Ca20  1  0.67136641  0.98336997  0.87590020  1
  Ca2+  Ca21  1  0.49466607  0.81927457  0.87675990  1
  Pr3+  Pr22  1  0.66207887  0.68201561  0.62512970  1
  Pr3+  Pr23  1  0.66227220  0.01183861  0.62598441  1
  Pr3+  Pr24  1  -0.00542763  0.34353240  0.12573945  1
  Pr3+  Pr25  1  0.32802745  0.68303648  0.62532894  1
  Pr3+  Pr26  1  0.16631172  0.17611742  0.12476856  1
  Pr3+  Pr27  1  0.16804415  0.51388547  0.12629881  1
  Pr3+  Pr28  1  0.49986420  0.84667058  0.62551499  1
  Pr3+  Pr29  1  0.50034897  0.51327329  0.62492778  1
  Pr3+  Pr30  1  0.16675775  0.48983513  0.87546635  1
  Pr3+  Pr31  1  0.49654641  0.48890841  0.37427934  1
  Pr3+  Pr32  1  0.83556873  0.17725092  0.62602422  1
  Pr3+  Pr33  1  0.33333064  0.00772588  0.12458934  1
  Pr3+  Pr34  1  1.00324307  0.65757873  0.37335447  1
  Pr3+  Pr35  1  0.66820433  0.65879092  0.37459570  1
  Pr3+  Pr36  1  0.66592985  0.34547691  0.12423955  1
  Pr3+  Pr37  1  0.66060547  0.34517414  0.62533046  1
  Pr3+  Pr38  1  0.16515442  0.15093884  0.87468208  1
  Pr3+  Pr39  1  0.82986248  0.48805363  0.87508110  1
  Pr3+  Pr40  1  0.83136272  0.48795624  0.37487033  1
  Pr3+  Pr41  1  0.33058442  0.34563180  0.12592483  1
  Pr3+  Pr42  1  1.00249829  0.31797884  0.87536790  1
  Pr3+  Pr43  1  0.16555372  0.48840247  0.37462139  1
  Pr3+  Pr44  1  0.66374771  0.01008483  0.12424585  1
  Pr3+  Pr45  1  0.17369876  0.51243500  0.62400573  1
  Pr3+  Pr46  1  0.66135221  0.68581431  0.12486281  1
  Pr3+  Pr47  1  0.17380468  0.17792968  0.62487612  1
  Pr3+  Pr48  1  0.83249197  0.15219035  0.37376030  1
  Pr3+  Pr49  1  0.50431042  0.17663303  0.12599483  1
  Pr3+  Pr50  1  0.50334655  0.51611693  0.12524521  1
  Pr3+  Pr51  1  0.49637045  0.48911381  0.87606195  1
  Pr3+  Pr52  1  1.00130094  0.65774200  0.87691648  1
  Pr3+  Pr53  1  0.83692000  0.51449675  0.62484384  1
  Pr3+  Pr54  1  0.66808456  0.65963069  0.87529128  1
  Pr3+  Pr55  1  0.32976133  0.68495293  0.12459015  1
  Pr3+  Pr56  1  1.00131748  0.98733218  0.87792928  1
  Pr3+  Pr57  1  0.16695779  0.82256194  0.87655129  1
  Pr3+  Pr58  1  0.33593107  0.31803656  0.37546808  1
  Pr3+  Pr59  1  0.16218607  0.14912137  0.37456983  1
  Pr3+  Pr60  1  0.49623419  0.14871863  0.87402736  1
  Pr3+  Pr61  1  0.83942271  0.51650621  0.12519240  1
  Pr3+  Pr62  1  0.66987432  0.31891571  0.37527142  1
  Pr3+  Pr63  1  0.66588019  0.98748171  0.37534997  1
  Pr3+  Pr64  1  0.83409928  0.84582759  0.62620747  1
  Pr3+  Pr65  1  0.66934825  0.31884499  0.87464747  1
  Pr3+  Pr66  1  0.00156457  0.68220978  0.62514450  1
  Pr3+  Pr67  1  0.16430539  0.82491205  0.37418266  1
  Pr3+  Pr68  1  0.33701826  0.31881632  0.87452391  1
  Pr3+  Pr69  1  -0.00129518  0.34510261  0.62457066  1
  Pr3+  Pr70  1  0.00154416  0.00948250  0.62329153  1
  Pr3+  Pr71  1  0.83743444  0.84660691  0.12438325  1
  Mn3.30+  Mn72  1  0.16796103  -0.00231084  0.00144323  1
  Mn3.30+  Mn73  1  0.16952380  -0.00206337  0.49890399  1
  Mn3.30+  Mn74  1  0.16637388  0.33332304  0.00069257  1
  Mn3.30+  Mn75  1  0.16695439  0.33249455  0.49905965  1
  Mn3.30+  Mn76  1  0.16683009  0.66972470  0.00218885  1
  Mn3.30+  Mn77  1  0.16941862  0.66978931  0.49853421  1
  Mn3.30+  Mn78  1  0.50018840  -0.00466853  -0.00317359  1
  Mn3.30+  Mn79  1  0.49575328  -0.00203674  0.49964489  1
  Mn3.30+  Mn80  1  0.50012015  0.33285207  0.00063701  1
  Mn3.30+  Mn81  1  0.49941978  0.33242024  0.50025874  1
  Mn3.30+  Mn82  1  0.49773263  0.67121554  -0.00034923  1
  Mn3.30+  Mn83  1  0.49648803  0.66920349  0.49833488  1
  Mn3.30+  Mn84  1  0.83300926  -0.00201596  -0.00113496  1
  Mn3.30+  Mn85  1  0.83421835  -0.00109708  0.49917936  1
  Mn3.30+  Mn86  1  0.83299875  0.33244616  0.00001339  1
  Mn3.30+  Mn87  1  0.83325484  0.33252362  0.50026309  1
  Mn3.30+  Mn88  1  0.83392313  0.67014704  -0.00002037  1
  Mn3.30+  Mn89  1  0.83383553  0.66902591  0.49963557  1
  Mn3.30+  Mn90  1  -0.00055897  0.16377678  0.25038180  1
  Mn3.30+  Mn91  1  0.00080015  0.16393181  0.74992453  1
  Mn3.30+  Mn92  1  0.00095659  0.50212475  0.24958657  1
  Mn3.30+  Mn93  1  0.00125826  0.50114915  0.75046204  1
  Mn3.30+  Mn94  1  0.00191500  0.83467847  0.24791095  1
  Mn3.30+  Mn95  1  0.00155069  0.83456380  0.75038296  1
  Mn3.30+  Mn96  1  0.33335028  0.16281710  0.24967897  1
  Mn3.30+  Mn97  1  0.33317721  0.16206465  0.75052044  1
  Mn3.30+  Mn98  1  0.33386059  0.50331977  0.24998363  1
  Mn3.30+  Mn99  1  0.33414325  0.50081612  0.75083684  1
  Mn3.30+  Mn100  1  0.33354538  0.83460100  0.24903467  1
  Mn3.30+  Mn101  1  0.33377215  0.83455038  0.75183304  1
  Mn3.30+  Mn102  1  0.66624909  0.16501027  0.25039418  1
  Mn3.30+  Mn103  1  0.66518448  0.16395024  0.75064019  1
  Mn3.30+  Mn104  1  0.66743381  0.50216326  0.24944880  1
  Mn3.30+  Mn105  1  0.66617160  0.50204680  0.75025906  1
  Mn3.30+  Mn106  1  0.66375974  0.83487097  0.25119752  1
  Mn3.30+  Mn107  1  0.66536594  0.83487392  0.75307531  1
  Mn3.30+  Mn108  1  0.16675065  -0.00198882  0.24768686  1
  Mn3.30+  Mn109  1  0.17075661  -0.00256951  0.75154299  1
  Mn3.30+  Mn110  1  0.16568720  0.33250776  0.24915118  1
  Mn3.30+  Mn111  1  0.16812584  0.33321237  0.75089844  1
  Mn3.30+  Mn112  1  0.16734148  0.67073898  0.24789937  1
  Mn3.30+  Mn113  1  0.16902929  0.66906216  0.75220799  1
  Mn3.30+  Mn114  1  0.49719232  -0.00345417  0.25137771  1
  Mn3.30+  Mn115  1  0.49891274  -0.00305348  0.75201011  1
  Mn3.30+  Mn116  1  0.49969247  0.33296280  0.24999097  1
  Mn3.30+  Mn117  1  0.49990733  0.33212442  0.74926619  1
  Mn3.30+  Mn118  1  0.49737954  0.67146500  0.25046913  1
  Mn3.30+  Mn119  1  0.49672498  0.66890580  0.75141201  1
  Mn3.30+  Mn120  1  0.83566005  -0.00136468  0.25080224  1
  Mn3.30+  Mn121  1  0.83150510  -0.00151887  0.75161831  1
  Mn3.30+  Mn122  1  0.83390037  0.33219026  0.25005218  1
  Mn3.30+  Mn123  1  0.83211993  0.33262578  0.74916304  1
  Mn3.30+  Mn124  1  0.83439771  0.66972695  0.25012114  1
  Mn3.30+  Mn125  1  0.83346459  0.66973137  0.75029994  1
  Mn3.30+  Mn126  1  -0.00108204  0.16313528  -0.00005209  1
  Mn3.30+  Mn127  1  0.00157308  0.16436237  0.49943026  1
  Mn3.30+  Mn128  1  0.00015103  0.50195106  -0.00023984  1
  Mn3.30+  Mn129  1  0.00216618  0.50115309  0.50064523  1
  Mn3.30+  Mn130  1  0.00044613  0.83351507  0.00198108  1
  Mn3.30+  Mn131  1  0.00298459  0.83541379  0.50071361  1
  Mn3.30+  Mn132  1  0.33421716  0.16328173  0.00028040  1
  Mn3.30+  Mn133  1  0.33212036  0.16257408  0.49916908  1
  Mn3.30+  Mn134  1  0.33372044  0.50259921  0.00103618  1
  Mn3.30+  Mn135  1  0.33407038  0.50166689  0.49822991  1
  Mn3.30+  Mn136  1  0.33494605  0.83411921  0.00006214  1
  Mn3.30+  Mn137  1  0.33260188  0.83498563  0.49832489  1
  Mn3.30+  Mn138  1  0.66628215  0.16364104  -0.00076340  1
  Mn3.30+  Mn139  1  0.66523358  0.16518346  0.49959457  1
  Mn3.30+  Mn140  1  0.66723618  0.50268002  0.00058218  1
  Mn3.30+  Mn141  1  0.66650430  0.50171267  0.49979166  1
  Mn3.30+  Mn142  1  0.66513093  0.83547072  -0.00245661  1
  Mn3.30+  Mn143  1  0.66365096  0.83385740  0.49834670  1
  O2-  O144  1  0.02293057  0.16159430  0.12334908  1
  O2-  O145  1  0.02848989  0.15852960  0.62521152  1
  O2-  O146  1  0.02458609  0.49043655  0.12291866  1
  O2-  O147  1  0.02843315  0.49407927  0.62594892  1
  O2-  O148  1  0.02655298  0.82419325  0.12380725  1
  O2-  O149  1  0.03084276  0.82958186  0.62679593  1
  O2-  O150  1  0.36053522  0.15794223  0.12377314  1
  O2-  O151  1  0.34606270  0.15802151  0.62741058  1
  O2-  O152  1  0.35976004  0.49369779  0.12504428  1
  O2-  O153  1  0.35643721  0.49751963  0.62302492  1
  O2-  O154  1  0.36242610  0.83034240  0.12357898  1
  O2-  O155  1  0.35748306  0.82714536  0.62632311  1
  O2-  O156  1  0.68417018  0.15984163  0.12510114  1
  O2-  O157  1  0.69139710  0.16057365  0.62345573  1
  O2-  O158  1  0.69468592  0.49478283  0.12322455  1
  O2-  O159  1  0.69309024  0.49434672  0.62346534  1
  O2-  O160  1  0.69150850  0.83246368  0.12460437  1
  O2-  O161  1  0.68930033  0.82949317  0.62582527  1
  O2-  O162  1  0.13934090  0.32758092  0.12424948  1
  O2-  O163  1  0.14290800  0.32815326  0.62656308  1
  O2-  O164  1  0.13707892  0.65877358  0.12433299  1
  O2-  O165  1  0.14410915  0.65787741  0.62613650  1
  O2-  O166  1  0.13938625  0.99654416  0.12360750  1
  O2-  O167  1  0.14481634  0.99772573  0.62699295  1
  O2-  O168  1  0.47448309  0.32716859  0.12471051  1
  O2-  O169  1  0.48286964  0.33416684  0.62444556  1
  O2-  O170  1  0.47414340  0.66132431  0.12534430  1
  O2-  O171  1  0.47285970  0.66084965  0.62571373  1
  O2-  O172  1  0.47768640  0.99487907  0.12343200  1
  O2-  O173  1  0.47395843  0.99311669  0.62600369  1
  O2-  O174  1  0.81001865  0.33256270  0.12452916  1
  O2-  O175  1  0.80536568  0.32748969  0.62437752  1
  O2-  O176  1  0.80676979  0.66325609  0.12605087  1
  O2-  O177  1  0.80758562  0.66252152  0.62549993  1
  O2-  O178  1  0.80848077  0.99425494  0.12565831  1
  O2-  O179  1  0.80728502  0.99440658  0.62604874  1
  O2-  O180  1  0.30646543  0.17181008  0.37100938  1
  O2-  O181  1  0.30867078  0.17298474  0.87771629  1
  O2-  O182  1  0.30914964  0.50916584  0.37310239  1
  O2-  O183  1  0.31033751  0.50675610  0.87886281  1
  O2-  O184  1  0.30677860  0.84079543  0.37372230  1
  O2-  O185  1  0.30839062  0.83951083  0.87609887  1
  O2-  O186  1  0.64549327  0.17113920  0.37518513  1
  O2-  O187  1  0.63991383  0.17375831  0.87649906  1
  O2-  O188  1  0.64101534  0.50933722  0.37590957  1
  O2-  O189  1  0.64075200  0.50996238  0.87746741  1
  O2-  O190  1  0.63657930  0.83840745  0.37550104  1
  O2-  O191  1  0.63820910  0.83543186  0.87427524  1
  O2-  O192  1  0.97546177  0.16993705  0.37689563  1
  O2-  O193  1  0.97980573  0.17034491  0.87409035  1
  O2-  O194  1  0.97531959  0.50841383  0.37646430  1
  O2-  O195  1  0.97298937  0.50849541  0.87485073  1
  O2-  O196  1  0.98452115  0.83891116  0.37548582  1
  O2-  O197  1  0.97364236  0.83902871  0.87489562  1
  O2-  O198  1  0.19399150  0.00210665  0.37171782  1
  O2-  O199  1  0.19502729  0.00339687  0.87709441  1
  O2-  O200  1  0.19150365  0.33877022  0.37170175  1
  O2-  O201  1  0.19265899  0.34003179  0.87720245  1
  O2-  O202  1  0.19369120  0.67677774  0.37245699  1
  O2-  O203  1  0.19474163  0.67394353  0.87757997  1
  O2-  O204  1  0.52280921  0.00117054  0.37616917  1
  O2-  O205  1  0.52973949  0.00522324  0.87462131  1
  O2-  O206  1  0.52527143  0.33939726  0.37434583  1
  O2-  O207  1  0.52515916  0.33995378  0.87676640  1
  O2-  O208  1  0.52469153  0.67350106  0.37323661  1
  O2-  O209  1  0.52437152  0.67139827  0.87546891  1
  O2-  O210  1  0.86104441  0.00375938  0.37554709  1
  O2-  O211  1  0.85818510  -0.00018203  0.87310725  1
  O2-  O212  1  0.85322126  0.33988965  0.37649897  1
  O2-  O213  1  0.85803082  0.34025596  0.87386255  1
  O2-  O214  1  0.85844135  0.66924127  0.37521499  1
  O2-  O215  1  0.85729878  0.67467819  0.87318742  1
  O2-  O216  1  0.23907084  0.09326095  0.02209595  1
  O2-  O217  1  0.23267576  0.09648792  0.51380554  1
  O2-  O218  1  0.23799723  0.42788740  0.02213100  1
  O2-  O219  1  0.23921513  0.43183717  0.51380359  1
  O2-  O220  1  0.23663453  0.76381680  0.02402799  1
  O2-  O221  1  0.23640906  0.76466991  0.52170962  1
  O2-  O222  1  0.56862715  0.09486357  0.01872034  1
  O2-  O223  1  0.57605636  0.08925494  0.51826667  1
  O2-  O224  1  0.57329850  0.42868132  0.02209537  1
  O2-  O225  1  0.57435198  0.43129302  0.51925069  1
  O2-  O226  1  0.57003671  0.76277555  0.02207224  1
  O2-  O227  1  0.57032182  0.75948386  0.52281458  1
  O2-  O228  1  0.90951814  0.09001365  0.01460350  1
  O2-  O229  1  0.90653629  0.09444189  0.52229504  1
  O2-  O230  1  0.90565945  0.43025500  0.01888187  1
  O2-  O231  1  0.90503778  0.42699041  0.52208561  1
  O2-  O232  1  0.90469997  0.76155811  0.01951200  1
  O2-  O233  1  0.90929417  0.76078394  0.52321011  1
  O2-  O234  1  0.26018244  0.26005967  0.22696089  1
  O2-  O235  1  0.25925278  0.26023531  0.73548326  1
  O2-  O236  1  0.25852144  0.59580538  0.22562352  1
  O2-  O237  1  0.26149266  0.59464246  0.73051259  1
  O2-  O238  1  0.26213551  0.92734353  0.22690303  1
  O2-  O239  1  0.26506021  0.92995712  0.73095704  1
  O2-  O240  1  0.59376673  0.26251734  0.22984769  1
  O2-  O241  1  0.59597005  0.26378091  0.73432045  1
  O2-  O242  1  0.59556034  0.59697844  0.22909975  1
  O2-  O243  1  0.59406805  0.59553217  0.72910422  1
  O2-  O244  1  0.59610087  0.93038032  0.23292914  1
  O2-  O245  1  0.59420365  0.92675079  0.72727211  1
  O2-  O246  1  0.92917811  0.26120049  0.23188064  1
  O2-  O247  1  0.92838418  0.26014818  0.72837829  1
  O2-  O248  1  0.92995902  0.59500195  0.22787558  1
  O2-  O249  1  0.92910151  0.59459967  0.72820138  1
  O2-  O250  1  0.92808092  0.92524020  0.22700256  1
  O2-  O251  1  0.92947615  0.92718016  0.72755256  1
  O2-  O252  1  0.09542098  0.23439002  0.26560561  1
  O2-  O253  1  0.09497768  0.23972857  0.77098491  1
  O2-  O254  1  0.09626039  0.57465927  0.27187952  1
  O2-  O255  1  0.09692325  0.57496705  0.77279554  1
  O2-  O256  1  0.09687570  0.90554793  0.26709467  1
  O2-  O257  1  0.09526525  0.90736194  0.77408222  1
  O2-  O258  1  0.42319457  0.23864711  0.26673163  1
  O2-  O259  1  0.42535416  0.23741492  0.77105677  1
  O2-  O260  1  0.43187272  0.57092763  0.26629824  1
  O2-  O261  1  0.43119699  0.56938598  0.76791247  1
  O2-  O262  1  0.42869511  0.90236855  0.26911206  1
  O2-  O263  1  0.43249514  0.89912926  0.76987767  1
  O2-  O264  1  0.75990803  0.24016736  0.27114502  1
  O2-  O265  1  0.75910334  0.23984201  0.76717502  1
  O2-  O266  1  0.76263191  0.57278330  0.27059312  1
  O2-  O267  1  0.76142100  0.57275144  0.77012130  1
  O2-  O268  1  0.75817523  0.90838647  0.26916122  1
  O2-  O269  1  0.76426326  0.90133066  0.76757357  1
  O2-  O270  1  0.07091890  0.06772212  0.47846413  1
  O2-  O271  1  0.07703345  0.07321889  0.97717983  1
  O2-  O272  1  0.07515032  0.40774903  0.48259742  1
  O2-  O273  1  0.07069441  0.40698023  0.97686015  1
  O2-  O274  1  0.07171401  0.73809142  0.48105236  1
  O2-  O275  1  0.07274893  0.74089253  0.97582175  1
  O2-  O276  1  0.40219117  0.06796707  0.48245523  1
  O2-  O277  1  0.40668877  0.06664767  0.97740559  1
  O2-  O278  1  0.40611263  0.40835326  0.47540110  1
  O2-  O279  1  0.40580127  0.40368359  0.98058183  1
  O2-  O280  1  0.39836144  0.73574945  0.48247012  1
  O2-  O281  1  0.39936049  0.73462934  0.98111940  1
  O2-  O282  1  0.74080903  0.07358133  0.47857877  1
  O2-  O283  1  0.73424764  0.06882148  0.98321809  1
  O2-  O284  1  0.73649953  0.40768199  0.47871458  1
  O2-  O285  1  0.73862025  0.40762863  0.97793685  1
  O2-  O286  1  0.73371287  0.73960711  0.48335656  1
  O2-  O287  1  0.73274932  0.73890797  0.98356327  1
  O2-  O288  1  0.09499486  0.23409279  0.48261878  1
  O2-  O289  1  0.09506626  0.23891078  0.97971094  1
  O2-  O290  1  0.09791898  0.57538965  0.47799071  1
  O2-  O291  1  0.09476423  0.57272913  0.97786648  1
  O2-  O292  1  0.09839199  0.90584367  0.48351822  1
  O2-  O293  1  0.09366089  0.90671352  0.97675641  1
  O2-  O294  1  0.41987259  0.23954658  0.48229033  1
  O2-  O295  1  0.42794447  0.23612947  0.97981244  1
  O2-  O296  1  0.43124947  0.57018975  0.48148916  1
  O2-  O297  1  0.43212321  0.57070993  0.98403677  1
  O2-  O298  1  0.43058798  0.89815147  0.48234677  1
  O2-  O299  1  0.43114125  0.90259725  0.97859607  1
  O2-  O300  1  0.76231441  0.23811749  0.48017884  1
  O2-  O301  1  0.75502521  0.24217764  0.98163042  1
  O2-  O302  1  0.76142461  0.57163100  0.48025845  1
  O2-  O303  1  0.76409577  0.57470434  0.97911201  1
  O2-  O304  1  0.75601969  0.90829593  0.48244185  1
  O2-  O305  1  0.76321996  0.90107787  0.98114299  1
  O2-  O306  1  0.07395111  0.07151247  0.27114179  1
  O2-  O307  1  0.07320067  0.06937056  0.77147427  1
  O2-  O308  1  0.07522876  0.40968668  0.26738057  1
  O2-  O309  1  0.07165138  0.40565879  0.77193764  1
  O2-  O310  1  0.07297733  0.74056156  0.27205903  1
  O2-  O311  1  0.07141363  0.73895445  0.77226779  1
  O2-  O312  1  0.40170711  0.06593683  0.26602787  1
  O2-  O313  1  0.40658205  0.06929807  0.77427142  1
  O2-  O314  1  0.40639460  0.40505829  0.27051346  1
  O2-  O315  1  0.40680026  0.40613608  0.77280593  1
  O2-  O316  1  0.39830563  0.73559620  0.26841470  1
  O2-  O317  1  0.39984267  0.73469854  0.76793148  1
  O2-  O318  1  0.74046829  0.07157244  0.27147766  1
  O2-  O319  1  0.73573925  0.06742117  0.76740805  1
  O2-  O320  1  0.73780854  0.40675730  0.27035504  1
  O2-  O321  1  0.73754018  0.40715970  0.77140902  1
  O2-  O322  1  0.73331951  0.73936394  0.26690346  1
  O2-  O323  1  0.73473564  0.73855140  0.76632383  1
  O2-  O324  1  0.23714781  0.09343818  0.22661303  1
  O2-  O325  1  0.23417447  0.09668722  0.73712141  1
  O2-  O326  1  0.24078204  0.42849880  0.22895685  1
  O2-  O327  1  0.23674562  0.43119031  0.73519277  1
  O2-  O328  1  0.23666112  0.76413051  0.22470504  1
  O2-  O329  1  0.23641324  0.76457872  0.72988353  1
  O2-  O330  1  0.57142208  0.09156410  0.23084886  1
  O2-  O331  1  0.57139550  0.09266937  0.73166152  1
  O2-  O332  1  0.57400003  0.42981106  0.22863353  1
  O2-  O333  1  0.57335459  0.43041216  0.73140303  1
  O2-  O334  1  0.56952048  0.76248601  0.22627708  1
  O2-  O335  1  0.57072542  0.75905640  0.72795809  1
  O2-  O336  1  0.90579303  0.09397663  0.23530333  1
  O2-  O337  1  0.90643093  0.09105574  0.72693065  1
  O2-  O338  1  0.90511392  0.42890082  0.23113821  1
  O2-  O339  1  0.90449116  0.42695100  0.72807653  1
  O2-  O340  1  0.90584281  0.76195622  0.23125098  1
  O2-  O341  1  0.90833207  0.76077688  0.72585285  1
  O2-  O342  1  0.26158655  0.26071614  0.02208716  1
  O2-  O343  1  0.25771765  0.25956530  0.51508813  1
  O2-  O344  1  0.25819358  0.59469230  0.02478999  1
  O2-  O345  1  0.26162984  0.59536681  0.52015856  1
  O2-  O346  1  0.26212806  0.92664700  0.02051755  1
  O2-  O347  1  0.26489875  0.93009882  0.51988515  1
  O2-  O348  1  0.59327753  0.26173634  0.02138965  1
  O2-  O349  1  0.59840668  0.26274177  0.51560767  1
  O2-  O350  1  0.59509272  0.59711193  0.02173063  1
  O2-  O351  1  0.59518936  0.59525921  0.52058413  1
  O2-  O352  1  0.59730574  0.92948033  0.01905906  1
  O2-  O353  1  0.59296139  0.92687499  0.52160184  1
  O2-  O354  1  0.93030735  0.26359783  0.01499543  1
  O2-  O355  1  0.92814741  0.25808547  0.52515074  1
  O2-  O356  1  0.93038989  0.59539811  0.02126644  1
  O2-  O357  1  0.93033966  0.59345289  0.52323462  1
  O2-  O358  1  0.93073344  0.92608517  0.02289142  1
  O2-  O359  1  0.92662056  0.92420537  0.52432778  1
