# generated using pymatgen
data_Sr7Ca15Pr50Mn72O216
_symmetry_space_group_name_H-M   'P 1'
_cell_length_a   16.55887167
_cell_length_b   16.60550329
_cell_length_c   15.59279531
_cell_angle_alpha   89.99988548
_cell_angle_beta   89.99194353
_cell_angle_gamma   89.99237477
_symmetry_Int_Tables_number   1
_chemical_formula_structural   Sr7Ca15Pr50Mn72O216
_chemical_formula_sum   'Sr7 Ca15 Pr50 Mn72 O216'
_cell_volume   4287.52586631
_cell_formula_units_Z   1
loop_
 _symmetry_equiv_pos_site_id
 _symmetry_equiv_pos_as_xyz
  1  'x, y, z'
loop_
 _atom_type_symbol
 _atom_type_oxidation_number
  Sr2+  2.0
  Ca2+  2.0
  Pr3+  3.0
  Mn3.30+  3.3
  O2-  -2.0
loop_
 _atom_site_type_symbol
 _atom_site_label
 _atom_site_symmetry_multiplicity
 _atom_site_fract_x
 _atom_site_fract_y
 _atom_site_fract_z
 _atom_site_occupancy
  Sr2+  Sr0  1  0.83561807  0.17431083  0.12619400  1
  Sr2+  Sr1  1  0.50101577  0.50946590  0.12528352  1
  Sr2+  Sr2  1  -0.00153579  0.34436168  0.62650217  1
  Sr2+  Sr3  1  0.16749760  0.84437126  0.12503743  1
  Sr2+  Sr4  1  0.83622590  0.17914211  0.62376131  1
  Sr2+  Sr5  1  0.49981573  0.84212776  0.12543153  1
  Sr2+  Sr6  1  0.33138354  0.00717153  0.12491532  1
  Ca2+  Ca7  1  0.16375679  0.48414293  0.87348165  1
  Ca2+  Ca8  1  0.82870570  0.15038527  0.37470504  1
  Ca2+  Ca9  1  0.33354884  0.31931095  0.87403894  1
  Ca2+  Ca10  1  0.83344570  0.48518929  0.87524308  1
  Ca2+  Ca11  1  1.00322271  0.98856430  0.88076818  1
  Ca2+  Ca12  1  0.16832220  0.51127793  0.62765094  1
  Ca2+  Ca13  1  0.67471636  0.98217053  0.37309555  1
  Ca2+  Ca14  1  -0.00411295  0.01325468  0.12345174  1
  Ca2+  Ca15  1  0.82910026  0.81897514  0.37108415  1
  Ca2+  Ca16  1  0.84129664  0.85112957  0.12797111  1
  Ca2+  Ca17  1  0.49617767  0.48575602  0.37354557  1
  Ca2+  Ca18  1  0.33073622  0.68247335  0.12525669  1
  Ca2+  Ca19  1  0.32461874  0.35322821  0.62679067  1
  Ca2+  Ca20  1  0.16155239  0.15096668  0.87589365  1
  Ca2+  Ca21  1  -0.00446807  0.68641627  0.12515367  1
  Pr3+  Pr22  1  1.00388525  0.31984912  0.87428038  1
  Pr3+  Pr23  1  0.50017341  0.51146472  0.62510926  1
  Pr3+  Pr24  1  0.33055170  0.34345602  0.12322071  1
  Pr3+  Pr25  1  0.66969011  0.32183281  0.87529622  1
  Pr3+  Pr26  1  0.66493011  0.01431736  0.62335898  1
  Pr3+  Pr27  1  1.00137334  0.31965040  0.37578649  1
  Pr3+  Pr28  1  0.49556152  0.15442703  0.87445547  1
  Pr3+  Pr29  1  0.49453688  0.48506466  0.87684616  1
  Pr3+  Pr30  1  0.66923930  0.65458723  0.37259585  1
  Pr3+  Pr31  1  0.16392119  0.82117951  0.37195901  1
  Pr3+  Pr32  1  1.00719482  0.65173518  0.87804368  1
  Pr3+  Pr33  1  0.49718199  0.82063388  0.87785833  1
  Pr3+  Pr34  1  0.83855168  0.51440696  0.12288469  1
  Pr3+  Pr35  1  0.67029443  0.98701845  0.87525977  1
  Pr3+  Pr36  1  0.16377972  0.15559950  0.37570684  1
  Pr3+  Pr37  1  0.50108550  0.18228617  0.62509955  1
  Pr3+  Pr38  1  0.66359924  0.34445009  0.12461819  1
  Pr3+  Pr39  1  0.16412282  0.48706417  0.37509119  1
  Pr3+  Pr40  1  0.33210299  0.98896187  0.87706688  1
  Pr3+  Pr41  1  0.66513907  0.67773690  0.62543396  1
  Pr3+  Pr42  1  0.66462160  0.68108294  0.12478791  1
  Pr3+  Pr43  1  0.32899578  0.67650214  0.62518926  1
  Pr3+  Pr44  1  0.16776562  0.17322952  0.12231860  1
  Pr3+  Pr45  1  0.50423073  0.84519677  0.62501781  1
  Pr3+  Pr46  1  0.33220321  0.65531648  0.87948273  1
  Pr3+  Pr47  1  0.16923513  0.18409008  0.62733469  1
  Pr3+  Pr48  1  0.33825259  0.65155653  0.37117633  1
  Pr3+  Pr49  1  -0.00000056  0.67537935  0.62448980  1
  Pr3+  Pr50  1  0.50019565  0.82153099  0.37180266  1
  Pr3+  Pr51  1  0.99767760  0.98955309  0.37289139  1
  Pr3+  Pr52  1  0.83515311  0.82289020  0.87735245  1
  Pr3+  Pr53  1  0.66591844  0.34538145  0.62565774  1
  Pr3+  Pr54  1  0.83856309  0.50972770  0.62681672  1
  Pr3+  Pr55  1  0.83727957  0.84485768  0.62269697  1
  Pr3+  Pr56  1  0.83203198  0.48834944  0.37406103  1
  Pr3+  Pr57  1  0.50267925  0.17529483  0.12458361  1
  Pr3+  Pr58  1  -0.00448276  0.01406885  0.62581230  1
  Pr3+  Pr59  1  0.49742011  0.15240810  0.37516684  1
  Pr3+  Pr60  1  0.16131342  0.82403006  0.87814779  1
  Pr3+  Pr61  1  0.17226614  0.51494788  0.12282041  1
  Pr3+  Pr62  1  0.16830468  0.84670870  0.62456775  1
  Pr3+  Pr63  1  0.32954836  0.01460762  0.62509122  1
  Pr3+  Pr64  1  0.66426432  0.01000361  0.12686382  1
  Pr3+  Pr65  1  0.33513591  0.98665990  0.37315870  1
  Pr3+  Pr66  1  -0.00183306  0.34354444  0.12349777  1
  Pr3+  Pr67  1  0.67169335  0.65123005  0.87742204  1
  Pr3+  Pr68  1  0.83320473  0.15352937  0.87377345  1
  Pr3+  Pr69  1  0.66831450  0.32056149  0.37461333  1
  Pr3+  Pr70  1  1.00144893  0.65554693  0.37138092  1
  Pr3+  Pr71  1  0.33713529  0.32301749  0.37604452  1
  Mn3.30+  Mn72  1  0.16361511  0.00058404  0.00103372  1
  Mn3.30+  Mn73  1  0.16526353  0.00141812  0.49972147  1
  Mn3.30+  Mn74  1  0.16728719  0.33189250  -0.00395953  1
  Mn3.30+  Mn75  1  0.16820675  0.33647145  0.50289520  1
  Mn3.30+  Mn76  1  0.16624780  0.66732562  0.00254238  1
  Mn3.30+  Mn77  1  0.16730644  0.66517465  0.49867222  1
  Mn3.30+  Mn78  1  0.50014107  -0.00071111  0.00093356  1
  Mn3.30+  Mn79  1  0.50151537  -0.00061953  0.49851058  1
  Mn3.30+  Mn80  1  0.49800785  0.33196251  -0.00147539  1
  Mn3.30+  Mn81  1  0.49771224  0.33567430  0.50197950  1
  Mn3.30+  Mn82  1  0.50024188  0.66576101  0.00232376  1
  Mn3.30+  Mn83  1  0.49987499  0.66499547  0.49876498  1
  Mn3.30+  Mn84  1  0.83653252  -0.00049306  0.00084848  1
  Mn3.30+  Mn85  1  0.83104129  -0.00073757  0.49770438  1
  Mn3.30+  Mn86  1  0.83431466  0.33336087  0.00010790  1
  Mn3.30+  Mn87  1  0.83409335  0.33242419  0.49910450  1
  Mn3.30+  Mn88  1  0.83735424  0.66782084  0.00048272  1
  Mn3.30+  Mn89  1  0.83342160  0.66673179  0.49898765  1
  Mn3.30+  Mn90  1  -0.00275743  0.16494885  0.25030454  1
  Mn3.30+  Mn91  1  0.00119564  0.16603542  0.75110874  1
  Mn3.30+  Mn92  1  0.00111890  0.50119653  0.24745199  1
  Mn3.30+  Mn93  1  0.00258616  0.49901407  0.75199405  1
  Mn3.30+  Mn94  1  -0.00376790  0.83506593  0.24902544  1
  Mn3.30+  Mn95  1  0.00056124  0.83364205  0.75010314  1
  Mn3.30+  Mn96  1  0.33298076  0.16618091  0.24957043  1
  Mn3.30+  Mn97  1  0.33039907  0.17006826  0.75158428  1
  Mn3.30+  Mn98  1  0.33487133  0.50010238  0.24764089  1
  Mn3.30+  Mn99  1  0.32969830  0.49885722  0.75274318  1
  Mn3.30+  Mn100  1  0.33189640  0.83246993  0.24839005  1
  Mn3.30+  Mn101  1  0.33260704  0.83328905  0.75015036  1
  Mn3.30+  Mn102  1  0.66888101  0.16438024  0.25219569  1
  Mn3.30+  Mn103  1  0.66604908  0.16766789  0.74910262  1
  Mn3.30+  Mn104  1  0.66578918  0.49953934  0.25005480  1
  Mn3.30+  Mn105  1  0.66803607  0.49942627  0.75115848  1
  Mn3.30+  Mn106  1  0.67105799  0.83420955  0.24891037  1
  Mn3.30+  Mn107  1  0.66808174  0.83221492  0.75074919  1
  Mn3.30+  Mn108  1  0.16472971  0.00020741  0.24927740  1
  Mn3.30+  Mn109  1  0.16375291  0.00178035  0.75086852  1
  Mn3.30+  Mn110  1  0.16633150  0.33236507  0.24914501  1
  Mn3.30+  Mn111  1  0.16930119  0.33559132  0.75199253  1
  Mn3.30+  Mn112  1  0.16694700  0.66729575  0.24741414  1
  Mn3.30+  Mn113  1  0.16651661  0.66487400  0.75054157  1
  Mn3.30+  Mn114  1  0.50252103  -0.00105691  0.25091518  1
  Mn3.30+  Mn115  1  0.49903716  -0.00009491  0.74972225  1
  Mn3.30+  Mn116  1  0.50030842  0.33339798  0.25059510  1
  Mn3.30+  Mn117  1  0.49502893  0.33421995  0.74910905  1
  Mn3.30+  Mn118  1  0.50078747  0.66534234  0.24755288  1
  Mn3.30+  Mn119  1  0.49925184  0.66524218  0.75216232  1
  Mn3.30+  Mn120  1  0.83293795  -0.00077271  0.25021170  1
  Mn3.30+  Mn121  1  0.83521821  -0.00068016  0.75058612  1
  Mn3.30+  Mn122  1  0.83344783  0.33161186  0.24937297  1
  Mn3.30+  Mn123  1  0.83519044  0.33418984  0.75101626  1
  Mn3.30+  Mn124  1  0.83509500  0.66961431  0.24762325  1
  Mn3.30+  Mn125  1  0.83532355  0.66517117  0.75250390  1
  Mn3.30+  Mn126  1  0.00083626  0.16417770  -0.00056618  1
  Mn3.30+  Mn127  1  -0.00288114  0.16715803  0.49933087  1
  Mn3.30+  Mn128  1  0.00231415  0.50036834  -0.00049594  1
  Mn3.30+  Mn129  1  0.00157179  0.50002117  0.50106196  1
  Mn3.30+  Mn130  1  -0.00181275  0.83580660  0.00363320  1
  Mn3.30+  Mn131  1  -0.00151323  0.83277432  0.49689106  1
  Mn3.30+  Mn132  1  0.33110333  0.16664307  -0.00227095  1
  Mn3.30+  Mn133  1  0.33274566  0.16939046  0.50115458  1
  Mn3.30+  Mn134  1  0.33128192  0.49947704  -0.00066289  1
  Mn3.30+  Mn135  1  0.33321174  0.49974135  0.50080734  1
  Mn3.30+  Mn136  1  0.33076725  0.83333719  0.00169734  1
  Mn3.30+  Mn137  1  0.33402931  0.83235195  0.49968109  1
  Mn3.30+  Mn138  1  0.66773479  0.16591892  -0.00013571  1
  Mn3.30+  Mn139  1  0.66729031  0.16605319  0.49887467  1
  Mn3.30+  Mn140  1  0.66863469  0.49884406  -0.00017742  1
  Mn3.30+  Mn141  1  0.66562555  0.49985655  0.49891660  1
  Mn3.30+  Mn142  1  0.66952785  0.83333966  0.00137269  1
  Mn3.30+  Mn143  1  0.66938224  0.83315105  0.49874216  1
  O2-  O144  1  0.02323745  0.16302214  0.12550819  1
  O2-  O145  1  0.02421636  0.16167151  0.62588971  1
  O2-  O146  1  0.02843595  0.49067259  0.12414936  1
  O2-  O147  1  0.02482992  0.50248740  0.62480359  1
  O2-  O148  1  0.02007825  0.82831080  0.12669997  1
  O2-  O149  1  0.02560627  0.82479567  0.62147409  1
  O2-  O150  1  0.35804237  0.16477823  0.12636332  1
  O2-  O151  1  0.35863476  0.15906042  0.62532002  1
  O2-  O152  1  0.35285682  0.48982136  0.12324942  1
  O2-  O153  1  0.35765378  0.49905028  0.62776361  1
  O2-  O154  1  0.35032543  0.83004074  0.12508750  1
  O2-  O155  1  0.35976180  0.82598410  0.62443714  1
  O2-  O156  1  0.68568614  0.15938937  0.12587600  1
  O2-  O157  1  0.68674319  0.16336714  0.62510270  1
  O2-  O158  1  0.69374732  0.49272024  0.12382469  1
  O2-  O159  1  0.69351698  0.49536977  0.62535266  1
  O2-  O160  1  0.69708300  0.82845683  0.12281234  1
  O2-  O161  1  0.69285098  0.82484979  0.62556925  1
  O2-  O162  1  0.14165904  0.32331738  0.12248682  1
  O2-  O163  1  0.14583283  0.32925155  0.62654973  1
  O2-  O164  1  0.13807463  0.66077600  0.12525649  1
  O2-  O165  1  0.14404684  0.65972904  0.62269063  1
  O2-  O166  1  0.14097148  1.00468235  0.12777269  1
  O2-  O167  1  0.14077043  0.99523213  0.62353994  1
  O2-  O168  1  0.47540053  0.32415964  0.12262505  1
  O2-  O169  1  0.46796533  0.32947356  0.62592419  1
  O2-  O170  1  0.47516309  0.66401982  0.12469740  1
  O2-  O171  1  0.47374232  0.66016366  0.62662492  1
  O2-  O172  1  0.48318374  1.00240412  0.12498087  1
  O2-  O173  1  0.47367385  0.99303168  0.62461185  1
  O2-  O174  1  0.80839425  0.32987831  0.12572543  1
  O2-  O175  1  0.81048960  0.33625730  0.62469562  1
  O2-  O176  1  0.80718762  0.65890873  0.12358066  1
  O2-  O177  1  0.80888582  0.65809764  0.62815273  1
  O2-  O178  1  0.80728095  0.99586942  0.12526207  1
  O2-  O179  1  0.80789271  0.99191818  0.62423937  1
  O2-  O180  1  0.30794730  0.17537555  0.37646358  1
  O2-  O181  1  0.30487752  0.17299799  0.87225944  1
  O2-  O182  1  0.30790985  0.50294343  0.37229830  1
  O2-  O183  1  0.30468173  0.51011469  0.87707394  1
  O2-  O184  1  0.30945618  0.83764662  0.37652181  1
  O2-  O185  1  0.30717144  0.83876225  0.87378103  1
  O2-  O186  1  0.63902532  0.17427949  0.37644762  1
  O2-  O187  1  0.64002503  0.17177185  0.87242498  1
  O2-  O188  1  0.63942294  0.50631128  0.37604727  1
  O2-  O189  1  0.64012336  0.50314700  0.87523475  1
  O2-  O190  1  0.64341075  0.83537074  0.37708061  1
  O2-  O191  1  0.64165210  0.83856125  0.87457847  1
  O2-  O192  1  0.97396704  0.17227524  0.37484829  1
  O2-  O193  1  0.97600096  0.17241291  0.87451894  1
  O2-  O194  1  0.97596032  0.50674540  0.37244655  1
  O2-  O195  1  0.97411267  0.50585823  0.87799037  1
  O2-  O196  1  0.96990192  0.84027170  0.37484494  1
  O2-  O197  1  0.97805356  0.84057789  0.87690946  1
  O2-  O198  1  0.19161925  0.00716303  0.37713808  1
  O2-  O199  1  0.18909322  0.00230674  0.87230375  1
  O2-  O200  1  0.19296064  0.33865145  0.37702689  1
  O2-  O201  1  0.19413833  0.34210635  0.87432522  1
  O2-  O202  1  0.19248295  0.67109180  0.37409268  1
  O2-  O203  1  0.18843987  0.67657131  0.87655953  1
  O2-  O204  1  0.52842296  0.00397861  0.37697802  1
  O2-  O205  1  0.52522438  0.00484720  0.87362047  1
  O2-  O206  1  0.52329777  0.33949675  0.37824560  1
  O2-  O207  1  0.52543723  0.33626082  0.87377529  1
  O2-  O208  1  0.52568641  0.67355076  0.37296420  1
  O2-  O209  1  0.52623443  0.67160678  0.87619469  1
  O2-  O210  1  0.85537557  0.00659354  0.37526376  1
  O2-  O211  1  0.85930635  0.00364757  0.87447163  1
  O2-  O212  1  0.85802683  0.34242716  0.37317065  1
  O2-  O213  1  0.85751730  0.33898774  0.87616725  1
  O2-  O214  1  0.85754720  0.67115000  0.37212787  1
  O2-  O215  1  0.86362093  0.67668428  0.87587531  1
  O2-  O216  1  0.23752730  0.09442897  0.01534896  1
  O2-  O217  1  0.23849183  0.09849681  0.52103005  1
  O2-  O218  1  0.23831135  0.42559440  0.02249278  1
  O2-  O219  1  0.23509534  0.43397665  0.51848970  1
  O2-  O220  1  0.23900666  0.76010986  0.01444857  1
  O2-  O221  1  0.23809402  0.76130855  0.52014450  1
  O2-  O222  1  0.57354717  0.09435941  0.01671536  1
  O2-  O223  1  0.56945244  0.09553993  0.52154132  1
  O2-  O224  1  0.57283864  0.42253628  0.01660281  1
  O2-  O225  1  0.57210478  0.42585304  0.52582732  1
  O2-  O226  1  0.57703652  0.75956463  0.01774904  1
  O2-  O227  1  0.57203428  0.76093025  0.52061257  1
  O2-  O228  1  0.90410209  0.09576326  0.01274443  1
  O2-  O229  1  0.90684395  0.08889065  0.51882955  1
  O2-  O230  1  0.90842539  0.42888142  0.02250350  1
  O2-  O231  1  0.90467056  0.43246219  0.51479768  1
  O2-  O232  1  0.90155744  0.76713375  0.01867654  1
  O2-  O233  1  0.90686567  0.75770679  0.52231883  1
  O2-  O234  1  0.26153987  0.26139907  0.23034055  1
  O2-  O235  1  0.26302024  0.26359363  0.72615847  1
  O2-  O236  1  0.26400086  0.59404261  0.22806476  1
  O2-  O237  1  0.26473362  0.59864962  0.73467029  1
  O2-  O238  1  0.25767592  0.92893488  0.23959572  1
  O2-  O239  1  0.26096413  0.92959237  0.72837669  1
  O2-  O240  1  0.59448610  0.25897453  0.23083086  1
  O2-  O241  1  0.59095561  0.26342050  0.72782551  1
  O2-  O242  1  0.59811535  0.59612238  0.23059019  1
  O2-  O243  1  0.59595228  0.59281972  0.73053158  1
  O2-  O244  1  0.59954202  0.92620629  0.23280757  1
  O2-  O245  1  0.59604669  0.92679319  0.72873727  1
  O2-  O246  1  0.93134307  0.26424302  0.23328433  1
  O2-  O247  1  0.92740158  0.26097631  0.73824771  1
  O2-  O248  1  0.92906706  0.59833875  0.22768803  1
  O2-  O249  1  0.93034496  0.59541975  0.73088665  1
  O2-  O250  1  0.93104373  0.93303039  0.23155442  1
  O2-  O251  1  0.92708531  0.92415538  0.72550141  1
  O2-  O252  1  0.09479675  0.23949956  0.27126955  1
  O2-  O253  1  0.09914394  0.23843681  0.77034179  1
  O2-  O254  1  0.09641489  0.57210229  0.26991590  1
  O2-  O255  1  0.09469189  0.57207539  0.77363968  1
  O2-  O256  1  0.09080849  0.90773511  0.27501301  1
  O2-  O257  1  0.09808116  0.90199717  0.76358539  1
  O2-  O258  1  0.42837908  0.23856372  0.27123331  1
  O2-  O259  1  0.42950919  0.23624136  0.76875861  1
  O2-  O260  1  0.42819576  0.57098674  0.27268664  1
  O2-  O261  1  0.42765071  0.57089167  0.77223690  1
  O2-  O262  1  0.42740049  0.90825231  0.27154173  1
  O2-  O263  1  0.42834581  0.90507258  0.77070764  1
  O2-  O264  1  0.75833679  0.23697514  0.27405732  1
  O2-  O265  1  0.75866305  0.24154270  0.77134148  1
  O2-  O266  1  0.76266497  0.57200913  0.26916139  1
  O2-  O267  1  0.76492396  0.57270543  0.77439351  1
  O2-  O268  1  0.76513976  0.90291935  0.27038301  1
  O2-  O269  1  0.76304376  0.90535825  0.77053464  1
  O2-  O270  1  0.07127540  0.07356976  0.47955761  1
  O2-  O271  1  0.07101850  0.07185998  0.98056722  1
  O2-  O272  1  0.07268419  0.40771520  0.47660597  1
  O2-  O273  1  0.07159682  0.40194213  0.98130955  1
  O2-  O274  1  0.07108145  0.74022401  0.47600168  1
  O2-  O275  1  0.07146602  0.74062859  0.98064583  1
  O2-  O276  1  0.40365447  0.07184687  0.47920593  1
  O2-  O277  1  0.40490292  0.07581472  0.97625213  1
  O2-  O278  1  0.40338307  0.40566424  0.48150659  1
  O2-  O279  1  0.40369362  0.40403203  0.97743959  1
  O2-  O280  1  0.40625053  0.73663528  0.47817901  1
  O2-  O281  1  0.40743230  0.74246494  0.97867503  1
  O2-  O282  1  0.73473904  0.06572378  0.48295166  1
  O2-  O283  1  0.73922966  0.07222141  0.97810718  1
  O2-  O284  1  0.73771749  0.40552202  0.47892002  1
  O2-  O285  1  0.73781469  0.40355156  0.98195405  1
  O2-  O286  1  0.73563700  0.73490779  0.48384098  1
  O2-  O287  1  0.74008898  0.73784881  0.97705227  1
  O2-  O288  1  0.09627953  0.24094772  0.48139937  1
  O2-  O289  1  0.09612140  0.23712369  0.97730143  1
  O2-  O290  1  0.09246708  0.57457331  0.47548961  1
  O2-  O291  1  0.09829574  0.56949589  0.97863881  1
  O2-  O292  1  0.09252656  0.90456052  0.47845419  1
  O2-  O293  1  0.09342001  0.90586144  0.98216650  1
  O2-  O294  1  0.42921768  0.23832114  0.47963940  1
  O2-  O295  1  0.42831758  0.23680258  0.98036517  1
  O2-  O296  1  0.42984712  0.56932043  0.47867010  1
  O2-  O297  1  0.42597556  0.57211306  0.97749362  1
  O2-  O298  1  0.42966301  0.90463410  0.47903193  1
  O2-  O299  1  0.42499805  0.90778184  0.97854023  1
  O2-  O300  1  0.75816853  0.23898709  0.47752434  1
  O2-  O301  1  0.75863444  0.23830981  0.97658449  1
  O2-  O302  1  0.76191418  0.57243658  0.47853165  1
  O2-  O303  1  0.76699819  0.57193715  0.97776415  1
  O2-  O304  1  0.76564097  0.89900228  0.48180771  1
  O2-  O305  1  0.76099926  0.90755003  0.97550413  1
  O2-  O306  1  0.07378557  0.07551956  0.27519595  1
  O2-  O307  1  0.06899951  0.06717686  0.76814958  1
  O2-  O308  1  0.07302817  0.40417416  0.27053475  1
  O2-  O309  1  0.07191763  0.40480086  0.77173350  1
  O2-  O310  1  0.07093194  0.74253742  0.27299674  1
  O2-  O311  1  0.07138527  0.73783587  0.76864235  1
  O2-  O312  1  0.40548816  0.07480137  0.27459651  1
  O2-  O313  1  0.40217761  0.07304830  0.77051075  1
  O2-  O314  1  0.40290590  0.40325015  0.26622708  1
  O2-  O315  1  0.40329261  0.40673147  0.77586279  1
  O2-  O316  1  0.40937593  0.74025405  0.27040634  1
  O2-  O317  1  0.40511593  0.73869154  0.77307313  1
  O2-  O318  1  0.73509509  0.06777629  0.26864691  1
  O2-  O319  1  0.73957940  0.07109474  0.76951416  1
  O2-  O320  1  0.73917373  0.40551513  0.27087093  1
  O2-  O321  1  0.73550705  0.40434383  0.76790595  1
  O2-  O322  1  0.73712094  0.73566175  0.26737493  1
  O2-  O323  1  0.74000425  0.73735044  0.77182375  1
  O2-  O324  1  0.23708931  0.09811124  0.23542957  1
  O2-  O325  1  0.23793347  0.09462424  0.72720379  1
  O2-  O326  1  0.23626342  0.42690756  0.22967050  1
  O2-  O327  1  0.23643231  0.43229471  0.72933743  1
  O2-  O328  1  0.23798841  0.75884666  0.23582058  1
  O2-  O329  1  0.23809292  0.76157444  0.72790561  1
  O2-  O330  1  0.57131369  0.09527316  0.23314395  1
  O2-  O331  1  0.57018684  0.09401621  0.72867686  1
  O2-  O332  1  0.57582373  0.42219184  0.23014272  1
  O2-  O333  1  0.56822613  0.42661476  0.72901529  1
  O2-  O334  1  0.57693140  0.76009816  0.23227455  1
  O2-  O335  1  0.57175947  0.75974158  0.73000361  1
  O2-  O336  1  0.90606078  0.09250275  0.23572669  1
  O2-  O337  1  0.90500567  0.09129055  0.73133700  1
  O2-  O338  1  0.90683280  0.43050499  0.22894276  1
  O2-  O339  1  0.90540389  0.43102858  0.73412871  1
  O2-  O340  1  0.90259296  0.76398359  0.23017192  1
  O2-  O341  1  0.90553411  0.76026114  0.72909798  1
  O2-  O342  1  0.26035390  0.25873802  0.02177977  1
  O2-  O343  1  0.26262776  0.26567590  0.52180107  1
  O2-  O344  1  0.26242203  0.59716800  0.02311419  1
  O2-  O345  1  0.26746848  0.59656917  0.51439421  1
  O2-  O346  1  0.25873727  0.92870946  0.01173783  1
  O2-  O347  1  0.26092247  0.92888432  0.52028769  1
  O2-  O348  1  0.59478921  0.25851622  0.01964684  1
  O2-  O349  1  0.59094620  0.26364122  0.52182712  1
  O2-  O350  1  0.59983765  0.59416720  0.01713151  1
  O2-  O351  1  0.59484130  0.59456665  0.52244623  1
  O2-  O352  1  0.59891194  0.92770406  0.01569375  1
  O2-  O353  1  0.59641320  0.92469340  0.52448939  1
  O2-  O354  1  0.93080163  0.26329918  0.01535631  1
  O2-  O355  1  0.92831163  0.26275012  0.51350888  1
  O2-  O356  1  0.93240861  0.59889349  0.02281140  1
  O2-  O357  1  0.92828897  0.59411877  0.51841227  1
  O2-  O358  1  0.92887416  0.93078571  0.02119230  1
  O2-  O359  1  0.92883810  0.92680728  0.52132743  1
