# generated using pymatgen
data_Sr7Ca15Pr50Mn72O216
_symmetry_space_group_name_H-M   'P 1'
_cell_length_a   16.56085406
_cell_length_b   16.60687167
_cell_length_c   15.59474894
_cell_angle_alpha   90.00001566
_cell_angle_beta   89.99703911
_cell_angle_gamma   90.01044719
_symmetry_Int_Tables_number   1
_chemical_formula_structural   Sr7Ca15Pr50Mn72O216
_chemical_formula_sum   'Sr7 Ca15 Pr50 Mn72 O216'
_cell_volume   4288.92981339
_cell_formula_units_Z   1
loop_
 _symmetry_equiv_pos_site_id
 _symmetry_equiv_pos_as_xyz
  1  'x, y, z'
loop_
 _atom_type_symbol
 _atom_type_oxidation_number
  Sr2+  2.0
  Ca2+  2.0
  Pr3+  3.0
  Mn3.30+  3.3
  O2-  -2.0
loop_
 _atom_site_type_symbol
 _atom_site_label
 _atom_site_symmetry_multiplicity
 _atom_site_fract_x
 _atom_site_fract_y
 _atom_site_fract_z
 _atom_site_occupancy
  Sr2+  Sr0  1  -0.00475366  0.01441063  0.12413594  1
  Sr2+  Sr1  1  -0.00569137  0.34315071  0.62414852  1
  Sr2+  Sr2  1  0.99543246  0.32619856  0.87336841  1
  Sr2+  Sr3  1  0.50042093  0.48887419  0.37664529  1
  Sr2+  Sr4  1  0.50300664  0.16065865  0.37734419  1
  Sr2+  Sr5  1  0.16631520  0.84109520  0.62440392  1
  Sr2+  Sr6  1  0.83240444  0.82430214  0.87580587  1
  Ca2+  Ca7  1  0.66987348  0.31676878  0.37673226  1
  Ca2+  Ca8  1  0.32974257  0.68032047  0.62397197  1
  Ca2+  Ca9  1  0.66788992  0.34487794  0.62077569  1
  Ca2+  Ca10  1  0.33102273  0.68015569  0.12581908  1
  Ca2+  Ca11  1  0.66685878  0.34512647  0.12904847  1
  Ca2+  Ca12  1  0.16238484  0.15417308  0.37644193  1
  Ca2+  Ca13  1  0.83066037  0.81791846  0.37523050  1
  Ca2+  Ca14  1  -0.00467314  0.67968492  0.62440298  1
  Ca2+  Ca15  1  0.83220262  0.48471317  0.87029390  1
  Ca2+  Ca16  1  0.50666851  0.18417646  0.62261494  1
  Ca2+  Ca17  1  0.83621817  0.18215382  0.12592245  1
  Ca2+  Ca18  1  1.00124822  0.31555851  0.37709429  1
  Ca2+  Ca19  1  0.83686346  0.18378493  0.62393170  1
  Ca2+  Ca20  1  0.67198025  0.98397747  0.87480893  1
  Ca2+  Ca21  1  0.83822942  0.51355876  0.62731394  1
  Pr3+  Pr22  1  1.00125118  0.65332563  0.87204019  1
  Pr3+  Pr23  1  0.50270492  0.84498025  0.62486101  1
  Pr3+  Pr24  1  0.33457070  0.98669366  0.87404452  1
  Pr3+  Pr25  1  0.16125549  0.81973013  0.87411922  1
  Pr3+  Pr26  1  0.16697734  0.17968731  0.12717121  1
  Pr3+  Pr27  1  0.33561530  0.65526330  0.87276538  1
  Pr3+  Pr28  1  0.16443424  0.82040235  0.37628503  1
  Pr3+  Pr29  1  0.50047180  0.82164522  0.87397400  1
  Pr3+  Pr30  1  0.16639760  0.51256091  0.62546686  1
  Pr3+  Pr31  1  0.33587188  0.99052851  0.37580892  1
  Pr3+  Pr32  1  0.66416657  0.67844622  0.12554964  1
  Pr3+  Pr33  1  0.82907276  0.15392801  0.87388513  1
  Pr3+  Pr34  1  0.50064658  0.15450066  0.87263030  1
  Pr3+  Pr35  1  -0.00475250  0.34217343  0.12650713  1
  Pr3+  Pr36  1  0.50234524  0.84651154  0.12493934  1
  Pr3+  Pr37  1  0.83665394  0.84711648  0.12558655  1
  Pr3+  Pr38  1  0.50529072  0.18251948  0.12685713  1
  Pr3+  Pr39  1  0.66591878  0.01297162  0.12312391  1
  Pr3+  Pr40  1  0.33132573  0.01318025  0.62467277  1
  Pr3+  Pr41  1  0.67372604  0.32299725  0.87412137  1
  Pr3+  Pr42  1  1.00196280  0.99013057  0.37478858  1
  Pr3+  Pr43  1  0.33681051  0.65487778  0.37707963  1
  Pr3+  Pr44  1  0.16973058  0.51329979  0.12493194  1
  Pr3+  Pr45  1  0.66338007  0.01433782  0.62774644  1
  Pr3+  Pr46  1  0.33745466  0.32068017  0.87384203  1
  Pr3+  Pr47  1  0.50340040  0.51135266  0.62360378  1
  Pr3+  Pr48  1  0.49708992  0.82257884  0.37570438  1
  Pr3+  Pr49  1  0.33782632  0.32001714  0.37584069  1
  Pr3+  Pr50  1  0.67002174  0.65295460  0.37599820  1
  Pr3+  Pr51  1  -0.00403114  0.67866758  0.12595203  1
  Pr3+  Pr52  1  -0.00548962  0.01523909  0.62497035  1
  Pr3+  Pr53  1  0.66789602  0.67713778  0.62420979  1
  Pr3+  Pr54  1  0.16178009  0.48651396  0.87407316  1
  Pr3+  Pr55  1  0.50033638  0.48585852  0.87309225  1
  Pr3+  Pr56  1  1.00072473  0.65422172  0.37782217  1
  Pr3+  Pr57  1  0.82996199  0.15747427  0.37631747  1
  Pr3+  Pr58  1  0.50390088  0.51166027  0.12580114  1
  Pr3+  Pr59  1  0.83886291  0.84357954  0.62443875  1
  Pr3+  Pr60  1  0.33119545  0.34634638  0.12692178  1
  Pr3+  Pr61  1  1.00083073  0.98821806  0.87494665  1
  Pr3+  Pr62  1  0.16058324  0.48509047  0.37622171  1
  Pr3+  Pr63  1  0.82797008  0.48284970  0.37739031  1
  Pr3+  Pr64  1  0.33050787  0.01416592  0.12483966  1
  Pr3+  Pr65  1  0.16667360  0.17917331  0.62312542  1
  Pr3+  Pr66  1  0.67517014  0.64974574  0.87389167  1
  Pr3+  Pr67  1  0.67105179  0.98699975  0.37553701  1
  Pr3+  Pr68  1  0.83385147  0.50833601  0.12337131  1
  Pr3+  Pr69  1  0.16880800  0.84713297  0.12599265  1
  Pr3+  Pr70  1  0.16106194  0.15599421  0.87408236  1
  Pr3+  Pr71  1  0.33164675  0.34465616  0.62275819  1
  Mn3.30+  Mn72  1  0.16583201  0.00123820  0.00063369  1
  Mn3.30+  Mn73  1  0.16594709  0.00093856  0.50035957  1
  Mn3.30+  Mn74  1  0.16568640  0.33332775  0.00005271  1
  Mn3.30+  Mn75  1  0.16322843  0.33208793  0.49896294  1
  Mn3.30+  Mn76  1  0.16752359  0.66663663  0.00096054  1
  Mn3.30+  Mn77  1  0.16659003  0.66593070  0.50186399  1
  Mn3.30+  Mn78  1  0.50160772  0.00091669  -0.00209875  1
  Mn3.30+  Mn79  1  0.50144655  0.00290849  0.50075245  1
  Mn3.30+  Mn80  1  0.50309140  0.33360194  0.00043097  1
  Mn3.30+  Mn81  1  0.50308502  0.33286857  0.50018756  1
  Mn3.30+  Mn82  1  0.50016496  0.66639490  -0.00073299  1
  Mn3.30+  Mn83  1  0.49950477  0.66688381  0.50185389  1
  Mn3.30+  Mn84  1  0.83137711  0.00184867  -0.00007480  1
  Mn3.30+  Mn85  1  0.83261401  0.00057381  0.50042023  1
  Mn3.30+  Mn86  1  0.83156182  0.33284227  0.00114645  1
  Mn3.30+  Mn87  1  0.83267089  0.33268352  0.50094518  1
  Mn3.30+  Mn88  1  0.83339817  0.66433861  -0.00087645  1
  Mn3.30+  Mn89  1  0.83526094  0.66510267  0.50033815  1
  Mn3.30+  Mn90  1  -0.00105295  0.16748564  0.25105518  1
  Mn3.30+  Mn91  1  -0.00411940  0.16891142  0.74985408  1
  Mn3.30+  Mn92  1  -0.00097960  0.49741089  0.25162750  1
  Mn3.30+  Mn93  1  -0.00323480  0.49975385  0.74785206  1
  Mn3.30+  Mn94  1  -0.00174705  0.83383101  0.25215665  1
  Mn3.30+  Mn95  1  -0.00069285  0.83237428  0.74822085  1
  Mn3.30+  Mn96  1  0.33344555  0.16737097  0.25195004  1
  Mn3.30+  Mn97  1  0.33516838  0.16708058  0.74802727  1
  Mn3.30+  Mn98  1  0.33324668  0.50156297  0.25060549  1
  Mn3.30+  Mn99  1  0.33356484  0.50069120  0.74891380  1
  Mn3.30+  Mn100  1  0.33322953  0.83327596  0.24921788  1
  Mn3.30+  Mn101  1  0.33275108  0.83221286  0.74919351  1
  Mn3.30+  Mn102  1  0.66898903  0.16806223  0.24965956  1
  Mn3.30+  Mn103  1  0.66698968  0.16859659  0.74707058  1
  Mn3.30+  Mn104  1  0.66688805  0.49611284  0.25174886  1
  Mn3.30+  Mn105  1  0.67037686  0.49760840  0.74595744  1
  Mn3.30+  Mn106  1  0.66811014  0.83290098  0.25103004  1
  Mn3.30+  Mn107  1  0.66917505  0.83337343  0.75020882  1
  Mn3.30+  Mn108  1  0.16583854  0.00246850  0.25102843  1
  Mn3.30+  Mn109  1  0.16577436  -0.00011265  0.74814440  1
  Mn3.30+  Mn110  1  0.16403841  0.33169273  0.25301583  1
  Mn3.30+  Mn111  1  0.16515077  0.33370152  0.74842345  1
  Mn3.30+  Mn112  1  0.16756892  0.66620310  0.25026401  1
  Mn3.30+  Mn113  1  0.16726623  0.66650187  0.74730835  1
  Mn3.30+  Mn114  1  0.50094304  0.00210137  0.25043540  1
  Mn3.30+  Mn115  1  0.50173062  0.00147838  0.75034388  1
  Mn3.30+  Mn116  1  0.50253899  0.33422747  0.25237032  1
  Mn3.30+  Mn117  1  0.50392748  0.33223404  0.74687777  1
  Mn3.30+  Mn118  1  0.49841012  0.66670678  0.24922229  1
  Mn3.30+  Mn119  1  0.50125890  0.66647901  0.74898400  1
  Mn3.30+  Mn120  1  0.83432152  0.00147956  0.25045667  1
  Mn3.30+  Mn121  1  0.83013692  0.00090437  0.74928479  1
  Mn3.30+  Mn122  1  0.83219895  0.33128757  0.25136930  1
  Mn3.30+  Mn123  1  0.83192303  0.33430404  0.74710687  1
  Mn3.30+  Mn124  1  0.83274860  0.66521835  0.25057839  1
  Mn3.30+  Mn125  1  0.83565097  0.66463266  0.74947072  1
  Mn3.30+  Mn126  1  -0.00330787  0.16828723  0.00024458  1
  Mn3.30+  Mn127  1  -0.00191590  0.16837507  0.49929088  1
  Mn3.30+  Mn128  1  -0.00066606  0.49873260  -0.00055230  1
  Mn3.30+  Mn129  1  -0.00381766  0.49847431  0.50130723  1
  Mn3.30+  Mn130  1  -0.00091804  0.83314014  -0.00003290  1
  Mn3.30+  Mn131  1  -0.00163305  0.83280588  0.49913515  1
  Mn3.30+  Mn132  1  0.33394045  0.16743764  -0.00064571  1
  Mn3.30+  Mn133  1  0.33464360  0.16709102  0.50055852  1
  Mn3.30+  Mn134  1  0.33379677  0.50133634  -0.00046797  1
  Mn3.30+  Mn135  1  0.33235908  0.50088763  0.50043547  1
  Mn3.30+  Mn136  1  0.33333053  0.83213302  -0.00035489  1
  Mn3.30+  Mn137  1  0.33233969  0.83342673  0.50132536  1
  Mn3.30+  Mn138  1  0.66814739  0.16758830  0.00107394  1
  Mn3.30+  Mn139  1  0.66779108  0.16845330  0.50233990  1
  Mn3.30+  Mn140  1  0.66847918  0.49747994  0.00063176  1
  Mn3.30+  Mn141  1  0.66904287  0.49626651  0.50152279  1
  Mn3.30+  Mn142  1  0.66800338  0.83344218  -0.00055532  1
  Mn3.30+  Mn143  1  0.66940861  0.83289697  0.49960882  1
  O2-  O144  1  0.02364832  0.17075777  0.12585327  1
  O2-  O145  1  0.02280052  0.16276829  0.62500510  1
  O2-  O146  1  0.02555731  0.49196608  0.12789019  1
  O2-  O147  1  0.02373584  0.49553362  0.62402981  1
  O2-  O148  1  0.02445471  0.82750511  0.12744199  1
  O2-  O149  1  0.01704786  0.82849094  0.62336144  1
  O2-  O150  1  0.35985082  0.16229970  0.12284181  1
  O2-  O151  1  0.36233508  0.16092492  0.62533739  1
  O2-  O152  1  0.35978353  0.49243844  0.12335214  1
  O2-  O153  1  0.35920372  0.49177939  0.62537422  1
  O2-  O154  1  0.35896057  0.82688649  0.12300121  1
  O2-  O155  1  0.35909522  0.82740785  0.62594930  1
  O2-  O156  1  0.69451253  0.15732818  0.12435015  1
  O2-  O157  1  0.69686151  0.15739558  0.62594195  1
  O2-  O158  1  0.69012388  0.49496269  0.12825347  1
  O2-  O159  1  0.69533982  0.49484491  0.62353003  1
  O2-  O160  1  0.69172668  0.82682239  0.12576078  1
  O2-  O161  1  0.69383917  0.82705452  0.62393658  1
  O2-  O162  1  0.14078364  0.32831400  0.12864479  1
  O2-  O163  1  0.14500341  0.32767574  0.62399163  1
  O2-  O164  1  0.13923312  0.66109173  0.12546767  1
  O2-  O165  1  0.13810875  0.66065888  0.62347483  1
  O2-  O166  1  0.14632181  0.99508477  0.12562085  1
  O2-  O167  1  0.14046927  0.99870087  0.62452115  1
  O2-  O168  1  0.47436159  0.33063354  0.12614328  1
  O2-  O169  1  0.47479587  0.33031696  0.62574835  1
  O2-  O170  1  0.47365791  0.65994570  0.12218032  1
  O2-  O171  1  0.47347509  0.66115019  0.62602910  1
  O2-  O172  1  0.47415313  0.99488063  0.12223333  1
  O2-  O173  1  0.47486676  0.99164175  0.62569753  1
  O2-  O174  1  0.80977558  0.32907484  0.12680193  1
  O2-  O175  1  0.80879049  0.32537873  0.62349200  1
  O2-  O176  1  0.80816971  0.65687527  0.12480437  1
  O2-  O177  1  0.81077478  0.66193151  0.62443132  1
  O2-  O178  1  0.80875567  0.99284251  0.12631426  1
  O2-  O179  1  0.80679170  0.98977893  0.62452569  1
  O2-  O180  1  0.30662847  0.17130958  0.37688164  1
  O2-  O181  1  0.30684674  0.17303500  0.87490928  1
  O2-  O182  1  0.30496002  0.50829387  0.37670722  1
  O2-  O183  1  0.30622172  0.50654429  0.87429871  1
  O2-  O184  1  0.30917193  0.84169738  0.37528226  1
  O2-  O185  1  0.30581052  0.83908032  0.87545403  1
  O2-  O186  1  0.65083224  0.16877058  0.37554813  1
  O2-  O187  1  0.64140412  0.17770024  0.87478105  1
  O2-  O188  1  0.64863348  0.50772988  0.37593069  1
  O2-  O189  1  0.64389718  0.50256083  0.87214996  1
  O2-  O190  1  0.64043349  0.83728187  0.37528365  1
  O2-  O191  1  0.64375272  0.83624893  0.87554466  1
  O2-  O192  1  0.97470057  0.16766138  0.37536660  1
  O2-  O193  1  0.97479526  0.16765778  0.87410015  1
  O2-  O194  1  0.97282326  0.50855867  0.37518059  1
  O2-  O195  1  0.97603169  0.50645350  0.87317890  1
  O2-  O196  1  0.97283031  0.83992192  0.37432012  1
  O2-  O197  1  0.98258127  0.83767170  0.87372824  1
  O2-  O198  1  0.19161984  0.00688252  0.37548362  1
  O2-  O199  1  0.19014711  0.00733519  0.87454600  1
  O2-  O200  1  0.19446239  0.33998553  0.37512396  1
  O2-  O201  1  0.19328403  0.33835493  0.87276928  1
  O2-  O202  1  0.19254095  0.66976194  0.37534392  1
  O2-  O203  1  0.19156463  0.67060326  0.87602010  1
  O2-  O204  1  0.52626571  0.00173113  0.37742989  1
  O2-  O205  1  0.52945037  0.00708428  0.87471033  1
  O2-  O206  1  0.52567607  0.33440678  0.37479688  1
  O2-  O207  1  0.52779005  0.33737644  0.87286578  1
  O2-  O208  1  0.52539836  0.67440954  0.37679112  1
  O2-  O209  1  0.52958158  0.67201092  0.87414874  1
  O2-  O210  1  0.85838481  0.01012862  0.37551127  1
  O2-  O211  1  0.85720511  0.00619867  0.87356634  1
  O2-  O212  1  0.85952206  0.33704476  0.37589103  1
  O2-  O213  1  0.84652614  0.33957282  0.87510408  1
  O2-  O214  1  0.85667323  0.67086353  0.37423288  1
  O2-  O215  1  0.85794924  0.67039143  0.87590061  1
  O2-  O216  1  0.23861323  0.09499876  0.02052281  1
  O2-  O217  1  0.24154166  0.09386970  0.52386937  1
  O2-  O218  1  0.23877826  0.42833725  0.02054449  1
  O2-  O219  1  0.23609775  0.42826127  0.51997045  1
  O2-  O220  1  0.23379133  0.76263233  0.01900399  1
  O2-  O221  1  0.24074263  0.76054104  0.51384165  1
  O2-  O222  1  0.57090419  0.09720075  0.02055406  1
  O2-  O223  1  0.57375442  0.09369551  0.52462510  1
  O2-  O224  1  0.56828276  0.43102664  0.01586121  1
  O2-  O225  1  0.57274525  0.42801880  0.52183033  1
  O2-  O226  1  0.57139277  0.76120617  0.02127172  1
  O2-  O227  1  0.57315655  0.76098695  0.52191083  1
  O2-  O228  1  0.89886931  0.09765636  0.01683144  1
  O2-  O229  1  0.90362466  0.09510312  0.52250118  1
  O2-  O230  1  0.90630963  0.42505226  0.02140039  1
  O2-  O231  1  0.89827766  0.43321544  0.51746185  1
  O2-  O232  1  0.90511168  0.75755744  0.02381333  1
  O2-  O233  1  0.90363522  0.76143429  0.51563467  1
  O2-  O234  1  0.26091313  0.26208413  0.22889132  1
  O2-  O235  1  0.26238507  0.26094803  0.72890398  1
  O2-  O236  1  0.26146401  0.59560843  0.22701619  1
  O2-  O237  1  0.26105027  0.59575844  0.72770835  1
  O2-  O238  1  0.26334950  0.92745117  0.22941764  1
  O2-  O239  1  0.26490276  0.92940170  0.73289932  1
  O2-  O240  1  0.59449246  0.25933394  0.22772160  1
  O2-  O241  1  0.59852619  0.26480085  0.72718680  1
  O2-  O242  1  0.59367861  0.59396743  0.23047595  1
  O2-  O243  1  0.59778643  0.59219361  0.72810209  1
  O2-  O244  1  0.59486548  0.92799757  0.22920046  1
  O2-  O245  1  0.59193851  0.92650128  0.72868083  1
  O2-  O246  1  0.93028174  0.26324825  0.23436428  1
  O2-  O247  1  0.92394187  0.26029523  0.73503789  1
  O2-  O248  1  0.92889174  0.59280883  0.22916643  1
  O2-  O249  1  0.93258355  0.59887732  0.73147377  1
  O2-  O250  1  0.92511182  0.92786008  0.23164689  1
  O2-  O251  1  0.92659032  0.92924523  0.73129533  1
  O2-  O252  1  0.09813584  0.23528633  0.27045618  1
  O2-  O253  1  0.09688965  0.23723671  0.76587906  1
  O2-  O254  1  0.09403474  0.57011684  0.26998481  1
  O2-  O255  1  0.09639740  0.57226076  0.77020527  1
  O2-  O256  1  0.09563287  0.90645846  0.27153466  1
  O2-  O257  1  0.09292805  0.90778185  0.77042434  1
  O2-  O258  1  0.42591835  0.24205470  0.26725978  1
  O2-  O259  1  0.42864190  0.24078342  0.77252090  1
  O2-  O260  1  0.42582098  0.57577681  0.26952533  1
  O2-  O261  1  0.42874415  0.57290243  0.77176349  1
  O2-  O262  1  0.42906309  0.90630711  0.26882653  1
  O2-  O263  1  0.42738176  0.90502277  0.77201711  1
  O2-  O264  1  0.76364150  0.23708883  0.26871729  1
  O2-  O265  1  0.75966311  0.23834169  0.77111381  1
  O2-  O266  1  0.76200621  0.57025572  0.26930071  1
  O2-  O267  1  0.76355112  0.57106074  0.77086918  1
  O2-  O268  1  0.76187547  0.90341286  0.27175503  1
  O2-  O269  1  0.75986278  0.90528183  0.76570451  1
  O2-  O270  1  0.06861963  0.07165573  0.48373048  1
  O2-  O271  1  0.07106509  0.07475333  0.97892975  1
  O2-  O272  1  0.07008930  0.40497995  0.47638907  1
  O2-  O273  1  0.07459784  0.40808294  0.98194316  1
  O2-  O274  1  0.07515481  0.73958688  0.47605663  1
  O2-  O275  1  0.07235076  0.73646982  0.98018903  1
  O2-  O276  1  0.40373726  0.07010883  0.48240074  1
  O2-  O277  1  0.40587048  0.07157137  0.97730715  1
  O2-  O278  1  0.40106354  0.40634626  0.48247444  1
  O2-  O279  1  0.40550928  0.40511260  0.97756054  1
  O2-  O280  1  0.40681901  0.74365816  0.47802801  1
  O2-  O281  1  0.40608831  0.74121038  0.97460642  1
  O2-  O282  1  0.73799613  0.06973003  0.48083864  1
  O2-  O283  1  0.73466001  0.07038148  0.97731773  1
  O2-  O284  1  0.73760914  0.40229403  0.47638647  1
  O2-  O285  1  0.73580699  0.40316764  0.98701653  1
  O2-  O286  1  0.73759607  0.73443741  0.48242214  1
  O2-  O287  1  0.73688741  0.73226709  0.98493372  1
  O2-  O288  1  0.09789897  0.23547264  0.48179079  1
  O2-  O289  1  0.09782160  0.23785657  0.98300454  1
  O2-  O290  1  0.09416173  0.57009908  0.47919944  1
  O2-  O291  1  0.09608026  0.57237755  0.98069467  1
  O2-  O292  1  0.09195967  0.90696675  0.47690160  1
  O2-  O293  1  0.09589005  0.90665146  0.98120728  1
  O2-  O294  1  0.42368640  0.24317062  0.48182223  1
  O2-  O295  1  0.43050168  0.23936884  0.97894887  1
  O2-  O296  1  0.42463286  0.57583133  0.48160941  1
  O2-  O297  1  0.42880096  0.57250014  0.97548565  1
  O2-  O298  1  0.42857543  0.90656894  0.48087494  1
  O2-  O299  1  0.42973507  0.90708801  0.97693001  1
  O2-  O300  1  0.76281787  0.23828494  0.48178454  1
  O2-  O301  1  0.76096027  0.23803645  0.97878740  1
  O2-  O302  1  0.76162726  0.57263541  0.47994512  1
  O2-  O303  1  0.76444939  0.56775172  0.97930402  1
  O2-  O304  1  0.76244892  0.90371915  0.47643117  1
  O2-  O305  1  0.75933684  0.90628392  0.98703815  1
  O2-  O306  1  0.06984202  0.07343414  0.26861649  1
  O2-  O307  1  0.06948059  0.07356551  0.76896071  1
  O2-  O308  1  0.06959382  0.40282176  0.27443901  1
  O2-  O309  1  0.07610807  0.41023060  0.76840385  1
  O2-  O310  1  0.07219409  0.73806997  0.27190521  1
  O2-  O311  1  0.07557612  0.73883705  0.77095138  1
  O2-  O312  1  0.40415071  0.07089198  0.26680746  1
  O2-  O313  1  0.40516841  0.07147325  0.77220679  1
  O2-  O314  1  0.40179561  0.40556444  0.26852187  1
  O2-  O315  1  0.40676506  0.40525450  0.77110412  1
  O2-  O316  1  0.40487881  0.74185415  0.27250703  1
  O2-  O317  1  0.40765069  0.74187784  0.77382231  1
  O2-  O318  1  0.73807631  0.06890195  0.26963201  1
  O2-  O319  1  0.73456229  0.07076826  0.77226406  1
  O2-  O320  1  0.73901186  0.40273348  0.27313789  1
  O2-  O321  1  0.73565681  0.40317449  0.76556018  1
  O2-  O322  1  0.73518444  0.73486004  0.26706426  1
  O2-  O323  1  0.73791491  0.73296773  0.76532173  1
  O2-  O324  1  0.24076168  0.09383028  0.22750820  1
  O2-  O325  1  0.23850213  0.09461181  0.72893103  1
  O2-  O326  1  0.23680846  0.42877390  0.22990310  1
  O2-  O327  1  0.23948748  0.42744366  0.72866158  1
  O2-  O328  1  0.23641923  0.76431088  0.23259869  1
  O2-  O329  1  0.24015696  0.76005925  0.73548217  1
  O2-  O330  1  0.57452614  0.09370539  0.22747086  1
  O2-  O331  1  0.57118174  0.09990139  0.72818651  1
  O2-  O332  1  0.57113385  0.42822345  0.22960204  1
  O2-  O333  1  0.56887885  0.43097219  0.73170186  1
  O2-  O334  1  0.57011297  0.76109381  0.22889652  1
  O2-  O335  1  0.57343691  0.76108741  0.72853818  1
  O2-  O336  1  0.90234031  0.09938126  0.23180398  1
  O2-  O337  1  0.90180284  0.09433210  0.72811558  1
  O2-  O338  1  0.90297701  0.42752275  0.23001431  1
  O2-  O339  1  0.90169790  0.42987814  0.73274352  1
  O2-  O340  1  0.90472199  0.75786143  0.22823633  1
  O2-  O341  1  0.90505760  0.76066427  0.73165649  1
  O2-  O342  1  0.26193720  0.26252520  0.02071255  1
  O2-  O343  1  0.26137079  0.26070127  0.52122355  1
  O2-  O344  1  0.26208138  0.59721610  0.02241262  1
  O2-  O345  1  0.26045473  0.59425985  0.52400502  1
  O2-  O346  1  0.26324657  0.92787582  0.01934873  1
  O2-  O347  1  0.26386078  0.92946835  0.51772151  1
  O2-  O348  1  0.59658483  0.26208847  0.02465942  1
  O2-  O349  1  0.59736847  0.25863772  0.52095345  1
  O2-  O350  1  0.59727149  0.59271408  0.01943792  1
  O2-  O351  1  0.59508288  0.59220110  0.52103918  1
  O2-  O352  1  0.59138544  0.92746919  0.02246019  1
  O2-  O353  1  0.59500507  0.92801007  0.52129108  1
  O2-  O354  1  0.92690881  0.26285890  0.01815105  1
  O2-  O355  1  0.92683677  0.26063075  0.51357166  1
  O2-  O356  1  0.92933887  0.59368212  0.02138137  1
  O2-  O357  1  0.93176652  0.59916899  0.51710033  1
  O2-  O358  1  0.92401053  0.92668720  0.01511991  1
  O2-  O359  1  0.92646564  0.93072813  0.52015009  1
