# generated using pymatgen
data_Sr7Ca15Pr50Mn72O216
_symmetry_space_group_name_H-M   'P 1'
_cell_length_a   16.56117271
_cell_length_b   16.60057208
_cell_length_c   15.59468900
_cell_angle_alpha   89.99135865
_cell_angle_beta   89.99909896
_cell_angle_gamma   90.00513170
_symmetry_Int_Tables_number   1
_chemical_formula_structural   Sr7Ca15Pr50Mn72O216
_chemical_formula_sum   'Sr7 Ca15 Pr50 Mn72 O216'
_cell_volume   4287.36888999
_cell_formula_units_Z   1
loop_
 _symmetry_equiv_pos_site_id
 _symmetry_equiv_pos_as_xyz
  1  'x, y, z'
loop_
 _atom_type_symbol
 _atom_type_oxidation_number
  Sr2+  2.0
  Ca2+  2.0
  Pr3+  3.0
  Mn3.30+  3.3
  O2-  -2.0
loop_
 _atom_site_type_symbol
 _atom_site_label
 _atom_site_symmetry_multiplicity
 _atom_site_fract_x
 _atom_site_fract_y
 _atom_site_fract_z
 _atom_site_occupancy
  Sr2+  Sr0  1  0.32819071  0.67505003  0.62456989  1
  Sr2+  Sr1  1  0.99991808  0.99325760  0.37515577  1
  Sr2+  Sr2  1  0.16890409  0.49144899  0.37703801  1
  Sr2+  Sr3  1  -0.00278967  0.34261464  0.12550251  1
  Sr2+  Sr4  1  0.82990808  0.49050614  0.87211829  1
  Sr2+  Sr5  1  0.83640631  0.17847599  0.12708559  1
  Sr2+  Sr6  1  0.50037389  0.49237711  0.87672851  1
  Ca2+  Ca7  1  0.83258924  0.15424521  0.37473207  1
  Ca2+  Ca8  1  0.84230287  0.18279124  0.62283445  1
  Ca2+  Ca9  1  -0.00323028  0.35033019  0.62360053  1
  Ca2+  Ca10  1  0.00052192  0.67660092  0.62333052  1
  Ca2+  Ca11  1  0.33566806  0.31946734  0.37371959  1
  Ca2+  Ca12  1  0.33433506  0.65245542  0.37647300  1
  Ca2+  Ca13  1  0.16866020  0.51457284  0.62285497  1
  Ca2+  Ca14  1  0.67112033  0.64764145  0.87567278  1
  Ca2+  Ca15  1  0.50434141  0.18354687  0.12556292  1
  Ca2+  Ca16  1  0.66221141  0.67514499  0.12006480  1
  Ca2+  Ca17  1  0.16349588  0.15420771  0.87531590  1
  Ca2+  Ca18  1  0.50405002  0.51488145  0.12451875  1
  Ca2+  Ca19  1  0.83895751  0.51636825  0.62542783  1
  Ca2+  Ca20  1  0.16731221  0.84428613  0.62497529  1
  Ca2+  Ca21  1  0.33252805  0.34743983  0.12687239  1
  Pr3+  Pr22  1  1.00043017  0.65063117  0.87256349  1
  Pr3+  Pr23  1  0.49819081  0.15694964  0.87649353  1
  Pr3+  Pr24  1  0.50289745  0.18063610  0.62473791  1
  Pr3+  Pr25  1  0.16636926  0.15741208  0.37466567  1
  Pr3+  Pr26  1  0.16265406  0.82081270  0.37716431  1
  Pr3+  Pr27  1  0.16277096  0.81837105  0.87332937  1
  Pr3+  Pr28  1  0.66442082  0.67596759  0.62854125  1
  Pr3+  Pr29  1  0.66866543  0.65278237  0.37403441  1
  Pr3+  Pr30  1  0.33609291  0.98676614  0.37542159  1
  Pr3+  Pr31  1  0.83272084  0.82156159  0.37607363  1
  Pr3+  Pr32  1  1.00277247  0.32235051  0.37507575  1
  Pr3+  Pr33  1  1.00324675  0.31988868  0.87414804  1
  Pr3+  Pr34  1  0.50486995  0.84249097  0.12498479  1
  Pr3+  Pr35  1  0.83764072  0.84221385  0.62446782  1
  Pr3+  Pr36  1  0.16767375  0.50781822  0.12652228  1
  Pr3+  Pr37  1  0.49820980  0.81863227  0.87535045  1
  Pr3+  Pr38  1  0.49984811  0.51281860  0.62639684  1
  Pr3+  Pr39  1  0.66248081  0.01849723  0.12479688  1
  Pr3+  Pr40  1  -0.00355508  0.67474843  0.12586643  1
  Pr3+  Pr41  1  0.49681297  0.15454962  0.37411655  1
  Pr3+  Pr42  1  0.83113666  0.48674802  0.37779291  1
  Pr3+  Pr43  1  0.33353283  0.67462037  0.12527413  1
  Pr3+  Pr44  1  0.82882657  0.81641880  0.87417120  1
  Pr3+  Pr45  1  0.50121362  0.84441632  0.62575507  1
  Pr3+  Pr46  1  0.16240774  0.48800646  0.87236827  1
  Pr3+  Pr47  1  0.49412184  0.81599244  0.37533311  1
  Pr3+  Pr48  1  0.16980023  0.84638297  0.12480775  1
  Pr3+  Pr49  1  0.66183074  0.34579385  0.12551948  1
  Pr3+  Pr50  1  0.49096220  0.48629380  0.37419257  1
  Pr3+  Pr51  1  0.66816966  0.34692204  0.62442869  1
  Pr3+  Pr52  1  0.17007724  0.18327761  0.12522679  1
  Pr3+  Pr53  1  0.83198359  0.15759047  0.87537150  1
  Pr3+  Pr54  1  0.67015555  0.31840918  0.37604730  1
  Pr3+  Pr55  1  0.33542111  0.32353541  0.87509627  1
  Pr3+  Pr56  1  0.16883053  0.17887554  0.62472758  1
  Pr3+  Pr57  1  0.83391471  0.50971553  0.12486650  1
  Pr3+  Pr58  1  -0.00280781  0.01409388  0.12613040  1
  Pr3+  Pr59  1  0.67002305  0.32640075  0.87418223  1
  Pr3+  Pr60  1  1.00344689  0.98889412  0.87521459  1
  Pr3+  Pr61  1  0.66656146  0.01378654  0.62514860  1
  Pr3+  Pr62  1  0.67182103  0.98899879  0.37409077  1
  Pr3+  Pr63  1  0.33443676  0.98812608  0.87476188  1
  Pr3+  Pr64  1  0.32749091  0.34908739  0.62246290  1
  Pr3+  Pr65  1  -0.00164834  0.01285778  0.62366647  1
  Pr3+  Pr66  1  0.33464726  0.65156901  0.87436828  1
  Pr3+  Pr67  1  0.67158926  0.98807626  0.87602389  1
  Pr3+  Pr68  1  0.33242223  0.01479742  0.12495461  1
  Pr3+  Pr69  1  0.83382146  0.84385786  0.12543265  1
  Pr3+  Pr70  1  0.32858340  0.01083981  0.62519167  1
  Pr3+  Pr71  1  1.00341712  0.65315135  0.37726983  1
  Mn3.30+  Mn72  1  0.16708460  0.00207367  -0.00051324  1
  Mn3.30+  Mn73  1  0.16631201  -0.00095799  0.50021437  1
  Mn3.30+  Mn74  1  0.16873426  0.33338624  0.00057098  1
  Mn3.30+  Mn75  1  0.16523688  0.33555811  0.49993568  1
  Mn3.30+  Mn76  1  0.16559184  0.66500882  0.00089481  1
  Mn3.30+  Mn77  1  0.16679109  0.66588654  0.50101943  1
  Mn3.30+  Mn78  1  0.50082664  0.00111843  0.00011632  1
  Mn3.30+  Mn79  1  0.50072545  -0.00057647  0.50074991  1
  Mn3.30+  Mn80  1  0.49826763  0.33542453  0.00199303  1
  Mn3.30+  Mn81  1  0.49846239  0.33382604  0.49968308  1
  Mn3.30+  Mn82  1  0.50192414  0.66458791  -0.00087224  1
  Mn3.30+  Mn83  1  0.49791477  0.66554409  0.50097971  1
  Mn3.30+  Mn84  1  0.83423579  -0.00000976  0.00048627  1
  Mn3.30+  Mn85  1  0.83397993  0.00158490  0.49990157  1
  Mn3.30+  Mn86  1  0.83362374  0.33392425  -0.00036007  1
  Mn3.30+  Mn87  1  0.83636022  0.33256746  0.50194530  1
  Mn3.30+  Mn88  1  0.82880003  0.66469737  0.00089377  1
  Mn3.30+  Mn89  1  0.83488834  0.66573757  0.50110134  1
  Mn3.30+  Mn90  1  -0.00048633  0.16780415  0.25183301  1
  Mn3.30+  Mn91  1  0.00068631  0.16809565  0.74828257  1
  Mn3.30+  Mn92  1  0.00003575  0.49857910  0.25131390  1
  Mn3.30+  Mn93  1  -0.00129975  0.49921004  0.74525643  1
  Mn3.30+  Mn94  1  0.00044743  0.83341542  0.25000605  1
  Mn3.30+  Mn95  1  0.00041086  0.83173713  0.74853064  1
  Mn3.30+  Mn96  1  0.33600004  0.16989788  0.24758078  1
  Mn3.30+  Mn97  1  0.33184377  0.16768328  0.75167622  1
  Mn3.30+  Mn98  1  0.33551281  0.49833258  0.24851375  1
  Mn3.30+  Mn99  1  0.33009848  0.50000561  0.74941919  1
  Mn3.30+  Mn100  1  0.33378132  0.83073542  0.25012700  1
  Mn3.30+  Mn101  1  0.33063418  0.83223431  0.74930455  1
  Mn3.30+  Mn102  1  0.66620434  0.16849736  0.25044628  1
  Mn3.30+  Mn103  1  0.66975088  0.16853863  0.74819936  1
  Mn3.30+  Mn104  1  0.66306349  0.50012258  0.25025525  1
  Mn3.30+  Mn105  1  0.66925816  0.50024106  0.74855768  1
  Mn3.30+  Mn106  1  0.66595333  0.83147510  0.24974274  1
  Mn3.30+  Mn107  1  0.66735901  0.83192479  0.75088566  1
  Mn3.30+  Mn108  1  0.16729565  0.00132169  0.24947724  1
  Mn3.30+  Mn109  1  0.16600730  -0.00019436  0.75047545  1
  Mn3.30+  Mn110  1  0.17012929  0.33528079  0.25153416  1
  Mn3.30+  Mn111  1  0.16422113  0.33324031  0.74747337  1
  Mn3.30+  Mn112  1  0.16763531  0.66562930  0.25101258  1
  Mn3.30+  Mn113  1  0.16472517  0.66581776  0.74656862  1
  Mn3.30+  Mn114  1  0.50087016  0.00033087  0.24933217  1
  Mn3.30+  Mn115  1  0.50071043  0.00046235  0.75075249  1
  Mn3.30+  Mn116  1  0.49724625  0.33385523  0.24848486  1
  Mn3.30+  Mn117  1  0.49987432  0.33507160  0.74996310  1
  Mn3.30+  Mn118  1  0.50075747  0.66416677  0.24891565  1
  Mn3.30+  Mn119  1  0.49935330  0.66591338  0.75137787  1
  Mn3.30+  Mn120  1  0.83325995  0.00063176  0.25059777  1
  Mn3.30+  Mn121  1  0.83501593  0.00126715  0.74896594  1
  Mn3.30+  Mn122  1  0.83275752  0.33190678  0.25136019  1
  Mn3.30+  Mn123  1  0.83722103  0.33458626  0.74665359  1
  Mn3.30+  Mn124  1  0.83101589  0.66561537  0.24995493  1
  Mn3.30+  Mn125  1  0.83355842  0.66496376  0.74828142  1
  Mn3.30+  Mn126  1  0.00101507  0.16744695  -0.00038967  1
  Mn3.30+  Mn127  1  -0.00061950  0.16862264  0.50034234  1
  Mn3.30+  Mn128  1  -0.00172740  0.49783165  -0.00084302  1
  Mn3.30+  Mn129  1  0.00037162  0.50019408  0.50372807  1
  Mn3.30+  Mn130  1  -0.00070822  0.83196351  0.00011877  1
  Mn3.30+  Mn131  1  0.00154498  0.83300647  0.50125164  1
  Mn3.30+  Mn132  1  0.33365083  0.16951177  0.00067331  1
  Mn3.30+  Mn133  1  0.33391985  0.16790868  0.49962555  1
  Mn3.30+  Mn134  1  0.33478648  0.49786871  0.00295389  1
  Mn3.30+  Mn135  1  0.33038223  0.50073726  0.49801970  1
  Mn3.30+  Mn136  1  0.33394395  0.83259711  -0.00005968  1
  Mn3.30+  Mn137  1  0.33046566  0.83064095  0.50109647  1
  Mn3.30+  Mn138  1  0.66522439  0.16994844  0.00021950  1
  Mn3.30+  Mn139  1  0.67105404  0.16717436  0.50165705  1
  Mn3.30+  Mn140  1  0.66519828  0.50021135  0.00027586  1
  Mn3.30+  Mn141  1  0.66642140  0.49989764  0.50096901  1
  Mn3.30+  Mn142  1  0.66702325  0.83044749  -0.00001457  1
  Mn3.30+  Mn143  1  0.66602755  0.83247909  0.50019248  1
  O2-  O144  1  0.02441831  0.16284682  0.12661908  1
  O2-  O145  1  0.02664069  0.15973273  0.62534807  1
  O2-  O146  1  0.02199970  0.50120747  0.12595831  1
  O2-  O147  1  0.02877851  0.49299022  0.62417594  1
  O2-  O148  1  0.02620106  0.82360888  0.12457687  1
  O2-  O149  1  0.02511399  0.82549409  0.62742240  1
  O2-  O150  1  0.36410091  0.15876171  0.12442721  1
  O2-  O151  1  0.35937654  0.15931981  0.62680834  1
  O2-  O152  1  0.36153383  0.49396384  0.12497001  1
  O2-  O153  1  0.35580969  0.49603843  0.62378328  1
  O2-  O154  1  0.36022626  0.82554918  0.12450243  1
  O2-  O155  1  0.35787166  0.83250776  0.62559098  1
  O2-  O156  1  0.68679880  0.16721784  0.12575464  1
  O2-  O157  1  0.69794233  0.16058733  0.62573742  1
  O2-  O158  1  0.69093404  0.49227892  0.12820103  1
  O2-  O159  1  0.69416601  0.49579768  0.62250291  1
  O2-  O160  1  0.69083812  0.82108183  0.12297913  1
  O2-  O161  1  0.69241073  0.82475337  0.62458159  1
  O2-  O162  1  0.14608846  0.33122874  0.12552363  1
  O2-  O163  1  0.13867369  0.32284596  0.62508369  1
  O2-  O164  1  0.14034843  0.65938043  0.12458622  1
  O2-  O165  1  0.14163685  0.65897584  0.62486224  1
  O2-  O166  1  0.14213106  0.99491418  0.12414164  1
  O2-  O167  1  0.14368569  0.99355288  0.62626487  1
  O2-  O168  1  0.47413791  0.32376898  0.12601942  1
  O2-  O169  1  0.47327911  0.32797421  0.62447842  1
  O2-  O170  1  0.47741684  0.66800883  0.12373496  1
  O2-  O171  1  0.47949544  0.66357209  0.62683552  1
  O2-  O172  1  0.47511094  0.98993993  0.12554991  1
  O2-  O173  1  0.47321785  0.99396892  0.62725581  1
  O2-  O174  1  0.80819165  0.33291588  0.12944000  1
  O2-  O175  1  0.80930812  0.32276855  0.62317849  1
  O2-  O176  1  0.80530678  0.66000617  0.12625459  1
  O2-  O177  1  0.80816651  0.66891421  0.62267428  1
  O2-  O178  1  0.80729335  0.99263002  0.12454306  1
  O2-  O179  1  0.80894577  0.99015705  0.62493135  1
  O2-  O180  1  0.31066264  0.17127864  0.37329244  1
  O2-  O181  1  0.30486536  0.17573670  0.87514892  1
  O2-  O182  1  0.31868497  0.50978696  0.37291758  1
  O2-  O183  1  0.30775200  0.50272717  0.87647036  1
  O2-  O184  1  0.30718175  0.84013816  0.37444425  1
  O2-  O185  1  0.30715205  0.83896090  0.87578227  1
  O2-  O186  1  0.64028618  0.16891358  0.37628004  1
  O2-  O187  1  0.64175062  0.17453382  0.87276477  1
  O2-  O188  1  0.63718738  0.50507412  0.37580299  1
  O2-  O189  1  0.65021160  0.49790038  0.87314157  1
  O2-  O190  1  0.63872341  0.84142394  0.37742704  1
  O2-  O191  1  0.64123809  0.84347514  0.87572424  1
  O2-  O192  1  0.97573964  0.17308949  0.37675563  1
  O2-  O193  1  0.97615492  0.16929057  0.87155215  1
  O2-  O194  1  0.97424360  0.50526242  0.37705663  1
  O2-  O195  1  0.97966768  0.50315097  0.87200294  1
  O2-  O196  1  0.97614777  0.83615210  0.37301097  1
  O2-  O197  1  0.97300204  0.84034164  0.87542790  1
  O2-  O198  1  0.19271637  0.00649031  0.37319405  1
  O2-  O199  1  0.19066933  0.00696217  0.87630881  1
  O2-  O200  1  0.19349752  0.33268174  0.37486577  1
  O2-  O201  1  0.19217320  0.34125068  0.87398219  1
  O2-  O202  1  0.19236262  0.67470637  0.37372318  1
  O2-  O203  1  0.19007778  0.67053760  0.87672038  1
  O2-  O204  1  0.52730712  0.00584051  0.37430531  1
  O2-  O205  1  0.52828967  0.00780633  0.87409345  1
  O2-  O206  1  0.52561940  0.33909680  0.37659511  1
  O2-  O207  1  0.52504251  0.33624391  0.87260225  1
  O2-  O208  1  0.52490372  0.66875686  0.37541675  1
  O2-  O209  1  0.52682062  0.67094752  0.87427682  1
  O2-  O210  1  0.84963641  0.00362358  0.37579822  1
  O2-  O211  1  0.85866218  0.00717654  0.87462782  1
  O2-  O212  1  0.85792019  0.34161042  0.37791851  1
  O2-  O213  1  0.85808732  0.33594707  0.87007766  1
  O2-  O214  1  0.85875292  0.67186909  0.37607655  1
  O2-  O215  1  0.85712610  0.66943918  0.87532943  1
  O2-  O216  1  0.24137951  0.09625446  0.02367466  1
  O2-  O217  1  0.24099936  0.09431802  0.51968042  1
  O2-  O218  1  0.23740481  0.42970484  0.01842268  1
  O2-  O219  1  0.23615670  0.42658323  0.52309159  1
  O2-  O220  1  0.23764156  0.75890288  0.02077068  1
  O2-  O221  1  0.23390453  0.76587043  0.51851441  1
  O2-  O222  1  0.57045899  0.09564009  0.02033835  1
  O2-  O223  1  0.57393019  0.09515892  0.52354707  1
  O2-  O224  1  0.57076952  0.42721969  0.02344079  1
  O2-  O225  1  0.56996621  0.42824707  0.52199989  1
  O2-  O226  1  0.56870708  0.76383045  0.01522823  1
  O2-  O227  1  0.57133719  0.76135088  0.51974226  1
  O2-  O228  1  0.90798894  0.09079654  0.01836422  1
  O2-  O229  1  0.90856425  0.09494574  0.52214830  1
  O2-  O230  1  0.90380463  0.42806776  0.01854870  1
  O2-  O231  1  0.90090937  0.43235898  0.51917141  1
  O2-  O232  1  0.90148482  0.75893432  0.02070957  1
  O2-  O233  1  0.90424296  0.76341819  0.51535962  1
  O2-  O234  1  0.26309289  0.25958800  0.22630066  1
  O2-  O235  1  0.26181462  0.26213166  0.72730874  1
  O2-  O236  1  0.26132032  0.59065103  0.22587841  1
  O2-  O237  1  0.25892931  0.59421751  0.73794949  1
  O2-  O238  1  0.26236539  0.92848051  0.22824280  1
  O2-  O239  1  0.26295661  0.93025197  0.73452846  1
  O2-  O240  1  0.59613249  0.26515162  0.23599768  1
  O2-  O241  1  0.59607410  0.25918640  0.72573021  1
  O2-  O242  1  0.59825878  0.59942041  0.23069634  1
  O2-  O243  1  0.59190211  0.59125232  0.72925270  1
  O2-  O244  1  0.59650575  0.92844326  0.22740646  1
  O2-  O245  1  0.59689990  0.92634178  0.72855443  1
  O2-  O246  1  0.92812405  0.26132274  0.23784121  1
  O2-  O247  1  0.93336532  0.26545626  0.73127419  1
  O2-  O248  1  0.92543715  0.59361385  0.23095456  1
  O2-  O249  1  0.93139921  0.59707471  0.72938680  1
  O2-  O250  1  0.92712097  0.92329037  0.22607052  1
  O2-  O251  1  0.93052123  0.92762669  0.72880837  1
  O2-  O252  1  0.09644415  0.24105540  0.26954017  1
  O2-  O253  1  0.09717744  0.23628725  0.77277633  1
  O2-  O254  1  0.09062254  0.57565537  0.26892167  1
  O2-  O255  1  0.09281906  0.57324078  0.77099977  1
  O2-  O256  1  0.09636452  0.90302957  0.26507408  1
  O2-  O257  1  0.09258802  0.90482471  0.77378702  1
  O2-  O258  1  0.43058701  0.23799196  0.27178387  1
  O2-  O259  1  0.42754654  0.23843142  0.77020386  1
  O2-  O260  1  0.43220381  0.56974023  0.26280902  1
  O2-  O261  1  0.42393795  0.57434535  0.76741959  1
  O2-  O262  1  0.42811489  0.90343498  0.27147033  1
  O2-  O263  1  0.42890824  0.90684492  0.77216050  1
  O2-  O264  1  0.76017843  0.23892668  0.27536420  1
  O2-  O265  1  0.76188380  0.24048273  0.77191308  1
  O2-  O266  1  0.76006508  0.57107357  0.27355744  1
  O2-  O267  1  0.75850837  0.57502185  0.76197054  1
  O2-  O268  1  0.76033088  0.90410702  0.26888692  1
  O2-  O269  1  0.76165947  0.90471090  0.77083240  1
  O2-  O270  1  0.07594471  0.07636572  0.48344502  1
  O2-  O271  1  0.07072907  0.07025106  0.98330160  1
  O2-  O272  1  0.06960686  0.40459971  0.48044945  1
  O2-  O273  1  0.07469821  0.40529179  0.97901705  1
  O2-  O274  1  0.07255438  0.73990043  0.47789506  1
  O2-  O275  1  0.06891518  0.73847866  0.97854171  1
  O2-  O276  1  0.40684302  0.07110594  0.47955419  1
  O2-  O277  1  0.40288413  0.07460969  0.97691465  1
  O2-  O278  1  0.40085593  0.40444886  0.48023445  1
  O2-  O279  1  0.40387962  0.40427988  0.98046508  1
  O2-  O280  1  0.40344778  0.73925654  0.47750203  1
  O2-  O281  1  0.40571236  0.73877340  0.97780563  1
  O2-  O282  1  0.73510005  0.06959784  0.48363704  1
  O2-  O283  1  0.73813925  0.07379148  0.98111468  1
  O2-  O284  1  0.73592863  0.40442244  0.48068349  1
  O2-  O285  1  0.73557176  0.40289733  0.98612869  1
  O2-  O286  1  0.73776530  0.73933590  0.47798606  1
  O2-  O287  1  0.73732705  0.73816644  0.97466689  1
  O2-  O288  1  0.09575028  0.23911828  0.47779033  1
  O2-  O289  1  0.09809844  0.23790944  0.98025024  1
  O2-  O290  1  0.09048980  0.57644012  0.47939783  1
  O2-  O291  1  0.09284529  0.57182599  0.97987186  1
  O2-  O292  1  0.09500504  0.90494113  0.48192799  1
  O2-  O293  1  0.09587503  0.90485295  0.98024673  1
  O2-  O294  1  0.43104299  0.23598305  0.48326174  1
  O2-  O295  1  0.42699406  0.24097840  0.97541160  1
  O2-  O296  1  0.43174877  0.56937893  0.48640338  1
  O2-  O297  1  0.42278324  0.57701509  0.98188485  1
  O2-  O298  1  0.42763392  0.90328380  0.47992597  1
  O2-  O299  1  0.42985840  0.90724915  0.97783042  1
  O2-  O300  1  0.76303532  0.23801470  0.47607942  1
  O2-  O301  1  0.75990794  0.24165836  0.97759505  1
  O2-  O302  1  0.75944487  0.57421095  0.47730206  1
  O2-  O303  1  0.76026602  0.57116197  0.98642368  1
  O2-  O304  1  0.75910907  0.90348889  0.48051515  1
  O2-  O305  1  0.76323091  0.90436507  0.97965240  1
  O2-  O306  1  0.07711299  0.07690653  0.26761767  1
  O2-  O307  1  0.06948272  0.06920641  0.76631028  1
  O2-  O308  1  0.07223507  0.40747370  0.26890983  1
  O2-  O309  1  0.07204579  0.40535464  0.77140540  1
  O2-  O310  1  0.07110993  0.73985449  0.27031509  1
  O2-  O311  1  0.07056884  0.73834835  0.77429688  1
  O2-  O312  1  0.40529177  0.07098012  0.27077518  1
  O2-  O313  1  0.40484489  0.07473443  0.77368109  1
  O2-  O314  1  0.40447008  0.40315084  0.27390836  1
  O2-  O315  1  0.40046437  0.40536486  0.76452564  1
  O2-  O316  1  0.40475983  0.73444007  0.27102817  1
  O2-  O317  1  0.40585386  0.74097746  0.77372802  1
  O2-  O318  1  0.73412402  0.07147174  0.26450124  1
  O2-  O319  1  0.73783879  0.07325664  0.77204506  1
  O2-  O320  1  0.73586348  0.40529728  0.27300121  1
  O2-  O321  1  0.73787495  0.40143277  0.76228646  1
  O2-  O322  1  0.74039884  0.74111590  0.27571934  1
  O2-  O323  1  0.73565475  0.73860406  0.77209238  1
  O2-  O324  1  0.24253589  0.09657370  0.22759828  1
  O2-  O325  1  0.24077136  0.09449863  0.72835340  1
  O2-  O326  1  0.24026182  0.42839889  0.22976812  1
  O2-  O327  1  0.23517755  0.42794052  0.72745369  1
  O2-  O328  1  0.23903630  0.76054910  0.22648560  1
  O2-  O329  1  0.23216714  0.76325348  0.73390104  1
  O2-  O330  1  0.57106807  0.09723728  0.22867688  1
  O2-  O331  1  0.57363627  0.09444787  0.72783463  1
  O2-  O332  1  0.56727610  0.42854254  0.22852944  1
  O2-  O333  1  0.57495195  0.42594832  0.72554273  1
  O2-  O334  1  0.56853916  0.76384588  0.23602839  1
  O2-  O335  1  0.57137248  0.76220958  0.73059610  1
  O2-  O336  1  0.90978561  0.08865163  0.23248107  1
  O2-  O337  1  0.90580427  0.09748252  0.72778580  1
  O2-  O338  1  0.90157132  0.43017541  0.23617416  1
  O2-  O339  1  0.90464360  0.43020574  0.72479052  1
  O2-  O340  1  0.90569368  0.75977044  0.22873644  1
  O2-  O341  1  0.90204500  0.76422067  0.73510681  1
  O2-  O342  1  0.26427302  0.26329152  0.02325596  1
  O2-  O343  1  0.25917040  0.25958654  0.52205075  1
  O2-  O344  1  0.26112771  0.59166976  0.02160577  1
  O2-  O345  1  0.25837594  0.59315583  0.51382289  1
  O2-  O346  1  0.26231941  0.92856515  0.02079267  1
  O2-  O347  1  0.26474920  0.93015915  0.51591206  1
  O2-  O348  1  0.59325564  0.26451633  0.01670955  1
  O2-  O349  1  0.59807704  0.25998720  0.52117355  1
  O2-  O350  1  0.59392143  0.59419850  0.01825234  1
  O2-  O351  1  0.59681377  0.59399836  0.52176989  1
  O2-  O352  1  0.59919104  0.92669604  0.02182340  1
  O2-  O353  1  0.59449039  0.92723416  0.52415225  1
  O2-  O354  1  0.92802996  0.26002183  0.01048122  1
  O2-  O355  1  0.93339974  0.26562233  0.51912064  1
  O2-  O356  1  0.92524827  0.59483695  0.01955377  1
  O2-  O357  1  0.92954201  0.59689366  0.52005492  1
  O2-  O358  1  0.92978078  0.92566651  0.02214935  1
  O2-  O359  1  0.92733509  0.92532404  0.52114409  1
