# generated using pymatgen
data_Sr7Ca15Pr50Mn72O216
_symmetry_space_group_name_H-M   'P 1'
_cell_length_a   16.55969851
_cell_length_b   16.60514319
_cell_length_c   15.59280700
_cell_angle_alpha   89.99637985
_cell_angle_beta   90.00832785
_cell_angle_gamma   90.00416847
_symmetry_Int_Tables_number   1
_chemical_formula_structural   Sr7Ca15Pr50Mn72O216
_chemical_formula_sum   'Sr7 Ca15 Pr50 Mn72 O216'
_cell_volume   4287.65020579
_cell_formula_units_Z   1
loop_
 _symmetry_equiv_pos_site_id
 _symmetry_equiv_pos_as_xyz
  1  'x, y, z'
loop_
 _atom_type_symbol
 _atom_type_oxidation_number
  Sr2+  2.0
  Ca2+  2.0
  Pr3+  3.0
  Mn3.30+  3.3
  O2-  -2.0
loop_
 _atom_site_type_symbol
 _atom_site_label
 _atom_site_symmetry_multiplicity
 _atom_site_fract_x
 _atom_site_fract_y
 _atom_site_fract_z
 _atom_site_occupancy
  Sr2+  Sr0  1  0.83475297  0.49026311  0.87414359  1
  Sr2+  Sr1  1  1.00195080  0.65744919  0.37773431  1
  Sr2+  Sr2  1  0.50139908  0.17491437  0.62540154  1
  Sr2+  Sr3  1  1.00162474  0.98768248  0.87634034  1
  Sr2+  Sr4  1  -0.00075167  0.00860172  0.12294627  1
  Sr2+  Sr5  1  0.66638299  0.00866317  0.62584024  1
  Sr2+  Sr6  1  0.83655041  0.15764705  0.87490422  1
  Ca2+  Ca7  1  0.66287039  0.68168223  0.62591998  1
  Ca2+  Ca8  1  0.16357144  0.82206555  0.87480134  1
  Ca2+  Ca9  1  0.83787354  0.84815283  0.12434529  1
  Ca2+  Ca10  1  0.17031595  0.51654692  0.62728291  1
  Ca2+  Ca11  1  1.00476826  0.31880747  0.87487178  1
  Ca2+  Ca12  1  0.33493238  0.65379867  0.37705343  1
  Ca2+  Ca13  1  0.16134235  0.48454734  0.87225821  1
  Ca2+  Ca14  1  0.83354454  0.84477916  0.62603982  1
  Ca2+  Ca15  1  -0.00186015  0.68277930  0.62618534  1
  Ca2+  Ca16  1  0.16752624  0.18062955  0.12162342  1
  Ca2+  Ca17  1  0.50188693  0.84680191  0.12492409  1
  Ca2+  Ca18  1  0.49479978  0.81474505  0.37561652  1
  Ca2+  Ca19  1  0.33477970  0.98475249  0.87524893  1
  Ca2+  Ca20  1  0.32753070  0.35243903  0.62693808  1
  Ca2+  Ca21  1  0.33079118  0.65424489  0.87227633  1
  Pr3+  Pr22  1  0.83100591  0.15260488  0.37521546  1
  Pr3+  Pr23  1  0.50354456  0.84370427  0.62470634  1
  Pr3+  Pr24  1  0.83160900  0.82606007  0.87521453  1
  Pr3+  Pr25  1  0.33105215  0.68046615  0.12413775  1
  Pr3+  Pr26  1  -0.00180974  0.34780483  0.62845666  1
  Pr3+  Pr27  1  0.66544774  0.34648451  0.12305004  1
  Pr3+  Pr28  1  0.16963474  0.51388209  0.12201826  1
  Pr3+  Pr29  1  0.50156341  0.51404155  0.12343382  1
  Pr3+  Pr30  1  0.49524344  0.82080750  0.87486799  1
  Pr3+  Pr31  1  0.33341229  0.32175416  0.87228662  1
  Pr3+  Pr32  1  0.16860045  0.84496194  0.12381082  1
  Pr3+  Pr33  1  0.67075427  0.98933605  0.87315230  1
  Pr3+  Pr34  1  0.66672885  0.98526413  0.37624074  1
  Pr3+  Pr35  1  0.17263202  0.18143167  0.62660384  1
  Pr3+  Pr36  1  0.49638187  0.15211094  0.37555236  1
  Pr3+  Pr37  1  0.16570327  0.49100478  0.37758895  1
  Pr3+  Pr38  1  0.66855024  0.32094428  0.37603827  1
  Pr3+  Pr39  1  0.16412100  0.15343213  0.37393953  1
  Pr3+  Pr40  1  0.66437793  0.34204434  0.62690676  1
  Pr3+  Pr41  1  1.00491069  0.65732292  0.87247369  1
  Pr3+  Pr42  1  0.83819305  0.51211225  0.12300957  1
  Pr3+  Pr43  1  0.83310339  0.48964250  0.37673192  1
  Pr3+  Pr44  1  0.66890599  0.65521162  0.37711488  1
  Pr3+  Pr45  1  0.33623336  0.32091094  0.37749819  1
  Pr3+  Pr46  1  1.00441898  0.32274712  0.37635592  1
  Pr3+  Pr47  1  -0.00263456  0.68010257  0.12450969  1
  Pr3+  Pr48  1  0.83844259  0.51720247  0.62772668  1
  Pr3+  Pr49  1  0.83068229  0.82053831  0.37464582  1
  Pr3+  Pr50  1  0.16116205  0.15288628  0.87593806  1
  Pr3+  Pr51  1  0.50202419  0.17929699  0.12417186  1
  Pr3+  Pr52  1  -0.00412546  0.00810046  0.62705756  1
  Pr3+  Pr53  1  0.16390935  0.81771438  0.37480994  1
  Pr3+  Pr54  1  0.16636660  0.84270380  0.62601574  1
  Pr3+  Pr55  1  0.49514665  0.14998538  0.87394309  1
  Pr3+  Pr56  1  0.49637562  0.48896657  0.87321396  1
  Pr3+  Pr57  1  1.00244017  0.98508685  0.37347750  1
  Pr3+  Pr58  1  0.83529621  0.17722431  0.62755971  1
  Pr3+  Pr59  1  0.67185626  0.65470550  0.87296351  1
  Pr3+  Pr60  1  0.32760589  0.34643870  0.12372173  1
  Pr3+  Pr61  1  0.66552144  0.01004047  0.12374866  1
  Pr3+  Pr62  1  0.49523093  0.48995545  0.37623966  1
  Pr3+  Pr63  1  0.67056744  0.32028484  0.87397601  1
  Pr3+  Pr64  1  0.50212884  0.51402828  0.62635938  1
  Pr3+  Pr65  1  0.33087260  0.00982321  0.62679727  1
  Pr3+  Pr66  1  0.33884437  0.98293242  0.37544094  1
  Pr3+  Pr67  1  0.32728245  0.01429337  0.12331764  1
  Pr3+  Pr68  1  0.66276283  0.68291721  0.12395832  1
  Pr3+  Pr69  1  0.00039891  0.34360845  0.12162935  1
  Pr3+  Pr70  1  0.32985096  0.67823699  0.62590117  1
  Pr3+  Pr71  1  0.83864089  0.17773827  0.12326364  1
  Mn3.30+  Mn72  1  0.16732779  -0.00120120  -0.00106699  1
  Mn3.30+  Mn73  1  0.16673949  -0.00109502  0.49977457  1
  Mn3.30+  Mn74  1  0.16581525  0.33356356  -0.00213125  1
  Mn3.30+  Mn75  1  0.16906027  0.33650134  0.50304131  1
  Mn3.30+  Mn76  1  0.16780283  0.66726174  -0.00397606  1
  Mn3.30+  Mn77  1  0.16632864  0.66546341  0.50260346  1
  Mn3.30+  Mn78  1  0.49711475  -0.00262304  0.00087043  1
  Mn3.30+  Mn79  1  0.50070819  -0.00283240  0.49948649  1
  Mn3.30+  Mn80  1  0.49897770  0.33348530  -0.00169794  1
  Mn3.30+  Mn81  1  0.49844957  0.33348781  0.50307623  1
  Mn3.30+  Mn82  1  0.49790092  0.66812672  -0.00167827  1
  Mn3.30+  Mn83  1  0.49974241  0.66698715  0.50026086  1
  Mn3.30+  Mn84  1  0.83440380  -0.00085650  -0.00040179  1
  Mn3.30+  Mn85  1  0.83319061  -0.00198148  0.50077992  1
  Mn3.30+  Mn86  1  0.83485352  0.33372168  -0.00283830  1
  Mn3.30+  Mn87  1  0.83427406  0.33393759  0.50140473  1
  Mn3.30+  Mn88  1  0.83378390  0.66860988  -0.00007121  1
  Mn3.30+  Mn89  1  0.83345991  0.66927173  0.50326372  1
  Mn3.30+  Mn90  1  0.00114011  0.16669875  0.24905355  1
  Mn3.30+  Mn91  1  0.00263519  0.16646375  0.75033194  1
  Mn3.30+  Mn92  1  0.00138378  0.50052492  0.25026090  1
  Mn3.30+  Mn93  1  0.00412621  0.50161368  0.75019896  1
  Mn3.30+  Mn94  1  -0.00125941  0.83242899  0.24927615  1
  Mn3.30+  Mn95  1  -0.00051646  0.83248539  0.74980882  1
  Mn3.30+  Mn96  1  0.33170575  0.16688475  0.24943680  1
  Mn3.30+  Mn97  1  0.33242711  0.16643261  0.74980200  1
  Mn3.30+  Mn98  1  0.33345396  0.50182234  0.25024665  1
  Mn3.30+  Mn99  1  0.32947623  0.50102067  0.75106824  1
  Mn3.30+  Mn100  1  0.33686348  0.83122493  0.24942574  1
  Mn3.30+  Mn101  1  0.33125190  0.83220193  0.75343745  1
  Mn3.30+  Mn102  1  0.66651053  0.16613373  0.24933588  1
  Mn3.30+  Mn103  1  0.66596726  0.16569934  0.75002312  1
  Mn3.30+  Mn104  1  0.66667691  0.50122280  0.25012173  1
  Mn3.30+  Mn105  1  0.66838043  0.50108578  0.74877895  1
  Mn3.30+  Mn106  1  0.66360573  0.83315945  0.24975954  1
  Mn3.30+  Mn107  1  0.66619819  0.83242206  0.74856621  1
  Mn3.30+  Mn108  1  0.16811677  0.00067587  0.24868271  1
  Mn3.30+  Mn109  1  0.16636053  -0.00296674  0.75230909  1
  Mn3.30+  Mn110  1  0.16750284  0.33365368  0.24999030  1
  Mn3.30+  Mn111  1  0.16657754  0.33641947  0.74969457  1
  Mn3.30+  Mn112  1  0.16779739  0.66614339  0.25054654  1
  Mn3.30+  Mn113  1  0.16633744  0.66625727  0.75031053  1
  Mn3.30+  Mn114  1  0.49877056  -0.00369197  0.24815909  1
  Mn3.30+  Mn115  1  0.49884851  -0.00198046  0.75134522  1
  Mn3.30+  Mn116  1  0.49935955  0.33416321  0.24977042  1
  Mn3.30+  Mn117  1  0.49786077  0.33270290  0.74798870  1
  Mn3.30+  Mn118  1  0.49860870  0.66880511  0.25030259  1
  Mn3.30+  Mn119  1  0.49943166  0.66665437  0.75100926  1
  Mn3.30+  Mn120  1  0.83345578  -0.00175892  0.24936654  1
  Mn3.30+  Mn121  1  0.83375809  -0.00059059  0.74992549  1
  Mn3.30+  Mn122  1  0.83447568  0.33366185  0.25025685  1
  Mn3.30+  Mn123  1  0.83496489  0.33417699  0.75205206  1
  Mn3.30+  Mn124  1  0.83276213  0.66714202  0.25003847  1
  Mn3.30+  Mn125  1  0.83474856  0.67044420  0.74747544  1
  Mn3.30+  Mn126  1  0.00238307  0.16608233  0.00046353  1
  Mn3.30+  Mn127  1  0.00111695  0.16659499  0.50062732  1
  Mn3.30+  Mn128  1  0.00313729  0.49911911  -0.00395174  1
  Mn3.30+  Mn129  1  0.00210479  0.50351001  0.50392799  1
  Mn3.30+  Mn130  1  -0.00001797  0.83311210  -0.00091716  1
  Mn3.30+  Mn131  1  -0.00168415  0.83195171  0.50150251  1
  Mn3.30+  Mn132  1  0.33121518  0.16625756  -0.00156738  1
  Mn3.30+  Mn133  1  0.33317635  0.16724339  0.50243239  1
  Mn3.30+  Mn134  1  0.33164565  0.50181258  -0.00452980  1
  Mn3.30+  Mn135  1  0.33203879  0.50130669  0.50288012  1
  Mn3.30+  Mn136  1  0.33298967  0.83314273  -0.00221570  1
  Mn3.30+  Mn137  1  0.33496502  0.83005823  0.49941155  1
  Mn3.30+  Mn138  1  0.66719160  0.16604234  -0.00001221  1
  Mn3.30+  Mn139  1  0.66531044  0.16544511  0.50039849  1
  Mn3.30+  Mn140  1  0.66801030  0.50130995  -0.00106493  1
  Mn3.30+  Mn141  1  0.66648920  0.50093871  0.50222948  1
  Mn3.30+  Mn142  1  0.66516125  0.83460192  0.00170814  1
  Mn3.30+  Mn143  1  0.66494164  0.83139251  0.50013835  1
  O2-  O144  1  0.02493946  0.16755373  0.12722290  1
  O2-  O145  1  0.02787491  0.15811359  0.62336438  1
  O2-  O146  1  0.02567100  0.49334243  0.12124639  1
  O2-  O147  1  0.02886267  0.49317847  0.62695235  1
  O2-  O148  1  0.02399247  0.82833565  0.12414755  1
  O2-  O149  1  0.02259250  0.83607939  0.62385177  1
  O2-  O150  1  0.35926944  0.16341301  0.12285952  1
  O2-  O151  1  0.35244656  0.15672632  0.62535120  1
  O2-  O152  1  0.35765823  0.49383111  0.12116405  1
  O2-  O153  1  0.35850658  0.49734109  0.62728881  1
  O2-  O154  1  0.36093149  0.82582904  0.12459071  1
  O2-  O155  1  0.35966588  0.82640852  0.62569753  1
  O2-  O156  1  0.69275059  0.16061918  0.12655879  1
  O2-  O157  1  0.68982908  0.16836351  0.62485854  1
  O2-  O158  1  0.69343351  0.49437434  0.12506784  1
  O2-  O159  1  0.69421631  0.48909727  0.62564147  1
  O2-  O160  1  0.69436096  0.82936464  0.12602872  1
  O2-  O161  1  0.69017251  0.82647085  0.62475981  1
  O2-  O162  1  0.14490550  0.32916085  0.12371816  1
  O2-  O163  1  0.14046237  0.32665653  0.62493049  1
  O2-  O164  1  0.14288135  0.66139326  0.12277241  1
  O2-  O165  1  0.14165075  0.66192649  0.62575233  1
  O2-  O166  1  0.14878577  0.99162797  0.12602710  1
  O2-  O167  1  0.14043692  0.99155200  0.62487963  1
  O2-  O168  1  0.47272040  0.32835487  0.12281713  1
  O2-  O169  1  0.47136902  0.33004058  0.62590264  1
  O2-  O170  1  0.47385632  0.65963594  0.12133468  1
  O2-  O171  1  0.47391549  0.66356304  0.62582663  1
  O2-  O172  1  0.47095820  0.99343432  0.12566743  1
  O2-  O173  1  0.47502592  0.99250574  0.62685979  1
  O2-  O174  1  0.80888599  0.32789343  0.12430088  1
  O2-  O175  1  0.80935567  0.32729274  0.62423751  1
  O2-  O176  1  0.80679567  0.65774762  0.12539725  1
  O2-  O177  1  0.80390881  0.66186262  0.62447824  1
  O2-  O178  1  0.80954873  0.99569188  0.12607050  1
  O2-  O179  1  0.81668559  0.99431871  0.62241729  1
  O2-  O180  1  0.30843087  0.17222679  0.37774432  1
  O2-  O181  1  0.30568398  0.17465936  0.87381611  1
  O2-  O182  1  0.31031082  0.50671731  0.37729146  1
  O2-  O183  1  0.30542143  0.50659571  0.87403949  1
  O2-  O184  1  0.30659609  0.83797593  0.37464084  1
  O2-  O185  1  0.30468984  0.84249744  0.87479611  1
  O2-  O186  1  0.64088342  0.17286539  0.37221129  1
  O2-  O187  1  0.64054089  0.17144021  0.87609063  1
  O2-  O188  1  0.63976511  0.50647508  0.37614113  1
  O2-  O189  1  0.64127559  0.50630595  0.87330335  1
  O2-  O190  1  0.63688795  0.83715701  0.37323822  1
  O2-  O191  1  0.64019406  0.84011537  0.87628268  1
  O2-  O192  1  0.97410472  0.17539997  0.37624573  1
  O2-  O193  1  0.98609950  0.17255713  0.87357929  1
  O2-  O194  1  0.97670504  0.50141384  0.37860891  1
  O2-  O195  1  0.98074346  0.51023873  0.87375193  1
  O2-  O196  1  0.97669873  0.83518593  0.37606025  1
  O2-  O197  1  0.97627297  0.82711011  0.87553078  1
  O2-  O198  1  0.19432485  0.00596968  0.37307810  1
  O2-  O199  1  0.19393847  0.00720322  0.87561160  1
  O2-  O200  1  0.19247586  0.34203037  0.37827892  1
  O2-  O201  1  0.19088971  0.33827025  0.87314086  1
  O2-  O202  1  0.19164760  0.67043476  0.37662832  1
  O2-  O203  1  0.19040528  0.67961470  0.87473461  1
  O2-  O204  1  0.52307239  0.00626539  0.37108646  1
  O2-  O205  1  0.52537904  0.00146976  0.87642488  1
  O2-  O206  1  0.52475728  0.34164001  0.37589439  1
  O2-  O207  1  0.52576631  0.34050949  0.87435506  1
  O2-  O208  1  0.52549857  0.66787080  0.37643810  1
  O2-  O209  1  0.52795178  0.67162169  0.87610959  1
  O2-  O210  1  0.85806431  0.00499302  0.37538413  1
  O2-  O211  1  0.85012163  -0.00183347  0.87609503  1
  O2-  O212  1  0.86013958  0.34031104  0.37784235  1
  O2-  O213  1  0.86030544  0.33539457  0.87464297  1
  O2-  O214  1  0.85256125  0.67181247  0.37623557  1
  O2-  O215  1  0.85915848  0.67628347  0.87460557  1
  O2-  O216  1  0.23902289  0.09723217  0.02185111  1
  O2-  O217  1  0.23589102  0.09270856  0.51990897  1
  O2-  O218  1  0.23821416  0.42665078  0.02005739  1
  O2-  O219  1  0.23677341  0.43278003  0.52056253  1
  O2-  O220  1  0.24034726  0.76102363  0.02337781  1
  O2-  O221  1  0.23849383  0.76072260  0.52108684  1
  O2-  O222  1  0.56911470  0.09349345  0.02102277  1
  O2-  O223  1  0.57336984  0.09414019  0.51141729  1
  O2-  O224  1  0.57242606  0.42792037  0.02019744  1
  O2-  O225  1  0.57067650  0.42718131  0.52245471  1
  O2-  O226  1  0.57031718  0.76251796  0.02161332  1
  O2-  O227  1  0.57023104  0.75941336  0.51946089  1
  O2-  O228  1  0.90505864  0.09390445  0.01813970  1
  O2-  O229  1  0.90570258  0.09675569  0.51918828  1
  O2-  O230  1  0.90653913  0.42620993  0.02181326  1
  O2-  O231  1  0.90707639  0.43053160  0.52267378  1
  O2-  O232  1  0.90319843  0.76004782  0.02365776  1
  O2-  O233  1  0.90089270  0.76585274  0.51881210  1
  O2-  O234  1  0.26370015  0.26531140  0.23439986  1
  O2-  O235  1  0.26169525  0.26531041  0.72894759  1
  O2-  O236  1  0.26215150  0.59396131  0.22764546  1
  O2-  O237  1  0.26296365  0.59680168  0.73126365  1
  O2-  O238  1  0.26638451  0.92645543  0.23066554  1
  O2-  O239  1  0.25971568  0.92540197  0.72585378  1
  O2-  O240  1  0.59481891  0.26137167  0.22842096  1
  O2-  O241  1  0.59527570  0.26257426  0.73430040  1
  O2-  O242  1  0.59465357  0.59678445  0.22849140  1
  O2-  O243  1  0.59667850  0.59310767  0.72811424  1
  O2-  O244  1  0.59637347  0.92974136  0.22948808  1
  O2-  O245  1  0.59091217  0.92345040  0.73185789  1
  O2-  O246  1  0.92928178  0.26225459  0.23008946  1
  O2-  O247  1  0.92739613  0.25789330  0.72683082  1
  O2-  O248  1  0.92802201  0.59140411  0.22785943  1
  O2-  O249  1  0.93036260  0.59740189  0.72816316  1
  O2-  O250  1  0.92636092  0.92688560  0.23702977  1
  O2-  O251  1  0.92895491  0.92670311  0.73492737  1
  O2-  O252  1  0.09384681  0.24106266  0.27386113  1
  O2-  O253  1  0.09935738  0.23643999  0.76422285  1
  O2-  O254  1  0.09794766  0.56905333  0.26555023  1
  O2-  O255  1  0.09759286  0.57308154  0.77406575  1
  O2-  O256  1  0.09521197  0.90563530  0.27075866  1
  O2-  O257  1  0.09739527  0.90098196  0.76817116  1
  O2-  O258  1  0.42758488  0.23704904  0.26995566  1
  O2-  O259  1  0.42698619  0.23926683  0.77404412  1
  O2-  O260  1  0.43182452  0.56896976  0.26503977  1
  O2-  O261  1  0.43022480  0.57122462  0.76774399  1
  O2-  O262  1  0.42864562  0.90208699  0.27451589  1
  O2-  O263  1  0.42677136  0.90278721  0.76836505  1
  O2-  O264  1  0.76273876  0.24018982  0.27132987  1
  O2-  O265  1  0.75792162  0.24153510  0.76757398  1
  O2-  O266  1  0.76113559  0.57163374  0.27182032  1
  O2-  O267  1  0.76216421  0.57616230  0.76739413  1
  O2-  O268  1  0.75632839  0.90527216  0.27428569  1
  O2-  O269  1  0.75685588  0.90673014  0.76953443  1
  O2-  O270  1  0.07028069  0.07280889  0.47638514  1
  O2-  O271  1  0.07754775  0.07251324  0.98253337  1
  O2-  O272  1  0.07284672  0.40458531  0.48096992  1
  O2-  O273  1  0.06960319  0.40119693  0.98060946  1
  O2-  O274  1  0.07558505  0.74298137  0.48466454  1
  O2-  O275  1  0.06907837  0.73456953  0.98583532  1
  O2-  O276  1  0.40665500  0.06900870  0.48061582  1
  O2-  O277  1  0.40252008  0.07176915  0.97831007  1
  O2-  O278  1  0.40566381  0.40724596  0.47921970  1
  O2-  O279  1  0.40386506  0.40682924  0.97675343  1
  O2-  O280  1  0.40239332  0.73465888  0.48045843  1
  O2-  O281  1  0.40267264  0.73723534  0.97497752  1
  O2-  O282  1  0.74161577  0.07222692  0.47785634  1
  O2-  O283  1  0.73517845  0.07080613  0.98450821  1
  O2-  O284  1  0.73843250  0.40646919  0.47792820  1
  O2-  O285  1  0.73767772  0.40434179  0.98255031  1
  O2-  O286  1  0.73717172  0.74092562  0.47668547  1
  O2-  O287  1  0.73632536  0.74094404  0.97926682  1
  O2-  O288  1  0.09592909  0.23804696  0.47969264  1
  O2-  O289  1  0.09824679  0.23935310  0.98281543  1
  O2-  O290  1  0.09692966  0.57145335  0.48153125  1
  O2-  O291  1  0.09916636  0.57064750  0.97940426  1
  O2-  O292  1  0.09611001  0.90622051  0.47716436  1
  O2-  O293  1  0.09781638  0.90096151  0.98343813  1
  O2-  O294  1  0.42915040  0.24060167  0.47632258  1
  O2-  O295  1  0.42788283  0.23762203  0.97793822  1
  O2-  O296  1  0.43140181  0.56986065  0.48515647  1
  O2-  O297  1  0.43063267  0.57011428  0.98025529  1
  O2-  O298  1  0.42794912  0.90115836  0.47909049  1
  O2-  O299  1  0.42695036  0.90322760  0.97925314  1
  O2-  O300  1  0.76064813  0.23837569  0.47907219  1
  O2-  O301  1  0.75947119  0.24239732  0.98230568  1
  O2-  O302  1  0.76286019  0.57245740  0.48044143  1
  O2-  O303  1  0.76033840  0.57647093  0.98054815  1
  O2-  O304  1  0.75840772  0.90575971  0.47670601  1
  O2-  O305  1  0.75736755  0.90758301  0.98003818  1
  O2-  O306  1  0.07137582  0.07519245  0.27410558  1
  O2-  O307  1  0.07553442  0.07125906  0.76713128  1
  O2-  O308  1  0.07253427  0.40528866  0.26940230  1
  O2-  O309  1  0.06869209  0.40052265  0.76933483  1
  O2-  O310  1  0.07485436  0.73996129  0.26554261  1
  O2-  O311  1  0.07014184  0.73693823  0.76302303  1
  O2-  O312  1  0.40366583  0.07048623  0.26952546  1
  O2-  O313  1  0.40503569  0.06935025  0.77212480  1
  O2-  O314  1  0.40391429  0.40598343  0.27024907  1
  O2-  O315  1  0.40462925  0.40846519  0.77233564  1
  O2-  O316  1  0.40182179  0.73334116  0.26986955  1
  O2-  O317  1  0.40242468  0.73942441  0.77330214  1
  O2-  O318  1  0.73774860  0.07162332  0.27123856  1
  O2-  O319  1  0.73939208  0.07392431  0.76592215  1
  O2-  O320  1  0.73936274  0.40574513  0.27124826  1
  O2-  O321  1  0.73640305  0.40525905  0.76851365  1
  O2-  O322  1  0.73444230  0.73894976  0.27030821  1
  O2-  O323  1  0.73916209  0.74261856  0.77436958  1
  O2-  O324  1  0.23779773  0.09846619  0.22831032  1
  O2-  O325  1  0.23788593  0.09297117  0.72944097  1
  O2-  O326  1  0.23877872  0.42973747  0.22995151  1
  O2-  O327  1  0.23570450  0.43046435  0.72968376  1
  O2-  O328  1  0.23976888  0.76227808  0.22929276  1
  O2-  O329  1  0.23887603  0.75940579  0.72605821  1
  O2-  O330  1  0.56971792  0.09327806  0.22753399  1
  O2-  O331  1  0.57174420  0.09318389  0.73857841  1
  O2-  O332  1  0.57338773  0.42899349  0.22792936  1
  O2-  O333  1  0.57117178  0.42668508  0.72892207  1
  O2-  O334  1  0.57055253  0.76131566  0.22552951  1
  O2-  O335  1  0.57018499  0.76076766  0.73297718  1
  O2-  O336  1  0.90404096  0.09911921  0.23460193  1
  O2-  O337  1  0.90954442  0.09333419  0.72874076  1
  O2-  O338  1  0.90608521  0.42780329  0.23016585  1
  O2-  O339  1  0.90745023  0.42937707  0.72758835  1
  O2-  O340  1  0.90331668  0.76026720  0.22904428  1
  O2-  O341  1  0.90219515  0.76477385  0.72858331  1
  O2-  O342  1  0.26425924  0.26455794  0.01591728  1
  O2-  O343  1  0.26163230  0.26562015  0.52197819  1
  O2-  O344  1  0.26190942  0.59482770  0.02107895  1
  O2-  O345  1  0.26275461  0.59556019  0.52073739  1
  O2-  O346  1  0.26208539  0.92693993  0.02266930  1
  O2-  O347  1  0.26395175  0.92562620  0.51985534  1
  O2-  O348  1  0.59446740  0.26004914  0.02142266  1
  O2-  O349  1  0.59550491  0.26534354  0.51536445  1
  O2-  O350  1  0.59442988  0.59537432  0.02058531  1
  O2-  O351  1  0.59568566  0.59488252  0.52367290  1
  O2-  O352  1  0.59563273  0.92822269  0.02048545  1
  O2-  O353  1  0.59312625  0.92468757  0.51776153  1
  O2-  O354  1  0.92574108  0.25957138  0.02164361  1
  O2-  O355  1  0.93019838  0.26080470  0.52250185  1
  O2-  O356  1  0.92942178  0.59379119  0.01966037  1
  O2-  O357  1  0.92767569  0.59651151  0.52503518  1
  O2-  O358  1  0.92429011  0.92329748  0.01528267  1
  O2-  O359  1  0.93143304  0.93130589  0.51288189  1
