# generated using pymatgen
data_Sr7Ca15Pr50Mn72O216
_symmetry_space_group_name_H-M   'P 1'
_cell_length_a   16.55951096
_cell_length_b   16.60534843
_cell_length_c   15.59219482
_cell_angle_alpha   90.00716099
_cell_angle_beta   89.98873752
_cell_angle_gamma   90.00346412
_symmetry_Int_Tables_number   1
_chemical_formula_structural   Sr7Ca15Pr50Mn72O216
_chemical_formula_sum   'Sr7 Ca15 Pr50 Mn72 O216'
_cell_volume   4287.48624537
_cell_formula_units_Z   1
loop_
 _symmetry_equiv_pos_site_id
 _symmetry_equiv_pos_as_xyz
  1  'x, y, z'
loop_
 _atom_type_symbol
 _atom_type_oxidation_number
  Sr2+  2.0
  Ca2+  2.0
  Pr3+  3.0
  Mn3.30+  3.3
  O2-  -2.0
loop_
 _atom_site_type_symbol
 _atom_site_label
 _atom_site_symmetry_multiplicity
 _atom_site_fract_x
 _atom_site_fract_y
 _atom_site_fract_z
 _atom_site_occupancy
  Sr2+  Sr0  1  0.49755664  0.15603809  0.87582002  1
  Sr2+  Sr1  1  0.66907093  0.65719496  0.87549181  1
  Sr2+  Sr2  1  1.00158251  0.99172170  0.37706942  1
  Sr2+  Sr3  1  0.99795906  0.65975864  0.87381282  1
  Sr2+  Sr4  1  0.33070871  0.34188245  0.12375964  1
  Sr2+  Sr5  1  0.49865001  0.50775306  0.12392765  1
  Sr2+  Sr6  1  0.66784676  0.99221718  0.37685218  1
  Ca2+  Ca7  1  -0.00520984  0.01552932  0.62737454  1
  Ca2+  Ca8  1  0.32776418  0.01774079  0.12338945  1
  Ca2+  Ca9  1  0.17056786  0.18155217  0.12465845  1
  Ca2+  Ca10  1  0.83064296  0.81792673  0.87498201  1
  Ca2+  Ca11  1  0.50820923  0.85172060  0.62552744  1
  Ca2+  Ca12  1  1.00155996  0.31990911  0.87533613  1
  Ca2+  Ca13  1  1.00494598  0.65003418  0.37587240  1
  Ca2+  Ca14  1  0.49713463  0.15063845  0.37388195  1
  Ca2+  Ca15  1  0.49778818  0.48728718  0.87570669  1
  Ca2+  Ca16  1  0.50444131  0.51343168  0.62681041  1
  Ca2+  Ca17  1  0.16263083  0.48557946  0.37381057  1
  Ca2+  Ca18  1  0.83661207  0.51477091  0.12341118  1
  Ca2+  Ca19  1  1.00151006  0.98735955  0.87346295  1
  Ca2+  Ca20  1  0.83091834  0.15362479  0.87428596  1
  Ca2+  Ca21  1  0.66373459  0.01396706  0.62567414  1
  Pr3+  Pr22  1  0.33435804  0.01235953  0.62581053  1
  Pr3+  Pr23  1  0.83171121  0.82253819  0.37480307  1
  Pr3+  Pr24  1  0.16894217  0.51341259  0.62412818  1
  Pr3+  Pr25  1  0.33820077  0.98984424  0.37393513  1
  Pr3+  Pr26  1  0.33391195  0.68074277  0.62401709  1
  Pr3+  Pr27  1  0.33229898  0.34472113  0.62706382  1
  Pr3+  Pr28  1  0.16595758  0.84809405  0.62638842  1
  Pr3+  Pr29  1  0.83152082  0.15192967  0.37471191  1
  Pr3+  Pr30  1  0.33429644  0.65209774  0.37556637  1
  Pr3+  Pr31  1  0.50194991  0.84445630  0.12482690  1
  Pr3+  Pr32  1  0.66857797  0.31895001  0.37413576  1
  Pr3+  Pr33  1  0.83635778  0.84477130  0.12111749  1
  Pr3+  Pr34  1  0.17095685  0.51214955  0.12583377  1
  Pr3+  Pr35  1  0.66498606  0.01192894  0.12496504  1
  Pr3+  Pr36  1  0.83134865  0.48719252  0.37395352  1
  Pr3+  Pr37  1  0.49727455  0.48687558  0.37514694  1
  Pr3+  Pr38  1  0.83419032  0.17517797  0.62566358  1
  Pr3+  Pr39  1  0.16137383  0.15513693  0.87722372  1
  Pr3+  Pr40  1  0.33799466  0.98837999  0.87584197  1
  Pr3+  Pr41  1  0.16630656  0.17722080  0.62473322  1
  Pr3+  Pr42  1  0.49782581  0.82096888  0.37745892  1
  Pr3+  Pr43  1  0.16034673  0.48553774  0.87510979  1
  Pr3+  Pr44  1  0.82970539  0.48988575  0.87608239  1
  Pr3+  Pr45  1  -0.00381189  0.68046175  0.62516722  1
  Pr3+  Pr46  1  1.00351714  0.32173625  0.37496047  1
  Pr3+  Pr47  1  0.17086548  0.84766397  0.12352363  1
  Pr3+  Pr48  1  0.50621316  0.17663161  0.62568964  1
  Pr3+  Pr49  1  0.33650367  0.32064706  0.87720885  1
  Pr3+  Pr50  1  0.66203809  0.34622114  0.62667924  1
  Pr3+  Pr51  1  0.49905533  0.82072279  0.87249979  1
  Pr3+  Pr52  1  -0.00416377  0.34536378  0.62630711  1
  Pr3+  Pr53  1  0.83649420  0.84920179  0.62891700  1
  Pr3+  Pr54  1  0.83582040  0.17858476  0.12420533  1
  Pr3+  Pr55  1  0.66269636  0.34663560  0.12373206  1
  Pr3+  Pr56  1  -0.00123659  0.01384727  0.12329563  1
  Pr3+  Pr57  1  0.66242409  0.68190984  0.62573580  1
  Pr3+  Pr58  1  0.33926536  0.65204962  0.87420758  1
  Pr3+  Pr59  1  0.67179090  0.98699360  0.87369301  1
  Pr3+  Pr60  1  0.66532748  0.67738992  0.12435731  1
  Pr3+  Pr61  1  0.33045679  0.67605225  0.12583866  1
  Pr3+  Pr62  1  0.15997727  0.82121429  0.37590114  1
  Pr3+  Pr63  1  -0.00240881  0.34820985  0.12357460  1
  Pr3+  Pr64  1  0.83542055  0.51379574  0.62502346  1
  Pr3+  Pr65  1  0.16404429  0.15387886  0.37230459  1
  Pr3+  Pr66  1  0.66801300  0.32052609  0.87599036  1
  Pr3+  Pr67  1  0.50070064  0.17845882  0.12428915  1
  Pr3+  Pr68  1  0.16446326  0.82168875  0.87385260  1
  Pr3+  Pr69  1  0.33583882  0.31778880  0.37296969  1
  Pr3+  Pr70  1  0.66924163  0.65423854  0.37546095  1
  Pr3+  Pr71  1  -0.00312249  0.67783352  0.12464339  1
  Mn3.30+  Mn72  1  0.16674228  0.00163279  -0.00117440  1
  Mn3.30+  Mn73  1  0.16607815  0.00093973  0.50205285  1
  Mn3.30+  Mn74  1  0.16436310  0.33203591  -0.00017156  1
  Mn3.30+  Mn75  1  0.16724111  0.33450506  0.50008951  1
  Mn3.30+  Mn76  1  0.16585799  0.66682473  -0.00154745  1
  Mn3.30+  Mn77  1  0.16490165  0.66624955  0.49958625  1
  Mn3.30+  Mn78  1  0.49866931  -0.00012829  0.00128154  1
  Mn3.30+  Mn79  1  0.50242577  -0.00006707  0.49942270  1
  Mn3.30+  Mn80  1  0.49953284  0.33464283  -0.00038727  1
  Mn3.30+  Mn81  1  0.49946629  0.33215254  0.49975415  1
  Mn3.30+  Mn82  1  0.50025271  0.66444073  -0.00043596  1
  Mn3.30+  Mn83  1  0.50037691  0.66604844  0.50161395  1
  Mn3.30+  Mn84  1  0.83582498  0.00017647  -0.00407422  1
  Mn3.30+  Mn85  1  0.83319451  -0.00072660  0.50245890  1
  Mn3.30+  Mn86  1  0.83482235  0.33344588  -0.00157382  1
  Mn3.30+  Mn87  1  0.83242239  0.33261227  0.50053143  1
  Mn3.30+  Mn88  1  0.83261850  0.66571272  0.00008575  1
  Mn3.30+  Mn89  1  0.83478329  0.66762040  0.49831045  1
  Mn3.30+  Mn90  1  0.00245044  0.16716247  0.24724332  1
  Mn3.30+  Mn91  1  -0.00240811  0.16607117  0.75349748  1
  Mn3.30+  Mn92  1  0.00031272  0.50129748  0.25068679  1
  Mn3.30+  Mn93  1  -0.00086310  0.50001835  0.75123755  1
  Mn3.30+  Mn94  1  0.00064515  0.83335527  0.25020560  1
  Mn3.30+  Mn95  1  -0.00115571  0.83640912  0.75228564  1
  Mn3.30+  Mn96  1  0.33250626  0.16527402  0.24858447  1
  Mn3.30+  Mn97  1  0.33378165  0.16652114  0.75026086  1
  Mn3.30+  Mn98  1  0.33074373  0.49822861  0.25158331  1
  Mn3.30+  Mn99  1  0.33563141  0.50010674  0.74881803  1
  Mn3.30+  Mn100  1  0.33184133  0.83436670  0.25045736  1
  Mn3.30+  Mn101  1  0.33556472  0.83421751  0.74707569  1
  Mn3.30+  Mn102  1  0.66596330  0.16586043  0.25010146  1
  Mn3.30+  Mn103  1  0.66852402  0.16489541  0.75213753  1
  Mn3.30+  Mn104  1  0.66777949  0.49997053  0.24823828  1
  Mn3.30+  Mn105  1  0.66391222  0.50055140  0.75170900  1
  Mn3.30+  Mn106  1  0.66694854  0.83384415  0.25086270  1
  Mn3.30+  Mn107  1  0.66792157  0.83479467  0.74927621  1
  Mn3.30+  Mn108  1  0.16856580  0.00088684  0.24821595  1
  Mn3.30+  Mn109  1  0.16415714  0.00171166  0.75031911  1
  Mn3.30+  Mn110  1  0.16689300  0.33379702  0.25022540  1
  Mn3.30+  Mn111  1  0.16439099  0.33278691  0.75017644  1
  Mn3.30+  Mn112  1  0.16346883  0.66593332  0.25257475  1
  Mn3.30+  Mn113  1  0.16719790  0.66712658  0.74915135  1
  Mn3.30+  Mn114  1  0.49802570  0.00016654  0.24857509  1
  Mn3.30+  Mn115  1  0.50316998  -0.00030757  0.74998454  1
  Mn3.30+  Mn116  1  0.50007819  0.33168524  0.25031828  1
  Mn3.30+  Mn117  1  0.49934255  0.33531300  0.75071974  1
  Mn3.30+  Mn118  1  0.49952068  0.66555659  0.24993660  1
  Mn3.30+  Mn119  1  0.50094451  0.66519473  0.74913919  1
  Mn3.30+  Mn120  1  0.83387927  -0.00119252  0.24934066  1
  Mn3.30+  Mn121  1  0.83540920  0.00077594  0.75225168  1
  Mn3.30+  Mn122  1  0.83387381  0.33464224  0.24804408  1
  Mn3.30+  Mn123  1  0.83338773  0.33185819  0.75250852  1
  Mn3.30+  Mn124  1  0.83570539  0.66561712  0.25097107  1
  Mn3.30+  Mn125  1  0.83128688  0.66764438  0.75087258  1
  Mn3.30+  Mn126  1  -0.00075235  0.16750719  -0.00234167  1
  Mn3.30+  Mn127  1  0.00042626  0.16579829  0.50125997  1
  Mn3.30+  Mn128  1  -0.00160121  0.50050636  -0.00088243  1
  Mn3.30+  Mn129  1  0.00156204  0.50083041  0.49897711  1
  Mn3.30+  Mn130  1  0.00072121  0.83443261  -0.00265399  1
  Mn3.30+  Mn131  1  -0.00132716  0.83499030  0.50020487  1
  Mn3.30+  Mn132  1  0.33046619  0.16592997  0.00093558  1
  Mn3.30+  Mn133  1  0.33572277  0.16608022  0.50024570  1
  Mn3.30+  Mn134  1  0.33274051  0.49948050  -0.00063719  1
  Mn3.30+  Mn135  1  0.33356977  0.49883874  0.50081730  1
  Mn3.30+  Mn136  1  0.33380447  0.83389115  0.00041564  1
  Mn3.30+  Mn137  1  0.33341289  0.83455441  0.50131976  1
  Mn3.30+  Mn138  1  0.66856501  0.16573169  -0.00162389  1
  Mn3.30+  Mn139  1  0.66616796  0.16495141  0.49981258  1
  Mn3.30+  Mn140  1  0.66613449  0.50043536  -0.00031694  1
  Mn3.30+  Mn141  1  0.66536152  0.49958867  0.50089750  1
  Mn3.30+  Mn142  1  0.66871698  0.83292320  -0.00063446  1
  Mn3.30+  Mn143  1  0.66606539  0.83614106  0.50093865  1
  O2-  O144  1  0.02771184  0.16142918  0.12298294  1
  O2-  O145  1  0.02314937  0.16227695  0.62719517  1
  O2-  O146  1  0.02726880  0.49661742  0.12660075  1
  O2-  O147  1  0.02455730  0.49346221  0.62642156  1
  O2-  O148  1  0.02629228  0.82636464  0.12375669  1
  O2-  O149  1  0.02358113  0.82628206  0.62567194  1
  O2-  O150  1  0.35688799  0.16302108  0.12432637  1
  O2-  O151  1  0.36138985  0.16250500  0.62410541  1
  O2-  O152  1  0.34798557  0.50235269  0.12518461  1
  O2-  O153  1  0.36249332  0.49227159  0.62447988  1
  O2-  O154  1  0.35869745  0.82260097  0.12692039  1
  O2-  O155  1  0.36401525  0.82907139  0.62447981  1
  O2-  O156  1  0.69147804  0.16189725  0.12351743  1
  O2-  O157  1  0.68950386  0.16470839  0.62802790  1
  O2-  O158  1  0.69441671  0.49375680  0.12658909  1
  O2-  O159  1  0.69222684  0.49324245  0.62453597  1
  O2-  O160  1  0.69089281  0.82828452  0.12583895  1
  O2-  O161  1  0.69268228  0.82806046  0.62435993  1
  O2-  O162  1  0.14199884  0.32895371  0.12321591  1
  O2-  O163  1  0.14027780  0.32686982  0.62510868  1
  O2-  O164  1  0.14165653  0.66076313  0.12783387  1
  O2-  O165  1  0.14043653  0.66135945  0.62465821  1
  O2-  O166  1  0.14111062  0.99288953  0.12167706  1
  O2-  O167  1  0.13813124  0.99725958  0.62715468  1
  O2-  O168  1  0.48177863  0.32736904  0.12516246  1
  O2-  O169  1  0.47565492  0.32307228  0.62331586  1
  O2-  O170  1  0.47432236  0.66535383  0.12505546  1
  O2-  O171  1  0.47571062  0.65661554  0.62394548  1
  O2-  O172  1  0.47067127  0.99122252  0.12456707  1
  O2-  O173  1  0.47748517  0.99652305  0.62429492  1
  O2-  O174  1  0.80591823  0.32504485  0.12468382  1
  O2-  O175  1  0.80597000  0.32520877  0.62727809  1
  O2-  O176  1  0.80939610  0.66071748  0.12737236  1
  O2-  O177  1  0.80838326  0.66181496  0.62285106  1
  O2-  O178  1  0.80945408  0.99399372  0.12198857  1
  O2-  O179  1  0.80632005  0.99656811  0.62713764  1
  O2-  O180  1  0.30816413  0.16766963  0.37691003  1
  O2-  O181  1  0.30794189  0.16996221  0.87513557  1
  O2-  O182  1  0.30515769  0.50378528  0.37786892  1
  O2-  O183  1  0.30496146  0.50549189  0.87273418  1
  O2-  O184  1  0.30462038  0.84246484  0.37559230  1
  O2-  O185  1  0.30917800  0.83977060  0.87242495  1
  O2-  O186  1  0.64112381  0.17156765  0.37266243  1
  O2-  O187  1  0.64571319  0.17048579  0.87575569  1
  O2-  O188  1  0.64208893  0.50504889  0.37583667  1
  O2-  O189  1  0.64103580  0.50088461  0.87384689  1
  O2-  O190  1  0.64212732  0.83538678  0.37545432  1
  O2-  O191  1  0.64244450  0.83885483  0.87459949  1
  O2-  O192  1  0.97584887  0.17309088  0.37362080  1
  O2-  O193  1  0.97097752  0.17800110  0.87559975  1
  O2-  O194  1  0.97376789  0.50350469  0.37377378  1
  O2-  O195  1  0.97371019  0.50570506  0.87273345  1
  O2-  O196  1  0.97508225  0.84036710  0.37570262  1
  O2-  O197  1  0.97416604  0.84057513  0.87430915  1
  O2-  O198  1  0.19352789  0.00472838  0.37611861  1
  O2-  O199  1  0.19494741  0.00619718  0.87459202  1
  O2-  O200  1  0.19107393  0.33950018  0.37859170  1
  O2-  O201  1  0.19152204  0.33779509  0.87302250  1
  O2-  O202  1  0.19213388  0.67603196  0.37676071  1
  O2-  O203  1  0.19446018  0.67305918  0.87027220  1
  O2-  O204  1  0.51823247  0.00544779  0.37367110  1
  O2-  O205  1  0.52526436  -0.00056422  0.87714457  1
  O2-  O206  1  0.52571834  0.34004743  0.37603955  1
  O2-  O207  1  0.52261569  0.34004359  0.87570322  1
  O2-  O208  1  0.52446338  0.67229122  0.37670567  1
  O2-  O209  1  0.51928553  0.67490042  0.87460936  1
  O2-  O210  1  0.85219642  0.00335148  0.37581948  1
  O2-  O211  1  0.86163171  0.01081428  0.87542592  1
  O2-  O212  1  0.85948330  0.33946354  0.37272509  1
  O2-  O213  1  0.86131871  0.34458368  0.87473504  1
  O2-  O214  1  0.86212516  0.67457858  0.37510453  1
  O2-  O215  1  0.84873628  0.66925123  0.87479654  1
  O2-  O216  1  0.23406470  0.09721045  0.01896710  1
  O2-  O217  1  0.24249748  0.09477826  0.52324684  1
  O2-  O218  1  0.23400613  0.43024211  0.01400948  1
  O2-  O219  1  0.24138310  0.42591073  0.52631244  1
  O2-  O220  1  0.24038229  0.76168846  0.01946480  1
  O2-  O221  1  0.23733794  0.76166358  0.52270676  1
  O2-  O222  1  0.57136340  0.09048212  0.02393547  1
  O2-  O223  1  0.57174085  0.09498227  0.51853679  1
  O2-  O224  1  0.57790087  0.42472085  0.01954657  1
  O2-  O225  1  0.56879367  0.42800915  0.52084635  1
  O2-  O226  1  0.57123148  0.76000163  0.01969389  1
  O2-  O227  1  0.57242645  0.76438488  0.52169905  1
  O2-  O228  1  0.90695231  0.09410344  0.02390095  1
  O2-  O229  1  0.90485645  0.09506417  0.51694656  1
  O2-  O230  1  0.90405485  0.42851414  0.02329962  1
  O2-  O231  1  0.90319061  0.42692400  0.52035453  1
  O2-  O232  1  0.90758683  0.75746927  0.02023930  1
  O2-  O233  1  0.90420791  0.76347365  0.52209693  1
  O2-  O234  1  0.26214918  0.26021985  0.23856054  1
  O2-  O235  1  0.25934289  0.26019495  0.72872970  1
  O2-  O236  1  0.25897745  0.59793832  0.23337729  1
  O2-  O237  1  0.26453882  0.59382370  0.72604724  1
  O2-  O238  1  0.26357678  0.93011033  0.22671379  1
  O2-  O239  1  0.26220255  0.92729101  0.72818293  1
  O2-  O240  1  0.59606521  0.26007117  0.22952137  1
  O2-  O241  1  0.59448370  0.26128513  0.73253197  1
  O2-  O242  1  0.59906210  0.59476156  0.23369466  1
  O2-  O243  1  0.59569170  0.59597695  0.72866127  1
  O2-  O244  1  0.59087887  0.92686026  0.22691809  1
  O2-  O245  1  0.60033709  0.93043798  0.73212455  1
  O2-  O246  1  0.92753463  0.26268999  0.22782987  1
  O2-  O247  1  0.92605595  0.25922563  0.72639787  1
  O2-  O248  1  0.93025666  0.59539547  0.23077827  1
  O2-  O249  1  0.92641144  0.59288342  0.72728756  1
  O2-  O250  1  0.92787272  0.92632620  0.22581038  1
  O2-  O251  1  0.92898102  0.92964550  0.72684881  1
  O2-  O252  1  0.09384474  0.24149191  0.27217114  1
  O2-  O253  1  0.09434866  0.23685421  0.76741567  1
  O2-  O254  1  0.09691932  0.56899691  0.27113795  1
  O2-  O255  1  0.09690196  0.56967345  0.76583286  1
  O2-  O256  1  0.09990182  0.90299717  0.26506783  1
  O2-  O257  1  0.09724678  0.90532958  0.76934539  1
  O2-  O258  1  0.42821377  0.23575201  0.27066354  1
  O2-  O259  1  0.42427620  0.24206424  0.76820620  1
  O2-  O260  1  0.42463172  0.57286299  0.27294747  1
  O2-  O261  1  0.42806673  0.57138656  0.77317043  1
  O2-  O262  1  0.42844597  0.90383236  0.27181849  1
  O2-  O263  1  0.42833542  0.90596403  0.77046072  1
  O2-  O264  1  0.76286174  0.23998990  0.27090453  1
  O2-  O265  1  0.76184888  0.23883198  0.77329621  1
  O2-  O266  1  0.76207210  0.57352303  0.27435356  1
  O2-  O267  1  0.76187114  0.56743021  0.76458941  1
  O2-  O268  1  0.76303012  0.90275189  0.26523950  1
  O2-  O269  1  0.76665607  0.90532637  0.77336094  1
  O2-  O270  1  0.07882291  0.07773995  0.48081330  1
  O2-  O271  1  0.06881764  0.07202474  0.97598024  1
  O2-  O272  1  0.06849947  0.40489922  0.48255466  1
  O2-  O273  1  0.06901728  0.40447979  0.97940628  1
  O2-  O274  1  0.06840515  0.73795630  0.48042709  1
  O2-  O275  1  0.07664143  0.74132744  0.98026085  1
  O2-  O276  1  0.40415586  0.06995102  0.48428535  1
  O2-  O277  1  0.40292364  0.07053109  0.98255903  1
  O2-  O278  1  0.40404831  0.40303375  0.47799673  1
  O2-  O279  1  0.40335740  0.40837465  0.98056437  1
  O2-  O280  1  0.40221682  0.73963757  0.47851746  1
  O2-  O281  1  0.40445169  0.73934402  0.97958741  1
  O2-  O282  1  0.74342402  0.07631188  0.48327539  1
  O2-  O283  1  0.73818911  0.06934521  0.98289948  1
  O2-  O284  1  0.73715947  0.40465325  0.47979963  1
  O2-  O285  1  0.73948397  0.40427619  0.97856378  1
  O2-  O286  1  0.73755145  0.73948995  0.47908549  1
  O2-  O287  1  0.74005883  0.73944902  0.98900268  1
  O2-  O288  1  0.09473843  0.24006909  0.48009431  1
  O2-  O289  1  0.09199407  0.23932839  0.97820606  1
  O2-  O290  1  0.09946401  0.56913690  0.48124565  1
  O2-  O291  1  0.09603062  0.56970217  0.98239275  1
  O2-  O292  1  0.09637931  0.90180168  0.48465499  1
  O2-  O293  1  0.09955821  0.90545844  0.98035501  1
  O2-  O294  1  0.42913647  0.23680884  0.47611714  1
  O2-  O295  1  0.42325445  0.24119213  0.98359404  1
  O2-  O296  1  0.42519419  0.57107466  0.47659369  1
  O2-  O297  1  0.42619192  0.57315612  0.97756141  1
  O2-  O298  1  0.42758828  0.90757298  0.47788501  1
  O2-  O299  1  0.42980321  0.90331295  0.97934615  1
  O2-  O300  1  0.76102952  0.23932105  0.47762624  1
  O2-  O301  1  0.76467155  0.23993732  0.97825858  1
  O2-  O302  1  0.76408901  0.57188590  0.47875500  1
  O2-  O303  1  0.76138497  0.56995050  0.98378165  1
  O2-  O304  1  0.76531572  0.90173198  0.48415448  1
  O2-  O305  1  0.76492186  0.90624611  0.97736379  1
  O2-  O306  1  0.07607649  0.07213666  0.26741825  1
  O2-  O307  1  0.07034600  0.07582491  0.77649086  1
  O2-  O308  1  0.06759036  0.40402183  0.26741622  1
  O2-  O309  1  0.06930139  0.40452217  0.77075677  1
  O2-  O310  1  0.07040481  0.73645479  0.27264641  1
  O2-  O311  1  0.07525489  0.74412208  0.76702422  1
  O2-  O312  1  0.40322108  0.07108296  0.26669605  1
  O2-  O313  1  0.40386953  0.06931107  0.76621993  1
  O2-  O314  1  0.40755237  0.40532011  0.27225747  1
  O2-  O315  1  0.40074821  0.40406346  0.76804520  1
  O2-  O316  1  0.40238856  0.74067626  0.27348029  1
  O2-  O317  1  0.40469616  0.73712193  0.76800575  1
  O2-  O318  1  0.74124631  0.07497600  0.26445010  1
  O2-  O319  1  0.73993887  0.07096311  0.77038082  1
  O2-  O320  1  0.73886783  0.40512666  0.27204681  1
  O2-  O321  1  0.73768660  0.40410410  0.77066049  1
  O2-  O322  1  0.74099547  0.73752910  0.27079584  1
  O2-  O323  1  0.73726392  0.74039370  0.76226874  1
  O2-  O324  1  0.23615355  0.09764897  0.23085711  1
  O2-  O325  1  0.23816380  0.09420661  0.72816173  1
  O2-  O326  1  0.23556897  0.42813958  0.23306752  1
  O2-  O327  1  0.23785415  0.42809571  0.72858835  1
  O2-  O328  1  0.23694759  0.76216597  0.23031803  1
  O2-  O329  1  0.24199826  0.76228492  0.72610977  1
  O2-  O330  1  0.57089037  0.09136179  0.22538048  1
  O2-  O331  1  0.57273996  0.09479649  0.73178632  1
  O2-  O332  1  0.57612130  0.42600524  0.23378791  1
  O2-  O333  1  0.57236234  0.42751265  0.72645216  1
  O2-  O334  1  0.57270046  0.76065667  0.23082616  1
  O2-  O335  1  0.56963782  0.76296615  0.72901160  1
  O2-  O336  1  0.90744359  0.09453065  0.22998021  1
  O2-  O337  1  0.90402635  0.09515752  0.72871583  1
  O2-  O338  1  0.90414628  0.42987852  0.22727329  1
  O2-  O339  1  0.90371583  0.42691494  0.72651979  1
  O2-  O340  1  0.90436384  0.76094027  0.22737547  1
  O2-  O341  1  0.90801760  0.76057102  0.73052159  1
  O2-  O342  1  0.25787961  0.26066387  0.01312538  1
  O2-  O343  1  0.26314479  0.25964716  0.52048062  1
  O2-  O344  1  0.26066871  0.59616936  0.01764942  1
  O2-  O345  1  0.26335582  0.59487551  0.52265131  1
  O2-  O346  1  0.26482092  0.92807171  0.02018825  1
  O2-  O347  1  0.26065750  0.92788775  0.52456399  1
  O2-  O348  1  0.59522627  0.25873147  0.01807689  1
  O2-  O349  1  0.59595549  0.26206366  0.52011846  1
  O2-  O350  1  0.59509553  0.59494641  0.02110953  1
  O2-  O351  1  0.59958168  0.59546989  0.51728043  1
  O2-  O352  1  0.59536314  0.92655523  0.02135758  1
  O2-  O353  1  0.59647319  0.92979808  0.52002739  1
  O2-  O354  1  0.92690274  0.26057855  0.02495818  1
  O2-  O355  1  0.92686065  0.26097456  0.52004568  1
  O2-  O356  1  0.92797887  0.59407153  0.01985053  1
  O2-  O357  1  0.92992336  0.59320157  0.52142163  1
  O2-  O358  1  0.92849094  0.92717432  0.02247074  1
  O2-  O359  1  0.92755662  0.92863323  0.52516226  1
