# generated using pymatgen
data_Sr7Ca15Pr50Mn72O216
_symmetry_space_group_name_H-M   'P 1'
_cell_length_a   16.55894250
_cell_length_b   16.60549330
_cell_length_c   15.59348760
_cell_angle_alpha   89.99923996
_cell_angle_beta   90.00870406
_cell_angle_gamma   89.99729077
_symmetry_Int_Tables_number   1
_chemical_formula_structural   Sr7Ca15Pr50Mn72O216
_chemical_formula_sum   'Sr7 Ca15 Pr50 Mn72 O216'
_cell_volume   4287.73200977
_cell_formula_units_Z   1
loop_
 _symmetry_equiv_pos_site_id
 _symmetry_equiv_pos_as_xyz
  1  'x, y, z'
loop_
 _atom_type_symbol
 _atom_type_oxidation_number
  Sr2+  2.0
  Ca2+  2.0
  Pr3+  3.0
  Mn3.30+  3.3
  O2-  -2.0
loop_
 _atom_site_type_symbol
 _atom_site_label
 _atom_site_symmetry_multiplicity
 _atom_site_fract_x
 _atom_site_fract_y
 _atom_site_fract_z
 _atom_site_occupancy
  Sr2+  Sr0  1  0.49792552  0.15730788  0.87623218  1
  Sr2+  Sr1  1  -0.00199940  0.00997709  0.12408244  1
  Sr2+  Sr2  1  0.66313642  0.67504015  0.62754217  1
  Sr2+  Sr3  1  1.00148028  0.98960693  0.37338160  1
  Sr2+  Sr4  1  0.33336456  0.01006892  0.62482378  1
  Sr2+  Sr5  1  0.33854524  0.65602656  0.37604245  1
  Sr2+  Sr6  1  0.50243073  0.17792501  0.62795082  1
  Ca2+  Ca7  1  0.49567482  0.48535062  0.37863898  1
  Ca2+  Ca8  1  0.83607289  0.51499553  0.12386685  1
  Ca2+  Ca9  1  1.00338631  0.65299959  0.87348670  1
  Ca2+  Ca10  1  0.50157835  0.48862237  0.87155293  1
  Ca2+  Ca11  1  0.82923974  0.15144781  0.87611611  1
  Ca2+  Ca12  1  0.49542063  0.81781970  0.37615077  1
  Ca2+  Ca13  1  -0.00439812  0.68183322  0.62846840  1
  Ca2+  Ca14  1  0.65677069  0.35162742  0.62593267  1
  Ca2+  Ca15  1  1.00411161  0.98413343  0.87661166  1
  Ca2+  Ca16  1  0.66937010  0.65082047  0.87322567  1
  Ca2+  Ca17  1  0.50472195  0.51350748  0.62364146  1
  Ca2+  Ca18  1  0.50384324  0.18325233  0.12322344  1
  Ca2+  Ca19  1  0.33876958  0.32032982  0.37553968  1
  Ca2+  Ca20  1  0.50255302  0.84612671  0.12548956  1
  Ca2+  Ca21  1  0.16073865  0.81713829  0.87471346  1
  Pr3+  Pr22  1  0.16914562  0.84650360  0.12321346  1
  Pr3+  Pr23  1  0.33192921  0.68002472  0.12502404  1
  Pr3+  Pr24  1  0.50310232  0.84363021  0.62393552  1
  Pr3+  Pr25  1  -0.00222952  0.01111017  0.62592515  1
  Pr3+  Pr26  1  0.82919590  0.15270969  0.37517586  1
  Pr3+  Pr27  1  0.83098923  0.81857830  0.87657649  1
  Pr3+  Pr28  1  0.17238514  0.17711020  0.62471062  1
  Pr3+  Pr29  1  0.66265000  0.01167135  0.62636263  1
  Pr3+  Pr30  1  0.83734302  0.17906902  0.12337539  1
  Pr3+  Pr31  1  1.00205051  0.32088911  0.37589711  1
  Pr3+  Pr32  1  0.83656768  0.84715969  0.12370681  1
  Pr3+  Pr33  1  0.82875791  0.48891011  0.37548860  1
  Pr3+  Pr34  1  0.82942513  0.49154250  0.87390132  1
  Pr3+  Pr35  1  -0.00583138  0.34802122  0.12495307  1
  Pr3+  Pr36  1  -0.00363889  0.67909631  0.12196629  1
  Pr3+  Pr37  1  0.33623687  0.65233687  0.87519712  1
  Pr3+  Pr38  1  0.66173971  0.01517435  0.12328887  1
  Pr3+  Pr39  1  0.33791968  0.32168392  0.87492624  1
  Pr3+  Pr40  1  0.16345324  0.15184709  0.87467022  1
  Pr3+  Pr41  1  0.16621677  0.17667391  0.12527041  1
  Pr3+  Pr42  1  0.83164595  0.82175202  0.37310713  1
  Pr3+  Pr43  1  0.33841024  0.98445230  0.37612349  1
  Pr3+  Pr44  1  0.17090877  0.51326018  0.12412418  1
  Pr3+  Pr45  1  0.33471256  0.67678322  0.62549171  1
  Pr3+  Pr46  1  0.17055966  0.51405551  0.62619662  1
  Pr3+  Pr47  1  0.66838658  0.99053637  0.87389627  1
  Pr3+  Pr48  1  0.16700354  0.48707647  0.37524523  1
  Pr3+  Pr49  1  0.66368865  0.34647964  0.12428501  1
  Pr3+  Pr50  1  0.16255652  0.48731435  0.87474727  1
  Pr3+  Pr51  1  0.66789084  0.98656673  0.37541761  1
  Pr3+  Pr52  1  0.66642184  0.32224129  0.37682084  1
  Pr3+  Pr53  1  0.16516218  0.82207162  0.37524182  1
  Pr3+  Pr54  1  0.66869548  0.32026352  0.87345530  1
  Pr3+  Pr55  1  0.83253842  0.51663145  0.62484651  1
  Pr3+  Pr56  1  0.99983729  0.32038277  0.87434489  1
  Pr3+  Pr57  1  0.33729163  0.98667315  0.87352602  1
  Pr3+  Pr58  1  0.66514501  0.65515763  0.37587367  1
  Pr3+  Pr59  1  0.33451112  0.34497344  0.62476501  1
  Pr3+  Pr60  1  0.33428353  0.34398954  0.12582002  1
  Pr3+  Pr61  1  0.83574692  0.84303431  0.62630171  1
  Pr3+  Pr62  1  1.00438928  0.65539620  0.37606247  1
  Pr3+  Pr63  1  0.66412575  0.68139083  0.12261248  1
  Pr3+  Pr64  1  0.83361936  0.18033232  0.62682899  1
  Pr3+  Pr65  1  0.16896030  0.84503870  0.62677863  1
  Pr3+  Pr66  1  0.50305627  0.51183163  0.12544187  1
  Pr3+  Pr67  1  -0.00299868  0.34660107  0.62527632  1
  Pr3+  Pr68  1  0.33260367  0.01223116  0.12450899  1
  Pr3+  Pr69  1  0.16653346  0.15382889  0.37493470  1
  Pr3+  Pr70  1  0.49920686  0.82124872  0.87527653  1
  Pr3+  Pr71  1  0.49577435  0.15625229  0.37407815  1
  Mn3.30+  Mn72  1  0.16590464  -0.00175343  -0.00160556  1
  Mn3.30+  Mn73  1  0.16721223  -0.00062441  0.49999531  1
  Mn3.30+  Mn74  1  0.16554017  0.33241897  0.00094304  1
  Mn3.30+  Mn75  1  0.16874439  0.33356796  0.49890638  1
  Mn3.30+  Mn76  1  0.16492600  0.66732401  -0.00250325  1
  Mn3.30+  Mn77  1  0.16704955  0.66652747  0.50179622  1
  Mn3.30+  Mn78  1  0.49966620  0.00040582  0.00137228  1
  Mn3.30+  Mn79  1  0.50072606  0.00005783  0.49947288  1
  Mn3.30+  Mn80  1  0.50079374  0.33492120  -0.00081265  1
  Mn3.30+  Mn81  1  0.49962307  0.33489597  0.50074216  1
  Mn3.30+  Mn82  1  0.50168028  0.66614031  -0.00151614  1
  Mn3.30+  Mn83  1  0.50045091  0.66474926  0.50004091  1
  Mn3.30+  Mn84  1  0.83504155  0.00083620  -0.00298851  1
  Mn3.30+  Mn85  1  0.83231336  -0.00088174  0.50097282  1
  Mn3.30+  Mn86  1  0.83251334  0.33479451  -0.00128690  1
  Mn3.30+  Mn87  1  0.83007243  0.33459032  0.50260150  1
  Mn3.30+  Mn88  1  0.83252202  0.66501620  -0.00134648  1
  Mn3.30+  Mn89  1  0.83436694  0.66820065  0.50060183  1
  Mn3.30+  Mn90  1  -0.00028706  0.16664359  0.24996533  1
  Mn3.30+  Mn91  1  -0.00145502  0.16463263  0.75164756  1
  Mn3.30+  Mn92  1  -0.00110572  0.50061190  0.25002963  1
  Mn3.30+  Mn93  1  -0.00122491  0.50285816  0.74895771  1
  Mn3.30+  Mn94  1  -0.00005751  0.83345614  0.24942138  1
  Mn3.30+  Mn95  1  0.00153064  0.83200341  0.75244746  1
  Mn3.30+  Mn96  1  0.33532834  0.16762260  0.24872031  1
  Mn3.30+  Mn97  1  0.33407473  0.16643136  0.74983887  1
  Mn3.30+  Mn98  1  0.33654180  0.49940079  0.25259363  1
  Mn3.30+  Mn99  1  0.33654755  0.49978339  0.74964134  1
  Mn3.30+  Mn100  1  0.33768622  0.83260288  0.24867003  1
  Mn3.30+  Mn101  1  0.33131783  0.83192660  0.75224074  1
  Mn3.30+  Mn102  1  0.66440132  0.16795460  0.24876155  1
  Mn3.30+  Mn103  1  0.66801785  0.16788857  0.75108070  1
  Mn3.30+  Mn104  1  0.66637722  0.50110241  0.24966159  1
  Mn3.30+  Mn105  1  0.66331605  0.50017208  0.75058933  1
  Mn3.30+  Mn106  1  0.66280784  0.83356128  0.24971349  1
  Mn3.30+  Mn107  1  0.66735456  0.83086845  0.75110609  1
  Mn3.30+  Mn108  1  0.16776922  -0.00021278  0.24884443  1
  Mn3.30+  Mn109  1  0.16552095  -0.00253035  0.75243560  1
  Mn3.30+  Mn110  1  0.16785396  0.33334215  0.25040107  1
  Mn3.30+  Mn111  1  0.16623881  0.33278191  0.74992667  1
  Mn3.30+  Mn112  1  0.16799808  0.66659672  0.25034656  1
  Mn3.30+  Mn113  1  0.16397333  0.66738917  0.75036181  1
  Mn3.30+  Mn114  1  0.50019205  -0.00086855  0.24873436  1
  Mn3.30+  Mn115  1  0.50043037  0.00052669  0.75079615  1
  Mn3.30+  Mn116  1  0.49905597  0.33439075  0.25094010  1
  Mn3.30+  Mn117  1  0.50159751  0.33570495  0.74944123  1
  Mn3.30+  Mn118  1  0.49977181  0.66755525  0.24919726  1
  Mn3.30+  Mn119  1  0.50222534  0.66363500  0.75302105  1
  Mn3.30+  Mn120  1  0.83207709  -0.00006830  0.24947207  1
  Mn3.30+  Mn121  1  0.83546812  0.00000437  0.75261983  1
  Mn3.30+  Mn122  1  0.83231333  0.33488453  0.25062699  1
  Mn3.30+  Mn123  1  0.83038423  0.33442994  0.74806286  1
  Mn3.30+  Mn124  1  0.83288087  0.66561523  0.24898494  1
  Mn3.30+  Mn125  1  0.83431165  0.66748243  0.75099889  1
  Mn3.30+  Mn126  1  -0.00224767  0.16481766  -0.00273888  1
  Mn3.30+  Mn127  1  0.00050692  0.16624304  0.50123587  1
  Mn3.30+  Mn128  1  -0.00200075  0.50130504  -0.00062664  1
  Mn3.30+  Mn129  1  -0.00026476  0.50185345  0.50128578  1
  Mn3.30+  Mn130  1  0.00104238  0.83314985  -0.00324315  1
  Mn3.30+  Mn131  1  0.00034008  0.83262923  0.50096215  1
  Mn3.30+  Mn132  1  0.33479249  0.16666010  0.00156824  1
  Mn3.30+  Mn133  1  0.33473145  0.16791469  0.49993014  1
  Mn3.30+  Mn134  1  0.33543746  0.49962095  -0.00099585  1
  Mn3.30+  Mn135  1  0.33759799  0.49917173  0.49989528  1
  Mn3.30+  Mn136  1  0.33316377  0.83289292  -0.00097728  1
  Mn3.30+  Mn137  1  0.33492824  0.83151978  0.50065786  1
  Mn3.30+  Mn138  1  0.66735317  0.16742271  -0.00106341  1
  Mn3.30+  Mn139  1  0.66447801  0.16888727  0.50159864  1
  Mn3.30+  Mn140  1  0.66764780  0.50149960  -0.00017048  1
  Mn3.30+  Mn141  1  0.66189705  0.49997507  0.49975189  1
  Mn3.30+  Mn142  1  0.66538832  0.83366649  -0.00018199  1
  Mn3.30+  Mn143  1  0.66527109  0.83137127  0.49907601  1
  O2-  O144  1  0.02104250  0.16754752  0.12354296  1
  O2-  O145  1  0.02762123  0.16069187  0.62686741  1
  O2-  O146  1  0.02722908  0.49414784  0.12647306  1
  O2-  O147  1  0.02714324  0.49219631  0.62493750  1
  O2-  O148  1  0.02395128  0.82655903  0.12223645  1
  O2-  O149  1  0.02435677  0.82744663  0.62682519  1
  O2-  O150  1  0.36205405  0.15988414  0.12494834  1
  O2-  O151  1  0.35116592  0.16594844  0.62427625  1
  O2-  O152  1  0.35819360  0.49375844  0.12589676  1
  O2-  O153  1  0.36089871  0.49433523  0.62587370  1
  O2-  O154  1  0.35983302  0.82833537  0.12347638  1
  O2-  O155  1  0.35809466  0.82682762  0.62838607  1
  O2-  O156  1  0.69374010  0.16404645  0.12376893  1
  O2-  O157  1  0.69128976  0.15887390  0.62657329  1
  O2-  O158  1  0.69487190  0.49381859  0.12588631  1
  O2-  O159  1  0.68916240  0.49571401  0.62433895  1
  O2-  O160  1  0.69331026  0.82996006  0.12376468  1
  O2-  O161  1  0.69128785  0.83125218  0.62668829  1
  O2-  O162  1  0.13770056  0.32701999  0.12594618  1
  O2-  O163  1  0.14041372  0.32589344  0.62509083  1
  O2-  O164  1  0.14139605  0.66089684  0.12361102  1
  O2-  O165  1  0.13823596  0.66033970  0.62589169  1
  O2-  O166  1  0.14774777  0.99549480  0.12358638  1
  O2-  O167  1  0.14231231  0.99507101  0.62756628  1
  O2-  O168  1  0.47898459  0.33165011  0.12516750  1
  O2-  O169  1  0.47686394  0.33012990  0.62487244  1
  O2-  O170  1  0.47446804  0.65720547  0.12266942  1
  O2-  O171  1  0.47798890  0.65990000  0.63068167  1
  O2-  O172  1  0.47448728  0.98902289  0.12567557  1
  O2-  O173  1  0.48334973  0.99205369  0.62636139  1
  O2-  O174  1  0.80751307  0.32512555  0.12545552  1
  O2-  O175  1  0.80188863  0.32715064  0.62467178  1
  O2-  O176  1  0.80835060  0.66104630  0.12539631  1
  O2-  O177  1  0.81257943  0.66738576  0.62561863  1
  O2-  O178  1  0.80750955  0.99587837  0.12393280  1
  O2-  O179  1  0.80714936  0.99197296  0.62596845  1
  O2-  O180  1  0.30977237  0.17338410  0.37317216  1
  O2-  O181  1  0.30837848  0.17283614  0.87717090  1
  O2-  O182  1  0.30845344  0.50404190  0.37487409  1
  O2-  O183  1  0.30601326  0.50296619  0.87426516  1
  O2-  O184  1  0.30936384  0.83567978  0.37374077  1
  O2-  O185  1  0.30467763  0.83786485  0.87474658  1
  O2-  O186  1  0.64076364  0.17291610  0.37469032  1
  O2-  O187  1  0.64693713  0.17046766  0.87515913  1
  O2-  O188  1  0.63978103  0.50652512  0.37293828  1
  O2-  O189  1  0.64359689  0.50496481  0.87653417  1
  O2-  O190  1  0.63795102  0.83920475  0.37248317  1
  O2-  O191  1  0.64220889  0.84284177  0.87598653  1
  O2-  O192  1  0.97366248  0.17317188  0.37643556  1
  O2-  O193  1  0.97122893  0.17511383  0.87357749  1
  O2-  O194  1  0.97317058  0.50695953  0.37616931  1
  O2-  O195  1  0.97442193  0.50505715  0.87214755  1
  O2-  O196  1  0.97693835  0.83306987  0.37559482  1
  O2-  O197  1  0.97421092  0.84140064  0.87461345  1
  O2-  O198  1  0.19229871  0.00333009  0.37236049  1
  O2-  O199  1  0.19456141  0.00643692  0.87599402  1
  O2-  O200  1  0.19481831  0.33980390  0.37356882  1
  O2-  O201  1  0.19177126  0.33851382  0.87556566  1
  O2-  O202  1  0.18778833  0.67390694  0.37610487  1
  O2-  O203  1  0.19244737  0.66998631  0.87439103  1
  O2-  O204  1  0.52537186  0.00956747  0.37257447  1
  O2-  O205  1  0.52299704  0.00037975  0.87609579  1
  O2-  O206  1  0.52352012  0.33807615  0.37546771  1
  O2-  O207  1  0.52377450  0.34150887  0.87481320  1
  O2-  O208  1  0.52303466  0.67616611  0.37002002  1
  O2-  O209  1  0.52824410  0.67595550  0.87723553  1
  O2-  O210  1  0.85129404  0.00447281  0.37592789  1
  O2-  O211  1  0.86190019  0.00696644  0.87369907  1
  O2-  O212  1  0.85861011  0.34048847  0.37761079  1
  O2-  O213  1  0.85848811  0.34537466  0.87216056  1
  O2-  O214  1  0.86004347  0.67227546  0.37381081  1
  O2-  O215  1  0.86101019  0.66873438  0.87447142  1
  O2-  O216  1  0.23858478  0.09512804  0.02042660  1
  O2-  O217  1  0.23782758  0.09645125  0.51401874  1
  O2-  O218  1  0.23728365  0.42571946  0.02133223  1
  O2-  O219  1  0.23840951  0.42869676  0.52181575  1
  O2-  O220  1  0.24030399  0.76000742  0.02255116  1
  O2-  O221  1  0.23856346  0.75877229  0.52225331  1
  O2-  O222  1  0.57095448  0.09422136  0.02322818  1
  O2-  O223  1  0.57471363  0.09384081  0.51743535  1
  O2-  O224  1  0.57571712  0.42853542  0.02186736  1
  O2-  O225  1  0.56821130  0.43039233  0.51808175  1
  O2-  O226  1  0.56954976  0.76263121  0.02214499  1
  O2-  O227  1  0.57238835  0.76262640  0.51808641  1
  O2-  O228  1  0.90268291  0.09624631  0.01881560  1
  O2-  O229  1  0.90452956  0.09418493  0.52182711  1
  O2-  O230  1  0.90371464  0.42972032  0.02181326  1
  O2-  O231  1  0.90360203  0.42834957  0.52244158  1
  O2-  O232  1  0.90185090  0.75975324  0.01939039  1
  O2-  O233  1  0.90449061  0.76417648  0.51705765  1
  O2-  O234  1  0.25972160  0.25737871  0.22415608  1
  O2-  O235  1  0.25919262  0.26138718  0.73080479  1
  O2-  O236  1  0.26131670  0.59244662  0.22749575  1
  O2-  O237  1  0.26254381  0.59308639  0.72963317  1
  O2-  O238  1  0.26469402  0.92641293  0.23009668  1
  O2-  O239  1  0.25903977  0.92558697  0.73125523  1
  O2-  O240  1  0.59801017  0.26374063  0.23256698  1
  O2-  O241  1  0.59860716  0.26596489  0.73507670  1
  O2-  O242  1  0.59638248  0.59679083  0.22739518  1
  O2-  O243  1  0.59471693  0.59327931  0.73687222  1
  O2-  O244  1  0.59776284  0.93222323  0.23114017  1
  O2-  O245  1  0.59560029  0.92539669  0.73200499  1
  O2-  O246  1  0.92751005  0.26346339  0.23175085  1
  O2-  O247  1  0.92647927  0.26341630  0.72711053  1
  O2-  O248  1  0.93204005  0.59512740  0.23111089  1
  O2-  O249  1  0.92717475  0.59476939  0.72582049  1
  O2-  O250  1  0.92335231  0.92321676  0.23186179  1
  O2-  O251  1  0.92799942  0.92662605  0.72737142  1
  O2-  O252  1  0.09464726  0.24120742  0.27256520  1
  O2-  O253  1  0.09248172  0.23693763  0.77148847  1
  O2-  O254  1  0.09547478  0.57097133  0.27116817  1
  O2-  O255  1  0.09838538  0.57031234  0.76895320  1
  O2-  O256  1  0.09780912  0.90289624  0.26511281  1
  O2-  O257  1  0.09746462  0.90043585  0.76870313  1
  O2-  O258  1  0.42843196  0.23745414  0.26719883  1
  O2-  O259  1  0.42502743  0.24479007  0.76911979  1
  O2-  O260  1  0.43303370  0.56634062  0.26670588  1
  O2-  O261  1  0.42694058  0.57377750  0.77669355  1
  O2-  O262  1  0.42896190  0.90523832  0.27478309  1
  O2-  O263  1  0.42683050  0.90458570  0.77064279  1
  O2-  O264  1  0.76145710  0.23920348  0.27221393  1
  O2-  O265  1  0.76473438  0.23760674  0.77164299  1
  O2-  O266  1  0.75949870  0.57433530  0.27391022  1
  O2-  O267  1  0.76328659  0.57077154  0.76446491  1
  O2-  O268  1  0.75865609  0.90521493  0.26972163  1
  O2-  O269  1  0.76302569  0.90620692  0.77247293  1
  O2-  O270  1  0.07430754  0.07429645  0.48223588  1
  O2-  O271  1  0.07418967  0.07126899  0.97705842  1
  O2-  O272  1  0.07191323  0.40623229  0.47891661  1
  O2-  O273  1  0.06873762  0.40551212  0.97916093  1
  O2-  O274  1  0.07347613  0.74043623  0.47971143  1
  O2-  O275  1  0.06844155  0.73503992  0.98014622  1
  O2-  O276  1  0.40606009  0.07376794  0.47756380  1
  O2-  O277  1  0.40200692  0.06829292  0.98331744  1
  O2-  O278  1  0.40067511  0.40024359  0.48238110  1
  O2-  O279  1  0.40284662  0.40483895  0.98344175  1
  O2-  O280  1  0.40668328  0.73729099  0.48979016  1
  O2-  O281  1  0.40372109  0.73788503  0.97844063  1
  O2-  O282  1  0.73750724  0.07362069  0.48094813  1
  O2-  O283  1  0.73781475  0.07014032  0.98169144  1
  O2-  O284  1  0.73677587  0.41003173  0.47668972  1
  O2-  O285  1  0.73862632  0.40520563  0.97890633  1
  O2-  O286  1  0.73982089  0.74189357  0.47430296  1
  O2-  O287  1  0.73790228  0.73709092  0.97912493  1
  O2-  O288  1  0.09521270  0.24024473  0.47794095  1
  O2-  O289  1  0.09332814  0.23840741  0.97872955  1
  O2-  O290  1  0.09719620  0.57230406  0.47832723  1
  O2-  O291  1  0.09643589  0.56839672  0.98192669  1
  O2-  O292  1  0.09547821  0.90256858  0.48401640  1
  O2-  O293  1  0.10006650  0.90230045  0.98155919  1
  O2-  O294  1  0.42948985  0.23858418  0.48069864  1
  O2-  O295  1  0.42324106  0.24299319  0.98292443  1
  O2-  O296  1  0.42961988  0.56797844  0.48230998  1
  O2-  O297  1  0.43095213  0.57176575  0.97727361  1
  O2-  O298  1  0.42851942  0.90545535  0.48001186  1
  O2-  O299  1  0.42558347  0.90530294  0.97656013  1
  O2-  O300  1  0.76132475  0.23827400  0.47870943  1
  O2-  O301  1  0.76439031  0.24008464  0.97797242  1
  O2-  O302  1  0.76197952  0.57317468  0.48143200  1
  O2-  O303  1  0.76215019  0.57174167  0.97998686  1
  O2-  O304  1  0.75963937  0.90423639  0.47874147  1
  O2-  O305  1  0.76209617  0.90703388  0.97838574  1
  O2-  O306  1  0.07696264  0.07821355  0.26737358  1
  O2-  O307  1  0.07092012  0.06732713  0.77326905  1
  O2-  O308  1  0.06937204  0.40712752  0.27260879  1
  O2-  O309  1  0.07125877  0.40447288  0.77007109  1
  O2-  O310  1  0.07200698  0.73842777  0.26815224  1
  O2-  O311  1  0.06939242  0.73691190  0.77181228  1
  O2-  O312  1  0.40433875  0.07007648  0.27070409  1
  O2-  O313  1  0.40500056  0.07204356  0.76822855  1
  O2-  O314  1  0.40116370  0.40136365  0.26708472  1
  O2-  O315  1  0.40235085  0.40418050  0.76827129  1
  O2-  O316  1  0.40475579  0.73669932  0.26177746  1
  O2-  O317  1  0.40499305  0.73770598  0.77201220  1
  O2-  O318  1  0.73497133  0.07364603  0.26934473  1
  O2-  O319  1  0.74116360  0.07040218  0.76797152  1
  O2-  O320  1  0.73838743  0.40618913  0.27249325  1
  O2-  O321  1  0.73746211  0.40777465  0.77162289  1
  O2-  O322  1  0.73702909  0.74098435  0.27012281  1
  O2-  O323  1  0.73993255  0.73980556  0.77559144  1
  O2-  O324  1  0.24151025  0.09493888  0.22926766  1
  O2-  O325  1  0.23380264  0.09585255  0.73554739  1
  O2-  O326  1  0.23740867  0.42723047  0.22790998  1
  O2-  O327  1  0.23908092  0.42774575  0.72877785  1
  O2-  O328  1  0.23929132  0.76152755  0.22828207  1
  O2-  O329  1  0.23895223  0.75670749  0.72668459  1
  O2-  O330  1  0.56933086  0.09695626  0.22611306  1
  O2-  O331  1  0.57884004  0.09029400  0.73409698  1
  O2-  O332  1  0.57478971  0.42810935  0.22822561  1
  O2-  O333  1  0.56918484  0.43092993  0.73056963  1
  O2-  O334  1  0.57360944  0.76171990  0.22323539  1
  O2-  O335  1  0.56812628  0.76341431  0.73412503  1
  O2-  O336  1  0.90171845  0.09696221  0.23448105  1
  O2-  O337  1  0.90657076  0.09319487  0.72384268  1
  O2-  O338  1  0.90404903  0.43010101  0.22916179  1
  O2-  O339  1  0.90304225  0.42805021  0.72543432  1
  O2-  O340  1  0.90449604  0.75991889  0.22828933  1
  O2-  O341  1  0.90340523  0.76483284  0.73443729  1
  O2-  O342  1  0.25945954  0.25877883  0.02358456  1
  O2-  O343  1  0.26040741  0.26016887  0.52106327  1
  O2-  O344  1  0.26296038  0.59339179  0.01929122  1
  O2-  O345  1  0.26088540  0.59223848  0.52411925  1
  O2-  O346  1  0.26326435  0.92800786  0.02087536  1
  O2-  O347  1  0.25928282  0.92398436  0.51619710  1
  O2-  O348  1  0.59732412  0.26390375  0.01591822  1
  O2-  O349  1  0.59840756  0.26636093  0.51670092  1
  O2-  O350  1  0.59611189  0.59348791  0.02389189  1
  O2-  O351  1  0.59631844  0.59642764  0.51222394  1
  O2-  O352  1  0.59524190  0.93096239  0.01807818  1
  O2-  O353  1  0.59693215  0.92741853  0.51822884  1
  O2-  O354  1  0.92696959  0.26560316  0.01854333  1
  O2-  O355  1  0.92802829  0.26068495  0.52244673  1
  O2-  O356  1  0.92883915  0.59408190  0.02030808  1
  O2-  O357  1  0.93033277  0.59596150  0.52130286  1
  O2-  O358  1  0.92420890  0.92450194  0.01853381  1
  O2-  O359  1  0.92752768  0.92570178  0.52223844  1
