# generated using pymatgen
data_Sr7Ca15Pr50Mn72O216
_symmetry_space_group_name_H-M   'P 1'
_cell_length_a   16.55894058
_cell_length_b   16.60542705
_cell_length_c   15.59091782
_cell_angle_alpha   90.01331164
_cell_angle_beta   90.00448369
_cell_angle_gamma   89.99377441
_symmetry_Int_Tables_number   1
_chemical_formula_structural   Sr7Ca15Pr50Mn72O216
_chemical_formula_sum   'Sr7 Ca15 Pr50 Mn72 O216'
_cell_volume   4287.00770159
_cell_formula_units_Z   1
loop_
 _symmetry_equiv_pos_site_id
 _symmetry_equiv_pos_as_xyz
  1  'x, y, z'
loop_
 _atom_type_symbol
 _atom_type_oxidation_number
  Sr2+  2.0
  Ca2+  2.0
  Pr3+  3.0
  Mn3.30+  3.3
  O2-  -2.0
loop_
 _atom_site_type_symbol
 _atom_site_label
 _atom_site_symmetry_multiplicity
 _atom_site_fract_x
 _atom_site_fract_y
 _atom_site_fract_z
 _atom_site_occupancy
  Sr2+  Sr0  1  0.16964639  0.82438694  0.87589031  1
  Sr2+  Sr1  1  0.33563789  0.65818540  0.37758693  1
  Sr2+  Sr2  1  0.83302452  0.49268525  0.87524055  1
  Sr2+  Sr3  1  0.33368208  0.00800273  0.12277646  1
  Sr2+  Sr4  1  -0.00041677  0.34214307  0.12485222  1
  Sr2+  Sr5  1  0.99959671  0.65962240  0.87525801  1
  Sr2+  Sr6  1  0.16771208  0.84108241  0.62796711  1
  Ca2+  Ca7  1  0.33627716  0.31629891  0.37505373  1
  Ca2+  Ca8  1  1.00302111  0.32398417  0.87501671  1
  Ca2+  Ca9  1  0.33698418  0.98600946  0.87633957  1
  Ca2+  Ca10  1  0.66274612  0.68140870  0.62985743  1
  Ca2+  Ca11  1  0.33824696  0.64963859  0.87274119  1
  Ca2+  Ca12  1  0.67162569  0.65148968  0.87342560  1
  Ca2+  Ca13  1  1.00575166  0.31484157  0.37489707  1
  Ca2+  Ca14  1  0.82592218  0.81500694  0.87522021  1
  Ca2+  Ca15  1  0.16544664  0.15308910  0.37332313  1
  Ca2+  Ca16  1  0.49895045  0.48968184  0.87278809  1
  Ca2+  Ca17  1  0.50563956  0.51912520  0.62716912  1
  Ca2+  Ca18  1  0.65915959  0.01534605  0.12491809  1
  Ca2+  Ca19  1  0.49452214  0.14825502  0.87578826  1
  Ca2+  Ca20  1  0.66986531  0.98542906  0.37250984  1
  Ca2+  Ca21  1  0.50491115  0.85292744  0.12351510  1
  Pr3+  Pr22  1  0.17016127  0.17809670  0.62434769  1
  Pr3+  Pr23  1  0.83253831  0.16055719  0.87600404  1
  Pr3+  Pr24  1  1.00177326  0.98726535  0.87631429  1
  Pr3+  Pr25  1  0.66374483  0.34583274  0.12470583  1
  Pr3+  Pr26  1  0.16996975  0.51382433  0.62579718  1
  Pr3+  Pr27  1  0.83639580  0.17951253  0.62531444  1
  Pr3+  Pr28  1  0.66854879  0.65524954  0.37574561  1
  Pr3+  Pr29  1  0.33336836  0.67918511  0.62731221  1
  Pr3+  Pr30  1  0.66846896  0.32085209  0.37535898  1
  Pr3+  Pr31  1  0.16936605  0.51099926  0.12455352  1
  Pr3+  Pr32  1  0.17151874  0.18020304  0.12661090  1
  Pr3+  Pr33  1  0.82885249  0.82312480  0.37389995  1
  Pr3+  Pr34  1  0.83473699  0.51595234  0.62626100  1
  Pr3+  Pr35  1  0.33233308  0.67893782  0.12283897  1
  Pr3+  Pr36  1  0.49704016  0.15303423  0.37566589  1
  Pr3+  Pr37  1  0.32946572  0.00907194  0.62747268  1
  Pr3+  Pr38  1  0.83501363  0.84495802  0.62848723  1
  Pr3+  Pr39  1  1.00494200  0.65479700  0.37527034  1
  Pr3+  Pr40  1  0.49837624  0.82114594  0.37291361  1
  Pr3+  Pr41  1  0.33104949  0.34739123  0.62398384  1
  Pr3+  Pr42  1  -0.00250212  0.67781180  0.12158456  1
  Pr3+  Pr43  1  -0.00205553  0.01375248  0.12292856  1
  Pr3+  Pr44  1  0.66151227  0.68228561  0.12170802  1
  Pr3+  Pr45  1  0.66304057  0.01217298  0.62509191  1
  Pr3+  Pr46  1  -0.00123839  0.01096412  0.62674670  1
  Pr3+  Pr47  1  -0.00181260  0.68113348  0.62854887  1
  Pr3+  Pr48  1  0.16413887  0.15523228  0.87608073  1
  Pr3+  Pr49  1  0.33920615  0.31945332  0.87476169  1
  Pr3+  Pr50  1  0.33407541  0.98836874  0.37316367  1
  Pr3+  Pr51  1  0.16932646  0.84502525  0.12226881  1
  Pr3+  Pr52  1  0.49267610  0.48620815  0.37665005  1
  Pr3+  Pr53  1  0.66890359  0.98715133  0.87643293  1
  Pr3+  Pr54  1  0.66681402  0.32529858  0.87437758  1
  Pr3+  Pr55  1  0.83362137  0.17922981  0.12421524  1
  Pr3+  Pr56  1  1.00322592  0.98897260  0.37372092  1
  Pr3+  Pr57  1  0.16583624  0.48450162  0.37657239  1
  Pr3+  Pr58  1  0.32915793  0.34514824  0.12577830  1
  Pr3+  Pr59  1  0.16248334  0.49036708  0.87425915  1
  Pr3+  Pr60  1  -0.00257824  0.34644041  0.62462493  1
  Pr3+  Pr61  1  0.83427557  0.84726377  0.12128298  1
  Pr3+  Pr62  1  0.66236689  0.35036975  0.62513337  1
  Pr3+  Pr63  1  0.49447456  0.81829164  0.87700090  1
  Pr3+  Pr64  1  0.16611831  0.82195262  0.37374552  1
  Pr3+  Pr65  1  0.82987410  0.15218937  0.37414889  1
  Pr3+  Pr66  1  0.50154478  0.17631356  0.12303041  1
  Pr3+  Pr67  1  0.83593476  0.51211404  0.12366534  1
  Pr3+  Pr68  1  0.50324095  0.84372684  0.62563962  1
  Pr3+  Pr69  1  0.83214461  0.48596727  0.37496233  1
  Pr3+  Pr70  1  0.50148945  0.17971164  0.62743895  1
  Pr3+  Pr71  1  0.50148478  0.51194210  0.12308478  1
  Mn3.30+  Mn72  1  0.16860064  0.00018470  -0.00115073  1
  Mn3.30+  Mn73  1  0.16653579  -0.00030233  0.50020318  1
  Mn3.30+  Mn74  1  0.16674067  0.33431091  -0.00086037  1
  Mn3.30+  Mn75  1  0.16681813  0.33050323  0.49752640  1
  Mn3.30+  Mn76  1  0.16801011  0.66623751  -0.00242251  1
  Mn3.30+  Mn77  1  0.16839744  0.66688421  0.50036072  1
  Mn3.30+  Mn78  1  0.50064118  0.00022224  0.00008356  1
  Mn3.30+  Mn79  1  0.50107786  -0.00068203  0.49884934  1
  Mn3.30+  Mn80  1  0.49896981  0.33321677  -0.00168474  1
  Mn3.30+  Mn81  1  0.49814056  0.33445036  0.50072457  1
  Mn3.30+  Mn82  1  0.49978901  0.66543572  -0.00306748  1
  Mn3.30+  Mn83  1  0.50290859  0.66644441  0.50196584  1
  Mn3.30+  Mn84  1  0.83015558  0.00059465  -0.00023265  1
  Mn3.30+  Mn85  1  0.83159561  -0.00024373  0.49962098  1
  Mn3.30+  Mn86  1  0.83414883  0.33521704  -0.00169696  1
  Mn3.30+  Mn87  1  0.83460176  0.33311381  0.49902051  1
  Mn3.30+  Mn88  1  0.82935177  0.66701794  -0.00198563  1
  Mn3.30+  Mn89  1  0.83246152  0.66824971  0.50082838  1
  Mn3.30+  Mn90  1  0.00061942  0.16729880  0.25092799  1
  Mn3.30+  Mn91  1  0.00080363  0.16878897  0.75085205  1
  Mn3.30+  Mn92  1  0.00063911  0.49760233  0.25041221  1
  Mn3.30+  Mn93  1  0.00001382  0.50057177  0.75134806  1
  Mn3.30+  Mn94  1  -0.00136348  0.83375056  0.24798592  1
  Mn3.30+  Mn95  1  -0.00089792  0.83336626  0.75334174  1
  Mn3.30+  Mn96  1  0.33316281  0.16612812  0.25156092  1
  Mn3.30+  Mn97  1  0.33533381  0.16447992  0.75143572  1
  Mn3.30+  Mn98  1  0.33364349  0.49938758  0.25223058  1
  Mn3.30+  Mn99  1  0.33736963  0.50058678  0.74973021  1
  Mn3.30+  Mn100  1  0.33565196  0.83330905  0.24681836  1
  Mn3.30+  Mn101  1  0.33477064  0.83234514  0.75340355  1
  Mn3.30+  Mn102  1  0.66575147  0.16480433  0.25012015  1
  Mn3.30+  Mn103  1  0.66454506  0.16784915  0.75184566  1
  Mn3.30+  Mn104  1  0.66537300  0.50055499  0.25072558  1
  Mn3.30+  Mn105  1  0.66417670  0.50363653  0.75026158  1
  Mn3.30+  Mn106  1  0.66474310  0.83682734  0.24774028  1
  Mn3.30+  Mn107  1  0.66660947  0.83139426  0.75247286  1
  Mn3.30+  Mn108  1  0.16711655  0.00106297  0.24897467  1
  Mn3.30+  Mn109  1  0.16775517  -0.00111978  0.75215152  1
  Mn3.30+  Mn110  1  0.16681682  0.33142269  0.25385661  1
  Mn3.30+  Mn111  1  0.16697057  0.33368233  0.74982721  1
  Mn3.30+  Mn112  1  0.16737863  0.66532934  0.24943436  1
  Mn3.30+  Mn113  1  0.16872269  0.66749019  0.75283411  1
  Mn3.30+  Mn114  1  0.50321395  0.00005537  0.24960660  1
  Mn3.30+  Mn115  1  0.49851037  -0.00049355  0.75169980  1
  Mn3.30+  Mn116  1  0.49756024  0.33214819  0.25070809  1
  Mn3.30+  Mn117  1  0.49997396  0.33613918  0.75017847  1
  Mn3.30+  Mn118  1  0.49971161  0.66794193  0.24823504  1
  Mn3.30+  Mn119  1  0.50243834  0.66452080  0.75266105  1
  Mn3.30+  Mn120  1  0.82958049  0.00032184  0.24699004  1
  Mn3.30+  Mn121  1  0.83193991  0.00013994  0.75285500  1
  Mn3.30+  Mn122  1  0.83540568  0.33256368  0.25142376  1
  Mn3.30+  Mn123  1  0.83340231  0.33547901  0.75107394  1
  Mn3.30+  Mn124  1  0.83335901  0.66736153  0.24975654  1
  Mn3.30+  Mn125  1  0.82867560  0.66746735  0.75135111  1
  Mn3.30+  Mn126  1  -0.00020500  0.16964892  -0.00046726  1
  Mn3.30+  Mn127  1  0.00204776  0.16636729  0.49878402  1
  Mn3.30+  Mn128  1  0.00019615  0.49882562  -0.00104990  1
  Mn3.30+  Mn129  1  0.00026086  0.49906616  0.49953036  1
  Mn3.30+  Mn130  1  -0.00120385  0.83274978  -0.00241723  1
  Mn3.30+  Mn131  1  -0.00096039  0.83455292  0.50053476  1
  Mn3.30+  Mn132  1  0.33534161  0.16401943  -0.00112783  1
  Mn3.30+  Mn133  1  0.33244795  0.16607409  0.49855767  1
  Mn3.30+  Mn134  1  0.33516041  0.50003864  -0.00301702  1
  Mn3.30+  Mn135  1  0.33585632  0.50007063  0.50148049  1
  Mn3.30+  Mn136  1  0.33610004  0.83286798  -0.00021863  1
  Mn3.30+  Mn137  1  0.33445336  0.83316521  0.50010442  1
  Mn3.30+  Mn138  1  0.66383434  0.16690016  -0.00215859  1
  Mn3.30+  Mn139  1  0.66626850  0.16616051  0.50039072  1
  Mn3.30+  Mn140  1  0.66572909  0.50137984  -0.00216904  1
  Mn3.30+  Mn141  1  0.66407562  0.50279072  0.50075485  1
  Mn3.30+  Mn142  1  0.66455601  0.83458528  -0.00078440  1
  Mn3.30+  Mn143  1  0.66716569  0.83335151  0.50038840  1
  O2-  O144  1  0.02590641  0.16206828  0.12403908  1
  O2-  O145  1  0.02551098  0.15918401  0.62485783  1
  O2-  O146  1  0.02487492  0.49722383  0.12677385  1
  O2-  O147  1  0.02509025  0.49427856  0.62410556  1
  O2-  O148  1  0.02384484  0.82854930  0.12361422  1
  O2-  O149  1  0.01638041  0.83115765  0.62702078  1
  O2-  O150  1  0.35754694  0.16597401  0.12357469  1
  O2-  O151  1  0.35849629  0.15759950  0.62551548  1
  O2-  O152  1  0.35733868  0.49244987  0.12571171  1
  O2-  O153  1  0.36248172  0.49302148  0.62495142  1
  O2-  O154  1  0.36088860  0.82636967  0.12386610  1
  O2-  O155  1  0.35799618  0.82979261  0.62723945  1
  O2-  O156  1  0.68966424  0.16206861  0.12278410  1
  O2-  O157  1  0.69176556  0.16096151  0.62451821  1
  O2-  O158  1  0.69078524  0.49373423  0.12678409  1
  O2-  O159  1  0.69283025  0.49486158  0.62242816  1
  O2-  O160  1  0.69249215  0.82737014  0.12321882  1
  O2-  O161  1  0.69159882  0.82786336  0.62817931  1
  O2-  O162  1  0.14966197  0.32960616  0.12750088  1
  O2-  O163  1  0.14081006  0.32616293  0.62329111  1
  O2-  O164  1  0.14190135  0.65944363  0.12583062  1
  O2-  O165  1  0.14370949  0.66293110  0.62578802  1
  O2-  O166  1  0.14187195  0.99525677  0.12378809  1
  O2-  O167  1  0.14290002  0.99815113  0.62695026  1
  O2-  O168  1  0.47316722  0.32574471  0.12655453  1
  O2-  O169  1  0.47399855  0.32552564  0.62628627  1
  O2-  O170  1  0.47496130  0.65793238  0.12169293  1
  O2-  O171  1  0.47688369  0.66464696  0.62767458  1
  O2-  O172  1  0.48189433  1.00191045  0.12561170  1
  O2-  O173  1  0.47427078  0.99325258  0.62427276  1
  O2-  O174  1  0.80798736  0.32891756  0.12521622  1
  O2-  O175  1  0.80782676  0.32772339  0.62306775  1
  O2-  O176  1  0.80693032  0.66100967  0.12564115  1
  O2-  O177  1  0.80566774  0.66417552  0.62344679  1
  O2-  O178  1  0.80177450  0.99537721  0.12266341  1
  O2-  O179  1  0.80702275  0.99427156  0.62884031  1
  O2-  O180  1  0.30742150  0.16980188  0.37753044  1
  O2-  O181  1  0.30731729  0.17379687  0.87432245  1
  O2-  O182  1  0.30989823  0.50622189  0.37692938  1
  O2-  O183  1  0.30731740  0.50311260  0.87306644  1
  O2-  O184  1  0.31100263  0.83827298  0.37223660  1
  O2-  O185  1  0.31872687  0.84171333  0.87651046  1
  O2-  O186  1  0.64058007  0.17474532  0.37801178  1
  O2-  O187  1  0.63752969  0.17686298  0.87431703  1
  O2-  O188  1  0.63804575  0.50702084  0.37572011  1
  O2-  O189  1  0.64094778  0.50399328  0.87424990  1
  O2-  O190  1  0.64234655  0.84002462  0.37186970  1
  O2-  O191  1  0.63765866  0.84231880  0.87632714  1
  O2-  O192  1  0.97374248  0.16732469  0.37601212  1
  O2-  O193  1  0.97673978  0.17480886  0.87507277  1
  O2-  O194  1  0.97463000  0.50972080  0.37561702  1
  O2-  O195  1  0.98273092  0.50503948  0.87358295  1
  O2-  O196  1  0.97321752  0.83962569  0.37269344  1
  O2-  O197  1  0.97037615  0.83917316  0.87665115  1
  O2-  O198  1  0.18868844  0.00415663  0.37377806  1
  O2-  O199  1  0.19279413  0.00821862  0.87577705  1
  O2-  O200  1  0.19678929  0.33973340  0.37699339  1
  O2-  O201  1  0.19477730  0.34062022  0.87290180  1
  O2-  O202  1  0.18470925  0.67334169  0.37337128  1
  O2-  O203  1  0.19333470  0.66275409  0.87554924  1
  O2-  O204  1  0.52871962  0.00586332  0.37553836  1
  O2-  O205  1  0.52549078  0.00386415  0.87445992  1
  O2-  O206  1  0.52572803  0.33858430  0.37540751  1
  O2-  O207  1  0.52382327  0.34495438  0.87202327  1
  O2-  O208  1  0.52517737  0.67279273  0.37481086  1
  O2-  O209  1  0.53054962  0.67328628  0.87584831  1
  O2-  O210  1  0.85924377  0.00327194  0.37156288  1
  O2-  O211  1  0.85879288  0.01200215  0.87585351  1
  O2-  O212  1  0.86080467  0.33799420  0.37701687  1
  O2-  O213  1  0.85863014  0.33343110  0.87473477  1
  O2-  O214  1  0.86132103  0.67511672  0.37439194  1
  O2-  O215  1  0.85043997  0.66987527  0.87624580  1
  O2-  O216  1  0.23637500  0.09819081  0.01766157  1
  O2-  O217  1  0.24027196  0.09207142  0.52193589  1
  O2-  O218  1  0.23846789  0.42806982  0.01897568  1
  O2-  O219  1  0.23696821  0.42701978  0.52167798  1
  O2-  O220  1  0.24080547  0.75753124  0.02302804  1
  O2-  O221  1  0.24302014  0.75861113  0.51541513  1
  O2-  O222  1  0.57028425  0.09659328  0.01628997  1
  O2-  O223  1  0.57074520  0.09474306  0.52267027  1
  O2-  O224  1  0.57305234  0.42595255  0.02228687  1
  O2-  O225  1  0.57032809  0.43230118  0.52102861  1
  O2-  O226  1  0.56911935  0.76549579  0.02233783  1
  O2-  O227  1  0.57246311  0.76356849  0.51648345  1
  O2-  O228  1  0.90425983  0.09333066  0.02162852  1
  O2-  O229  1  0.90378474  0.09455456  0.52041912  1
  O2-  O230  1  0.90445118  0.42834577  0.01957721  1
  O2-  O231  1  0.90438026  0.42968249  0.52068542  1
  O2-  O232  1  0.90499500  0.75816351  0.02146639  1
  O2-  O233  1  0.90377679  0.76210955  0.52118610  1
  O2-  O234  1  0.26171317  0.26041397  0.23020254  1
  O2-  O235  1  0.26310532  0.26106455  0.72857732  1
  O2-  O236  1  0.26074328  0.59280875  0.22746870  1
  O2-  O237  1  0.26447375  0.59037753  0.72655770  1
  O2-  O238  1  0.25760665  0.92370466  0.23214118  1
  O2-  O239  1  0.26163711  0.92782491  0.73399899  1
  O2-  O240  1  0.59426105  0.26171444  0.23040298  1
  O2-  O241  1  0.59447901  0.26395605  0.72787928  1
  O2-  O242  1  0.59430705  0.59718781  0.22921097  1
  O2-  O243  1  0.59738606  0.59791869  0.72881045  1
  O2-  O244  1  0.59773980  0.93138891  0.22899540  1
  O2-  O245  1  0.59613802  0.92869674  0.72963882  1
  O2-  O246  1  0.92470373  0.25619171  0.23180882  1
  O2-  O247  1  0.92740749  0.25944914  0.72632018  1
  O2-  O248  1  0.92915370  0.59562042  0.22974676  1
  O2-  O249  1  0.92614576  0.59364029  0.72710435  1
  O2-  O250  1  0.92538497  0.92970203  0.22563886  1
  O2-  O251  1  0.92554546  0.92912367  0.73163863  1
  O2-  O252  1  0.09881342  0.23682892  0.27007828  1
  O2-  O253  1  0.09899769  0.23914889  0.76752091  1
  O2-  O254  1  0.09528049  0.57018559  0.27110197  1
  O2-  O255  1  0.09743083  0.57071723  0.76340934  1
  O2-  O256  1  0.09280890  0.90479391  0.26893971  1
  O2-  O257  1  0.08968526  0.91175180  0.77190364  1
  O2-  O258  1  0.42991492  0.23703240  0.27078880  1
  O2-  O259  1  0.42937367  0.23468791  0.77052809  1
  O2-  O260  1  0.42950867  0.56728960  0.26585866  1
  O2-  O261  1  0.43213741  0.57071479  0.77072682  1
  O2-  O262  1  0.42943827  0.90984044  0.27079822  1
  O2-  O263  1  0.43272464  0.90161419  0.76577327  1
  O2-  O264  1  0.75923153  0.23763514  0.27030679  1
  O2-  O265  1  0.76128891  0.24048698  0.76949109  1
  O2-  O266  1  0.76341974  0.57404535  0.27285898  1
  O2-  O267  1  0.76105201  0.57165832  0.76332685  1
  O2-  O268  1  0.76392783  0.90307288  0.26647090  1
  O2-  O269  1  0.76119436  0.90506285  0.77346177  1
  O2-  O270  1  0.06786472  0.06910900  0.48338749  1
  O2-  O271  1  0.07077990  0.07442677  0.97944864  1
  O2-  O272  1  0.07227037  0.40050246  0.47833550  1
  O2-  O273  1  0.07361790  0.40662463  0.97770308  1
  O2-  O274  1  0.06990244  0.74142193  0.48159928  1
  O2-  O275  1  0.07491409  0.73895878  0.98675167  1
  O2-  O276  1  0.40477474  0.07144074  0.47842080  1
  O2-  O277  1  0.40424918  0.07017410  0.97881957  1
  O2-  O278  1  0.40318653  0.40241486  0.47824241  1
  O2-  O279  1  0.40145815  0.40140611  0.98437468  1
  O2-  O280  1  0.41139446  0.74147377  0.48501397  1
  O2-  O281  1  0.40500511  0.73256852  0.97720167  1
  O2-  O282  1  0.73845344  0.06979178  0.47865236  1
  O2-  O283  1  0.73935073  0.07687830  0.97465409  1
  O2-  O284  1  0.73564384  0.40761129  0.47826342  1
  O2-  O285  1  0.73588274  0.40427815  0.98324171  1
  O2-  O286  1  0.74104432  0.74079133  0.47474521  1
  O2-  O287  1  0.73242881  0.73758118  0.98256774  1
  O2-  O288  1  0.09862151  0.23305969  0.47957239  1
  O2-  O289  1  0.09827835  0.24098837  0.98222335  1
  O2-  O290  1  0.09488282  0.57098059  0.48114132  1
  O2-  O291  1  0.09728206  0.56990629  0.98579505  1
  O2-  O292  1  0.09343051  0.90667494  0.47699177  1
  O2-  O293  1  0.08924859  0.91010381  0.98184544  1
  O2-  O294  1  0.42838291  0.23480518  0.48346372  1
  O2-  O295  1  0.42967102  0.23669357  0.97684299  1
  O2-  O296  1  0.43356967  0.57207660  0.48372937  1
  O2-  O297  1  0.43064135  0.56586930  0.98062862  1
  O2-  O298  1  0.42891085  0.90676770  0.47739532  1
  O2-  O299  1  0.43318044  0.90540991  0.98537731  1
  O2-  O300  1  0.76186703  0.23804376  0.47890024  1
  O2-  O301  1  0.75793395  0.24099255  0.97969170  1
  O2-  O302  1  0.76329887  0.57275720  0.47668604  1
  O2-  O303  1  0.75891207  0.57187655  0.98690396  1
  O2-  O304  1  0.76298207  0.90323668  0.48330555  1
  O2-  O305  1  0.76232939  0.90358392  0.97618204  1
  O2-  O306  1  0.06789653  0.07000755  0.26560148  1
  O2-  O307  1  0.07149966  0.07421442  0.77197447  1
  O2-  O308  1  0.07375006  0.40381843  0.27607939  1
  O2-  O309  1  0.07183457  0.40445460  0.76846017  1
  O2-  O310  1  0.07215776  0.73806982  0.26788997  1
  O2-  O311  1  0.07188197  0.74163546  0.76384253  1
  O2-  O312  1  0.40765786  0.07333766  0.27296312  1
  O2-  O313  1  0.40223851  0.06636973  0.76863388  1
  O2-  O314  1  0.40305895  0.40247131  0.27222908  1
  O2-  O315  1  0.40130640  0.40226949  0.76707339  1
  O2-  O316  1  0.40851859  0.73940079  0.26758157  1
  O2-  O317  1  0.40732279  0.73462566  0.77122219  1
  O2-  O318  1  0.73875850  0.07231171  0.27382227  1
  O2-  O319  1  0.73846960  0.07343343  0.77145268  1
  O2-  O320  1  0.73876476  0.40475886  0.27193537  1
  O2-  O321  1  0.73447775  0.40528304  0.76568990  1
  O2-  O322  1  0.73713394  0.74027888  0.26965353  1
  O2-  O323  1  0.73493325  0.73925391  0.77201615  1
  O2-  O324  1  0.23824077  0.09459196  0.23189459  1
  O2-  O325  1  0.23836483  0.09535870  0.73027973  1
  O2-  O326  1  0.23827460  0.42887784  0.23252785  1
  O2-  O327  1  0.23781207  0.42697206  0.72701976  1
  O2-  O328  1  0.23783670  0.75913029  0.22828194  1
  O2-  O329  1  0.24516950  0.75688139  0.73278289  1
  O2-  O330  1  0.56973885  0.09857238  0.23334798  1
  O2-  O331  1  0.57136354  0.09241929  0.72813564  1
  O2-  O332  1  0.56834586  0.42567698  0.22992111  1
  O2-  O333  1  0.57297631  0.43087218  0.72532991  1
  O2-  O334  1  0.57264434  0.76549995  0.22786758  1
  O2-  O335  1  0.56872669  0.76434717  0.73295255  1
  O2-  O336  1  0.90173311  0.09276669  0.22704958  1
  O2-  O337  1  0.90467290  0.09427807  0.72988647  1
  O2-  O338  1  0.90331748  0.43181955  0.23389147  1
  O2-  O339  1  0.90617698  0.42712852  0.72605934  1
  O2-  O340  1  0.90459301  0.76179917  0.22678147  1
  O2-  O341  1  0.90332259  0.75834249  0.73065486  1
  O2-  O342  1  0.26300595  0.26140668  0.01816337  1
  O2-  O343  1  0.26107606  0.25908971  0.52455582  1
  O2-  O344  1  0.26214382  0.59151263  0.02243697  1
  O2-  O345  1  0.26311195  0.59113303  0.52420391  1
  O2-  O346  1  0.25603301  0.92210587  0.01874265  1
  O2-  O347  1  0.26345740  0.92890201  0.51480930  1
  O2-  O348  1  0.59425835  0.26203704  0.02123470  1
  O2-  O349  1  0.59377257  0.26397039  0.52086625  1
  O2-  O350  1  0.59305514  0.59365767  0.02299295  1
  O2-  O351  1  0.60087440  0.60110670  0.51895058  1
  O2-  O352  1  0.59985003  0.93355508  0.01792659  1
  O2-  O353  1  0.59456276  0.92643317  0.52328662  1
  O2-  O354  1  0.92191804  0.25661083  0.01974975  1
  O2-  O355  1  0.93063024  0.25804199  0.52253346  1
  O2-  O356  1  0.92598882  0.59180500  0.02160155  1
  O2-  O357  1  0.92685455  0.59827796  0.52123919  1
  O2-  O358  1  0.92497241  0.92917764  0.02154756  1
  O2-  O359  1  0.92738986  0.92921735  0.52007719  1
