# generated using pymatgen
data_Sr7Ca15Pr50Mn72O216
_symmetry_space_group_name_H-M   'P 1'
_cell_length_a   16.55543355
_cell_length_b   16.60023129
_cell_length_c   15.59021382
_cell_angle_alpha   89.99985405
_cell_angle_beta   90.00291246
_cell_angle_gamma   89.99564308
_symmetry_Int_Tables_number   1
_chemical_formula_structural   Sr7Ca15Pr50Mn72O216
_chemical_formula_sum   'Sr7 Ca15 Pr50 Mn72 O216'
_cell_volume   4284.56531083
_cell_formula_units_Z   1
loop_
 _symmetry_equiv_pos_site_id
 _symmetry_equiv_pos_as_xyz
  1  'x, y, z'
loop_
 _atom_type_symbol
 _atom_type_oxidation_number
  Sr2+  2.0
  Ca2+  2.0
  Pr3+  3.0
  Mn3.30+  3.3
  O2-  -2.0
loop_
 _atom_site_type_symbol
 _atom_site_label
 _atom_site_symmetry_multiplicity
 _atom_site_fract_x
 _atom_site_fract_y
 _atom_site_fract_z
 _atom_site_occupancy
  Sr2+  Sr0  1  0.49869698  0.49129608  0.87525625  1
  Sr2+  Sr1  1  0.66894730  0.32280521  0.37621211  1
  Sr2+  Sr2  1  0.49956643  0.84305356  0.62586833  1
  Sr2+  Sr3  1  0.66821633  0.67518008  0.12539115  1
  Sr2+  Sr4  1  0.66828774  0.32769469  0.87321243  1
  Sr2+  Sr5  1  0.16710609  0.50846867  0.62560866  1
  Sr2+  Sr6  1  0.83578781  0.50884173  0.62709977  1
  Ca2+  Ca7  1  0.33796615  0.98574979  0.87304391  1
  Ca2+  Ca8  1  0.66917867  0.98482317  0.87445432  1
  Ca2+  Ca9  1  0.33507811  0.65322482  0.37636509  1
  Ca2+  Ca10  1  0.33718323  0.65131928  0.87360913  1
  Ca2+  Ca11  1  0.32989849  0.35137834  0.62491288  1
  Ca2+  Ca12  1  -0.00419724  0.01503442  0.12392758  1
  Ca2+  Ca13  1  -0.00301225  0.35154264  0.62569981  1
  Ca2+  Ca14  1  0.67128673  0.65420485  0.37468639  1
  Ca2+  Ca15  1  0.82885204  0.48739934  0.87539962  1
  Ca2+  Ca16  1  0.82693781  0.81639144  0.37215984  1
  Ca2+  Ca17  1  1.00013808  0.64976094  0.87533857  1
  Ca2+  Ca18  1  0.83422578  0.51420631  0.12236850  1
  Ca2+  Ca19  1  0.16212468  0.15081798  0.37566489  1
  Ca2+  Ca20  1  0.33003012  0.01233401  0.62575137  1
  Ca2+  Ca21  1  0.83643719  0.85010308  0.12528323  1
  Pr3+  Pr22  1  0.66330023  0.67812791  0.62469686  1
  Pr3+  Pr23  1  0.66185492  0.01101665  0.62733336  1
  Pr3+  Pr24  1  -0.00541740  0.34956936  0.12486202  1
  Pr3+  Pr25  1  1.00536328  0.31983213  0.37829201  1
  Pr3+  Pr26  1  0.50446157  0.84433344  0.12447664  1
  Pr3+  Pr27  1  0.16680662  0.15454850  0.87420933  1
  Pr3+  Pr28  1  0.99899415  0.65518870  0.37519683  1
  Pr3+  Pr29  1  0.33132127  0.34694019  0.12513116  1
  Pr3+  Pr30  1  0.66651496  0.34671883  0.12567632  1
  Pr3+  Pr31  1  0.32877125  0.67606638  0.62727166  1
  Pr3+  Pr32  1  0.33453272  0.32131775  0.37804457  1
  Pr3+  Pr33  1  0.33422781  0.98786153  0.37620693  1
  Pr3+  Pr34  1  0.50200925  0.51114629  0.62606601  1
  Pr3+  Pr35  1  -0.00161175  0.01224101  0.62621702  1
  Pr3+  Pr36  1  0.49785955  0.81714788  0.37522349  1
  Pr3+  Pr37  1  0.83459444  0.84257205  0.62442646  1
  Pr3+  Pr38  1  0.33050731  0.67908031  0.12287083  1
  Pr3+  Pr39  1  0.49908547  0.17805408  0.62411924  1
  Pr3+  Pr40  1  0.33996152  0.32436306  0.87092084  1
  Pr3+  Pr41  1  0.82725893  0.15259637  0.87458999  1
  Pr3+  Pr42  1  0.83766370  0.17763679  0.12427215  1
  Pr3+  Pr43  1  0.16611855  0.84755335  0.12518914  1
  Pr3+  Pr44  1  0.66644264  0.00909435  0.12278411  1
  Pr3+  Pr45  1  0.16668766  0.17813756  0.12628783  1
  Pr3+  Pr46  1  0.17325276  0.18196217  0.62362088  1
  Pr3+  Pr47  1  0.49759094  0.15338847  0.87404786  1
  Pr3+  Pr48  1  0.49999762  0.15365868  0.37601904  1
  Pr3+  Pr49  1  0.16353459  0.81751791  0.87576249  1
  Pr3+  Pr50  1  0.16332382  0.81965889  0.37431471  1
  Pr3+  Pr51  1  0.49927671  0.49036689  0.37397268  1
  Pr3+  Pr52  1  -0.00906919  0.68093245  0.12357277  1
  Pr3+  Pr53  1  0.49684425  0.82071441  0.87504979  1
  Pr3+  Pr54  1  -0.00263040  0.67433981  0.62721702  1
  Pr3+  Pr55  1  0.82996647  0.82129725  0.87725103  1
  Pr3+  Pr56  1  0.83904734  0.18237930  0.62557626  1
  Pr3+  Pr57  1  0.50472139  0.51371086  0.12359699  1
  Pr3+  Pr58  1  0.82861231  0.48862824  0.37474312  1
  Pr3+  Pr59  1  1.00318293  0.98746043  0.87655838  1
  Pr3+  Pr60  1  0.66932302  0.65216256  0.87566522  1
  Pr3+  Pr61  1  0.67172731  0.98445841  0.37575038  1
  Pr3+  Pr62  1  1.00088129  0.32620910  0.87167096  1
  Pr3+  Pr63  1  0.17237590  0.84628806  0.62523175  1
  Pr3+  Pr64  1  0.83045390  0.15384438  0.37561366  1
  Pr3+  Pr65  1  0.16348895  0.48918979  0.37649532  1
  Pr3+  Pr66  1  0.50451102  0.17854851  0.12570368  1
  Pr3+  Pr67  1  1.00283673  0.98692291  0.37347756  1
  Pr3+  Pr68  1  0.16759817  0.51356770  0.12424186  1
  Pr3+  Pr69  1  0.33143118  0.01231537  0.12370885  1
  Pr3+  Pr70  1  0.66617730  0.34725387  0.62328627  1
  Pr3+  Pr71  1  0.16637858  0.49031254  0.87352675  1
  Mn3.30+  Mn72  1  0.16704648  0.00013632  -0.00044157  1
  Mn3.30+  Mn73  1  0.16737228  0.00088242  0.49995268  1
  Mn3.30+  Mn74  1  0.16680844  0.33365502  -0.00051007  1
  Mn3.30+  Mn75  1  0.16782972  0.33369105  0.50169206  1
  Mn3.30+  Mn76  1  0.16362598  0.66655650  -0.00091709  1
  Mn3.30+  Mn77  1  0.16692627  0.66610567  0.49945778  1
  Mn3.30+  Mn78  1  0.50010538  -0.00052854  -0.00265305  1
  Mn3.30+  Mn79  1  0.49898890  -0.00160928  0.50193866  1
  Mn3.30+  Mn80  1  0.50124673  0.33282149  -0.00084480  1
  Mn3.30+  Mn81  1  0.49846073  0.33341065  0.50004503  1
  Mn3.30+  Mn82  1  0.49870155  0.66691003  -0.00035952  1
  Mn3.30+  Mn83  1  0.49907480  0.66625775  0.49820287  1
  Mn3.30+  Mn84  1  0.83402257  -0.00104680  -0.00012340  1
  Mn3.30+  Mn85  1  0.83396412  -0.00217198  0.50053519  1
  Mn3.30+  Mn86  1  0.83324174  0.33539838  -0.00037338  1
  Mn3.30+  Mn87  1  0.83651145  0.33412244  0.50036831  1
  Mn3.30+  Mn88  1  0.83406573  0.66634478  -0.00055337  1
  Mn3.30+  Mn89  1  0.83134456  0.66746063  0.49980045  1
  Mn3.30+  Mn90  1  0.00093380  0.16620521  0.25059415  1
  Mn3.30+  Mn91  1  0.00139945  0.16846749  0.74987111  1
  Mn3.30+  Mn92  1  -0.00276018  0.50159996  0.24938379  1
  Mn3.30+  Mn93  1  -0.00143566  0.50052849  0.75169814  1
  Mn3.30+  Mn94  1  -0.00494364  0.83435491  0.24986557  1
  Mn3.30+  Mn95  1  0.00083194  0.83121322  0.75099115  1
  Mn3.30+  Mn96  1  0.33223764  0.16656192  0.25190874  1
  Mn3.30+  Mn97  1  0.33352791  0.16555956  0.74833855  1
  Mn3.30+  Mn98  1  0.33251536  0.50190886  0.25067276  1
  Mn3.30+  Mn99  1  0.33355426  0.50060546  0.74909059  1
  Mn3.30+  Mn100  1  0.33323942  0.83188740  0.25006697  1
  Mn3.30+  Mn101  1  0.33284196  0.83482101  0.75126352  1
  Mn3.30+  Mn102  1  0.66885376  0.16516089  0.24995459  1
  Mn3.30+  Mn103  1  0.66667547  0.16687513  0.75040416  1
  Mn3.30+  Mn104  1  0.66828897  0.50209389  0.24959832  1
  Mn3.30+  Mn105  1  0.66881668  0.49977163  0.75036031  1
  Mn3.30+  Mn106  1  0.66960677  0.83075724  0.24912611  1
  Mn3.30+  Mn107  1  0.66536088  0.83378527  0.75153234  1
  Mn3.30+  Mn108  1  0.16485295  0.00120258  0.24885776  1
  Mn3.30+  Mn109  1  0.16996792  -0.00027105  0.75155426  1
  Mn3.30+  Mn110  1  0.16566785  0.33269662  0.25071234  1
  Mn3.30+  Mn111  1  0.16928631  0.33461455  0.74832276  1
  Mn3.30+  Mn112  1  0.16534234  0.66683141  0.24981674  1
  Mn3.30+  Mn113  1  0.16513556  0.66558003  0.75274786  1
  Mn3.30+  Mn114  1  0.50099869  -0.00124333  0.25079277  1
  Mn3.30+  Mn115  1  0.49788750  -0.00068410  0.74995131  1
  Mn3.30+  Mn116  1  0.50005204  0.33302618  0.25164178  1
  Mn3.30+  Mn117  1  0.50010540  0.33324074  0.74775515  1
  Mn3.30+  Mn118  1  0.50009668  0.66634390  0.25133788  1
  Mn3.30+  Mn119  1  0.49762321  0.66678920  0.75052487  1
  Mn3.30+  Mn120  1  0.83574245  -0.00232975  0.24938307  1
  Mn3.30+  Mn121  1  0.83183292  -0.00122127  0.75010407  1
  Mn3.30+  Mn122  1  0.83403127  0.33416800  0.25033570  1
  Mn3.30+  Mn123  1  0.83558157  0.33521723  0.75004802  1
  Mn3.30+  Mn124  1  0.83125032  0.66856363  0.24898761  1
  Mn3.30+  Mn125  1  0.83398511  0.66552378  0.75267074  1
  Mn3.30+  Mn126  1  -0.00033718  0.16762248  -0.00163191  1
  Mn3.30+  Mn127  1  0.00297988  0.16736308  0.50139916  1
  Mn3.30+  Mn128  1  -0.00297976  0.50163326  -0.00226489  1
  Mn3.30+  Mn129  1  -0.00146522  0.50014057  0.50149330  1
  Mn3.30+  Mn130  1  -0.00270331  0.83385318  0.00048480  1
  Mn3.30+  Mn131  1  -0.00109499  0.83237913  0.49958614  1
  Mn3.30+  Mn132  1  0.33406356  0.16649473  0.00011223  1
  Mn3.30+  Mn133  1  0.33140770  0.16579457  0.49911526  1
  Mn3.30+  Mn134  1  0.33410440  0.50123820  0.00018135  1
  Mn3.30+  Mn135  1  0.33252205  0.50136415  0.49889675  1
  Mn3.30+  Mn136  1  0.33253197  0.83373516  -0.00170618  1
  Mn3.30+  Mn137  1  0.33325244  0.83261033  0.50007283  1
  Mn3.30+  Mn138  1  0.66750696  0.16584800  -0.00213547  1
  Mn3.30+  Mn139  1  0.66790340  0.16605738  0.50106684  1
  Mn3.30+  Mn140  1  0.66983949  0.49973696  -0.00008904  1
  Mn3.30+  Mn141  1  0.66736776  0.50214693  0.49948460  1
  Mn3.30+  Mn142  1  0.66802954  0.83310028  0.00118627  1
  Mn3.30+  Mn143  1  0.66715941  0.83128384  0.49887167  1
  O2-  O144  1  0.02294732  0.16229142  0.12266488  1
  O2-  O145  1  0.02885379  0.15786040  0.62623564  1
  O2-  O146  1  0.02472378  0.49716029  0.12432347  1
  O2-  O147  1  0.01796149  0.50212178  0.62558247  1
  O2-  O148  1  0.02431630  0.82622052  0.12461424  1
  O2-  O149  1  0.02771322  0.82490257  0.62740293  1
  O2-  O150  1  0.36091353  0.16021072  0.12773405  1
  O2-  O151  1  0.35660007  0.15532081  0.62338376  1
  O2-  O152  1  0.35897021  0.49443092  0.12603833  1
  O2-  O153  1  0.35729477  0.49891583  0.62162684  1
  O2-  O154  1  0.35986448  0.82657707  0.12470155  1
  O2-  O155  1  0.35089611  0.82226825  0.62452006  1
  O2-  O156  1  0.69294254  0.15705686  0.12440388  1
  O2-  O157  1  0.69373639  0.15835314  0.62608762  1
  O2-  O158  1  0.69126555  0.49514969  0.12475360  1
  O2-  O159  1  0.68530489  0.49855259  0.62406649  1
  O2-  O160  1  0.69248698  0.83185236  0.12575865  1
  O2-  O161  1  0.69021299  0.82683033  0.62578217  1
  O2-  O162  1  0.13937422  0.32696114  0.12593094  1
  O2-  O163  1  0.13960139  0.32809744  0.62512753  1
  O2-  O164  1  0.13654092  0.66177103  0.12485778  1
  O2-  O165  1  0.14218757  0.66663330  0.62720843  1
  O2-  O166  1  0.13888085  0.99644802  0.12459700  1
  O2-  O167  1  0.14135330  0.99401660  0.62700169  1
  O2-  O168  1  0.47486077  0.32654492  0.12810891  1
  O2-  O169  1  0.47216214  0.32759304  0.62162463  1
  O2-  O170  1  0.47457607  0.66420451  0.12605662  1
  O2-  O171  1  0.47410511  0.66148698  0.62396426  1
  O2-  O172  1  0.47512379  0.99412985  0.12558853  1
  O2-  O173  1  0.47290863  0.99864740  0.62458631  1
  O2-  O174  1  0.81076516  0.32401969  0.12587008  1
  O2-  O175  1  0.81105633  0.32861304  0.62412892  1
  O2-  O176  1  0.81659256  0.65731162  0.12363675  1
  O2-  O177  1  0.80839161  0.66692790  0.62677138  1
  O2-  O178  1  0.80983073  0.99842416  0.12495640  1
  O2-  O179  1  0.80692337  0.99165564  0.62503982  1
  O2-  O180  1  0.30343637  0.17361795  0.37448059  1
  O2-  O181  1  0.30966544  0.17870114  0.87371542  1
  O2-  O182  1  0.30670564  0.50839813  0.37344834  1
  O2-  O183  1  0.31131121  0.50228341  0.87797856  1
  O2-  O184  1  0.30633870  0.84120455  0.37432393  1
  O2-  O185  1  0.30621264  0.84357124  0.87638059  1
  O2-  O186  1  0.64501341  0.16602162  0.37610036  1
  O2-  O187  1  0.64183787  0.17370438  0.87290548  1
  O2-  O188  1  0.64364732  0.50590837  0.37529794  1
  O2-  O189  1  0.64811826  0.50187419  0.87549298  1
  O2-  O190  1  0.64123887  0.83982336  0.37371824  1
  O2-  O191  1  0.64218473  0.83877976  0.87567307  1
  O2-  O192  1  0.97381867  0.17289298  0.37819828  1
  O2-  O193  1  0.97293303  0.17585511  0.87289387  1
  O2-  O194  1  0.97406597  0.50556336  0.37415403  1
  O2-  O195  1  0.97240029  0.49947902  0.87628283  1
  O2-  O196  1  0.97048621  0.84033447  0.37327219  1
  O2-  O197  1  0.97361819  0.84242365  0.87541957  1
  O2-  O198  1  0.19025443  0.00395841  0.37252129  1
  O2-  O199  1  0.19506899  0.00625868  0.87578691  1
  O2-  O200  1  0.19096152  0.34168777  0.37421088  1
  O2-  O201  1  0.19529738  0.34013924  0.87509788  1
  O2-  O202  1  0.19228161  0.67220152  0.37178603  1
  O2-  O203  1  0.19438834  0.67019075  0.87727088  1
  O2-  O204  1  0.52640711  0.00504815  0.37514755  1
  O2-  O205  1  0.52752203  0.00627589  0.87492578  1
  O2-  O206  1  0.52013706  0.33940426  0.37490204  1
  O2-  O207  1  0.51695944  0.33209508  0.87411741  1
  O2-  O208  1  0.52740119  0.66912162  0.37444786  1
  O2-  O209  1  0.52348547  0.67153354  0.87518504  1
  O2-  O210  1  0.85972194  0.00792518  0.37605821  1
  O2-  O211  1  0.85964115  0.00416931  0.87382804  1
  O2-  O212  1  0.85984343  0.33811538  0.37472809  1
  O2-  O213  1  0.85675967  0.33877912  0.87533292  1
  O2-  O214  1  0.85679675  0.67332065  0.37463788  1
  O2-  O215  1  0.86029740  0.67727830  0.87607746  1
  O2-  O216  1  0.23903128  0.09577135  0.02194792  1
  O2-  O217  1  0.23712139  0.09562746  0.51807860  1
  O2-  O218  1  0.23849622  0.42767096  0.02193169  1
  O2-  O219  1  0.24041318  0.42827849  0.51371039  1
  O2-  O220  1  0.23464726  0.76138953  0.02198411  1
  O2-  O221  1  0.23697211  0.76212105  0.51789896  1
  O2-  O222  1  0.57036366  0.09364025  0.02040825  1
  O2-  O223  1  0.57166301  0.09342219  0.52093252  1
  O2-  O224  1  0.57342045  0.42383368  0.02254237  1
  O2-  O225  1  0.57282993  0.42682768  0.51924758  1
  O2-  O226  1  0.56824123  0.76223238  0.01607871  1
  O2-  O227  1  0.57199876  0.75955969  0.51681726  1
  O2-  O228  1  0.90240782  0.09659071  0.01457608  1
  O2-  O229  1  0.90676573  0.09508539  0.52247239  1
  O2-  O230  1  0.90640409  0.42851131  0.02388162  1
  O2-  O231  1  0.90762417  0.42804838  0.51395071  1
  O2-  O232  1  0.90197072  0.76600059  0.02135395  1
  O2-  O233  1  0.90669124  0.75906631  0.52237067  1
  O2-  O234  1  0.26296682  0.26081242  0.22812465  1
  O2-  O235  1  0.26380026  0.26237002  0.72641242  1
  O2-  O236  1  0.26036610  0.59278682  0.22473031  1
  O2-  O237  1  0.26005933  0.59552311  0.73442675  1
  O2-  O238  1  0.26096031  0.92782169  0.22820919  1
  O2-  O239  1  0.26221775  0.92760890  0.72659707  1
  O2-  O240  1  0.59687764  0.25570661  0.22850381  1
  O2-  O241  1  0.59337756  0.25939099  0.72344404  1
  O2-  O242  1  0.58908309  0.59072966  0.22949355  1
  O2-  O243  1  0.59280678  0.59353502  0.73184804  1
  O2-  O244  1  0.59729578  0.92618184  0.22964734  1
  O2-  O245  1  0.59407501  0.92952774  0.73156716  1
  O2-  O246  1  0.93136521  0.26272141  0.23105947  1
  O2-  O247  1  0.93182782  0.26181601  0.72745668  1
  O2-  O248  1  0.93106745  0.59968407  0.23616501  1
  O2-  O249  1  0.92872016  0.59705222  0.73456747  1
  O2-  O250  1  0.93184589  0.93339475  0.22931209  1
  O2-  O251  1  0.93017159  0.92585828  0.72882854  1
  O2-  O252  1  0.09588946  0.23725072  0.27184739  1
  O2-  O253  1  0.09832909  0.24087931  0.77233684  1
  O2-  O254  1  0.09397494  0.57154918  0.27038775  1
  O2-  O255  1  0.09277221  0.57262450  0.77264955  1
  O2-  O256  1  0.09350172  0.90369825  0.27037815  1
  O2-  O257  1  0.09548163  0.90456722  0.77180852  1
  O2-  O258  1  0.42643696  0.23694422  0.27301735  1
  O2-  O259  1  0.42918728  0.23631403  0.76617962  1
  O2-  O260  1  0.42863795  0.57053536  0.26754964  1
  O2-  O261  1  0.42665604  0.57349377  0.76405147  1
  O2-  O262  1  0.42831653  0.90510681  0.27095595  1
  O2-  O263  1  0.42884871  0.90572725  0.77182063  1
  O2-  O264  1  0.76451467  0.23411386  0.26665894  1
  O2-  O265  1  0.76651044  0.23687428  0.76476864  1
  O2-  O266  1  0.76256574  0.57348277  0.26914175  1
  O2-  O267  1  0.76177222  0.57550603  0.77395627  1
  O2-  O268  1  0.76315098  0.90577988  0.27204626  1
  O2-  O269  1  0.76348783  0.90334408  0.76789959  1
  O2-  O270  1  0.06919505  0.06949715  0.48186012  1
  O2-  O271  1  0.07392214  0.07517912  0.97575679  1
  O2-  O272  1  0.07429763  0.40748195  0.47942329  1
  O2-  O273  1  0.07144560  0.40663800  0.97983638  1
  O2-  O274  1  0.07212891  0.74045481  0.47727394  1
  O2-  O275  1  0.06890729  0.73798082  0.97784847  1
  O2-  O276  1  0.40556203  0.07500149  0.47454094  1
  O2-  O277  1  0.40417838  0.07062094  0.97927370  1
  O2-  O278  1  0.40508971  0.40952357  0.47661944  1
  O2-  O279  1  0.40430721  0.40073094  0.98612614  1
  O2-  O280  1  0.40462190  0.73776940  0.47699448  1
  O2-  O281  1  0.40096605  0.73952827  0.97798453  1
  O2-  O282  1  0.73969454  0.07015171  0.48095508  1
  O2-  O283  1  0.73741795  0.06958773  0.97757521  1
  O2-  O284  1  0.74091514  0.40873457  0.48378746  1
  O2-  O285  1  0.73975303  0.40366030  0.98775577  1
  O2-  O286  1  0.73512671  0.73577737  0.48315738  1
  O2-  O287  1  0.73888993  0.73832424  0.97754829  1
  O2-  O288  1  0.09803570  0.23655555  0.47804527  1
  O2-  O289  1  0.09587329  0.24061524  0.97767917  1
  O2-  O290  1  0.09165030  0.57452794  0.47802107  1
  O2-  O291  1  0.09581123  0.56942576  0.98046247  1
  O2-  O292  1  0.09488262  0.90491300  0.47977199  1
  O2-  O293  1  0.09532606  0.90414586  0.97915372  1
  O2-  O294  1  0.42672278  0.23718129  0.47770609  1
  O2-  O295  1  0.42934049  0.23660211  0.98255442  1
  O2-  O296  1  0.42964738  0.57063453  0.48004204  1
  O2-  O297  1  0.42588330  0.57358609  0.98722844  1
  O2-  O298  1  0.42653309  0.90539677  0.47655634  1
  O2-  O299  1  0.43101254  0.90498710  0.98193252  1
  O2-  O300  1  0.76654565  0.23687334  0.48539476  1
  O2-  O301  1  0.76522716  0.23576463  0.98365353  1
  O2-  O302  1  0.76150070  0.57374047  0.47969355  1
  O2-  O303  1  0.76220952  0.57370257  0.97753258  1
  O2-  O304  1  0.76309686  0.90127954  0.47878643  1
  O2-  O305  1  0.76375146  0.90627828  0.98203801  1
  O2-  O306  1  0.07066588  0.07314869  0.27020779  1
  O2-  O307  1  0.07195871  0.07286753  0.77247434  1
  O2-  O308  1  0.06940370  0.40619865  0.27009231  1
  O2-  O309  1  0.07672273  0.40865747  0.77175756  1
  O2-  O310  1  0.06887106  0.74095204  0.27121713  1
  O2-  O311  1  0.07061227  0.73761484  0.77533020  1
  O2-  O312  1  0.40440648  0.07292063  0.27242337  1
  O2-  O313  1  0.40548176  0.07290935  0.77465053  1
  O2-  O314  1  0.40103813  0.40757160  0.27072977  1
  O2-  O315  1  0.40646250  0.40486272  0.76392966  1
  O2-  O316  1  0.40388012  0.73662479  0.27239295  1
  O2-  O317  1  0.40331201  0.74022811  0.77210674  1
  O2-  O318  1  0.73945344  0.06970881  0.26983056  1
  O2-  O319  1  0.73608015  0.07127394  0.77178343  1
  O2-  O320  1  0.74143332  0.40608800  0.26795841  1
  O2-  O321  1  0.74202252  0.40554449  0.76026021  1
  O2-  O322  1  0.73609442  0.73701380  0.27097270  1
  O2-  O323  1  0.73952578  0.73824770  0.77132756  1
  O2-  O324  1  0.24103740  0.09416631  0.22620386  1
  O2-  O325  1  0.23644338  0.09889252  0.73289867  1
  O2-  O326  1  0.23745230  0.42837021  0.22915479  1
  O2-  O327  1  0.24096580  0.42712950  0.73442529  1
  O2-  O328  1  0.23671062  0.76148930  0.22701346  1
  O2-  O329  1  0.23583527  0.76201643  0.73365792  1
  O2-  O330  1  0.57302825  0.09268720  0.22978534  1
  O2-  O331  1  0.56926313  0.09466743  0.72861434  1
  O2-  O332  1  0.57384973  0.42689506  0.22964646  1
  O2-  O333  1  0.57368169  0.42356192  0.72749914  1
  O2-  O334  1  0.56760848  0.76373217  0.23385514  1
  O2-  O335  1  0.57327571  0.75720876  0.73339101  1
  O2-  O336  1  0.90365255  0.09762091  0.23369429  1
  O2-  O337  1  0.90478939  0.09300487  0.72941349  1
  O2-  O338  1  0.90532077  0.43206764  0.22782781  1
  O2-  O339  1  0.91140629  0.42392211  0.73324736  1
  O2-  O340  1  0.90249240  0.76356359  0.22687420  1
  O2-  O341  1  0.90534906  0.76125065  0.72935195  1
  O2-  O342  1  0.26148252  0.25982982  0.02336618  1
  O2-  O343  1  0.26460937  0.26296022  0.52214539  1
  O2-  O344  1  0.25689696  0.59406298  0.02387430  1
  O2-  O345  1  0.26252496  0.59633295  0.51762815  1
  O2-  O346  1  0.26055382  0.92598143  0.02510781  1
  O2-  O347  1  0.26217326  0.92894719  0.51954024  1
  O2-  O348  1  0.59374520  0.25917018  0.02434886  1
  O2-  O349  1  0.59423540  0.25777581  0.52135146  1
  O2-  O350  1  0.59270223  0.59063551  0.01595109  1
  O2-  O351  1  0.59104828  0.59296759  0.52240582  1
  O2-  O352  1  0.59350225  0.92660217  0.02187095  1
  O2-  O353  1  0.59939900  0.92857005  0.51692474  1
  O2-  O354  1  0.92925670  0.26396900  0.01907715  1
  O2-  O355  1  0.93421299  0.26184548  0.52235148  1
  O2-  O356  1  0.93081150  0.59740753  0.01594318  1
  O2-  O357  1  0.92830720  0.59862005  0.51488385  1
  O2-  O358  1  0.93224333  0.93309464  0.01803860  1
  O2-  O359  1  0.92946993  0.92733482  0.52309423  1
