# generated using pymatgen
data_Sr7Ca15Pr50Mn72O216
_symmetry_space_group_name_H-M   'P 1'
_cell_length_a   16.56004745
_cell_length_b   16.60346258
_cell_length_c   15.59200509
_cell_angle_alpha   89.99737739
_cell_angle_beta   89.99379598
_cell_angle_gamma   89.99718487
_symmetry_Int_Tables_number   1
_chemical_formula_structural   Sr7Ca15Pr50Mn72O216
_chemical_formula_sum   'Sr7 Ca15 Pr50 Mn72 O216'
_cell_volume   4287.08613053
_cell_formula_units_Z   1
loop_
 _symmetry_equiv_pos_site_id
 _symmetry_equiv_pos_as_xyz
  1  'x, y, z'
loop_
 _atom_type_symbol
 _atom_type_oxidation_number
  Sr2+  2.0
  Ca2+  2.0
  Pr3+  3.0
  Mn3.30+  3.3
  O2-  -2.0
loop_
 _atom_site_type_symbol
 _atom_site_label
 _atom_site_symmetry_multiplicity
 _atom_site_fract_x
 _atom_site_fract_y
 _atom_site_fract_z
 _atom_site_occupancy
  Sr2+  Sr0  1  0.50050896  0.51167707  0.12645072  1
  Sr2+  Sr1  1  0.49507806  0.48966936  0.37369993  1
  Sr2+  Sr2  1  1.00158672  0.99218555  0.37410820  1
  Sr2+  Sr3  1  0.16683467  0.84513502  0.62559951  1
  Sr2+  Sr4  1  0.83077199  0.49036661  0.87551436  1
  Sr2+  Sr5  1  0.33281408  0.67646476  0.12728343  1
  Sr2+  Sr6  1  0.66930359  0.99018636  0.37477954  1
  Ca2+  Ca7  1  0.66116121  0.01366386  0.12266951  1
  Ca2+  Ca8  1  0.66960621  0.98559489  0.87458266  1
  Ca2+  Ca9  1  0.49626129  0.14644933  0.87540854  1
  Ca2+  Ca10  1  -0.00263094  0.01125222  0.62359778  1
  Ca2+  Ca11  1  0.33722812  0.98342760  0.87519888  1
  Ca2+  Ca12  1  0.33773107  0.65403940  0.37481220  1
  Ca2+  Ca13  1  0.82866669  0.48470882  0.37542985  1
  Ca2+  Ca14  1  0.17053502  0.84765696  0.12502754  1
  Ca2+  Ca15  1  0.50406040  0.84790285  0.62594577  1
  Ca2+  Ca16  1  -0.00035863  0.01240996  0.12628690  1
  Ca2+  Ca17  1  1.00318079  0.31880723  0.37562415  1
  Ca2+  Ca18  1  0.67057368  0.65145645  0.87448846  1
  Ca2+  Ca19  1  0.33892594  0.31860984  0.37418994  1
  Ca2+  Ca20  1  0.66192877  0.68496928  0.62617064  1
  Ca2+  Ca21  1  0.83696990  0.85070967  0.62427423  1
  Pr3+  Pr22  1  0.66083890  0.67735455  0.12309796  1
  Pr3+  Pr23  1  0.16885789  0.51354424  0.62375549  1
  Pr3+  Pr24  1  0.16650522  0.17326460  0.62471739  1
  Pr3+  Pr25  1  0.49703112  0.81993365  0.37686349  1
  Pr3+  Pr26  1  0.50374059  0.17735971  0.62626180  1
  Pr3+  Pr27  1  0.50074739  0.49056806  0.87601905  1
  Pr3+  Pr28  1  0.83450899  0.51448447  0.12680049  1
  Pr3+  Pr29  1  0.17095365  0.51376433  0.12588143  1
  Pr3+  Pr30  1  0.33509099  0.65629452  0.87373106  1
  Pr3+  Pr31  1  0.16202870  0.48770489  0.87477733  1
  Pr3+  Pr32  1  0.33719099  0.98744822  0.37464012  1
  Pr3+  Pr33  1  0.66502931  0.34584770  0.62430427  1
  Pr3+  Pr34  1  0.16841699  0.17709603  0.12606054  1
  Pr3+  Pr35  1  0.66951409  0.65291658  0.37633297  1
  Pr3+  Pr36  1  0.83676157  0.17380646  0.62385648  1
  Pr3+  Pr37  1  0.83240546  0.15222332  0.37435600  1
  Pr3+  Pr38  1  -0.00375703  0.34523982  0.62256069  1
  Pr3+  Pr39  1  0.50432182  0.17711031  0.12360277  1
  Pr3+  Pr40  1  0.50598071  0.51557713  0.62314462  1
  Pr3+  Pr41  1  1.00170294  0.98718588  0.87591833  1
  Pr3+  Pr42  1  0.83510429  0.84861000  0.12496512  1
  Pr3+  Pr43  1  -0.00280659  0.34597786  0.12786137  1
  Pr3+  Pr44  1  -0.00264738  0.68082247  0.12559384  1
  Pr3+  Pr45  1  1.00094150  0.65482917  0.87340137  1
  Pr3+  Pr46  1  1.00054171  0.65710544  0.37636234  1
  Pr3+  Pr47  1  0.33103577  0.34695901  0.12736898  1
  Pr3+  Pr48  1  0.82854271  0.15080451  0.87607846  1
  Pr3+  Pr49  1  0.66794447  0.32216069  0.37409608  1
  Pr3+  Pr50  1  0.66958342  0.32206636  0.87559054  1
  Pr3+  Pr51  1  0.33231711  0.68103354  0.62296994  1
  Pr3+  Pr52  1  0.83365345  0.17543273  0.12635587  1
  Pr3+  Pr53  1  0.82591886  0.81996586  0.87244710  1
  Pr3+  Pr54  1  0.33891362  0.31807232  0.87529738  1
  Pr3+  Pr55  1  0.50155804  0.82248157  0.87281565  1
  Pr3+  Pr56  1  0.33132793  0.00980512  0.12220574  1
  Pr3+  Pr57  1  0.66305003  0.34723372  0.12551823  1
  Pr3+  Pr58  1  0.33044620  0.34455593  0.62257169  1
  Pr3+  Pr59  1  -0.00564693  0.68478219  0.62454334  1
  Pr3+  Pr60  1  0.16437214  0.15190132  0.87603856  1
  Pr3+  Pr61  1  0.16586251  0.48655969  0.37469694  1
  Pr3+  Pr62  1  0.82970253  0.82595965  0.37786396  1
  Pr3+  Pr63  1  0.16404845  0.82279008  0.37447993  1
  Pr3+  Pr64  1  0.49734312  0.15440158  0.37482682  1
  Pr3+  Pr65  1  1.00132668  0.32081763  0.87523148  1
  Pr3+  Pr66  1  0.16514350  0.15429023  0.37458135  1
  Pr3+  Pr67  1  0.16598683  0.82224531  0.87546404  1
  Pr3+  Pr68  1  0.66551227  0.00894847  0.62633627  1
  Pr3+  Pr69  1  0.83496017  0.51517191  0.62397708  1
  Pr3+  Pr70  1  0.50383764  0.84547938  0.12369761  1
  Pr3+  Pr71  1  0.33192270  0.00897042  0.62816803  1
  Mn3.30+  Mn72  1  0.16723246  -0.00178570  0.00035470  1
  Mn3.30+  Mn73  1  0.16609643  -0.00082302  0.50146339  1
  Mn3.30+  Mn74  1  0.16745205  0.33251214  0.00024966  1
  Mn3.30+  Mn75  1  0.16650938  0.33220872  0.49820334  1
  Mn3.30+  Mn76  1  0.16649317  0.66900711  0.00130328  1
  Mn3.30+  Mn77  1  0.16793651  0.66783592  0.49841559  1
  Mn3.30+  Mn78  1  0.50156315  -0.00092785  -0.00326730  1
  Mn3.30+  Mn79  1  0.50078674  -0.00203510  0.50147761  1
  Mn3.30+  Mn80  1  0.50056321  0.33194775  -0.00118742  1
  Mn3.30+  Mn81  1  0.49806128  0.33342164  0.49939412  1
  Mn3.30+  Mn82  1  0.50090576  0.66751965  -0.00178547  1
  Mn3.30+  Mn83  1  0.50076578  0.66852515  0.50131520  1
  Mn3.30+  Mn84  1  0.83131705  -0.00031750  0.00174842  1
  Mn3.30+  Mn85  1  0.83445269  -0.00102385  0.50045663  1
  Mn3.30+  Mn86  1  0.83280751  0.33297802  0.00112699  1
  Mn3.30+  Mn87  1  0.83448018  0.33311378  0.49717288  1
  Mn3.30+  Mn88  1  0.83051785  0.66758797  -0.00056430  1
  Mn3.30+  Mn89  1  0.83080160  0.66903171  0.50140881  1
  Mn3.30+  Mn90  1  0.00080149  0.16637144  0.24975066  1
  Mn3.30+  Mn91  1  -0.00092304  0.16531435  0.75052775  1
  Mn3.30+  Mn92  1  -0.00133084  0.49979309  0.25386834  1
  Mn3.30+  Mn93  1  -0.00113785  0.50050502  0.74843644  1
  Mn3.30+  Mn94  1  0.00084488  0.83629619  0.24851522  1
  Mn3.30+  Mn95  1  -0.00352166  0.83654178  0.74909228  1
  Mn3.30+  Mn96  1  0.33421641  0.16665158  0.24928612  1
  Mn3.30+  Mn97  1  0.33574955  0.16341912  0.75228507  1
  Mn3.30+  Mn98  1  0.33328654  0.50127630  0.25197843  1
  Mn3.30+  Mn99  1  0.33442095  0.49955840  0.74905248  1
  Mn3.30+  Mn100  1  0.33209899  0.83182991  0.24890852  1
  Mn3.30+  Mn101  1  0.33532370  0.83403900  0.74972310  1
  Mn3.30+  Mn102  1  0.66708968  0.16503263  0.24873544  1
  Mn3.30+  Mn103  1  0.66560469  0.16452567  0.75285422  1
  Mn3.30+  Mn104  1  0.66699272  0.50019334  0.25262518  1
  Mn3.30+  Mn105  1  0.66800920  0.50286334  0.74852552  1
  Mn3.30+  Mn106  1  0.66639633  0.83456914  0.25038873  1
  Mn3.30+  Mn107  1  0.66692798  0.83305003  0.74761373  1
  Mn3.30+  Mn108  1  0.16663299  -0.00145993  0.24782669  1
  Mn3.30+  Mn109  1  0.16671185  -0.00101763  0.75089577  1
  Mn3.30+  Mn110  1  0.16658762  0.33272352  0.25311250  1
  Mn3.30+  Mn111  1  0.16730787  0.33174119  0.74908760  1
  Mn3.30+  Mn112  1  0.16780389  0.66841068  0.25153632  1
  Mn3.30+  Mn113  1  0.16641980  0.66804253  0.74828791  1
  Mn3.30+  Mn114  1  0.50202044  -0.00125973  0.24930933  1
  Mn3.30+  Mn115  1  0.50071570  -0.00153971  0.75234233  1
  Mn3.30+  Mn116  1  0.49828527  0.33325164  0.25089138  1
  Mn3.30+  Mn117  1  0.50061390  0.33243202  0.75054370  1
  Mn3.30+  Mn118  1  0.49822013  0.66711084  0.25020129  1
  Mn3.30+  Mn119  1  0.50397330  0.66886592  0.74949918  1
  Mn3.30+  Mn120  1  0.83290407  -0.00023136  0.24757689  1
  Mn3.30+  Mn121  1  0.83330765  -0.00123087  0.75039092  1
  Mn3.30+  Mn122  1  0.83460250  0.33382402  0.25256522  1
  Mn3.30+  Mn123  1  0.83274676  0.33272387  0.74963596  1
  Mn3.30+  Mn124  1  0.83240478  0.66792521  0.25163287  1
  Mn3.30+  Mn125  1  0.82847388  0.66904894  0.74751771  1
  Mn3.30+  Mn126  1  -0.00115451  0.16530938  0.00167986  1
  Mn3.30+  Mn127  1  0.00114330  0.16630408  0.49877023  1
  Mn3.30+  Mn128  1  -0.00056501  0.50051630  0.00109462  1
  Mn3.30+  Mn129  1  -0.00197780  0.49981690  0.49689855  1
  Mn3.30+  Mn130  1  -0.00010991  0.83505722  0.00183732  1
  Mn3.30+  Mn131  1  -0.00206960  0.83755341  0.50068988  1
  Mn3.30+  Mn132  1  0.33601924  0.16363926  -0.00192168  1
  Mn3.30+  Mn133  1  0.33385730  0.16625804  0.50089505  1
  Mn3.30+  Mn134  1  0.33239008  0.50068449  -0.00099306  1
  Mn3.30+  Mn135  1  0.33516706  0.50026033  0.49899496  1
  Mn3.30+  Mn136  1  0.33344284  0.83304814  0.00016554  1
  Mn3.30+  Mn137  1  0.33381756  0.83291885  0.50095607  1
  Mn3.30+  Mn138  1  0.66459307  0.16334433  -0.00257595  1
  Mn3.30+  Mn139  1  0.66782535  0.16599859  0.50039654  1
  Mn3.30+  Mn140  1  0.66689498  0.50122938  -0.00039334  1
  Mn3.30+  Mn141  1  0.66822092  0.50075988  0.49888068  1
  Mn3.30+  Mn142  1  0.66741657  0.83504689  -0.00116765  1
  Mn3.30+  Mn143  1  0.66579836  0.83324657  0.50303173  1
  O2-  O144  1  0.02412311  0.16212704  0.12422539  1
  O2-  O145  1  0.02171158  0.16115614  0.62488546  1
  O2-  O146  1  0.02699228  0.49505019  0.12875718  1
  O2-  O147  1  0.02507511  0.49376642  0.62190466  1
  O2-  O148  1  0.02844705  0.82483192  0.12344811  1
  O2-  O149  1  0.01912931  0.82937895  0.62524750  1
  O2-  O150  1  0.36066581  0.15916278  0.12064917  1
  O2-  O151  1  0.36008567  0.15832510  0.62791014  1
  O2-  O152  1  0.34957942  0.49432889  0.12571412  1
  O2-  O153  1  0.36079120  0.49154345  0.62598427  1
  O2-  O154  1  0.35922847  0.83241324  0.12492575  1
  O2-  O155  1  0.36103295  0.82906043  0.62629767  1
  O2-  O156  1  0.68946404  0.16044335  0.12323771  1
  O2-  O157  1  0.69214555  0.16005339  0.62791357  1
  O2-  O158  1  0.68992907  0.49672794  0.12839726  1
  O2-  O159  1  0.69183842  0.49180980  0.62294723  1
  O2-  O160  1  0.69128402  0.82213345  0.12428536  1
  O2-  O161  1  0.69429187  0.82846913  0.62595000  1
  O2-  O162  1  0.14116659  0.32745767  0.12780808  1
  O2-  O163  1  0.14007389  0.32463964  0.62512872  1
  O2-  O164  1  0.13998272  0.65900394  0.12618405  1
  O2-  O165  1  0.13995034  0.66127205  0.62331161  1
  O2-  O166  1  0.14267289  0.99493281  0.12323818  1
  O2-  O167  1  0.14118792  1.00310143  0.62774692  1
  O2-  O168  1  0.47487783  0.32583209  0.12384324  1
  O2-  O169  1  0.47473173  0.32645814  0.62670572  1
  O2-  O170  1  0.48409369  0.67052475  0.12336335  1
  O2-  O171  1  0.47462717  0.66129520  0.62628228  1
  O2-  O172  1  0.47493637  0.99520494  0.12357234  1
  O2-  O173  1  0.47532770  0.99619745  0.62672670  1
  O2-  O174  1  0.80716983  0.32540543  0.12650944  1
  O2-  O175  1  0.80874025  0.32282039  0.62249274  1
  O2-  O176  1  0.80637621  0.66266767  0.12746063  1
  O2-  O177  1  0.80387313  0.65978093  0.62390208  1
  O2-  O178  1  0.80357708  0.99737827  0.12377485  1
  O2-  O179  1  0.81025875  1.00368510  0.62662900  1
  O2-  O180  1  0.30960380  0.17095114  0.37698434  1
  O2-  O181  1  0.30623534  0.17336777  0.87549929  1
  O2-  O182  1  0.30920584  0.50892267  0.37667245  1
  O2-  O183  1  0.30597431  0.50575046  0.87167231  1
  O2-  O184  1  0.30822420  0.84161185  0.37428657  1
  O2-  O185  1  0.30992092  0.83546571  0.87439164  1
  O2-  O186  1  0.64167583  0.17292326  0.37418631  1
  O2-  O187  1  0.63730742  0.17704444  0.87421747  1
  O2-  O188  1  0.64505191  0.50360606  0.37666556  1
  O2-  O189  1  0.64469297  0.50347233  0.87164719  1
  O2-  O190  1  0.64204047  0.83695537  0.37599613  1
  O2-  O191  1  0.64521298  0.84334993  0.87366953  1
  O2-  O192  1  0.97704769  0.17210339  0.37364076  1
  O2-  O193  1  0.97407967  0.17343900  0.87760195  1
  O2-  O194  1  0.96891273  0.51078427  0.37590336  1
  O2-  O195  1  0.98068835  0.50530790  0.87371800  1
  O2-  O196  1  0.97452141  0.83652607  0.37542165  1
  O2-  O197  1  0.97083787  0.83948192  0.87575647  1
  O2-  O198  1  0.19322418  0.00575131  0.37376797  1
  O2-  O199  1  0.19359071  0.00497252  0.87595510  1
  O2-  O200  1  0.19734144  0.33778690  0.37521700  1
  O2-  O201  1  0.19394264  0.33965919  0.87232755  1
  O2-  O202  1  0.19385552  0.67498992  0.37586084  1
  O2-  O203  1  0.18916280  0.67176518  0.87401577  1
  O2-  O204  1  0.51928540  0.00523674  0.37507619  1
  O2-  O205  1  0.52876787  0.00231675  0.87462185  1
  O2-  O206  1  0.52333614  0.33046594  0.37590066  1
  O2-  O207  1  0.52596239  0.34281935  0.87340745  1
  O2-  O208  1  0.52530665  0.67276086  0.37765817  1
  O2-  O209  1  0.52856194  0.67247298  0.87172536  1
  O2-  O210  1  0.85118882  0.00091769  0.37288160  1
  O2-  O211  1  0.85799014  0.00211701  0.87698196  1
  O2-  O212  1  0.86183859  0.33963763  0.37455830  1
  O2-  O213  1  0.85792456  0.33521035  0.87667132  1
  O2-  O214  1  0.85800796  0.67877043  0.37583080  1
  O2-  O215  1  0.85813738  0.67231048  0.87260910  1
  O2-  O216  1  0.23863733  0.09523508  0.02087361  1
  O2-  O217  1  0.24116064  0.09301734  0.52138595  1
  O2-  O218  1  0.23639670  0.42655648  0.01894465  1
  O2-  O219  1  0.23654307  0.42703342  0.52163952  1
  O2-  O220  1  0.23338037  0.76314389  0.01624896  1
  O2-  O221  1  0.24216213  0.76044706  0.52016227  1
  O2-  O222  1  0.56930964  0.09487192  0.01837169  1
  O2-  O223  1  0.57269172  0.09320466  0.52048072  1
  O2-  O224  1  0.57467582  0.42674832  0.01675777  1
  O2-  O225  1  0.57233739  0.42609331  0.52113211  1
  O2-  O226  1  0.57343629  0.76432969  0.01619314  1
  O2-  O227  1  0.56832963  0.76546993  0.51948228  1
  O2-  O228  1  0.89989988  0.09538890  0.01788367  1
  O2-  O229  1  0.90582601  0.09601310  0.51365020  1
  O2-  O230  1  0.90811597  0.42805639  0.02481917  1
  O2-  O231  1  0.90464669  0.42627610  0.52346496  1
  O2-  O232  1  0.90481748  0.76205375  0.02095970  1
  O2-  O233  1  0.90261844  0.76250093  0.52145223  1
  O2-  O234  1  0.26073991  0.25922104  0.22654243  1
  O2-  O235  1  0.26186294  0.25999117  0.72926746  1
  O2-  O236  1  0.25459218  0.59098470  0.23234923  1
  O2-  O237  1  0.26404668  0.59188465  0.72717406  1
  O2-  O238  1  0.26458902  0.93020505  0.23182088  1
  O2-  O239  1  0.26213685  0.92728330  0.73222105  1
  O2-  O240  1  0.59565358  0.25857428  0.22870562  1
  O2-  O241  1  0.59537749  0.26122430  0.72785880  1
  O2-  O242  1  0.59680999  0.59787810  0.23601189  1
  O2-  O243  1  0.59439167  0.59524749  0.72545782  1
  O2-  O244  1  0.59492167  0.92728806  0.22563105  1
  O2-  O245  1  0.59626421  0.92746481  0.72947088  1
  O2-  O246  1  0.92592410  0.25987916  0.22782548  1
  O2-  O247  1  0.92859510  0.26200938  0.73050142  1
  O2-  O248  1  0.92702632  0.59683963  0.22857926  1
  O2-  O249  1  0.92612445  0.59833239  0.72803978  1
  O2-  O250  1  0.92701738  0.92828223  0.22415868  1
  O2-  O251  1  0.93158970  0.93402294  0.73246669  1
  O2-  O252  1  0.09797948  0.23909361  0.26903552  1
  O2-  O253  1  0.09531209  0.23856356  0.77155702  1
  O2-  O254  1  0.09261034  0.57287202  0.27419006  1
  O2-  O255  1  0.09473546  0.57235451  0.76784445  1
  O2-  O256  1  0.09743055  0.90537080  0.26870367  1
  O2-  O257  1  0.09408739  0.90775257  0.77438235  1
  O2-  O258  1  0.42882973  0.23606612  0.26721290  1
  O2-  O259  1  0.42824579  0.23527519  0.77264325  1
  O2-  O260  1  0.42494253  0.57593203  0.26461115  1
  O2-  O261  1  0.42993738  0.57259374  0.77056745  1
  O2-  O262  1  0.42935333  0.90525214  0.26939879  1
  O2-  O263  1  0.42963068  0.90531210  0.77072664  1
  O2-  O264  1  0.76216693  0.24085092  0.27195825  1
  O2-  O265  1  0.76027357  0.23636521  0.77126193  1
  O2-  O266  1  0.76446953  0.57217737  0.27180811  1
  O2-  O267  1  0.76214174  0.57056847  0.76409689  1
  O2-  O268  1  0.76389769  0.90175870  0.26448460  1
  O2-  O269  1  0.76362932  0.90415292  0.76502331  1
  O2-  O270  1  0.07798370  0.07777719  0.48025258  1
  O2-  O271  1  0.07317111  0.07360681  0.97872833  1
  O2-  O272  1  0.07037350  0.40631147  0.47671356  1
  O2-  O273  1  0.07191601  0.40513540  0.98009419  1
  O2-  O274  1  0.07032897  0.74150789  0.48072894  1
  O2-  O275  1  0.06963347  0.73825297  0.97730487  1
  O2-  O276  1  0.40542565  0.07295567  0.48102890  1
  O2-  O277  1  0.40300461  0.06726510  0.97871947  1
  O2-  O278  1  0.39977236  0.40137103  0.48245247  1
  O2-  O279  1  0.40573745  0.40479524  0.97967210  1
  O2-  O280  1  0.40400206  0.73734749  0.47936151  1
  O2-  O281  1  0.40765279  0.73987912  0.97609495  1
  O2-  O282  1  0.74271480  0.07524770  0.48338693  1
  O2-  O283  1  0.73571621  0.07245237  0.97467457  1
  O2-  O284  1  0.73868735  0.40160742  0.48117077  1
  O2-  O285  1  0.73756881  0.40240494  0.98519355  1
  O2-  O286  1  0.73694239  0.74031553  0.47758815  1
  O2-  O287  1  0.73700174  0.73810501  0.97745666  1
  O2-  O288  1  0.09631103  0.23875781  0.48031700  1
  O2-  O289  1  0.09642490  0.24036710  0.97958348  1
  O2-  O290  1  0.09426403  0.57278757  0.47729385  1
  O2-  O291  1  0.09352473  0.57264773  0.98054408  1
  O2-  O292  1  0.09696427  0.90691794  0.48113060  1
  O2-  O293  1  0.09308907  0.90587101  0.97529820  1
  O2-  O294  1  0.42920250  0.23523332  0.48472010  1
  O2-  O295  1  0.42901327  0.23581793  0.97625861  1
  O2-  O296  1  0.42905625  0.57206180  0.48808578  1
  O2-  O297  1  0.42540845  0.57484728  0.97589840  1
  O2-  O298  1  0.42619995  0.90557758  0.47905829  1
  O2-  O299  1  0.43294945  0.90411030  0.98137458  1
  O2-  O300  1  0.76283987  0.23988255  0.47685062  1
  O2-  O301  1  0.75893732  0.23619252  0.98014767  1
  O2-  O302  1  0.76458248  0.57145075  0.47797919  1
  O2-  O303  1  0.76080332  0.57186787  0.98751598  1
  O2-  O304  1  0.76165640  0.90470046  0.48655074  1
  O2-  O305  1  0.76550994  0.90147604  0.98408344  1
  O2-  O306  1  0.07888050  0.07652291  0.26692439  1
  O2-  O307  1  0.07314474  0.07460550  0.77455551  1
  O2-  O308  1  0.07165235  0.40414684  0.27496977  1
  O2-  O309  1  0.07369528  0.40336684  0.76962869  1
  O2-  O310  1  0.07155292  0.73801019  0.27177162  1
  O2-  O311  1  0.06765709  0.74206795  0.76957456  1
  O2-  O312  1  0.40576923  0.07190174  0.26854746  1
  O2-  O313  1  0.40353505  0.06806401  0.77105937  1
  O2-  O314  1  0.39982704  0.40281925  0.26638773  1
  O2-  O315  1  0.40463921  0.40505197  0.77149786  1
  O2-  O316  1  0.40535669  0.74109084  0.27365571  1
  O2-  O317  1  0.40668691  0.73786993  0.77082013  1
  O2-  O318  1  0.74278896  0.07757935  0.26810581  1
  O2-  O319  1  0.73755676  0.07005989  0.77345371  1
  O2-  O320  1  0.73942661  0.40326965  0.26851719  1
  O2-  O321  1  0.73687890  0.40093390  0.76475804  1
  O2-  O322  1  0.73772515  0.73865409  0.27153748  1
  O2-  O323  1  0.73530198  0.73792510  0.77402526  1
  O2-  O324  1  0.24114361  0.09404533  0.22828849  1
  O2-  O325  1  0.23871104  0.09473041  0.73096133  1
  O2-  O326  1  0.23495178  0.42732578  0.23153444  1
  O2-  O327  1  0.23741327  0.42638592  0.72648356  1
  O2-  O328  1  0.23474803  0.76549984  0.23120955  1
  O2-  O329  1  0.24273555  0.75776060  0.73249097  1
  O2-  O330  1  0.56952836  0.09438371  0.23234061  1
  O2-  O331  1  0.57264000  0.09268178  0.72814562  1
  O2-  O332  1  0.57453011  0.42227274  0.23271210  1
  O2-  O333  1  0.57303759  0.42999137  0.72943523  1
  O2-  O334  1  0.57228389  0.76329763  0.23261986  1
  O2-  O335  1  0.56955499  0.76584108  0.72999066  1
  O2-  O336  1  0.90457175  0.09430126  0.23244324  1
  O2-  O337  1  0.90116396  0.09732062  0.73656314  1
  O2-  O338  1  0.90566292  0.42665578  0.22642002  1
  O2-  O339  1  0.90670711  0.42694570  0.72640469  1
  O2-  O340  1  0.90535299  0.76176123  0.22852115  1
  O2-  O341  1  0.90025337  0.76383512  0.72890870  1
  O2-  O342  1  0.26305634  0.26059591  0.02084425  1
  O2-  O343  1  0.26100614  0.25614099  0.52477493  1
  O2-  O344  1  0.25658511  0.59448110  0.01598368  1
  O2-  O345  1  0.26073074  0.59097257  0.52420788  1
  O2-  O346  1  0.26213618  0.92719091  0.01814593  1
  O2-  O347  1  0.26404580  0.92976887  0.51810794  1
  O2-  O348  1  0.59546157  0.26073433  0.02135436  1
  O2-  O349  1  0.59540913  0.25983971  0.52094763  1
  O2-  O350  1  0.59379009  0.59552577  0.01485740  1
  O2-  O351  1  0.59633491  0.59832012  0.52099044  1
  O2-  O352  1  0.59600858  0.92746318  0.02285980  1
  O2-  O353  1  0.59562539  0.92733949  0.52181561  1
  O2-  O354  1  0.92782682  0.26171542  0.02197987  1
  O2-  O355  1  0.92753620  0.25949624  0.52052733  1
  O2-  O356  1  0.92748410  0.59562262  0.02055918  1
  O2-  O357  1  0.92790308  0.59710026  0.52228168  1
  O2-  O358  1  0.93075287  0.92936810  0.02377779  1
  O2-  O359  1  0.92801228  0.93035162  0.52078133  1
