# generated using pymatgen
data_Sr7Ca15Pr50Mn72O216
_symmetry_space_group_name_H-M   'P 1'
_cell_length_a   16.55811780
_cell_length_b   16.60440530
_cell_length_c   15.59407672
_cell_angle_alpha   90.00345626
_cell_angle_beta   89.99566249
_cell_angle_gamma   89.99072267
_symmetry_Int_Tables_number   1
_chemical_formula_structural   Sr7Ca15Pr50Mn72O216
_chemical_formula_sum   'Sr7 Ca15 Pr50 Mn72 O216'
_cell_volume   4287.39949349
_cell_formula_units_Z   1
loop_
 _symmetry_equiv_pos_site_id
 _symmetry_equiv_pos_as_xyz
  1  'x, y, z'
loop_
 _atom_type_symbol
 _atom_type_oxidation_number
  Sr2+  2.0
  Ca2+  2.0
  Pr3+  3.0
  Mn3.30+  3.3
  O2-  -2.0
loop_
 _atom_site_type_symbol
 _atom_site_label
 _atom_site_symmetry_multiplicity
 _atom_site_fract_x
 _atom_site_fract_y
 _atom_site_fract_z
 _atom_site_occupancy
  Sr2+  Sr0  1  0.66450463  0.67575536  0.62267775  1
  Sr2+  Sr1  1  0.00068372  0.34309437  0.62545605  1
  Sr2+  Sr2  1  -0.00124302  0.67366928  0.62464536  1
  Sr2+  Sr3  1  0.16456078  0.50890934  0.62624894  1
  Sr2+  Sr4  1  0.49627552  0.83978495  0.12542764  1
  Sr2+  Sr5  1  1.00197404  0.32273785  0.87611255  1
  Sr2+  Sr6  1  0.33425763  0.65714857  0.87879447  1
  Ca2+  Ca7  1  0.50148574  0.18060010  0.12619684  1
  Ca2+  Ca8  1  0.17053079  0.51549070  0.12406112  1
  Ca2+  Ca9  1  0.16467827  0.81754668  0.37411042  1
  Ca2+  Ca10  1  0.32902949  0.34746306  0.12507780  1
  Ca2+  Ca11  1  0.17095236  0.18499803  0.12427545  1
  Ca2+  Ca12  1  0.83277217  0.15357669  0.87630091  1
  Ca2+  Ca13  1  0.32899403  0.68126047  0.12550244  1
  Ca2+  Ca14  1  0.66997255  0.65183938  0.37335704  1
  Ca2+  Ca15  1  0.83771093  0.51293627  0.12513988  1
  Ca2+  Ca16  1  -0.00131963  0.34920668  0.12371133  1
  Ca2+  Ca17  1  0.33756458  0.98577709  0.87600466  1
  Ca2+  Ca18  1  0.33638889  0.98497180  0.37423794  1
  Ca2+  Ca19  1  0.83762134  0.84863196  0.12490934  1
  Ca2+  Ca20  1  0.32884262  0.01492418  0.62465353  1
  Ca2+  Ca21  1  0.33524109  0.32058197  0.37019383  1
  Pr3+  Pr22  1  0.83776187  0.17972725  0.62629852  1
  Pr3+  Pr23  1  0.83140487  0.48917981  0.37304951  1
  Pr3+  Pr24  1  0.16865056  0.15564915  0.37287342  1
  Pr3+  Pr25  1  -0.00077548  0.01144671  0.62450576  1
  Pr3+  Pr26  1  0.83245856  0.48791993  0.87673869  1
  Pr3+  Pr27  1  0.49832768  0.51141149  0.12589589  1
  Pr3+  Pr28  1  0.67223087  0.31743713  0.87680745  1
  Pr3+  Pr29  1  0.16475066  0.15498782  0.87698149  1
  Pr3+  Pr30  1  1.00462459  0.32136344  0.37291591  1
  Pr3+  Pr31  1  0.49201594  0.15208702  0.37171259  1
  Pr3+  Pr32  1  0.32846371  0.34685731  0.62385063  1
  Pr3+  Pr33  1  0.50016040  0.17879683  0.62502258  1
  Pr3+  Pr34  1  0.16303262  0.48746088  0.87734151  1
  Pr3+  Pr35  1  0.33214580  0.65525498  0.37131266  1
  Pr3+  Pr36  1  0.83244545  0.15484654  0.37372539  1
  Pr3+  Pr37  1  1.00425328  0.65293092  0.37411594  1
  Pr3+  Pr38  1  0.32950514  0.01536165  0.12601494  1
  Pr3+  Pr39  1  0.66538307  0.67876946  0.12721144  1
  Pr3+  Pr40  1  0.66825570  0.98734788  0.37384740  1
  Pr3+  Pr41  1  0.49420673  0.15115081  0.87841720  1
  Pr3+  Pr42  1  0.66833338  0.32068971  0.37302376  1
  Pr3+  Pr43  1  -0.00338557  0.68045164  0.12530963  1
  Pr3+  Pr44  1  0.49586634  0.82059464  0.87692543  1
  Pr3+  Pr45  1  0.17137919  0.84643572  0.62329318  1
  Pr3+  Pr46  1  0.49866190  0.82016191  0.37366970  1
  Pr3+  Pr47  1  0.17391050  0.84343103  0.12780266  1
  Pr3+  Pr48  1  0.66127299  0.01246196  0.12554440  1
  Pr3+  Pr49  1  1.00451975  0.65336712  0.87623185  1
  Pr3+  Pr50  1  0.83846314  0.18016679  0.12340856  1
  Pr3+  Pr51  1  1.00179136  0.99086746  0.87572129  1
  Pr3+  Pr52  1  0.33365857  0.32312443  0.87775587  1
  Pr3+  Pr53  1  0.32807787  0.67780572  0.62460690  1
  Pr3+  Pr54  1  0.49523839  0.48891975  0.87670217  1
  Pr3+  Pr55  1  0.83145216  0.82020364  0.87742693  1
  Pr3+  Pr56  1  0.66935816  0.98713613  0.87639668  1
  Pr3+  Pr57  1  0.49580611  0.48599258  0.37344340  1
  Pr3+  Pr58  1  1.00639596  0.98404605  0.37438737  1
  Pr3+  Pr59  1  0.16635417  0.82121957  0.87574105  1
  Pr3+  Pr60  1  0.66688502  0.65514255  0.87690589  1
  Pr3+  Pr61  1  0.83814214  0.51311401  0.62479412  1
  Pr3+  Pr62  1  0.00085971  0.01137195  0.12502736  1
  Pr3+  Pr63  1  0.50167081  0.51327147  0.62407250  1
  Pr3+  Pr64  1  0.17003313  0.17934727  0.62515023  1
  Pr3+  Pr65  1  0.83751578  0.84388820  0.62422186  1
  Pr3+  Pr66  1  0.82923063  0.81776223  0.37221596  1
  Pr3+  Pr67  1  0.16325568  0.48719104  0.37278610  1
  Pr3+  Pr68  1  0.66352407  0.01150380  0.62498130  1
  Pr3+  Pr69  1  0.66343506  0.34579069  0.12542277  1
  Pr3+  Pr70  1  0.66389735  0.34701134  0.62470207  1
  Pr3+  Pr71  1  0.50118735  0.84535189  0.62491460  1
  Mn3.30+  Mn72  1  0.16944916  0.00119652  0.00002481  1
  Mn3.30+  Mn73  1  0.17072181  -0.00076348  0.49770016  1
  Mn3.30+  Mn74  1  0.16596454  0.33416008  0.00505566  1
  Mn3.30+  Mn75  1  0.16942504  0.33327316  0.49735960  1
  Mn3.30+  Mn76  1  0.16805386  0.66584715  0.00180215  1
  Mn3.30+  Mn77  1  0.16619889  0.66692659  0.50024828  1
  Mn3.30+  Mn78  1  0.49788054  -0.00033158  0.00208695  1
  Mn3.30+  Mn79  1  0.49594075  -0.00032447  0.50006042  1
  Mn3.30+  Mn80  1  0.49913020  0.33228435  0.00244466  1
  Mn3.30+  Mn81  1  0.49747505  0.33219440  0.49831506  1
  Mn3.30+  Mn82  1  0.49815265  0.66673468  0.00383211  1
  Mn3.30+  Mn83  1  0.49988478  0.66614585  0.49674629  1
  Mn3.30+  Mn84  1  0.83343911  0.00087609  0.00132031  1
  Mn3.30+  Mn85  1  0.83393428  -0.00071726  0.49874389  1
  Mn3.30+  Mn86  1  0.83554904  0.33316710  0.00128307  1
  Mn3.30+  Mn87  1  0.83378575  0.33338451  0.49880992  1
  Mn3.30+  Mn88  1  0.83404581  0.66623632  0.00267949  1
  Mn3.30+  Mn89  1  0.83180204  0.66675019  0.49826484  1
  Mn3.30+  Mn90  1  0.00323931  0.16790898  0.24681619  1
  Mn3.30+  Mn91  1  -0.00014583  0.16676402  0.75252795  1
  Mn3.30+  Mn92  1  0.00020576  0.49894974  0.24555436  1
  Mn3.30+  Mn93  1  -0.00071609  0.49891042  0.75037098  1
  Mn3.30+  Mn94  1  0.00076269  0.83287654  0.24966798  1
  Mn3.30+  Mn95  1  0.00091647  0.83331771  0.74968694  1
  Mn3.30+  Mn96  1  0.33238541  0.16968409  0.24696640  1
  Mn3.30+  Mn97  1  0.33369117  0.16450402  0.75129471  1
  Mn3.30+  Mn98  1  0.32986811  0.49882031  0.24761900  1
  Mn3.30+  Mn99  1  0.33252309  0.50088732  0.75133263  1
  Mn3.30+  Mn100  1  0.33228768  0.83426802  0.25281606  1
  Mn3.30+  Mn101  1  0.33416304  0.83562419  0.74961465  1
  Mn3.30+  Mn102  1  0.66485254  0.16652660  0.24917307  1
  Mn3.30+  Mn103  1  0.66696370  0.16548110  0.75094570  1
  Mn3.30+  Mn104  1  0.66761023  0.50054600  0.24884575  1
  Mn3.30+  Mn105  1  0.66551849  0.50024617  0.75097508  1
  Mn3.30+  Mn106  1  0.66746975  0.83270222  0.24851817  1
  Mn3.30+  Mn107  1  0.66647158  0.83227280  0.74974908  1
  Mn3.30+  Mn108  1  0.16898059  0.00037119  0.25156793  1
  Mn3.30+  Mn109  1  0.17045131  0.00015453  0.75060036  1
  Mn3.30+  Mn110  1  0.16857447  0.33411192  0.24596320  1
  Mn3.30+  Mn111  1  0.16695485  0.33341028  0.75076657  1
  Mn3.30+  Mn112  1  0.16712604  0.66600161  0.24871952  1
  Mn3.30+  Mn113  1  0.16678683  0.66674597  0.74972664  1
  Mn3.30+  Mn114  1  0.49685137  -0.00076794  0.24882126  1
  Mn3.30+  Mn115  1  0.49690724  -0.00013492  0.74989000  1
  Mn3.30+  Mn116  1  0.49650994  0.33179002  0.24753115  1
  Mn3.30+  Mn117  1  0.50001385  0.33292097  0.75147855  1
  Mn3.30+  Mn118  1  0.50012738  0.66600565  0.25026487  1
  Mn3.30+  Mn119  1  0.49861002  0.66691250  0.74992601  1
  Mn3.30+  Mn120  1  0.83443095  -0.00059584  0.24858237  1
  Mn3.30+  Mn121  1  0.83326301  0.00026954  0.75104667  1
  Mn3.30+  Mn122  1  0.83621658  0.33485160  0.24697517  1
  Mn3.30+  Mn123  1  0.83363006  0.33183236  0.75230121  1
  Mn3.30+  Mn124  1  0.83291156  0.66586738  0.24817417  1
  Mn3.30+  Mn125  1  0.83311409  0.66694800  0.75082591  1
  Mn3.30+  Mn126  1  0.00217462  0.16863526  0.00168065  1
  Mn3.30+  Mn127  1  0.00108211  0.16622753  0.49852901  1
  Mn3.30+  Mn128  1  0.00039106  0.49843620  0.00399741  1
  Mn3.30+  Mn129  1  -0.00115386  0.49895163  0.49973802  1
  Mn3.30+  Mn130  1  0.00009253  0.83473270  0.00113378  1
  Mn3.30+  Mn131  1  0.00222461  0.83152663  0.49910733  1
  Mn3.30+  Mn132  1  0.33253009  0.16852788  0.00301539  1
  Mn3.30+  Mn133  1  0.33377510  0.16542315  0.49832942  1
  Mn3.30+  Mn134  1  0.33018831  0.50050993  0.00329670  1
  Mn3.30+  Mn135  1  0.33195661  0.49903284  0.49744789  1
  Mn3.30+  Mn136  1  0.33365191  0.83477804  0.00131030  1
  Mn3.30+  Mn137  1  0.33278985  0.83527232  0.49755766  1
  Mn3.30+  Mn138  1  0.66640128  0.16581219  0.00100668  1
  Mn3.30+  Mn139  1  0.66566624  0.16645112  0.49943828  1
  Mn3.30+  Mn140  1  0.66722917  0.49983161  0.00259870  1
  Mn3.30+  Mn141  1  0.66600395  0.50090063  0.49763564  1
  Mn3.30+  Mn142  1  0.66727365  0.83343462  0.00315003  1
  Mn3.30+  Mn143  1  0.66656550  0.83145186  0.49941170  1
  O2-  O144  1  0.02934297  0.15656571  0.12589085  1
  O2-  O145  1  0.02490547  0.15981162  0.62576429  1
  O2-  O146  1  0.02777806  0.49554503  0.12520512  1
  O2-  O147  1  0.01312278  0.49915209  0.62433726  1
  O2-  O148  1  0.02825985  0.83022979  0.12663218  1
  O2-  O149  1  0.02556589  0.83252846  0.62677345  1
  O2-  O150  1  0.36205683  0.15921584  0.12438416  1
  O2-  O151  1  0.35819812  0.15941989  0.62604167  1
  O2-  O152  1  0.35687349  0.49064397  0.12603439  1
  O2-  O153  1  0.35823470  0.49419717  0.62247444  1
  O2-  O154  1  0.34665949  0.82771688  0.12889481  1
  O2-  O155  1  0.35873824  0.82374134  0.62267730  1
  O2-  O156  1  0.69374626  0.16056201  0.12535418  1
  O2-  O157  1  0.69276004  0.16042794  0.62384201  1
  O2-  O158  1  0.69532268  0.49277299  0.12523309  1
  O2-  O159  1  0.69209969  0.49428396  0.62349016  1
  O2-  O160  1  0.69619045  0.82730593  0.12567142  1
  O2-  O161  1  0.69312842  0.83159296  0.62293645  1
  O2-  O162  1  0.13820355  0.32546129  0.12560395  1
  O2-  O163  1  0.15075932  0.32727523  0.62328201  1
  O2-  O164  1  0.14118084  0.66622358  0.12507516  1
  O2-  O165  1  0.14899538  0.66747054  0.62453865  1
  O2-  O166  1  0.14319771  0.98996928  0.12593915  1
  O2-  O167  1  0.14189670  0.99544077  0.62241164  1
  O2-  O168  1  0.47354807  0.32751357  0.12458021  1
  O2-  O169  1  0.47325640  0.32760474  0.62457779  1
  O2-  O170  1  0.47262050  0.66065543  0.12736452  1
  O2-  O171  1  0.47276802  0.66131498  0.61966728  1
  O2-  O172  1  0.47288535  0.99354997  0.12553311  1
  O2-  O173  1  0.47126684  0.99356882  0.62332393  1
  O2-  O174  1  0.80610647  0.32558954  0.12474837  1
  O2-  O175  1  0.80733101  0.32734284  0.62678521  1
  O2-  O176  1  0.80794259  0.65652604  0.12530524  1
  O2-  O177  1  0.81351881  0.66127188  0.62429237  1
  O2-  O178  1  0.80744469  0.99557829  0.12561514  1
  O2-  O179  1  0.80810159  0.99232617  0.62414337  1
  O2-  O180  1  0.31067879  0.17737598  0.37161709  1
  O2-  O181  1  0.30741187  0.17639186  0.87790132  1
  O2-  O182  1  0.30650299  0.50757666  0.37139343  1
  O2-  O183  1  0.30868660  0.50105676  0.87971012  1
  O2-  O184  1  0.30627968  0.84016129  0.37679091  1
  O2-  O185  1  0.31041716  0.84083323  0.87291226  1
  O2-  O186  1  0.63854376  0.17200812  0.37529036  1
  O2-  O187  1  0.63891461  0.17000600  0.87588587  1
  O2-  O188  1  0.64062519  0.50262464  0.37260641  1
  O2-  O189  1  0.63908755  0.50582297  0.87886124  1
  O2-  O190  1  0.64249769  0.84111790  0.37469277  1
  O2-  O191  1  0.64115361  0.83798662  0.87725975  1
  O2-  O192  1  0.97573835  0.17264661  0.37090194  1
  O2-  O193  1  0.97629930  0.16440066  0.87663131  1
  O2-  O194  1  0.97569140  0.50331207  0.37185197  1
  O2-  O195  1  0.97705649  0.50498600  0.87826792  1
  O2-  O196  1  0.97332432  0.83714310  0.37211382  1
  O2-  O197  1  0.97515033  0.84106661  0.87425484  1
  O2-  O198  1  0.19577060  0.01030381  0.37496299  1
  O2-  O199  1  0.19604510  0.00757059  0.87685273  1
  O2-  O200  1  0.19284216  0.33924984  0.37262069  1
  O2-  O201  1  0.18981564  0.33787864  0.87804123  1
  O2-  O202  1  0.18737515  0.66815811  0.37443607  1
  O2-  O203  1  0.18468946  0.67136222  0.87597666  1
  O2-  O204  1  0.52496062  0.00521525  0.37498559  1
  O2-  O205  1  0.52589433  0.00423737  0.87692426  1
  O2-  O206  1  0.52510999  0.33732577  0.37317649  1
  O2-  O207  1  0.52739040  0.34030898  0.87763795  1
  O2-  O208  1  0.52745738  0.67068078  0.37342570  1
  O2-  O209  1  0.52269690  0.67010091  0.88008521  1
  O2-  O210  1  0.86069517  0.00707515  0.37340515  1
  O2-  O211  1  0.85724929  0.00617844  0.87657969  1
  O2-  O212  1  0.86005360  0.33962154  0.37032818  1
  O2-  O213  1  0.85250458  0.34105951  0.87761827  1
  O2-  O214  1  0.86008316  0.67073374  0.37140981  1
  O2-  O215  1  0.85961173  0.67290867  0.87881243  1
  O2-  O216  1  0.23756876  0.09807278  0.02383226  1
  O2-  O217  1  0.23653067  0.09755945  0.51761193  1
  O2-  O218  1  0.23463206  0.43099576  0.01923912  1
  O2-  O219  1  0.24058931  0.42723120  0.51710261  1
  O2-  O220  1  0.23562316  0.76343415  0.01395299  1
  O2-  O221  1  0.24135398  0.76213021  0.51900739  1
  O2-  O222  1  0.56882269  0.09453173  0.02245480  1
  O2-  O223  1  0.56979831  0.09286374  0.52190027  1
  O2-  O224  1  0.57158178  0.42706308  0.02385311  1
  O2-  O225  1  0.57088957  0.42562850  0.51970260  1
  O2-  O226  1  0.57744549  0.75722723  0.01986974  1
  O2-  O227  1  0.56880173  0.76359679  0.51696059  1
  O2-  O228  1  0.90882497  0.09397598  0.02290925  1
  O2-  O229  1  0.90410330  0.09261466  0.52030922  1
  O2-  O230  1  0.90226883  0.43126960  0.01930379  1
  O2-  O231  1  0.90144063  0.42916696  0.51498670  1
  O2-  O232  1  0.90339651  0.76215216  0.02286947  1
  O2-  O233  1  0.90113053  0.76295990  0.51508915  1
  O2-  O234  1  0.26356057  0.26593893  0.22755541  1
  O2-  O235  1  0.26468306  0.25985394  0.73118008  1
  O2-  O236  1  0.26403089  0.59891902  0.23070469  1
  O2-  O237  1  0.26212692  0.59470925  0.73242203  1
  O2-  O238  1  0.26105385  0.93029709  0.22994837  1
  O2-  O239  1  0.26241979  0.92731628  0.72531609  1
  O2-  O240  1  0.59729576  0.26193532  0.23123842  1
  O2-  O241  1  0.59537620  0.26107167  0.72944969  1
  O2-  O242  1  0.59366710  0.59025313  0.22576199  1
  O2-  O243  1  0.59090964  0.59282684  0.73302992  1
  O2-  O244  1  0.59738954  0.92885427  0.23327672  1
  O2-  O245  1  0.59508414  0.92795207  0.72945909  1
  O2-  O246  1  0.93008497  0.26315649  0.22650596  1
  O2-  O247  1  0.92497331  0.25668128  0.73069621  1
  O2-  O248  1  0.93054104  0.59619409  0.23092081  1
  O2-  O249  1  0.92331557  0.59207558  0.73717174  1
  O2-  O250  1  0.93217255  0.92938163  0.23121094  1
  O2-  O251  1  0.92935611  0.92775579  0.72964826  1
  O2-  O252  1  0.09586900  0.24013257  0.27281059  1
  O2-  O253  1  0.09707675  0.23659765  0.76670464  1
  O2-  O254  1  0.09365621  0.57222222  0.26980409  1
  O2-  O255  1  0.09058916  0.57428264  0.77099738  1
  O2-  O256  1  0.09678243  0.90376410  0.27335462  1
  O2-  O257  1  0.09592286  0.90706525  0.77095994  1
  O2-  O258  1  0.42984616  0.23699121  0.26810025  1
  O2-  O259  1  0.42898390  0.23715688  0.77115116  1
  O2-  O260  1  0.42748197  0.57101050  0.27041414  1
  O2-  O261  1  0.42881587  0.56908530  0.76626660  1
  O2-  O262  1  0.42821418  0.90554850  0.27169853  1
  O2-  O263  1  0.43152295  0.90311278  0.76800585  1
  O2-  O264  1  0.76347254  0.23970886  0.27081927  1
  O2-  O265  1  0.76199938  0.23720629  0.77203635  1
  O2-  O266  1  0.76071190  0.57256542  0.27074265  1
  O2-  O267  1  0.75827328  0.57235696  0.77244343  1
  O2-  O268  1  0.76074690  0.90651085  0.27190733  1
  O2-  O269  1  0.76174988  0.90471036  0.77137815  1
  O2-  O270  1  0.07293254  0.07079873  0.47878614  1
  O2-  O271  1  0.07414171  0.07077502  0.97964900  1
  O2-  O272  1  0.07281825  0.40660410  0.47798453  1
  O2-  O273  1  0.07412787  0.40801924  0.98129458  1
  O2-  O274  1  0.07075541  0.73939990  0.47931078  1
  O2-  O275  1  0.07009461  0.74016959  0.98153863  1
  O2-  O276  1  0.40375956  0.07175661  0.47515301  1
  O2-  O277  1  0.40221655  0.07232439  0.97856962  1
  O2-  O278  1  0.40381035  0.40427558  0.47689984  1
  O2-  O279  1  0.40685769  0.40690535  0.97935972  1
  O2-  O280  1  0.40510665  0.73832572  0.47540043  1
  O2-  O281  1  0.40965507  0.74478288  0.98400953  1
  O2-  O282  1  0.73793120  0.07285821  0.47874960  1
  O2-  O283  1  0.73519147  0.07134590  0.98266431  1
  O2-  O284  1  0.73774679  0.40482518  0.47859195  1
  O2-  O285  1  0.73614224  0.40524379  0.97981402  1
  O2-  O286  1  0.73900530  0.73824107  0.47495426  1
  O2-  O287  1  0.73950458  0.73839798  0.97983511  1
  O2-  O288  1  0.09695185  0.24010331  0.47843534  1
  O2-  O289  1  0.09748127  0.23691883  0.98168978  1
  O2-  O290  1  0.09069517  0.57224411  0.47914519  1
  O2-  O291  1  0.09376299  0.57403366  0.98038629  1
  O2-  O292  1  0.09858370  0.90542687  0.47714854  1
  O2-  O293  1  0.09652438  0.90767423  0.97757405  1
  O2-  O294  1  0.43155906  0.23410628  0.48369080  1
  O2-  O295  1  0.42753433  0.23963937  0.97710907  1
  O2-  O296  1  0.42591988  0.57051660  0.47668049  1
  O2-  O297  1  0.43006433  0.56891182  0.98559299  1
  O2-  O298  1  0.43114818  0.90179298  0.48069579  1
  O2-  O299  1  0.42865834  0.90724328  0.98028126  1
  O2-  O300  1  0.76158873  0.23993645  0.47747986  1
  O2-  O301  1  0.76355379  0.23700703  0.97966705  1
  O2-  O302  1  0.76102635  0.57171146  0.47999620  1
  O2-  O303  1  0.75946661  0.57446659  0.97695924  1
  O2-  O304  1  0.76303378  0.90626968  0.47742728  1
  O2-  O305  1  0.76043014  0.90604714  0.97829807  1
  O2-  O306  1  0.07369228  0.06985169  0.27176210  1
  O2-  O307  1  0.07282159  0.07177368  0.76989281  1
  O2-  O308  1  0.07177666  0.40514604  0.27124244  1
  O2-  O309  1  0.07601511  0.41027925  0.76740689  1
  O2-  O310  1  0.06831355  0.73609191  0.26675479  1
  O2-  O311  1  0.07266596  0.74225860  0.77274160  1
  O2-  O312  1  0.40153395  0.07109935  0.27062891  1
  O2-  O313  1  0.40419892  0.07291927  0.77540193  1
  O2-  O314  1  0.40534660  0.40686278  0.27173909  1
  O2-  O315  1  0.40675852  0.40491661  0.77087165  1
  O2-  O316  1  0.40716378  0.74167782  0.27330987  1
  O2-  O317  1  0.40720555  0.74095879  0.76756472  1
  O2-  O318  1  0.73805911  0.07379188  0.27142498  1
  O2-  O319  1  0.73530845  0.06994376  0.76730915  1
  O2-  O320  1  0.73776129  0.40518552  0.27085076  1
  O2-  O321  1  0.73629777  0.40477723  0.77020845  1
  O2-  O322  1  0.73808319  0.73721953  0.27125068  1
  O2-  O323  1  0.73974701  0.73947313  0.77374133  1
  O2-  O324  1  0.23757263  0.09999519  0.22778655  1
  O2-  O325  1  0.23720323  0.09727566  0.73117259  1
  O2-  O326  1  0.23210141  0.43310623  0.23012546  1
  O2-  O327  1  0.24363533  0.42539520  0.73469702  1
  O2-  O328  1  0.23643637  0.76179298  0.23709060  1
  O2-  O329  1  0.24007530  0.76377715  0.73193634  1
  O2-  O330  1  0.56912333  0.09316485  0.22859961  1
  O2-  O331  1  0.56975892  0.09322164  0.72872503  1
  O2-  O332  1  0.57145065  0.42590470  0.22869052  1
  O2-  O333  1  0.57194895  0.42753191  0.72816743  1
  O2-  O334  1  0.57579400  0.75842508  0.23077622  1
  O2-  O335  1  0.57091141  0.76268833  0.73335149  1
  O2-  O336  1  0.90662331  0.09579865  0.22891071  1
  O2-  O337  1  0.90673515  0.09159033  0.72752961  1
  O2-  O338  1  0.90247300  0.43133311  0.22891783  1
  O2-  O339  1  0.90107152  0.42878261  0.73588335  1
  O2-  O340  1  0.90312647  0.76244513  0.22662574  1
  O2-  O341  1  0.90355149  0.76468151  0.73433138  1
  O2-  O342  1  0.26476580  0.26627843  0.01987585  1
  O2-  O343  1  0.26386449  0.25845467  0.52052036  1
  O2-  O344  1  0.26188540  0.59669667  0.02305309  1
  O2-  O345  1  0.26400725  0.59613051  0.51449539  1
  O2-  O346  1  0.26088708  0.92881347  0.02140760  1
  O2-  O347  1  0.26299103  0.92906613  0.52490963  1
  O2-  O348  1  0.59815137  0.26175438  0.01861928  1
  O2-  O349  1  0.59550986  0.26085343  0.52125428  1
  O2-  O350  1  0.59507160  0.59283159  0.02378659  1
  O2-  O351  1  0.58894807  0.58947978  0.51854920  1
  O2-  O352  1  0.59743688  0.92917418  0.01879179  1
  O2-  O353  1  0.59436212  0.92867640  0.51990205  1
  O2-  O354  1  0.92986543  0.26082089  0.02493711  1
  O2-  O355  1  0.92504003  0.25838349  0.51629680  1
  O2-  O356  1  0.93035477  0.59650956  0.01865804  1
  O2-  O357  1  0.92332779  0.59246275  0.51306787  1
  O2-  O358  1  0.93088046  0.92928716  0.01884151  1
  O2-  O359  1  0.93088212  0.92685681  0.51898027  1
