# generated using pymatgen
data_Sr7Ca15Pr50Mn72O216
_symmetry_space_group_name_H-M   'P 1'
_cell_length_a   16.55832422
_cell_length_b   16.60448716
_cell_length_c   15.59442584
_cell_angle_alpha   90.00462386
_cell_angle_beta   90.00094940
_cell_angle_gamma   90.00855056
_symmetry_Int_Tables_number   1
_chemical_formula_structural   Sr7Ca15Pr50Mn72O216
_chemical_formula_sum   'Sr7 Ca15 Pr50 Mn72 O216'
_cell_volume   4287.57008126
_cell_formula_units_Z   1
loop_
 _symmetry_equiv_pos_site_id
 _symmetry_equiv_pos_as_xyz
  1  'x, y, z'
loop_
 _atom_type_symbol
 _atom_type_oxidation_number
  Sr2+  2.0
  Ca2+  2.0
  Pr3+  3.0
  Mn3.30+  3.3
  O2-  -2.0
loop_
 _atom_site_type_symbol
 _atom_site_label
 _atom_site_symmetry_multiplicity
 _atom_site_fract_x
 _atom_site_fract_y
 _atom_site_fract_z
 _atom_site_occupancy
  Sr2+  Sr0  1  1.00498461  0.32435431  0.37504116  1
  Sr2+  Sr1  1  0.17120425  0.50887551  0.12845563  1
  Sr2+  Sr2  1  0.33515962  0.34149744  0.12508706  1
  Sr2+  Sr3  1  0.66084165  0.34331324  0.12499503  1
  Sr2+  Sr4  1  0.66337692  0.67743181  0.62452980  1
  Sr2+  Sr5  1  0.66471514  0.67624933  0.12543024  1
  Sr2+  Sr6  1  0.16928071  0.48996945  0.37333537  1
  Ca2+  Ca7  1  0.17035250  0.18016075  0.62358016  1
  Ca2+  Ca8  1  0.49495700  0.48699197  0.37055736  1
  Ca2+  Ca9  1  0.83862262  0.85024995  0.12541057  1
  Ca2+  Ca10  1  0.50193381  0.51333904  0.12809534  1
  Ca2+  Ca11  1  0.33129287  0.01446910  0.12714437  1
  Ca2+  Ca12  1  0.82824067  0.82005027  0.87778241  1
  Ca2+  Ca13  1  0.50193991  0.17914684  0.12703380  1
  Ca2+  Ca14  1  0.49692024  0.15255471  0.87970826  1
  Ca2+  Ca15  1  -0.00131359  0.01488169  0.62475529  1
  Ca2+  Ca16  1  0.33596280  0.98766056  0.37210935  1
  Ca2+  Ca17  1  -0.00186302  0.01438632  0.12635996  1
  Ca2+  Ca18  1  0.50359611  0.51608739  0.62180685  1
  Ca2+  Ca19  1  0.33169676  0.67339882  0.13005420  1
  Ca2+  Ca20  1  0.49309080  0.15091212  0.37048597  1
  Ca2+  Ca21  1  0.33933612  0.64584283  0.37086949  1
  Pr3+  Pr22  1  0.16978779  0.51161716  0.62224251  1
  Pr3+  Pr23  1  0.50355247  0.17859376  0.62381476  1
  Pr3+  Pr24  1  -0.00204761  0.34653490  0.12637566  1
  Pr3+  Pr25  1  0.83670436  0.84791786  0.62496354  1
  Pr3+  Pr26  1  0.83453625  0.51510670  0.62392843  1
  Pr3+  Pr27  1  0.33619503  0.65387845  0.87752102  1
  Pr3+  Pr28  1  0.33667254  0.98849161  0.87693511  1
  Pr3+  Pr29  1  0.49464426  0.81809266  0.37368448  1
  Pr3+  Pr30  1  0.16757998  0.82119324  0.37383818  1
  Pr3+  Pr31  1  0.67007818  0.98593903  0.87659695  1
  Pr3+  Pr32  1  0.66694947  0.98907953  0.37372646  1
  Pr3+  Pr33  1  0.50367393  0.84514553  0.62391680  1
  Pr3+  Pr34  1  0.16853889  0.84701674  0.62449043  1
  Pr3+  Pr35  1  1.00138949  0.65595927  0.87619065  1
  Pr3+  Pr36  1  0.17044166  0.17770625  0.12501278  1
  Pr3+  Pr37  1  0.66522929  0.32090210  0.37404179  1
  Pr3+  Pr38  1  0.49886905  0.82013363  0.87630850  1
  Pr3+  Pr39  1  0.16568597  0.48700968  0.87636747  1
  Pr3+  Pr40  1  0.16535125  0.15330507  0.87527942  1
  Pr3+  Pr41  1  0.66319542  0.01071141  0.62413785  1
  Pr3+  Pr42  1  1.00542262  0.99013204  0.37319954  1
  Pr3+  Pr43  1  0.82697539  0.48767016  0.87503775  1
  Pr3+  Pr44  1  0.66728689  0.31856241  0.87579724  1
  Pr3+  Pr45  1  0.66867795  0.65526727  0.87660668  1
  Pr3+  Pr46  1  1.00393932  0.65407117  0.37417606  1
  Pr3+  Pr47  1  0.49790059  0.48850844  0.87677885  1
  Pr3+  Pr48  1  0.00002438  0.34530564  0.62380429  1
  Pr3+  Pr49  1  0.83285593  0.15536121  0.37428313  1
  Pr3+  Pr50  1  -0.00304613  0.68011668  0.12714228  1
  Pr3+  Pr51  1  0.66582755  0.65191425  0.37338902  1
  Pr3+  Pr52  1  0.66268801  0.01263203  0.12597331  1
  Pr3+  Pr53  1  0.83486701  0.17879864  0.12565863  1
  Pr3+  Pr54  1  0.83579649  0.17749953  0.62499245  1
  Pr3+  Pr55  1  0.33790399  0.31703742  0.87731338  1
  Pr3+  Pr56  1  0.83529507  0.51240334  0.12566548  1
  Pr3+  Pr57  1  0.32982345  0.01482830  0.62311225  1
  Pr3+  Pr58  1  0.33722084  0.32193565  0.37184604  1
  Pr3+  Pr59  1  0.16524363  0.15782609  0.37456995  1
  Pr3+  Pr60  1  1.00215086  0.98599022  0.87692793  1
  Pr3+  Pr61  1  0.16425102  0.82002251  0.87590991  1
  Pr3+  Pr62  1  0.82913948  0.48640060  0.37468962  1
  Pr3+  Pr63  1  0.49989483  0.84311714  0.12586591  1
  Pr3+  Pr64  1  0.66053285  0.34933024  0.62514642  1
  Pr3+  Pr65  1  1.00238843  0.31968708  0.87505877  1
  Pr3+  Pr66  1  -0.00338652  0.67964998  0.62309620  1
  Pr3+  Pr67  1  0.17261944  0.84618904  0.12504114  1
  Pr3+  Pr68  1  0.82967868  0.15253510  0.87602038  1
  Pr3+  Pr69  1  0.83002541  0.82168112  0.37180922  1
  Pr3+  Pr70  1  0.33239090  0.67815436  0.62162891  1
  Pr3+  Pr71  1  0.33148665  0.34610056  0.62503994  1
  Mn3.30+  Mn72  1  0.16731488  -0.00065887  0.00245486  1
  Mn3.30+  Mn73  1  0.16780983  0.00273941  0.50038691  1
  Mn3.30+  Mn74  1  0.16822183  0.33279414  -0.00017515  1
  Mn3.30+  Mn75  1  0.16835172  0.33225172  0.50070846  1
  Mn3.30+  Mn76  1  0.16822563  0.66593779  0.00261118  1
  Mn3.30+  Mn77  1  0.16853699  0.66680854  0.49773441  1
  Mn3.30+  Mn78  1  0.49913044  0.00146201  0.00259878  1
  Mn3.30+  Mn79  1  0.49687815  0.00042706  0.49708557  1
  Mn3.30+  Mn80  1  0.50046374  0.33229647  0.00179191  1
  Mn3.30+  Mn81  1  0.49900481  0.33388939  0.49884234  1
  Mn3.30+  Mn82  1  0.49955404  0.66568851  0.00356574  1
  Mn3.30+  Mn83  1  0.49813835  0.66366198  0.49794876  1
  Mn3.30+  Mn84  1  0.83498603  -0.00189218  0.00235647  1
  Mn3.30+  Mn85  1  0.83548321  0.00055137  0.49957871  1
  Mn3.30+  Mn86  1  0.83217774  0.33334606  0.00051117  1
  Mn3.30+  Mn87  1  0.83224532  0.33262402  0.49990553  1
  Mn3.30+  Mn88  1  0.83315703  0.67020799  0.00150360  1
  Mn3.30+  Mn89  1  0.83215109  0.66799872  0.49860360  1
  Mn3.30+  Mn90  1  0.00090637  0.16678082  0.24972112  1
  Mn3.30+  Mn91  1  0.00123890  0.16500940  0.74813296  1
  Mn3.30+  Mn92  1  0.00193012  0.50016578  0.25006820  1
  Mn3.30+  Mn93  1  -0.00101428  0.50078345  0.75052204  1
  Mn3.30+  Mn94  1  0.00000944  0.83611834  0.24839754  1
  Mn3.30+  Mn95  1  -0.00179269  0.83471198  0.75105677  1
  Mn3.30+  Mn96  1  0.33584187  0.16461382  0.24890954  1
  Mn3.30+  Mn97  1  0.33487938  0.16584290  0.75002615  1
  Mn3.30+  Mn98  1  0.33658541  0.49872494  0.24866940  1
  Mn3.30+  Mn99  1  0.33495319  0.50023520  0.74875241  1
  Mn3.30+  Mn100  1  0.33356890  0.83203561  0.24984063  1
  Mn3.30+  Mn101  1  0.33380307  0.83353971  0.74958071  1
  Mn3.30+  Mn102  1  0.66216236  0.16659458  0.25122628  1
  Mn3.30+  Mn103  1  0.66513313  0.16515515  0.75085599  1
  Mn3.30+  Mn104  1  0.66190864  0.49872645  0.24940298  1
  Mn3.30+  Mn105  1  0.66334478  0.50121438  0.74924206  1
  Mn3.30+  Mn106  1  0.66646752  0.83343810  0.24764812  1
  Mn3.30+  Mn107  1  0.66851019  0.83283273  0.75063357  1
  Mn3.30+  Mn108  1  0.16988495  0.00031307  0.24912626  1
  Mn3.30+  Mn109  1  0.16553718  0.00140355  0.74805280  1
  Mn3.30+  Mn110  1  0.16890101  0.33362638  0.24982016  1
  Mn3.30+  Mn111  1  0.16809552  0.33152432  0.74966234  1
  Mn3.30+  Mn112  1  0.17013278  0.66595626  0.25025859  1
  Mn3.30+  Mn113  1  0.16646711  0.66636517  0.74919728  1
  Mn3.30+  Mn114  1  0.49590996  0.00099034  0.24877988  1
  Mn3.30+  Mn115  1  0.50010775  0.00094322  0.75152090  1
  Mn3.30+  Mn116  1  0.50046966  0.33312280  0.24905895  1
  Mn3.30+  Mn117  1  0.49900336  0.33293857  0.75032380  1
  Mn3.30+  Mn118  1  0.49732141  0.66389619  0.24871431  1
  Mn3.30+  Mn119  1  0.50027140  0.66590403  0.74945272  1
  Mn3.30+  Mn120  1  0.83518905  0.00020961  0.24863023  1
  Mn3.30+  Mn121  1  0.83505423  -0.00115709  0.75024518  1
  Mn3.30+  Mn122  1  0.83210484  0.33305215  0.25074458  1
  Mn3.30+  Mn123  1  0.83238533  0.33309224  0.74882531  1
  Mn3.30+  Mn124  1  0.83244424  0.66804343  0.24912609  1
  Mn3.30+  Mn125  1  0.83267184  0.66972831  0.75074642  1
  Mn3.30+  Mn126  1  -0.00030063  0.16500704  0.00034873  1
  Mn3.30+  Mn127  1  0.00250225  0.16649973  0.50261937  1
  Mn3.30+  Mn128  1  -0.00035322  0.50109372  -0.00014515  1
  Mn3.30+  Mn129  1  0.00118617  0.49981049  0.49939938  1
  Mn3.30+  Mn130  1  -0.00246365  0.83459899  0.00188177  1
  Mn3.30+  Mn131  1  0.00042072  0.83627464  0.49900992  1
  Mn3.30+  Mn132  1  0.33637381  0.16440770  0.00235179  1
  Mn3.30+  Mn133  1  0.33449167  0.16652373  0.49851285  1
  Mn3.30+  Mn134  1  0.33392672  0.49990954  0.00345749  1
  Mn3.30+  Mn135  1  0.33773133  0.49931875  0.49891566  1
  Mn3.30+  Mn136  1  0.33351246  0.83232859  0.00226235  1
  Mn3.30+  Mn137  1  0.33392670  0.83365367  0.49779252  1
  Mn3.30+  Mn138  1  0.66280455  0.16593779  0.00053262  1
  Mn3.30+  Mn139  1  0.66467441  0.16586873  0.49808597  1
  Mn3.30+  Mn140  1  0.66355103  0.49953859  0.00276261  1
  Mn3.30+  Mn141  1  0.66130090  0.50012250  0.49846885  1
  Mn3.30+  Mn142  1  0.66930065  0.83323118  0.00347009  1
  Mn3.30+  Mn143  1  0.66592714  0.83306903  0.49849897  1
  O2-  O144  1  0.02502287  0.16089923  0.12214707  1
  O2-  O145  1  0.02793474  0.15859754  0.62693344  1
  O2-  O146  1  0.01789067  0.49635981  0.12431077  1
  O2-  O147  1  0.02400762  0.49689022  0.62732267  1
  O2-  O148  1  0.02896235  0.82597718  0.12500058  1
  O2-  O149  1  0.02555428  0.82543512  0.62295928  1
  O2-  O150  1  0.35994361  0.15932466  0.12495932  1
  O2-  O151  1  0.36140323  0.16173969  0.62392155  1
  O2-  O152  1  0.36045908  0.49536733  0.12366037  1
  O2-  O153  1  0.36208342  0.49397868  0.62599839  1
  O2-  O154  1  0.35692288  0.81949243  0.12496937  1
  O2-  O155  1  0.35947967  0.82686362  0.62439557  1
  O2-  O156  1  0.69102681  0.16208004  0.12691673  1
  O2-  O157  1  0.69077370  0.15965505  0.62480492  1
  O2-  O158  1  0.69244674  0.49753072  0.12482331  1
  O2-  O159  1  0.69140695  0.49671567  0.62427690  1
  O2-  O160  1  0.69439075  0.83356698  0.12592776  1
  O2-  O161  1  0.69122399  0.83448862  0.62256399  1
  O2-  O162  1  0.14242977  0.32635538  0.12124000  1
  O2-  O163  1  0.14447542  0.32758435  0.62767303  1
  O2-  O164  1  0.14215380  0.66690034  0.12539125  1
  O2-  O165  1  0.14110906  0.66125732  0.62438417  1
  O2-  O166  1  0.13923428  0.99410066  0.12455777  1
  O2-  O167  1  0.13896695  0.99234781  0.62547548  1
  O2-  O168  1  0.48291590  0.32143747  0.12326332  1
  O2-  O169  1  0.47388944  0.32260110  0.62639356  1
  O2-  O170  1  0.47370219  0.66209905  0.12506956  1
  O2-  O171  1  0.47571022  0.66276716  0.62349770  1
  O2-  O172  1  0.47206997  0.98924049  0.12504376  1
  O2-  O173  1  0.47523321  0.99273383  0.62249945  1
  O2-  O174  1  0.81231473  0.32789808  0.12526365  1
  O2-  O175  1  0.80570563  0.32637005  0.62432934  1
  O2-  O176  1  0.81373195  0.65794141  0.12577013  1
  O2-  O177  1  0.81358531  0.66347555  0.62259968  1
  O2-  O178  1  0.80760376  0.99752680  0.12484857  1
  O2-  O179  1  0.80673987  0.99575359  0.62321378  1
  O2-  O180  1  0.30802706  0.17365822  0.37523927  1
  O2-  O181  1  0.30905243  0.16694032  0.87518198  1
  O2-  O182  1  0.31704387  0.49894239  0.37628613  1
  O2-  O183  1  0.30829285  0.50674417  0.87393729  1
  O2-  O184  1  0.30960914  0.84436790  0.37500725  1
  O2-  O185  1  0.30839477  0.84008623  0.87470620  1
  O2-  O186  1  0.63760326  0.17017152  0.37583600  1
  O2-  O187  1  0.64078356  0.16906232  0.87301330  1
  O2-  O188  1  0.63901690  0.50331125  0.37467419  1
  O2-  O189  1  0.64329614  0.50562265  0.87575374  1
  O2-  O190  1  0.64093819  0.84089736  0.37312343  1
  O2-  O191  1  0.64286474  0.83841219  0.87832626  1
  O2-  O192  1  0.97688682  0.16864133  0.37761269  1
  O2-  O193  1  0.97273652  0.17215306  0.87433185  1
  O2-  O194  1  0.97469279  0.50454510  0.37455638  1
  O2-  O195  1  0.97176517  0.50648181  0.87358662  1
  O2-  O196  1  0.97371072  0.84289322  0.37486480  1
  O2-  O197  1  0.97091524  0.83944131  0.87824902  1
  O2-  O198  1  0.19390219  0.00818931  0.37525164  1
  O2-  O199  1  0.19240407  0.00413497  0.87490766  1
  O2-  O200  1  0.19010658  0.33052981  0.37767456  1
  O2-  O201  1  0.19133275  0.33791893  0.87363919  1
  O2-  O202  1  0.19396199  0.67340395  0.37590446  1
  O2-  O203  1  0.19106183  0.67149345  0.87414634  1
  O2-  O204  1  0.52375651  0.00436473  0.37390477  1
  O2-  O205  1  0.52593966  0.00605724  0.87850130  1
  O2-  O206  1  0.52359972  0.34395258  0.37663634  1
  O2-  O207  1  0.52512503  0.34241924  0.87362515  1
  O2-  O208  1  0.52389965  0.67308269  0.37368220  1
  O2-  O209  1  0.52409686  0.67240851  0.87673273  1
  O2-  O210  1  0.86091664  0.00687497  0.37515176  1
  O2-  O211  1  0.85891311  0.00701502  0.87744078  1
  O2-  O212  1  0.85441620  0.33775808  0.37687456  1
  O2-  O213  1  0.85792525  0.33901184  0.87356636  1
  O2-  O214  1  0.85949007  0.67269265  0.37417077  1
  O2-  O215  1  0.85843250  0.67396461  0.87728035  1
  O2-  O216  1  0.23772058  0.09388250  0.01828961  1
  O2-  O217  1  0.23806605  0.09662653  0.52334249  1
  O2-  O218  1  0.23951547  0.42950197  0.01193128  1
  O2-  O219  1  0.24147731  0.42658622  0.52289766  1
  O2-  O220  1  0.23585016  0.76462920  0.01393654  1
  O2-  O221  1  0.23804656  0.76209098  0.52134440  1
  O2-  O222  1  0.57079467  0.09287465  0.02612147  1
  O2-  O223  1  0.57229101  0.09167792  0.52169541  1
  O2-  O224  1  0.56778337  0.43152668  0.01703405  1
  O2-  O225  1  0.57070698  0.42699302  0.52587471  1
  O2-  O226  1  0.56996513  0.76279263  0.01787195  1
  O2-  O227  1  0.56731680  0.76296423  0.51536085  1
  O2-  O228  1  0.90196663  0.09757318  0.01798802  1
  O2-  O229  1  0.90412040  0.09575135  0.51953162  1
  O2-  O230  1  0.90390979  0.42836827  0.01880595  1
  O2-  O231  1  0.90499952  0.42803456  0.52163480  1
  O2-  O232  1  0.90658884  0.76315941  0.02668173  1
  O2-  O233  1  0.90640306  0.76438662  0.51822321  1
  O2-  O234  1  0.25982138  0.25519401  0.23132913  1
  O2-  O235  1  0.26812517  0.26081829  0.73403712  1
  O2-  O236  1  0.26515057  0.59257438  0.23407843  1
  O2-  O237  1  0.26258747  0.59337969  0.72706787  1
  O2-  O238  1  0.26189906  0.92686106  0.22552997  1
  O2-  O239  1  0.26099718  0.92760119  0.72843974  1
  O2-  O240  1  0.59500840  0.26270514  0.23903205  1
  O2-  O241  1  0.59530690  0.26284778  0.72965170  1
  O2-  O242  1  0.59473624  0.59568048  0.23559800  1
  O2-  O243  1  0.59363456  0.59474548  0.73636480  1
  O2-  O244  1  0.59364730  0.92866411  0.22975905  1
  O2-  O245  1  0.59626900  0.92809391  0.73202918  1
  O2-  O246  1  0.92712356  0.25930694  0.22825620  1
  O2-  O247  1  0.92995957  0.25968503  0.72810713  1
  O2-  O248  1  0.92731088  0.59477262  0.23240878  1
  O2-  O249  1  0.92817073  0.59577720  0.73011656  1
  O2-  O250  1  0.93329815  0.93083379  0.22996999  1
  O2-  O251  1  0.92951849  0.93059242  0.72738987  1
  O2-  O252  1  0.09568480  0.23725276  0.26469441  1
  O2-  O253  1  0.09187739  0.23865365  0.77333044  1
  O2-  O254  1  0.09045646  0.57789761  0.26946882  1
  O2-  O255  1  0.09449145  0.57234565  0.77101732  1
  O2-  O256  1  0.09771285  0.90673053  0.27208617  1
  O2-  O257  1  0.09333983  0.90403045  0.77195890  1
  O2-  O258  1  0.42697853  0.23888027  0.27223128  1
  O2-  O259  1  0.43119076  0.23572361  0.77330232  1
  O2-  O260  1  0.43040441  0.56955366  0.26882100  1
  O2-  O261  1  0.42557260  0.57328408  0.77287552  1
  O2-  O262  1  0.42988542  0.90101997  0.26599093  1
  O2-  O263  1  0.42998669  0.90630122  0.77087665  1
  O2-  O264  1  0.76005916  0.23829918  0.27143079  1
  O2-  O265  1  0.76050400  0.23754314  0.77079374  1
  O2-  O266  1  0.75935140  0.57083555  0.27134980  1
  O2-  O267  1  0.76243712  0.57366717  0.76949392  1
  O2-  O268  1  0.76115736  0.90936825  0.27227497  1
  O2-  O269  1  0.76398903  0.90414491  0.77051975  1
  O2-  O270  1  0.07395617  0.07365455  0.47755742  1
  O2-  O271  1  0.07207034  0.07374071  0.97665754  1
  O2-  O272  1  0.07460694  0.40557597  0.49039856  1
  O2-  O273  1  0.07077126  0.40553410  0.97890701  1
  O2-  O274  1  0.07095799  0.74192360  0.47783517  1
  O2-  O275  1  0.06994263  0.73985739  0.97920849  1
  O2-  O276  1  0.40069864  0.06725634  0.48185130  1
  O2-  O277  1  0.40512452  0.07074852  0.97943710  1
  O2-  O278  1  0.40208433  0.39862797  0.48515456  1
  O2-  O279  1  0.40647676  0.40576999  0.97702261  1
  O2-  O280  1  0.40298011  0.73311902  0.47875057  1
  O2-  O281  1  0.40683289  0.74100830  0.97625364  1
  O2-  O282  1  0.74016355  0.07124004  0.47821316  1
  O2-  O283  1  0.73750213  0.07189433  0.98089934  1
  O2-  O284  1  0.73434389  0.40748172  0.48047900  1
  O2-  O285  1  0.73843378  0.40703428  0.97677718  1
  O2-  O286  1  0.73954035  0.74104026  0.47519482  1
  O2-  O287  1  0.73897340  0.73876037  0.98022435  1
  O2-  O288  1  0.09681401  0.23758290  0.48541622  1
  O2-  O289  1  0.09237654  0.23803463  0.97747013  1
  O2-  O290  1  0.09212279  0.57611275  0.48183195  1
  O2-  O291  1  0.09310073  0.57379448  0.97680404  1
  O2-  O292  1  0.09542820  0.90665918  0.47735193  1
  O2-  O293  1  0.09538883  0.90431461  0.97817757  1
  O2-  O294  1  0.43126451  0.23522540  0.47756466  1
  O2-  O295  1  0.42684080  0.23922634  0.97666958  1
  O2-  O296  1  0.43099872  0.56782836  0.48081729  1
  O2-  O297  1  0.42641764  0.57346354  0.97672383  1
  O2-  O298  1  0.43108271  0.90199436  0.48285179  1
  O2-  O299  1  0.42854771  0.90497453  0.97929215  1
  O2-  O300  1  0.75943030  0.23754320  0.47886806  1
  O2-  O301  1  0.76164435  0.23859994  0.97950558  1
  O2-  O302  1  0.75990788  0.57124556  0.47847287  1
  O2-  O303  1  0.76126477  0.57273819  0.97996744  1
  O2-  O304  1  0.76371862  0.90724345  0.47805918  1
  O2-  O305  1  0.76232325  0.90756251  0.97823230  1
  O2-  O306  1  0.07435739  0.07392731  0.27031963  1
  O2-  O307  1  0.07163982  0.07293220  0.77524577  1
  O2-  O308  1  0.07225600  0.40684310  0.26057894  1
  O2-  O309  1  0.06905375  0.40751794  0.77051289  1
  O2-  O310  1  0.07019754  0.74205197  0.27208354  1
  O2-  O311  1  0.06994661  0.73990562  0.77072283  1
  O2-  O312  1  0.40290930  0.06922816  0.27111909  1
  O2-  O313  1  0.40196243  0.06913943  0.76625949  1
  O2-  O314  1  0.40714271  0.40250367  0.26717180  1
  O2-  O315  1  0.40311582  0.40362167  0.77174471  1
  O2-  O316  1  0.40394744  0.73702993  0.27331806  1
  O2-  O317  1  0.40460028  0.73851418  0.76973822  1
  O2-  O318  1  0.73716112  0.07419633  0.27104927  1
  O2-  O319  1  0.73952808  0.06940209  0.77041340  1
  O2-  O320  1  0.73820537  0.40723895  0.27294689  1
  O2-  O321  1  0.73530406  0.40691810  0.76931628  1
  O2-  O322  1  0.73881842  0.74055233  0.27318750  1
  O2-  O323  1  0.73817264  0.73940171  0.77009977  1
  O2-  O324  1  0.23724736  0.09457930  0.22941627  1
  O2-  O325  1  0.23830045  0.09638026  0.72783174  1
  O2-  O326  1  0.24339807  0.42381608  0.23630688  1
  O2-  O327  1  0.23922932  0.43031996  0.72950137  1
  O2-  O328  1  0.23619358  0.76477795  0.23431989  1
  O2-  O329  1  0.23770110  0.76078034  0.72894577  1
  O2-  O330  1  0.57058303  0.09267691  0.22718631  1
  O2-  O331  1  0.57222770  0.09185631  0.72682751  1
  O2-  O332  1  0.56991005  0.42987857  0.22955336  1
  O2-  O333  1  0.56796383  0.42833796  0.72785768  1
  O2-  O334  1  0.56817889  0.76233972  0.23285083  1
  O2-  O335  1  0.56998939  0.76458781  0.73413221  1
  O2-  O336  1  0.90338402  0.09699579  0.23246052  1
  O2-  O337  1  0.90312709  0.09668548  0.73209342  1
  O2-  O338  1  0.90457226  0.42839583  0.23170796  1
  O2-  O339  1  0.90403454  0.42873980  0.72762414  1
  O2-  O340  1  0.90562099  0.76495713  0.22998432  1
  O2-  O341  1  0.90668143  0.76222928  0.72723503  1
  O2-  O342  1  0.25991694  0.25568618  0.01542124  1
  O2-  O343  1  0.26524189  0.26215552  0.51960444  1
  O2-  O344  1  0.26541024  0.59743862  0.01747730  1
  O2-  O345  1  0.26222920  0.59037060  0.52209295  1
  O2-  O346  1  0.26412375  0.92698333  0.02219259  1
  O2-  O347  1  0.25801967  0.92823168  0.52353791  1
  O2-  O348  1  0.59588785  0.26194480  0.00996397  1
  O2-  O349  1  0.59407834  0.26347885  0.52082285  1
  O2-  O350  1  0.59358923  0.59473758  0.01415233  1
  O2-  O351  1  0.59501752  0.59621082  0.51406537  1
  O2-  O352  1  0.59467857  0.92805462  0.02077072  1
  O2-  O353  1  0.59471841  0.92881562  0.51789148  1
  O2-  O354  1  0.92945444  0.26123065  0.01900108  1
  O2-  O355  1  0.92931388  0.25694464  0.52548066  1
  O2-  O356  1  0.92783114  0.59729339  0.01841599  1
  O2-  O357  1  0.92669957  0.59510793  0.51866111  1
  O2-  O358  1  0.93294241  0.93262546  0.02217265  1
  O2-  O359  1  0.92950788  0.93024522  0.52289019  1
