# generated using pymatgen
data_Sr7Ca15Pr50Mn72O216
_symmetry_space_group_name_H-M   'P 1'
_cell_length_a   16.55678617
_cell_length_b   16.60335352
_cell_length_c   15.58951095
_cell_angle_alpha   89.99525377
_cell_angle_beta   90.00365622
_cell_angle_gamma   89.99177440
_symmetry_Int_Tables_number   1
_chemical_formula_structural   Sr7Ca15Pr50Mn72O216
_chemical_formula_sum   'Sr7 Ca15 Pr50 Mn72 O216'
_cell_volume   4285.52802491
_cell_formula_units_Z   1
loop_
 _symmetry_equiv_pos_site_id
 _symmetry_equiv_pos_as_xyz
  1  'x, y, z'
loop_
 _atom_type_symbol
 _atom_type_oxidation_number
  Sr2+  2.0
  Ca2+  2.0
  Pr3+  3.0
  Mn3.30+  3.3
  O2-  -2.0
loop_
 _atom_site_type_symbol
 _atom_site_label
 _atom_site_symmetry_multiplicity
 _atom_site_fract_x
 _atom_site_fract_y
 _atom_site_fract_z
 _atom_site_occupancy
  Sr2+  Sr0  1  -0.00079845  0.34182838  0.62292073  1
  Sr2+  Sr1  1  0.33412374  0.98985379  0.87577374  1
  Sr2+  Sr2  1  0.66926555  0.65775027  0.37710620  1
  Sr2+  Sr3  1  0.50133020  0.17656543  0.12670033  1
  Sr2+  Sr4  1  0.50160477  0.84654489  0.62411210  1
  Sr2+  Sr5  1  0.83578463  0.50975192  0.12526510  1
  Sr2+  Sr6  1  0.33387086  0.32366291  0.87496770  1
  Ca2+  Ca7  1  0.16214451  0.15196238  0.37620667  1
  Ca2+  Ca8  1  -0.00494300  0.68359790  0.62686460  1
  Ca2+  Ca9  1  1.00325627  0.31713755  0.37455520  1
  Ca2+  Ca10  1  0.16213401  0.81920803  0.37661734  1
  Ca2+  Ca11  1  0.50296018  0.84829822  0.12494862  1
  Ca2+  Ca12  1  0.83219769  0.15319162  0.37777557  1
  Ca2+  Ca13  1  1.00347876  0.65232628  0.87438818  1
  Ca2+  Ca14  1  0.16062191  0.81624289  0.87318669  1
  Ca2+  Ca15  1  0.66473416  0.34729248  0.62318038  1
  Ca2+  Ca16  1  0.83699714  0.84797585  0.62485049  1
  Ca2+  Ca17  1  0.15876322  0.48225224  0.37507335  1
  Ca2+  Ca18  1  1.00774005  0.98221789  0.87354529  1
  Ca2+  Ca19  1  0.49776095  0.15151296  0.37368774  1
  Ca2+  Ca20  1  -0.00438983  0.34911140  0.12836121  1
  Ca2+  Ca21  1  0.66545332  0.01135731  0.62322694  1
  Pr3+  Pr22  1  -0.00284414  0.01263637  0.12483887  1
  Pr3+  Pr23  1  0.33256272  0.65813885  0.87406174  1
  Pr3+  Pr24  1  0.83453374  0.48839960  0.87507249  1
  Pr3+  Pr25  1  0.32920403  0.68110640  0.62484273  1
  Pr3+  Pr26  1  0.67016739  0.32061178  0.87371504  1
  Pr3+  Pr27  1  0.83869125  0.51361358  0.62429345  1
  Pr3+  Pr28  1  0.50238536  0.51111811  0.62472013  1
  Pr3+  Pr29  1  0.50492887  0.17760030  0.62315792  1
  Pr3+  Pr30  1  1.00342247  0.98558232  0.37627714  1
  Pr3+  Pr31  1  0.33265074  0.01325463  0.12446319  1
  Pr3+  Pr32  1  0.50313864  0.51116181  0.12532256  1
  Pr3+  Pr33  1  0.67186340  0.31792546  0.37639897  1
  Pr3+  Pr34  1  1.00347891  0.32205357  0.87569944  1
  Pr3+  Pr35  1  0.49568122  0.48655618  0.87409769  1
  Pr3+  Pr36  1  1.00426889  0.65244955  0.37627382  1
  Pr3+  Pr37  1  0.16672071  0.51208730  0.12709937  1
  Pr3+  Pr38  1  0.66476974  0.01370195  0.12508541  1
  Pr3+  Pr39  1  0.66362152  0.68115625  0.12598294  1
  Pr3+  Pr40  1  0.49525338  0.15403593  0.87611755  1
  Pr3+  Pr41  1  0.83410104  0.17864216  0.62242772  1
  Pr3+  Pr42  1  -0.00395226  0.01065424  0.62556624  1
  Pr3+  Pr43  1  0.49880603  0.48822408  0.37577167  1
  Pr3+  Pr44  1  0.33081743  0.01268833  0.62563900  1
  Pr3+  Pr45  1  0.33031755  0.67983535  0.12517683  1
  Pr3+  Pr46  1  0.83319538  0.15458622  0.87344911  1
  Pr3+  Pr47  1  0.66537391  0.68145900  0.62357358  1
  Pr3+  Pr48  1  0.82961608  0.82063947  0.37710546  1
  Pr3+  Pr49  1  0.66960405  0.65503419  0.87270160  1
  Pr3+  Pr50  1  0.16940948  0.84497232  0.12458113  1
  Pr3+  Pr51  1  0.16908419  0.17881369  0.62186621  1
  Pr3+  Pr52  1  0.33466611  0.98920983  0.37392007  1
  Pr3+  Pr53  1  0.33504229  0.31775043  0.37482803  1
  Pr3+  Pr54  1  0.32790094  0.34552970  0.62429369  1
  Pr3+  Pr55  1  0.66495672  0.34661465  0.12654098  1
  Pr3+  Pr56  1  0.16255634  0.48786998  0.87536661  1
  Pr3+  Pr57  1  0.83097609  0.48778107  0.37522899  1
  Pr3+  Pr58  1  0.83718588  0.84609237  0.12498808  1
  Pr3+  Pr59  1  0.16857132  0.84502297  0.62532285  1
  Pr3+  Pr60  1  0.16913355  0.17920727  0.12822609  1
  Pr3+  Pr61  1  0.66872849  0.99117488  0.37624289  1
  Pr3+  Pr62  1  0.66794681  0.98932728  0.87351776  1
  Pr3+  Pr63  1  0.16300604  0.15204119  0.87473390  1
  Pr3+  Pr64  1  0.83891772  0.18184698  0.12821752  1
  Pr3+  Pr65  1  0.16714237  0.51325461  0.62327833  1
  Pr3+  Pr66  1  0.49532701  0.82380699  0.87418129  1
  Pr3+  Pr67  1  0.83404565  0.82144139  0.87283385  1
  Pr3+  Pr68  1  0.33146877  0.34468882  0.12552526  1
  Pr3+  Pr69  1  0.33248155  0.65516128  0.37596307  1
  Pr3+  Pr70  1  0.49844793  0.82219386  0.37534994  1
  Pr3+  Pr71  1  -0.00410447  0.67818206  0.12365523  1
  Mn3.30+  Mn72  1  0.16487729  -0.00243263  -0.00134770  1
  Mn3.30+  Mn73  1  0.16555398  -0.00036854  0.49866282  1
  Mn3.30+  Mn74  1  0.16447458  0.33295909  0.00266117  1
  Mn3.30+  Mn75  1  0.16389413  0.33295121  0.49609655  1
  Mn3.30+  Mn76  1  0.16419208  0.66697839  -0.00114617  1
  Mn3.30+  Mn77  1  0.16339583  0.66657762  0.50006811  1
  Mn3.30+  Mn78  1  0.50034599  -0.00077725  0.00114256  1
  Mn3.30+  Mn79  1  0.50124403  0.00127562  0.49944913  1
  Mn3.30+  Mn80  1  0.50016326  0.33298186  0.00040965  1
  Mn3.30+  Mn81  1  0.50122531  0.33150810  0.49939049  1
  Mn3.30+  Mn82  1  0.49984753  0.66881372  0.00063526  1
  Mn3.30+  Mn83  1  0.49975278  0.66709357  0.49949308  1
  Mn3.30+  Mn84  1  0.83616576  0.00019174  -0.00294691  1
  Mn3.30+  Mn85  1  0.83272679  0.00017422  0.50177012  1
  Mn3.30+  Mn86  1  0.83585170  0.33338356  0.00077878  1
  Mn3.30+  Mn87  1  0.83470041  0.33246407  0.49945142  1
  Mn3.30+  Mn88  1  0.83451056  0.66672992  -0.00168688  1
  Mn3.30+  Mn89  1  0.83607401  0.66850611  0.50249416  1
  Mn3.30+  Mn90  1  0.00129823  0.16774936  0.25332227  1
  Mn3.30+  Mn91  1  -0.00048990  0.16510601  0.74937295  1
  Mn3.30+  Mn92  1  -0.00001163  0.49710112  0.25198534  1
  Mn3.30+  Mn93  1  0.00025059  0.50138160  0.74797178  1
  Mn3.30+  Mn94  1  0.00142689  0.83230945  0.25097806  1
  Mn3.30+  Mn95  1  0.00028420  0.83183083  0.75020644  1
  Mn3.30+  Mn96  1  0.33291142  0.16622829  0.25162831  1
  Mn3.30+  Mn97  1  0.33399169  0.16702055  0.74991227  1
  Mn3.30+  Mn98  1  0.33056021  0.49934273  0.25247951  1
  Mn3.30+  Mn99  1  0.33281707  0.50092545  0.74897883  1
  Mn3.30+  Mn100  1  0.33305249  0.83362731  0.24969310  1
  Mn3.30+  Mn101  1  0.33088386  0.83475092  0.75136757  1
  Mn3.30+  Mn102  1  0.66836768  0.16690796  0.25223437  1
  Mn3.30+  Mn103  1  0.66636817  0.16639486  0.74799726  1
  Mn3.30+  Mn104  1  0.66749888  0.50138538  0.25130615  1
  Mn3.30+  Mn105  1  0.66781312  0.49903007  0.74852303  1
  Mn3.30+  Mn106  1  0.66643890  0.83467499  0.24919078  1
  Mn3.30+  Mn107  1  0.66750371  0.83593015  0.74820004  1
  Mn3.30+  Mn108  1  0.16579965  -0.00062902  0.25129622  1
  Mn3.30+  Mn109  1  0.16459233  -0.00242205  0.75158122  1
  Mn3.30+  Mn110  1  0.16278067  0.33280371  0.25187087  1
  Mn3.30+  Mn111  1  0.16605902  0.33280868  0.74949050  1
  Mn3.30+  Mn112  1  0.16538290  0.66637996  0.25188949  1
  Mn3.30+  Mn113  1  0.16175487  0.66740632  0.74920707  1
  Mn3.30+  Mn114  1  0.50107283  0.00021486  0.25003690  1
  Mn3.30+  Mn115  1  0.50092510  0.00044389  0.74816478  1
  Mn3.30+  Mn116  1  0.50063875  0.33160050  0.25229075  1
  Mn3.30+  Mn117  1  0.50094189  0.33275371  0.74762784  1
  Mn3.30+  Mn118  1  0.49904492  0.66771553  0.25040254  1
  Mn3.30+  Mn119  1  0.50055861  0.66807819  0.74924769  1
  Mn3.30+  Mn120  1  0.83437326  0.00195036  0.25173316  1
  Mn3.30+  Mn121  1  0.83446348  -0.00129396  0.74982586  1
  Mn3.30+  Mn122  1  0.83746172  0.33242323  0.25311342  1
  Mn3.30+  Mn123  1  0.83349349  0.33353013  0.74743597  1
  Mn3.30+  Mn124  1  0.83350091  0.66628660  0.24970137  1
  Mn3.30+  Mn125  1  0.83695893  0.66846135  0.74988906  1
  Mn3.30+  Mn126  1  0.00019240  0.16638471  0.00115952  1
  Mn3.30+  Mn127  1  -0.00007640  0.16683961  0.49699673  1
  Mn3.30+  Mn128  1  -0.00037044  0.49987045  0.00079991  1
  Mn3.30+  Mn129  1  0.00099639  0.49869683  0.49989472  1
  Mn3.30+  Mn130  1  0.00264202  0.83269902  -0.00288085  1
  Mn3.30+  Mn131  1  -0.00075332  0.83155254  0.50168803  1
  Mn3.30+  Mn132  1  0.33244870  0.16777799  0.00065265  1
  Mn3.30+  Mn133  1  0.33453183  0.16585116  0.49718549  1
  Mn3.30+  Mn134  1  0.33322360  0.50095709  0.00094715  1
  Mn3.30+  Mn135  1  0.33013615  0.49916836  0.49723069  1
  Mn3.30+  Mn136  1  0.33298495  0.83404086  -0.00005080  1
  Mn3.30+  Mn137  1  0.33100355  0.83430533  0.49848617  1
  Mn3.30+  Mn138  1  0.66766379  0.16755512  0.00018419  1
  Mn3.30+  Mn139  1  0.66701625  0.16575389  0.49950669  1
  Mn3.30+  Mn140  1  0.66698771  0.50092944  -0.00080572  1
  Mn3.30+  Mn141  1  0.66792631  0.49943123  0.50110372  1
  Mn3.30+  Mn142  1  0.66588524  0.83440372  -0.00094566  1
  Mn3.30+  Mn143  1  0.66785465  0.83613607  0.50249602  1
  O2-  O144  1  0.02614791  0.15791684  0.12616952  1
  O2-  O145  1  0.02520493  0.15958020  0.62242233  1
  O2-  O146  1  0.02340273  0.49467066  0.12762109  1
  O2-  O147  1  0.02500057  0.49380409  0.62292882  1
  O2-  O148  1  0.02505850  0.82694052  0.12282792  1
  O2-  O149  1  0.02610397  0.82962939  0.62588152  1
  O2-  O150  1  0.35125462  0.16368487  0.12700691  1
  O2-  O151  1  0.35890766  0.16239409  0.62180276  1
  O2-  O152  1  0.35875712  0.49480159  0.12731489  1
  O2-  O153  1  0.35756977  0.49478569  0.62226986  1
  O2-  O154  1  0.36102682  0.82675306  0.12554050  1
  O2-  O155  1  0.35083822  0.82929897  0.62435893  1
  O2-  O156  1  0.69459936  0.16261791  0.12652733  1
  O2-  O157  1  0.69108060  0.15614445  0.62508090  1
  O2-  O158  1  0.68527516  0.49502346  0.12477022  1
  O2-  O159  1  0.69342803  0.49305645  0.62585021  1
  O2-  O160  1  0.69365900  0.82942901  0.12363018  1
  O2-  O161  1  0.69419497  0.82827626  0.62732572  1
  O2-  O162  1  0.13737395  0.32636394  0.12749223  1
  O2-  O163  1  0.14895365  0.32646791  0.62159037  1
  O2-  O164  1  0.14043491  0.66111799  0.12656252  1
  O2-  O165  1  0.13817311  0.66036237  0.62458464  1
  O2-  O166  1  0.14016000  0.99237676  0.12623602  1
  O2-  O167  1  0.14077045  0.99383646  0.62592574  1
  O2-  O168  1  0.47676212  0.33377542  0.12919512  1
  O2-  O169  1  0.47167251  0.32626313  0.62170924  1
  O2-  O170  1  0.47318507  0.65789174  0.12542872  1
  O2-  O171  1  0.47378742  0.66028457  0.62330726  1
  O2-  O172  1  0.47744001  0.99364592  0.12657937  1
  O2-  O173  1  0.47472586  1.00259695  0.62334541  1
  O2-  O174  1  0.80828796  0.32828517  0.12779745  1
  O2-  O175  1  0.80692190  0.32769757  0.62487725  1
  O2-  O176  1  0.80876378  0.66657270  0.12163236  1
  O2-  O177  1  0.80788828  0.65977401  0.62696431  1
  O2-  O178  1  0.80937179  0.99429954  0.12267298  1
  O2-  O179  1  0.80768754  0.99328830  0.62594012  1
  O2-  O180  1  0.30502014  0.16918890  0.37412183  1
  O2-  O181  1  0.30848394  0.16916773  0.87677660  1
  O2-  O182  1  0.30139564  0.50755764  0.37472372  1
  O2-  O183  1  0.30796101  0.50749425  0.87537878  1
  O2-  O184  1  0.30483132  0.84007141  0.37435973  1
  O2-  O185  1  0.30662105  0.83124305  0.87566150  1
  O2-  O186  1  0.63978727  0.17140878  0.37572874  1
  O2-  O187  1  0.64018490  0.17354508  0.87291124  1
  O2-  O188  1  0.64297305  0.50311257  0.37629747  1
  O2-  O189  1  0.63958355  0.50622093  0.87345162  1
  O2-  O190  1  0.64298660  0.84107728  0.37448540  1
  O2-  O191  1  0.63933488  0.83998372  0.87358195  1
  O2-  O192  1  0.97336609  0.17074069  0.37473432  1
  O2-  O193  1  0.97610445  0.17579747  0.87686809  1
  O2-  O194  1  0.97378531  0.50833842  0.37716814  1
  O2-  O195  1  0.97882963  0.50551379  0.87282619  1
  O2-  O196  1  0.97338086  0.83727102  0.37720237  1
  O2-  O197  1  0.97563709  0.84092693  0.87443568  1
  O2-  O198  1  0.19092882  0.00697672  0.37350665  1
  O2-  O199  1  0.18633933  0.00711058  0.87396407  1
  O2-  O200  1  0.19324958  0.34066379  0.37379204  1
  O2-  O201  1  0.18433000  0.33882357  0.87725519  1
  O2-  O202  1  0.18976686  0.67550216  0.37493117  1
  O2-  O203  1  0.18970060  0.66822581  0.87394173  1
  O2-  O204  1  0.52396858  0.00379872  0.37402714  1
  O2-  O205  1  0.52286082  0.00487762  0.87491311  1
  O2-  O206  1  0.52735453  0.34177492  0.37613915  1
  O2-  O207  1  0.52596355  0.33903470  0.87272358  1
  O2-  O208  1  0.51964786  0.67233835  0.37519255  1
  O2-  O209  1  0.52541107  0.67518199  0.87585929  1
  O2-  O210  1  0.85969264  0.00537038  0.37663895  1
  O2-  O211  1  0.86485314  0.00776669  0.87541191  1
  O2-  O212  1  0.86100588  0.34124476  0.37603461  1
  O2-  O213  1  0.85861412  0.33657536  0.87238033  1
  O2-  O214  1  0.85912911  0.67331485  0.37750733  1
  O2-  O215  1  0.86123571  0.67293425  0.87382790  1
  O2-  O216  1  0.23627331  0.09267373  0.01997280  1
  O2-  O217  1  0.24063283  0.09335175  0.52234157  1
  O2-  O218  1  0.23808046  0.42646207  0.02262013  1
  O2-  O219  1  0.23902746  0.42693890  0.52145707  1
  O2-  O220  1  0.24041892  0.75925809  0.02261786  1
  O2-  O221  1  0.23706907  0.75848586  0.52111709  1
  O2-  O222  1  0.57764349  0.09340848  0.01731740  1
  O2-  O223  1  0.57128731  0.09571063  0.51671579  1
  O2-  O224  1  0.57195460  0.42892823  0.01798621  1
  O2-  O225  1  0.56843172  0.42804384  0.51917737  1
  O2-  O226  1  0.56926657  0.76160614  0.02287805  1
  O2-  O227  1  0.57809274  0.76222661  0.51696611  1
  O2-  O228  1  0.90466697  0.09680574  0.02202285  1
  O2-  O229  1  0.90522388  0.09106701  0.52328996  1
  O2-  O230  1  0.90624617  0.42798635  0.01201457  1
  O2-  O231  1  0.90241924  0.43125979  0.51766849  1
  O2-  O232  1  0.90546710  0.76330853  0.01919675  1
  O2-  O233  1  0.90326867  0.76509787  0.52113251  1
  O2-  O234  1  0.26151442  0.26248422  0.23096877  1
  O2-  O235  1  0.26149117  0.25859587  0.72871648  1
  O2-  O236  1  0.26098055  0.59460327  0.22882327  1
  O2-  O237  1  0.26057735  0.59550223  0.72818830  1
  O2-  O238  1  0.26257905  0.92729371  0.22714975  1
  O2-  O239  1  0.25940380  0.92769679  0.72799635  1
  O2-  O240  1  0.60155480  0.26393004  0.23346982  1
  O2-  O241  1  0.59651867  0.26323702  0.72587479  1
  O2-  O242  1  0.59122978  0.59495557  0.22826645  1
  O2-  O243  1  0.59575973  0.59381920  0.72846978  1
  O2-  O244  1  0.59839493  0.92872868  0.23085873  1
  O2-  O245  1  0.59746410  0.93410128  0.73211513  1
  O2-  O246  1  0.93058428  0.26108580  0.22716966  1
  O2-  O247  1  0.92358236  0.25811109  0.73196736  1
  O2-  O248  1  0.93109132  0.59685916  0.23414688  1
  O2-  O249  1  0.92861770  0.59498846  0.72692575  1
  O2-  O250  1  0.92942261  0.92721840  0.23050840  1
  O2-  O251  1  0.92946391  0.92729893  0.73058527  1
  O2-  O252  1  0.09918946  0.23268918  0.27070530  1
  O2-  O253  1  0.09405686  0.23757228  0.76830839  1
  O2-  O254  1  0.09492339  0.56761780  0.27072187  1
  O2-  O255  1  0.09832392  0.56851709  0.76675507  1
  O2-  O256  1  0.09615050  0.90276502  0.27159424  1
  O2-  O257  1  0.09739995  0.89975152  0.76775195  1
  O2-  O258  1  0.42794751  0.24011181  0.27415172  1
  O2-  O259  1  0.43231845  0.23825951  0.76714378  1
  O2-  O260  1  0.42453406  0.57125079  0.27202068  1
  O2-  O261  1  0.42801756  0.57475754  0.77033278  1
  O2-  O262  1  0.42618987  0.90567398  0.27291768  1
  O2-  O263  1  0.42956388  0.90674448  0.76735245  1
  O2-  O264  1  0.76562986  0.23741968  0.27354009  1
  O2-  O265  1  0.75975634  0.23872719  0.77037260  1
  O2-  O266  1  0.76175355  0.57281057  0.26848449  1
  O2-  O267  1  0.76332996  0.57433316  0.77139997  1
  O2-  O268  1  0.76305361  0.90703165  0.27000610  1
  O2-  O269  1  0.76198799  0.90901549  0.77629125  1
  O2-  O270  1  0.07062716  0.06947467  0.48097514  1
  O2-  O271  1  0.06845029  0.07008106  0.98031231  1
  O2-  O272  1  0.07065243  0.40220307  0.47743749  1
  O2-  O273  1  0.07208520  0.40612788  0.98052021  1
  O2-  O274  1  0.06959824  0.73739067  0.48131858  1
  O2-  O275  1  0.06867508  0.73407744  0.98101459  1
  O2-  O276  1  0.40329822  0.07070800  0.47955672  1
  O2-  O277  1  0.40868832  0.07486002  0.98598995  1
  O2-  O278  1  0.40352120  0.40499055  0.47768058  1
  O2-  O279  1  0.40841308  0.40958817  0.98279263  1
  O2-  O280  1  0.40281085  0.74149178  0.47980165  1
  O2-  O281  1  0.40423646  0.73844188  0.97887215  1
  O2-  O282  1  0.73903033  0.07334062  0.48003872  1
  O2-  O283  1  0.74146386  0.07276608  0.97755766  1
  O2-  O284  1  0.73995445  0.40566321  0.47811423  1
  O2-  O285  1  0.73997477  0.40522878  0.97913799  1
  O2-  O286  1  0.74200916  0.74186138  0.48402965  1
  O2-  O287  1  0.73676237  0.74078168  0.97759515  1
  O2-  O288  1  0.09839078  0.23540478  0.48101487  1
  O2-  O289  1  0.09498690  0.23617454  0.98011774  1
  O2-  O290  1  0.09713715  0.56920035  0.47830642  1
  O2-  O291  1  0.09724504  0.56741246  0.98517875  1
  O2-  O292  1  0.09397081  0.90254643  0.47952942  1
  O2-  O293  1  0.09863985  0.89915087  0.98134202  1
  O2-  O294  1  0.43035308  0.23706624  0.47582184  1
  O2-  O295  1  0.42918565  0.24135934  0.98267407  1
  O2-  O296  1  0.42284656  0.57005604  0.47800176  1
  O2-  O297  1  0.42897092  0.57512567  0.97852202  1
  O2-  O298  1  0.42722952  0.90783153  0.47772629  1
  O2-  O299  1  0.42828805  0.90332117  0.98183747  1
  O2-  O300  1  0.76159785  0.23775122  0.47885431  1
  O2-  O301  1  0.76298546  0.23843166  0.97939608  1
  O2-  O302  1  0.76589682  0.57228719  0.48514126  1
  O2-  O303  1  0.75880123  0.57440472  0.97516407  1
  O2-  O304  1  0.76095349  0.90826027  0.47677030  1
  O2-  O305  1  0.76387999  0.90732103  0.97712314  1
  O2-  O306  1  0.06842626  0.06900525  0.26840609  1
  O2-  O307  1  0.07090704  0.06991773  0.76991906  1
  O2-  O308  1  0.06997684  0.40145825  0.27191752  1
  O2-  O309  1  0.07191086  0.40673210  0.77024648  1
  O2-  O310  1  0.06955971  0.73607921  0.26768054  1
  O2-  O311  1  0.06767783  0.73553688  0.77055855  1
  O2-  O312  1  0.40336810  0.07127656  0.26663825  1
  O2-  O313  1  0.40675591  0.07478723  0.76714942  1
  O2-  O314  1  0.40340858  0.40693482  0.27353951  1
  O2-  O315  1  0.40814319  0.40841824  0.76609046  1
  O2-  O316  1  0.40364790  0.73920856  0.27210072  1
  O2-  O317  1  0.40443162  0.74038726  0.76896537  1
  O2-  O318  1  0.73849479  0.07201580  0.26843031  1
  O2-  O319  1  0.74178369  0.07454446  0.77413209  1
  O2-  O320  1  0.73948885  0.40367460  0.27055669  1
  O2-  O321  1  0.74085949  0.40733923  0.77371573  1
  O2-  O322  1  0.74029482  0.74269648  0.26678840  1
  O2-  O323  1  0.74023178  0.73870108  0.77146731  1
  O2-  O324  1  0.23853141  0.09098862  0.22781930  1
  O2-  O325  1  0.23762716  0.09352842  0.72889982  1
  O2-  O326  1  0.23924157  0.42544119  0.22574524  1
  O2-  O327  1  0.23880158  0.42777950  0.73009146  1
  O2-  O328  1  0.24127912  0.76019974  0.22683169  1
  O2-  O329  1  0.23597572  0.75770006  0.72895985  1
  O2-  O330  1  0.57733039  0.09165399  0.23137309  1
  O2-  O331  1  0.57004758  0.09801596  0.73463593  1
  O2-  O332  1  0.57139342  0.42901908  0.23253603  1
  O2-  O333  1  0.56948196  0.42803108  0.72998164  1
  O2-  O334  1  0.57215121  0.76367983  0.22881944  1
  O2-  O335  1  0.57440883  0.75834965  0.73062244  1
  O2-  O336  1  0.90680250  0.09383840  0.22815875  1
  O2-  O337  1  0.90388579  0.09364536  0.72753360  1
  O2-  O338  1  0.90490578  0.42890334  0.23572109  1
  O2-  O339  1  0.90354530  0.43095748  0.73417500  1
  O2-  O340  1  0.90574997  0.76173661  0.22981594  1
  O2-  O341  1  0.90159801  0.76567558  0.73069818  1
  O2-  O342  1  0.25746941  0.26114834  0.02361532  1
  O2-  O343  1  0.26429117  0.26138559  0.51672502  1
  O2-  O344  1  0.26119004  0.59456451  0.02096023  1
  O2-  O345  1  0.26029974  0.59586698  0.52162815  1
  O2-  O346  1  0.26224861  0.92592355  0.02438030  1
  O2-  O347  1  0.26061722  0.92870996  0.51960549  1
  O2-  O348  1  0.59843630  0.26546588  0.01714817  1
  O2-  O349  1  0.59780470  0.26156152  0.52242155  1
  O2-  O350  1  0.59369788  0.59712511  0.01967516  1
  O2-  O351  1  0.59387399  0.59108082  0.52347260  1
  O2-  O352  1  0.59821800  0.92942249  0.01739645  1
  O2-  O353  1  0.59747811  0.93187253  0.51693869  1
  O2-  O354  1  0.93015630  0.26212283  0.02254364  1
  O2-  O355  1  0.92388518  0.25651773  0.51976515  1
  O2-  O356  1  0.93020367  0.59411439  0.01741423  1
  O2-  O357  1  0.93061314  0.59770732  0.52172333  1
  O2-  O358  1  0.92839086  0.92659208  0.02190634  1
  O2-  O359  1  0.92995592  0.92856504  0.51813241  1
