# generated using pymatgen
data_Sr7Ca15Pr50Mn72O216
_symmetry_space_group_name_H-M   'P 1'
_cell_length_a   16.55951068
_cell_length_b   16.60327939
_cell_length_c   15.59315097
_cell_angle_alpha   89.99424119
_cell_angle_beta   90.01111568
_cell_angle_gamma   90.00525854
_symmetry_Int_Tables_number   1
_chemical_formula_structural   Sr7Ca15Pr50Mn72O216
_chemical_formula_sum   'Sr7 Ca15 Pr50 Mn72 O216'
_cell_volume   4287.21483761
_cell_formula_units_Z   1
loop_
 _symmetry_equiv_pos_site_id
 _symmetry_equiv_pos_as_xyz
  1  'x, y, z'
loop_
 _atom_type_symbol
 _atom_type_oxidation_number
  Sr2+  2.0
  Ca2+  2.0
  Pr3+  3.0
  Mn3.30+  3.3
  O2-  -2.0
loop_
 _atom_site_type_symbol
 _atom_site_label
 _atom_site_symmetry_multiplicity
 _atom_site_fract_x
 _atom_site_fract_y
 _atom_site_fract_z
 _atom_site_occupancy
  Sr2+  Sr0  1  0.16661422  0.15750247  0.87433655  1
  Sr2+  Sr1  1  0.16898235  0.84180967  0.12217205  1
  Sr2+  Sr2  1  1.00382400  0.99070966  0.87245428  1
  Sr2+  Sr3  1  0.50100342  0.82544702  0.87481901  1
  Sr2+  Sr4  1  0.33623894  0.32333424  0.37519705  1
  Sr2+  Sr5  1  0.00044125  0.68037467  0.12480532  1
  Sr2+  Sr6  1  0.66866260  0.65644465  0.87502777  1
  Ca2+  Ca7  1  0.33490540  0.31909611  0.87506704  1
  Ca2+  Ca8  1  0.67064311  0.98586337  0.87256952  1
  Ca2+  Ca9  1  0.67098458  0.98653436  0.37713760  1
  Ca2+  Ca10  1  0.83604721  0.18008306  0.12395702  1
  Ca2+  Ca11  1  0.16249741  0.48610898  0.87601232  1
  Ca2+  Ca12  1  0.33401656  0.98471538  0.87601478  1
  Ca2+  Ca13  1  0.49628539  0.48275756  0.37551651  1
  Ca2+  Ca14  1  0.16653658  0.82413472  0.87808729  1
  Ca2+  Ca15  1  -0.00317929  0.01546709  0.62828421  1
  Ca2+  Ca16  1  0.66759700  0.31934114  0.37556065  1
  Ca2+  Ca17  1  0.33555244  0.98749437  0.37420307  1
  Ca2+  Ca18  1  0.66110558  0.34815062  0.62433731  1
  Ca2+  Ca19  1  0.66131690  0.01525173  0.62584060  1
  Ca2+  Ca20  1  0.32797899  0.68457044  0.12293344  1
  Ca2+  Ca21  1  0.82856434  0.48780353  0.87597121  1
  Pr3+  Pr22  1  0.16576308  0.15392868  0.37641747  1
  Pr3+  Pr23  1  0.32886808  0.34436703  0.12375403  1
  Pr3+  Pr24  1  0.83033463  0.82149452  0.37501286  1
  Pr3+  Pr25  1  0.16787005  0.82142565  0.37464923  1
  Pr3+  Pr26  1  0.66568774  0.67992971  0.12352178  1
  Pr3+  Pr27  1  0.66393455  0.67976601  0.62641005  1
  Pr3+  Pr28  1  0.66401869  0.01289992  0.12429153  1
  Pr3+  Pr29  1  0.16649011  0.17619314  0.62837615  1
  Pr3+  Pr30  1  0.83040626  0.17906073  0.62576367  1
  Pr3+  Pr31  1  -0.00311184  0.34475203  0.62720159  1
  Pr3+  Pr32  1  0.17125399  0.51624440  0.12300470  1
  Pr3+  Pr33  1  1.00263067  0.31826470  0.37570884  1
  Pr3+  Pr34  1  0.33223715  0.67986525  0.62582453  1
  Pr3+  Pr35  1  0.83736187  0.85090955  0.62558868  1
  Pr3+  Pr36  1  0.33620879  0.65832750  0.87798517  1
  Pr3+  Pr37  1  0.49730088  0.15268845  0.37458844  1
  Pr3+  Pr38  1  0.16512703  0.48492358  0.37409402  1
  Pr3+  Pr39  1  0.83273418  0.51069514  0.62664125  1
  Pr3+  Pr40  1  0.49829818  0.82410339  0.37521968  1
  Pr3+  Pr41  1  0.49978846  0.84468910  0.12250482  1
  Pr3+  Pr42  1  0.50008247  0.51310202  0.12620896  1
  Pr3+  Pr43  1  -0.00181320  0.01116874  0.12285840  1
  Pr3+  Pr44  1  0.83034827  0.82256043  0.87492857  1
  Pr3+  Pr45  1  1.00036439  0.32179053  0.87466462  1
  Pr3+  Pr46  1  0.83701895  0.51364026  0.12319782  1
  Pr3+  Pr47  1  0.83957074  0.84582626  0.12393523  1
  Pr3+  Pr48  1  0.82809161  0.15146880  0.87535969  1
  Pr3+  Pr49  1  0.82644261  0.15348675  0.37426999  1
  Pr3+  Pr50  1  0.49652148  0.48686195  0.87530508  1
  Pr3+  Pr51  1  0.49423062  0.15229256  0.87510269  1
  Pr3+  Pr52  1  -0.00242451  0.68020918  0.62507093  1
  Pr3+  Pr53  1  0.33989613  0.65190449  0.37245098  1
  Pr3+  Pr54  1  1.00463199  0.65345503  0.37338461  1
  Pr3+  Pr55  1  0.82915359  0.48422420  0.37358459  1
  Pr3+  Pr56  1  0.32910630  0.00932104  0.12368052  1
  Pr3+  Pr57  1  0.66508263  0.34511831  0.12578802  1
  Pr3+  Pr58  1  0.50332144  0.51041317  0.62444168  1
  Pr3+  Pr59  1  1.00240975  0.98860598  0.37790856  1
  Pr3+  Pr60  1  0.17053542  0.51166957  0.62657802  1
  Pr3+  Pr61  1  0.33336558  0.01172853  0.62645383  1
  Pr3+  Pr62  1  0.16813847  0.17564565  0.12223881  1
  Pr3+  Pr63  1  1.00587568  0.65629990  0.87674267  1
  Pr3+  Pr64  1  0.16929225  0.84703792  0.62723869  1
  Pr3+  Pr65  1  0.50673080  0.18242715  0.62445486  1
  Pr3+  Pr66  1  0.66982425  0.32275419  0.87366476  1
  Pr3+  Pr67  1  0.66788469  0.65338351  0.37492180  1
  Pr3+  Pr68  1  0.50067685  0.17895676  0.12497869  1
  Pr3+  Pr69  1  -0.00406112  0.34409546  0.12308180  1
  Pr3+  Pr70  1  0.50572529  0.84983726  0.62685559  1
  Pr3+  Pr71  1  0.33141744  0.34391274  0.62632869  1
  Mn3.30+  Mn72  1  0.16658783  -0.00129551  -0.00315970  1
  Mn3.30+  Mn73  1  0.16701467  -0.00012196  0.50189075  1
  Mn3.30+  Mn74  1  0.16590407  0.33390783  -0.00284707  1
  Mn3.30+  Mn75  1  0.16659895  0.33177884  0.50126397  1
  Mn3.30+  Mn76  1  0.16951540  0.66868817  -0.00120244  1
  Mn3.30+  Mn77  1  0.16833120  0.66572972  0.49959675  1
  Mn3.30+  Mn78  1  0.49936805  -0.00087213  -0.00197070  1
  Mn3.30+  Mn79  1  0.50249048  0.00086333  0.49833235  1
  Mn3.30+  Mn80  1  0.49839419  0.33317652  -0.00002940  1
  Mn3.30+  Mn81  1  0.50239573  0.33374776  0.49772676  1
  Mn3.30+  Mn82  1  0.49881509  0.66711331  0.00047877  1
  Mn3.30+  Mn83  1  0.50076515  0.66618877  0.49942420  1
  Mn3.30+  Mn84  1  0.83183215  0.00106250  -0.00097251  1
  Mn3.30+  Mn85  1  0.83123820  0.00223983  0.50196189  1
  Mn3.30+  Mn86  1  0.83230697  0.33320724  -0.00023094  1
  Mn3.30+  Mn87  1  0.82926988  0.33298423  0.50074967  1
  Mn3.30+  Mn88  1  0.83521610  0.66650027  -0.00130680  1
  Mn3.30+  Mn89  1  0.83306468  0.66601720  0.49981978  1
  Mn3.30+  Mn90  1  -0.00254254  0.16538618  0.24984782  1
  Mn3.30+  Mn91  1  -0.00151771  0.16572591  0.74986574  1
  Mn3.30+  Mn92  1  -0.00007007  0.49901056  0.24907915  1
  Mn3.30+  Mn93  1  -0.00008240  0.50119184  0.75235117  1
  Mn3.30+  Mn94  1  0.00098492  0.83503447  0.25029285  1
  Mn3.30+  Mn95  1  0.00181217  0.83570483  0.75052806  1
  Mn3.30+  Mn96  1  0.33338836  0.16514993  0.25131967  1
  Mn3.30+  Mn97  1  0.33449925  0.16563842  0.75125028  1
  Mn3.30+  Mn98  1  0.33541761  0.49973314  0.24895891  1
  Mn3.30+  Mn99  1  0.33175135  0.49859127  0.75350397  1
  Mn3.30+  Mn100  1  0.33378465  0.83420247  0.25050214  1
  Mn3.30+  Mn101  1  0.33414492  0.83457240  0.75161382  1
  Mn3.30+  Mn102  1  0.66712201  0.16701303  0.24948122  1
  Mn3.30+  Mn103  1  0.66462028  0.16583878  0.75095458  1
  Mn3.30+  Mn104  1  0.66469643  0.49833568  0.25152982  1
  Mn3.30+  Mn105  1  0.66742339  0.49979244  0.75050652  1
  Mn3.30+  Mn106  1  0.66716981  0.83521192  0.25003502  1
  Mn3.30+  Mn107  1  0.66822831  0.83590273  0.74995260  1
  Mn3.30+  Mn108  1  0.16758929  -0.00112565  0.25133208  1
  Mn3.30+  Mn109  1  0.16630590  -0.00041860  0.75120502  1
  Mn3.30+  Mn110  1  0.16572149  0.33150399  0.24904880  1
  Mn3.30+  Mn111  1  0.16684733  0.33412637  0.75294017  1
  Mn3.30+  Mn112  1  0.17058387  0.66741185  0.24930992  1
  Mn3.30+  Mn113  1  0.16702794  0.66727461  0.75138036  1
  Mn3.30+  Mn114  1  0.50028665  -0.00059894  0.25094724  1
  Mn3.30+  Mn115  1  0.50106522  0.00067044  0.75195481  1
  Mn3.30+  Mn116  1  0.50013099  0.33363388  0.25107832  1
  Mn3.30+  Mn117  1  0.49995302  0.33329132  0.75081214  1
  Mn3.30+  Mn118  1  0.49961495  0.66670182  0.24851525  1
  Mn3.30+  Mn119  1  0.49993114  0.66657870  0.75232643  1
  Mn3.30+  Mn120  1  0.83185413  0.00164479  0.25056114  1
  Mn3.30+  Mn121  1  0.83157281  0.00125377  0.74897654  1
  Mn3.30+  Mn122  1  0.83156245  0.33090894  0.24997489  1
  Mn3.30+  Mn123  1  0.83032057  0.33520251  0.74947255  1
  Mn3.30+  Mn124  1  0.83450086  0.66648941  0.25071144  1
  Mn3.30+  Mn125  1  0.83395084  0.66592192  0.75060449  1
  Mn3.30+  Mn126  1  -0.00136493  0.16612300  -0.00064982  1
  Mn3.30+  Mn127  1  -0.00294657  0.16547137  0.50178470  1
  Mn3.30+  Mn128  1  -0.00009706  0.50088911  -0.00254560  1
  Mn3.30+  Mn129  1  -0.00046760  0.49922750  0.50084453  1
  Mn3.30+  Mn130  1  0.00240455  0.83527140  -0.00141541  1
  Mn3.30+  Mn131  1  0.00031185  0.83553679  0.50119360  1
  Mn3.30+  Mn132  1  0.33319891  0.16534920  -0.00247427  1
  Mn3.30+  Mn133  1  0.33492965  0.16531399  0.50015924  1
  Mn3.30+  Mn134  1  0.33101613  0.49950544  -0.00233029  1
  Mn3.30+  Mn135  1  0.33614986  0.49874848  0.49987560  1
  Mn3.30+  Mn136  1  0.33279732  0.83402503  -0.00187484  1
  Mn3.30+  Mn137  1  0.33525358  0.83486799  0.50027422  1
  Mn3.30+  Mn138  1  0.66663408  0.16627507  0.00042893  1
  Mn3.30+  Mn139  1  0.66545639  0.16694831  0.49873241  1
  Mn3.30+  Mn140  1  0.66752618  0.50053768  -0.00013015  1
  Mn3.30+  Mn141  1  0.66505160  0.49696719  0.49736172  1
  Mn3.30+  Mn142  1  0.66813100  0.83467520  -0.00069583  1
  Mn3.30+  Mn143  1  0.66730347  0.83639631  0.50012278  1
  O2-  O144  1  0.02357808  0.16200101  0.12681618  1
  O2-  O145  1  0.02092595  0.16529433  0.62530856  1
  O2-  O146  1  0.02584614  0.49251663  0.12538387  1
  O2-  O147  1  0.02678991  0.49426133  0.62672956  1
  O2-  O148  1  0.01789370  0.83884893  0.12649873  1
  O2-  O149  1  0.02617114  0.82622010  0.62378757  1
  O2-  O150  1  0.35654026  0.15815723  0.12362351  1
  O2-  O151  1  0.36192307  0.15972951  0.62460002  1
  O2-  O152  1  0.35702078  0.49045155  0.12270741  1
  O2-  O153  1  0.35851919  0.49373224  0.62745901  1
  O2-  O154  1  0.35555583  0.83161821  0.12605062  1
  O2-  O155  1  0.36018128  0.82790464  0.62389869  1
  O2-  O156  1  0.69418345  0.15943067  0.12454818  1
  O2-  O157  1  0.68738760  0.15766453  0.62452920  1
  O2-  O158  1  0.69307506  0.49399886  0.12618466  1
  O2-  O159  1  0.68958436  0.49387584  0.62165388  1
  O2-  O160  1  0.69490416  0.82842307  0.12629869  1
  O2-  O161  1  0.69298015  0.82603601  0.62372641  1
  O2-  O162  1  0.14033002  0.32667496  0.12339805  1
  O2-  O163  1  0.14133008  0.32856456  0.62640672  1
  O2-  O164  1  0.14876644  0.66284796  0.12630223  1
  O2-  O165  1  0.14144353  0.65857900  0.62433745  1
  O2-  O166  1  0.14327915  0.99886372  0.12705836  1
  O2-  O167  1  0.13907027  0.99373213  0.62437953  1
  O2-  O168  1  0.47306441  0.32807049  0.12384812  1
  O2-  O169  1  0.47534850  0.33078323  0.62604632  1
  O2-  O170  1  0.47173625  0.66150528  0.12632823  1
  O2-  O171  1  0.47652096  0.65911520  0.62618641  1
  O2-  O172  1  0.47389507  0.99607438  0.12514811  1
  O2-  O173  1  0.47760942  0.99893919  0.62436376  1
  O2-  O174  1  0.80863046  0.32584915  0.12418587  1
  O2-  O175  1  0.80283450  0.32837956  0.62346130  1
  O2-  O176  1  0.81045329  0.66237426  0.12721043  1
  O2-  O177  1  0.80822705  0.65893893  0.62316547  1
  O2-  O178  1  0.80775335  0.99242341  0.12534742  1
  O2-  O179  1  0.80312391  0.99833161  0.62430514  1
  O2-  O180  1  0.30869655  0.17090654  0.37789715  1
  O2-  O181  1  0.31594191  0.17560812  0.87435925  1
  O2-  O182  1  0.30798052  0.50471281  0.37408432  1
  O2-  O183  1  0.30303965  0.51148205  0.87513822  1
  O2-  O184  1  0.31197921  0.84063945  0.37784393  1
  O2-  O185  1  0.30986119  0.83793021  0.87214386  1
  O2-  O186  1  0.64078991  0.17617804  0.37363380  1
  O2-  O187  1  0.63835032  0.17719551  0.87698973  1
  O2-  O188  1  0.63684510  0.50886046  0.37384411  1
  O2-  O189  1  0.64139519  0.50016900  0.87845580  1
  O2-  O190  1  0.64235744  0.83958031  0.37436664  1
  O2-  O191  1  0.65150534  0.83973691  0.87518974  1
  O2-  O192  1  0.97233950  0.17000902  0.37564769  1
  O2-  O193  1  0.97315817  0.17206382  0.87237345  1
  O2-  O194  1  0.97524229  0.50440293  0.37411344  1
  O2-  O195  1  0.97066288  0.50813869  0.87309642  1
  O2-  O196  1  0.97427474  0.84028060  0.37797075  1
  O2-  O197  1  0.97482504  0.83433916  0.87206765  1
  O2-  O198  1  0.19291948  0.00710020  0.37741669  1
  O2-  O199  1  0.19218193  0.00464867  0.87227514  1
  O2-  O200  1  0.18508024  0.33603001  0.37571093  1
  O2-  O201  1  0.19220943  0.34011444  0.87479819  1
  O2-  O202  1  0.19509127  0.67089482  0.37600555  1
  O2-  O203  1  0.19242332  0.67686575  0.87240393  1
  O2-  O204  1  0.52940541  0.00357051  0.37422038  1
  O2-  O205  1  0.52855639  0.00545449  0.87576246  1
  O2-  O206  1  0.52582009  0.33858349  0.37291909  1
  O2-  O207  1  0.52585144  0.33804314  0.87677132  1
  O2-  O208  1  0.52626530  0.67731754  0.37267756  1
  O2-  O209  1  0.51814411  0.66613509  0.87567220  1
  O2-  O210  1  0.85929244  0.00655343  0.37667610  1
  O2-  O211  1  0.85354202  0.00372250  0.87427417  1
  O2-  O212  1  0.85958832  0.33709827  0.37654470  1
  O2-  O213  1  0.85607436  0.34108592  0.87552235  1
  O2-  O214  1  0.85960742  0.67155626  0.37609918  1
  O2-  O215  1  0.86096006  0.67529704  0.87279617  1
  O2-  O216  1  0.23998808  0.09203991  0.02070111  1
  O2-  O217  1  0.23698152  0.09293554  0.52384324  1
  O2-  O218  1  0.23771354  0.42716395  0.02288068  1
  O2-  O219  1  0.23851984  0.42711325  0.51968052  1
  O2-  O220  1  0.24277421  0.75950690  0.01469946  1
  O2-  O221  1  0.23736577  0.75940029  0.52080541  1
  O2-  O222  1  0.57069495  0.09469527  0.02174142  1
  O2-  O223  1  0.56841434  0.09884463  0.51502630  1
  O2-  O224  1  0.57019122  0.42786052  0.02188652  1
  O2-  O225  1  0.57067155  0.42911634  0.51924147  1
  O2-  O226  1  0.57730246  0.75998549  0.02226367  1
  O2-  O227  1  0.57165515  0.76140154  0.52086444  1
  O2-  O228  1  0.90189736  0.09524147  0.01983454  1
  O2-  O229  1  0.90037869  0.09755055  0.51972421  1
  O2-  O230  1  0.90428598  0.42542212  0.02279858  1
  O2-  O231  1  0.90157019  0.42610425  0.52121298  1
  O2-  O232  1  0.90663793  0.76416564  0.01581966  1
  O2-  O233  1  0.90632047  0.76268908  0.52083975  1
  O2-  O234  1  0.25762765  0.25938126  0.22691404  1
  O2-  O235  1  0.26043949  0.25637587  0.72797644  1
  O2-  O236  1  0.26602936  0.59513579  0.22975090  1
  O2-  O237  1  0.26074060  0.59393951  0.72690296  1
  O2-  O238  1  0.26347169  0.92958005  0.23464268  1
  O2-  O239  1  0.26164996  0.92608929  0.72611713  1
  O2-  O240  1  0.59306418  0.25955336  0.22553503  1
  O2-  O241  1  0.59683492  0.26417065  0.72901780  1
  O2-  O242  1  0.59565423  0.59511469  0.22721502  1
  O2-  O243  1  0.59543099  0.59167922  0.72899401  1
  O2-  O244  1  0.59268627  0.92677482  0.22519847  1
  O2-  O245  1  0.59535891  0.92957182  0.72808723  1
  O2-  O246  1  0.93157783  0.26234052  0.23301011  1
  O2-  O247  1  0.92289888  0.26237972  0.72954346  1
  O2-  O248  1  0.92658121  0.59224626  0.23276636  1
  O2-  O249  1  0.92997686  0.59540142  0.72691109  1
  O2-  O250  1  0.92721191  0.93227275  0.23318825  1
  O2-  O251  1  0.92914001  0.92795207  0.72602388  1
  O2-  O252  1  0.09252968  0.23523071  0.27099408  1
  O2-  O253  1  0.08901359  0.24418602  0.76772971  1
  O2-  O254  1  0.09744154  0.57219191  0.27046059  1
  O2-  O255  1  0.09591177  0.57159445  0.77269936  1
  O2-  O256  1  0.09420090  0.90844622  0.27591780  1
  O2-  O257  1  0.09952411  0.90018382  0.76717563  1
  O2-  O258  1  0.43085450  0.23694272  0.26592650  1
  O2-  O259  1  0.43242761  0.23741813  0.76567174  1
  O2-  O260  1  0.43160081  0.57081238  0.27243873  1
  O2-  O261  1  0.42417539  0.56882934  0.77093533  1
  O2-  O262  1  0.43128709  0.90294125  0.26673703  1
  O2-  O263  1  0.42987380  0.90643702  0.76203515  1
  O2-  O264  1  0.76169751  0.23849007  0.26922959  1
  O2-  O265  1  0.75959090  0.23729021  0.77107424  1
  O2-  O266  1  0.75958085  0.57055414  0.27108419  1
  O2-  O267  1  0.76670796  0.56967612  0.76650062  1
  O2-  O268  1  0.76438096  0.90514302  0.26984745  1
  O2-  O269  1  0.76536987  0.90393785  0.76500731  1
  O2-  O270  1  0.07417822  0.07269263  0.47967178  1
  O2-  O271  1  0.07249984  0.07264470  0.98790352  1
  O2-  O272  1  0.07047879  0.40515513  0.48126350  1
  O2-  O273  1  0.06857059  0.40649922  0.97897372  1
  O2-  O274  1  0.07431468  0.73660104  0.47841172  1
  O2-  O275  1  0.07403917  0.73985717  0.98174251  1
  O2-  O276  1  0.40566195  0.06882668  0.47745109  1
  O2-  O277  1  0.40511937  0.07065070  0.97794481  1
  O2-  O278  1  0.40662269  0.40486988  0.48587899  1
  O2-  O279  1  0.40129303  0.40517636  0.97646636  1
  O2-  O280  1  0.40636039  0.73673394  0.48004027  1
  O2-  O281  1  0.40554561  0.74011267  0.98388507  1
  O2-  O282  1  0.73705567  0.07329073  0.47553902  1
  O2-  O283  1  0.73510204  0.07084727  0.97806975  1
  O2-  O284  1  0.73805038  0.40539692  0.47310878  1
  O2-  O285  1  0.73573999  0.40285622  0.98469202  1
  O2-  O286  1  0.73797939  0.73853928  0.47856139  1
  O2-  O287  1  0.74346794  0.73946664  0.98394806  1
  O2-  O288  1  0.09229824  0.23773436  0.48099982  1
  O2-  O289  1  0.09057810  0.24291544  0.98124068  1
  O2-  O290  1  0.09787162  0.57253783  0.47771648  1
  O2-  O291  1  0.09779233  0.57363851  0.97937551  1
  O2-  O292  1  0.09669101  0.90528590  0.47857018  1
  O2-  O293  1  0.09579724  0.90573127  0.98000980  1
  O2-  O294  1  0.43340942  0.23770167  0.48312639  1
  O2-  O295  1  0.43023473  0.23644294  0.98484882  1
  O2-  O296  1  0.43050581  0.57204396  0.47812365  1
  O2-  O297  1  0.42577809  0.56897785  0.98059859  1
  O2-  O298  1  0.43501794  0.90511701  0.48422044  1
  O2-  O299  1  0.42822165  0.90545313  0.98542928  1
  O2-  O300  1  0.76277793  0.23543300  0.48233328  1
  O2-  O301  1  0.76034101  0.23994186  0.97700095  1
  O2-  O302  1  0.75964818  0.56938993  0.47771229  1
  O2-  O303  1  0.76377622  0.56904380  0.98434788  1
  O2-  O304  1  0.76607437  0.90451333  0.48171684  1
  O2-  O305  1  0.76377469  0.90448223  0.98424550  1
  O2-  O306  1  0.06995324  0.07205750  0.27135827  1
  O2-  O307  1  0.07446190  0.07507703  0.76145892  1
  O2-  O308  1  0.07067005  0.40362578  0.27019907  1
  O2-  O309  1  0.06851006  0.40751475  0.76999280  1
  O2-  O310  1  0.07568722  0.74012059  0.27341979  1
  O2-  O311  1  0.06971076  0.73510352  0.76451115  1
  O2-  O312  1  0.40682080  0.06960036  0.27212934  1
  O2-  O313  1  0.40413842  0.06975595  0.77251218  1
  O2-  O314  1  0.40552764  0.40543119  0.26365713  1
  O2-  O315  1  0.40256217  0.40342342  0.77323385  1
  O2-  O316  1  0.40753247  0.74070269  0.27210231  1
  O2-  O317  1  0.40214713  0.73726954  0.76563715  1
  O2-  O318  1  0.73670250  0.07008439  0.27226692  1
  O2-  O319  1  0.73525452  0.07434621  0.77390240  1
  O2-  O320  1  0.73590820  0.40480978  0.27182401  1
  O2-  O321  1  0.73757898  0.40610187  0.76866821  1
  O2-  O322  1  0.73905920  0.73805085  0.27127295  1
  O2-  O323  1  0.74305568  0.73943079  0.76581237  1
  O2-  O324  1  0.23596571  0.09405855  0.23120569  1
  O2-  O325  1  0.24116370  0.09134269  0.72548999  1
  O2-  O326  1  0.23701004  0.42897391  0.23009855  1
  O2-  O327  1  0.24010803  0.42631999  0.72683587  1
  O2-  O328  1  0.24125791  0.76270359  0.23838928  1
  O2-  O329  1  0.24019300  0.75892287  0.72510346  1
  O2-  O330  1  0.57167197  0.09421498  0.22846027  1
  O2-  O331  1  0.56712504  0.09922342  0.73444447  1
  O2-  O332  1  0.57245185  0.42649324  0.22521436  1
  O2-  O333  1  0.56721550  0.42947245  0.73432491  1
  O2-  O334  1  0.57295307  0.76013770  0.22687371  1
  O2-  O335  1  0.57706596  0.76216037  0.72893419  1
  O2-  O336  1  0.90296053  0.09638492  0.22785125  1
  O2-  O337  1  0.90020337  0.09625525  0.73193960  1
  O2-  O338  1  0.90251855  0.42600082  0.22964279  1
  O2-  O339  1  0.90716184  0.42749675  0.72600189  1
  O2-  O340  1  0.90527304  0.76466208  0.23573891  1
  O2-  O341  1  0.90631416  0.76148649  0.72665752  1
  O2-  O342  1  0.25930256  0.25768717  0.02090287  1
  O2-  O343  1  0.25905152  0.25789755  0.52491678  1
  O2-  O344  1  0.26348718  0.59503288  0.02167027  1
  O2-  O345  1  0.26321061  0.59393614  0.52037391  1
  O2-  O346  1  0.26291904  0.92894633  0.01635356  1
  O2-  O347  1  0.25963834  0.92756902  0.52365614  1
  O2-  O348  1  0.59595057  0.26036616  0.02309414  1
  O2-  O349  1  0.59606703  0.26274696  0.52224988  1
  O2-  O350  1  0.59290716  0.59209830  0.02436671  1
  O2-  O351  1  0.59618157  0.59605908  0.51968888  1
  O2-  O352  1  0.59284847  0.92652590  0.02317621  1
  O2-  O353  1  0.59620723  0.92961329  0.52333611  1
  O2-  O354  1  0.92727017  0.26293197  0.01632850  1
  O2-  O355  1  0.92542082  0.26351638  0.52108191  1
  O2-  O356  1  0.92802603  0.59342306  0.01898781  1
  O2-  O357  1  0.92898258  0.59342120  0.51962397  1
  O2-  O358  1  0.92607418  0.92913115  0.01927490  1
  O2-  O359  1  0.92794118  0.93338792  0.52295946  1
