# generated using pymatgen
data_Sr7Ca15Pr50Mn72O216
_symmetry_space_group_name_H-M   'P 1'
_cell_length_a   16.55431537
_cell_length_b   16.59850178
_cell_length_c   15.58998276
_cell_angle_alpha   89.99887425
_cell_angle_beta   89.99759630
_cell_angle_gamma   89.98585772
_symmetry_Int_Tables_number   1
_chemical_formula_structural   Sr7Ca15Pr50Mn72O216
_chemical_formula_sum   'Sr7 Ca15 Pr50 Mn72 O216'
_cell_volume   4283.76595521
_cell_formula_units_Z   1
loop_
 _symmetry_equiv_pos_site_id
 _symmetry_equiv_pos_as_xyz
  1  'x, y, z'
loop_
 _atom_type_symbol
 _atom_type_oxidation_number
  Sr2+  2.0
  Ca2+  2.0
  Pr3+  3.0
  Mn3.30+  3.3
  O2-  -2.0
loop_
 _atom_site_type_symbol
 _atom_site_label
 _atom_site_symmetry_multiplicity
 _atom_site_fract_x
 _atom_site_fract_y
 _atom_site_fract_z
 _atom_site_occupancy
  Sr2+  Sr0  1  0.66689392  0.67636616  0.12574421  1
  Sr2+  Sr1  1  0.00209867  0.34070152  0.12619787  1
  Sr2+  Sr2  1  0.16437621  0.15733354  0.87598650  1
  Sr2+  Sr3  1  0.16523013  0.48821958  0.37563335  1
  Sr2+  Sr4  1  0.33398630  0.65790913  0.37237233  1
  Sr2+  Sr5  1  0.16780994  0.84284507  0.12580770  1
  Sr2+  Sr6  1  0.82971768  0.82252323  0.37516891  1
  Ca2+  Ca7  1  0.49700310  0.81837887  0.87693843  1
  Ca2+  Ca8  1  0.49522015  0.48530424  0.87414870  1
  Ca2+  Ca9  1  0.83586982  0.51508937  0.62462421  1
  Ca2+  Ca10  1  -0.00192925  0.01653955  0.62616715  1
  Ca2+  Ca11  1  0.16446238  0.17901717  0.12571189  1
  Ca2+  Ca12  1  0.67106428  0.65283757  0.37439938  1
  Ca2+  Ca13  1  1.00421157  0.65193323  0.87541574  1
  Ca2+  Ca14  1  0.50330746  0.51502671  0.62488624  1
  Ca2+  Ca15  1  0.33349435  0.32071681  0.37519011  1
  Ca2+  Ca16  1  -0.00031918  0.01483695  0.12395232  1
  Ca2+  Ca17  1  0.67222518  0.98467012  0.37478237  1
  Ca2+  Ca18  1  0.16717833  0.18169634  0.62446823  1
  Ca2+  Ca19  1  0.32907921  0.68177602  0.12568136  1
  Ca2+  Ca20  1  1.00466908  0.32108754  0.37436342  1
  Ca2+  Ca21  1  0.83325112  0.15362748  0.87601671  1
  Pr3+  Pr22  1  0.17058956  0.51347636  0.12524725  1
  Pr3+  Pr23  1  0.32613551  0.01347750  0.12598915  1
  Pr3+  Pr24  1  0.66578174  0.67673470  0.62425897  1
  Pr3+  Pr25  1  0.32884483  0.01527701  0.62426844  1
  Pr3+  Pr26  1  0.33321102  0.67797885  0.62332529  1
  Pr3+  Pr27  1  0.83129121  0.49115412  0.37590593  1
  Pr3+  Pr28  1  0.83939290  0.84838433  0.12557661  1
  Pr3+  Pr29  1  0.83203299  0.81978307  0.87466476  1
  Pr3+  Pr30  1  0.33534491  0.98489467  0.87523209  1
  Pr3+  Pr31  1  0.67014611  0.31817021  0.87495882  1
  Pr3+  Pr32  1  0.33369461  0.98763081  0.37519718  1
  Pr3+  Pr33  1  0.49486388  0.15291360  0.87459002  1
  Pr3+  Pr34  1  0.32691179  0.34404702  0.12633262  1
  Pr3+  Pr35  1  0.16317642  0.48795649  0.87465067  1
  Pr3+  Pr36  1  0.16952039  0.51195500  0.62462953  1
  Pr3+  Pr37  1  0.16337735  0.82020221  0.37380273  1
  Pr3+  Pr38  1  1.00315174  0.99132572  0.87508495  1
  Pr3+  Pr39  1  0.16912487  0.84715909  0.62434213  1
  Pr3+  Pr40  1  0.50080941  0.84070250  0.12511406  1
  Pr3+  Pr41  1  0.33950979  0.65347286  0.87672647  1
  Pr3+  Pr42  1  0.50181524  0.81858250  0.37462912  1
  Pr3+  Pr43  1  0.66421396  0.34604886  0.12566796  1
  Pr3+  Pr44  1  1.00412124  0.65418037  0.37401783  1
  Pr3+  Pr45  1  0.50314128  0.84281328  0.62529178  1
  Pr3+  Pr46  1  0.83654998  0.51259898  0.12475614  1
  Pr3+  Pr47  1  0.66990875  0.98723436  0.87487280  1
  Pr3+  Pr48  1  0.66492784  0.01157489  0.62216335  1
  Pr3+  Pr49  1  0.66987237  0.32327072  0.37499126  1
  Pr3+  Pr50  1  0.66286574  0.35013876  0.62417112  1
  Pr3+  Pr51  1  1.00222478  0.31882978  0.87570474  1
  Pr3+  Pr52  1  0.33077990  0.34633864  0.62402037  1
  Pr3+  Pr53  1  0.50248343  0.17952546  0.12492707  1
  Pr3+  Pr54  1  0.50410237  0.18052434  0.62502186  1
  Pr3+  Pr55  1  0.83322130  0.15433082  0.37408045  1
  Pr3+  Pr56  1  0.83749460  0.17780148  0.62518746  1
  Pr3+  Pr57  1  0.50124685  0.51398261  0.12389914  1
  Pr3+  Pr58  1  1.00363039  0.98814093  0.37543786  1
  Pr3+  Pr59  1  0.49472355  0.48841932  0.37599491  1
  Pr3+  Pr60  1  -0.00217173  0.34667816  0.62404029  1
  Pr3+  Pr61  1  0.33492958  0.31989569  0.87463314  1
  Pr3+  Pr62  1  0.16214604  0.81907384  0.87587135  1
  Pr3+  Pr63  1  0.83806847  0.84914565  0.62441104  1
  Pr3+  Pr64  1  0.66385590  0.65349933  0.87621592  1
  Pr3+  Pr65  1  -0.00368659  0.67815216  0.12396481  1
  Pr3+  Pr66  1  0.16378233  0.16062097  0.37431677  1
  Pr3+  Pr67  1  0.83190155  0.48859047  0.87344838  1
  Pr3+  Pr68  1  0.83887603  0.17852755  0.12435418  1
  Pr3+  Pr69  1  -0.00471256  0.67731204  0.62590343  1
  Pr3+  Pr70  1  0.49518916  0.15303447  0.37549189  1
  Pr3+  Pr71  1  0.66504011  0.00986606  0.12754930  1
  Mn3.30+  Mn72  1  0.16575355  0.00115364  0.00124237  1
  Mn3.30+  Mn73  1  0.16527882  0.00369778  0.50175619  1
  Mn3.30+  Mn74  1  0.16603374  0.33233306  0.00128130  1
  Mn3.30+  Mn75  1  0.16601743  0.33325689  0.49910854  1
  Mn3.30+  Mn76  1  0.16771270  0.66690570  -0.00048212  1
  Mn3.30+  Mn77  1  0.16593335  0.66567486  0.50014142  1
  Mn3.30+  Mn78  1  0.49910296  -0.00297966  0.00066408  1
  Mn3.30+  Mn79  1  0.50105637  -0.00132701  0.49872226  1
  Mn3.30+  Mn80  1  0.49932861  0.33410040  -0.00064197  1
  Mn3.30+  Mn81  1  0.49877268  0.33462027  0.49979303  1
  Mn3.30+  Mn82  1  0.49829765  0.66694861  0.00095174  1
  Mn3.30+  Mn83  1  0.50212041  0.66430444  0.49905858  1
  Mn3.30+  Mn84  1  0.83488818  0.00147619  -0.00074585  1
  Mn3.30+  Mn85  1  0.83401892  0.00076199  0.49979903  1
  Mn3.30+  Mn86  1  0.83374190  0.33243303  -0.00073564  1
  Mn3.30+  Mn87  1  0.83467579  0.33519108  0.49975235  1
  Mn3.30+  Mn88  1  0.83406728  0.66660504  -0.00238213  1
  Mn3.30+  Mn89  1  0.83202131  0.66660452  0.49978716  1
  Mn3.30+  Mn90  1  0.00031367  0.16737645  0.24965530  1
  Mn3.30+  Mn91  1  0.00074492  0.16637337  0.74880143  1
  Mn3.30+  Mn92  1  0.00112740  0.49779545  0.24980645  1
  Mn3.30+  Mn93  1  -0.00180172  0.50084882  0.75002406  1
  Mn3.30+  Mn94  1  -0.00003335  0.83525793  0.24908948  1
  Mn3.30+  Mn95  1  0.00038615  0.83425563  0.75005381  1
  Mn3.30+  Mn96  1  0.33160309  0.16813883  0.25073385  1
  Mn3.30+  Mn97  1  0.33164476  0.16650807  0.74892936  1
  Mn3.30+  Mn98  1  0.33318415  0.49990726  0.25175067  1
  Mn3.30+  Mn99  1  0.33601585  0.50027623  0.74914210  1
  Mn3.30+  Mn100  1  0.33342434  0.83230147  0.25001065  1
  Mn3.30+  Mn101  1  0.33420091  0.83276049  0.75026575  1
  Mn3.30+  Mn102  1  0.66674520  0.16584248  0.25145844  1
  Mn3.30+  Mn103  1  0.66846117  0.16586692  0.75034799  1
  Mn3.30+  Mn104  1  0.66547260  0.50154570  0.25071222  1
  Mn3.30+  Mn105  1  0.66430078  0.49998935  0.75020127  1
  Mn3.30+  Mn106  1  0.66878950  0.83212961  0.24959220  1
  Mn3.30+  Mn107  1  0.66636587  0.83220055  0.75153283  1
  Mn3.30+  Mn108  1  0.16527007  0.00242454  0.24831768  1
  Mn3.30+  Mn109  1  0.16538754  0.00278485  0.74852839  1
  Mn3.30+  Mn110  1  0.16622178  0.33342180  0.25153434  1
  Mn3.30+  Mn111  1  0.16598096  0.33269195  0.74869985  1
  Mn3.30+  Mn112  1  0.16799240  0.66614245  0.24888769  1
  Mn3.30+  Mn113  1  0.16604301  0.66673859  0.75044092  1
  Mn3.30+  Mn114  1  0.50012722  -0.00168080  0.25079506  1
  Mn3.30+  Mn115  1  0.49985289  -0.00233463  0.74961878  1
  Mn3.30+  Mn116  1  0.49764789  0.33320865  0.25084937  1
  Mn3.30+  Mn117  1  0.50054275  0.33601946  0.75024604  1
  Mn3.30+  Mn118  1  0.50092594  0.66574165  0.24989709  1
  Mn3.30+  Mn119  1  0.49958739  0.66511763  0.75050093  1
  Mn3.30+  Mn120  1  0.83349945  0.00009917  0.25045465  1
  Mn3.30+  Mn121  1  0.83543971  0.00218263  0.75030902  1
  Mn3.30+  Mn122  1  0.83586310  0.33430124  0.25153730  1
  Mn3.30+  Mn123  1  0.83249656  0.33304552  0.74905561  1
  Mn3.30+  Mn124  1  0.83206168  0.66798494  0.25060572  1
  Mn3.30+  Mn125  1  0.83369650  0.66530957  0.75150976  1
  Mn3.30+  Mn126  1  -0.00026857  0.16553259  0.00036286  1
  Mn3.30+  Mn127  1  0.00124416  0.16821848  0.50125008  1
  Mn3.30+  Mn128  1  0.00046910  0.49998635  -0.00015715  1
  Mn3.30+  Mn129  1  -0.00145293  0.49909881  0.50018071  1
  Mn3.30+  Mn130  1  0.00033570  0.83445416  -0.00052312  1
  Mn3.30+  Mn131  1  -0.00043908  0.83472558  0.50055544  1
  Mn3.30+  Mn132  1  0.33128920  0.16580279  0.00044826  1
  Mn3.30+  Mn133  1  0.33180129  0.16884254  0.50059754  1
  Mn3.30+  Mn134  1  0.33439085  0.50048157  0.00001853  1
  Mn3.30+  Mn135  1  0.33482866  0.49956996  0.49910951  1
  Mn3.30+  Mn136  1  0.33285344  0.83206031  0.00025676  1
  Mn3.30+  Mn137  1  0.33449845  0.83322107  0.49941890  1
  Mn3.30+  Mn138  1  0.66766796  0.16497274  -0.00004268  1
  Mn3.30+  Mn139  1  0.66732736  0.16653712  0.49810031  1
  Mn3.30+  Mn140  1  0.66443286  0.49920407  -0.00209343  1
  Mn3.30+  Mn141  1  0.66597284  0.50206053  0.50117671  1
  Mn3.30+  Mn142  1  0.66607543  0.83210960  -0.00014355  1
  Mn3.30+  Mn143  1  0.66919838  0.83234546  0.49914775  1
  O2-  O144  1  0.02135280  0.16003394  0.12565025  1
  O2-  O145  1  0.02488824  0.16167129  0.62451487  1
  O2-  O146  1  0.02463721  0.49831991  0.12400274  1
  O2-  O147  1  0.02517423  0.49524724  0.62584214  1
  O2-  O148  1  0.01876074  0.82465161  0.12280231  1
  O2-  O149  1  0.02650764  0.82351892  0.62599475  1
  O2-  O150  1  0.35959046  0.16206087  0.12386600  1
  O2-  O151  1  0.36107766  0.16215619  0.62427356  1
  O2-  O152  1  0.35829533  0.48936533  0.12608384  1
  O2-  O153  1  0.36100507  0.49317559  0.62506871  1
  O2-  O154  1  0.35617503  0.83043711  0.12531209  1
  O2-  O155  1  0.35791184  0.82886981  0.62403667  1
  O2-  O156  1  0.69360975  0.16009392  0.12705035  1
  O2-  O157  1  0.69276109  0.15999655  0.62266361  1
  O2-  O158  1  0.69182984  0.49337111  0.12188979  1
  O2-  O159  1  0.69396255  0.49686398  0.62645053  1
  O2-  O160  1  0.69422096  0.83163265  0.12339165  1
  O2-  O161  1  0.69353400  0.82532664  0.62793721  1
  O2-  O162  1  0.15190311  0.32937184  0.12479733  1
  O2-  O163  1  0.14286707  0.33145797  0.62551048  1
  O2-  O164  1  0.14088577  0.66246456  0.12462376  1
  O2-  O165  1  0.14074105  0.66207205  0.62685445  1
  O2-  O166  1  0.14221441  0.99522270  0.12675724  1
  O2-  O167  1  0.13925421  0.99171763  0.62459438  1
  O2-  O168  1  0.47255588  0.32694700  0.12624605  1
  O2-  O169  1  0.47512590  0.32595989  0.62562524  1
  O2-  O170  1  0.47270355  0.66190690  0.12412088  1
  O2-  O171  1  0.47684287  0.66233014  0.62584324  1
  O2-  O172  1  0.47112071  0.99092737  0.12671693  1
  O2-  O173  1  0.47353998  0.99130200  0.62545600  1
  O2-  O174  1  0.80775087  0.32773844  0.12629796  1
  O2-  O175  1  0.80567911  0.32370669  0.62628695  1
  O2-  O176  1  0.81631021  0.66121103  0.12300218  1
  O2-  O177  1  0.80954942  0.66191634  0.62783084  1
  O2-  O178  1  0.80875712  0.99777708  0.12379340  1
  O2-  O179  1  0.80884993  0.99924736  0.62507341  1
  O2-  O180  1  0.30903887  0.17044429  0.37790721  1
  O2-  O181  1  0.31507165  0.17048036  0.87522245  1
  O2-  O182  1  0.31477947  0.50504281  0.37508853  1
  O2-  O183  1  0.30667959  0.50640399  0.87406288  1
  O2-  O184  1  0.30842199  0.83876718  0.37671345  1
  O2-  O185  1  0.30702402  0.83710864  0.87408206  1
  O2-  O186  1  0.63818262  0.17650073  0.37481111  1
  O2-  O187  1  0.63811692  0.17025083  0.87532233  1
  O2-  O188  1  0.64031634  0.50413607  0.37674479  1
  O2-  O189  1  0.63720834  0.50375823  0.87494907  1
  O2-  O190  1  0.64455192  0.84205016  0.37413503  1
  O2-  O191  1  0.63959531  0.84083412  0.87462887  1
  O2-  O192  1  0.97703878  0.17463079  0.37615111  1
  O2-  O193  1  0.97539222  0.17111735  0.87402826  1
  O2-  O194  1  0.97502164  0.50767156  0.37561395  1
  O2-  O195  1  0.97599618  0.50574248  0.87396133  1
  O2-  O196  1  0.97975162  0.83970378  0.37632964  1
  O2-  O197  1  0.97439378  0.84497893  0.87415892  1
  O2-  O198  1  0.19092587  0.01032938  0.37633980  1
  O2-  O199  1  0.19129979  0.00315703  0.87298154  1
  O2-  O200  1  0.19121239  0.33038549  0.37665572  1
  O2-  O201  1  0.18996656  0.33916092  0.87367690  1
  O2-  O202  1  0.18298773  0.67148967  0.37477323  1
  O2-  O203  1  0.19443048  0.66957782  0.87285343  1
  O2-  O204  1  0.52846342  0.00670107  0.37380830  1
  O2-  O205  1  0.52581593  0.00737144  0.87386466  1
  O2-  O206  1  0.52667019  0.33954297  0.37438740  1
  O2-  O207  1  0.52613052  0.33859146  0.87389062  1
  O2-  O208  1  0.52830662  0.66950257  0.37513330  1
  O2-  O209  1  0.52090870  0.67516611  0.87525431  1
  O2-  O210  1  0.85927584  0.00399933  0.37644178  1
  O2-  O211  1  0.85835056  0.00613717  0.87440325  1
  O2-  O212  1  0.86096780  0.34340565  0.37506421  1
  O2-  O213  1  0.85825235  0.34129916  0.87185390  1
  O2-  O214  1  0.85963072  0.66565252  0.37451638  1
  O2-  O215  1  0.86166503  0.67110050  0.87412998  1
  O2-  O216  1  0.23885264  0.09554483  0.02354806  1
  O2-  O217  1  0.23776018  0.09679414  0.52354603  1
  O2-  O218  1  0.23911826  0.42997155  0.01797855  1
  O2-  O219  1  0.23949867  0.42660245  0.52214053  1
  O2-  O220  1  0.23795979  0.76184747  0.01370046  1
  O2-  O221  1  0.23909720  0.76034558  0.51993235  1
  O2-  O222  1  0.57146793  0.09289144  0.02230995  1
  O2-  O223  1  0.57054884  0.09280850  0.52173165  1
  O2-  O224  1  0.57249130  0.42471503  0.02368520  1
  O2-  O225  1  0.57149884  0.42917849  0.52166895  1
  O2-  O226  1  0.56982273  0.76053303  0.01873984  1
  O2-  O227  1  0.57353948  0.76098564  0.52011126  1
  O2-  O228  1  0.90309431  0.09589043  0.01781343  1
  O2-  O229  1  0.90399294  0.09811401  0.51551687  1
  O2-  O230  1  0.90304635  0.43043579  0.01551465  1
  O2-  O231  1  0.90291530  0.43002131  0.52388685  1
  O2-  O232  1  0.90465014  0.76380575  0.01675410  1
  O2-  O233  1  0.90535860  0.76050107  0.52271920  1
  O2-  O234  1  0.26356193  0.26179218  0.23421761  1
  O2-  O235  1  0.26481942  0.26265075  0.73273162  1
  O2-  O236  1  0.25982105  0.59342028  0.22593121  1
  O2-  O237  1  0.26420333  0.59374065  0.72717517  1
  O2-  O238  1  0.26271982  0.93258688  0.23653012  1
  O2-  O239  1  0.26181552  0.92945328  0.72924579  1
  O2-  O240  1  0.59438401  0.26060489  0.22814890  1
  O2-  O241  1  0.59802153  0.26087771  0.72935660  1
  O2-  O242  1  0.59096414  0.58990814  0.22847282  1
  O2-  O243  1  0.59668354  0.59694039  0.73307824  1
  O2-  O244  1  0.59190557  0.92413940  0.22646641  1
  O2-  O245  1  0.59677515  0.92659520  0.72712645  1
  O2-  O246  1  0.92366821  0.25725298  0.23130479  1
  O2-  O247  1  0.92830085  0.26188388  0.72873098  1
  O2-  O248  1  0.92800075  0.59424886  0.23074877  1
  O2-  O249  1  0.92879101  0.59301945  0.73032384  1
  O2-  O250  1  0.93044772  0.92883180  0.22872339  1
  O2-  O251  1  0.92958078  0.92884239  0.72704665  1
  O2-  O252  1  0.09515582  0.23907341  0.26596695  1
  O2-  O253  1  0.08967339  0.24186603  0.76816819  1
  O2-  O254  1  0.09172386  0.57408195  0.26621604  1
  O2-  O255  1  0.09699025  0.57045930  0.76757448  1
  O2-  O256  1  0.09522968  0.90855129  0.27379511  1
  O2-  O257  1  0.09652985  0.90440999  0.76922923  1
  O2-  O258  1  0.43153996  0.23608994  0.26866664  1
  O2-  O259  1  0.43115898  0.23887120  0.76934835  1
  O2-  O260  1  0.43062821  0.56867795  0.26560953  1
  O2-  O261  1  0.42867096  0.57146462  0.77331813  1
  O2-  O262  1  0.42864911  0.90644846  0.27384426  1
  O2-  O263  1  0.42929408  0.90259628  0.77222273  1
  O2-  O264  1  0.76129572  0.24225275  0.27295400  1
  O2-  O265  1  0.76272625  0.23682350  0.77308305  1
  O2-  O266  1  0.76291202  0.57117708  0.26635550  1
  O2-  O267  1  0.75693241  0.57234298  0.77487441  1
  O2-  O268  1  0.76134603  0.90677372  0.26268367  1
  O2-  O269  1  0.76229179  0.90535943  0.76980861  1
  O2-  O270  1  0.07180321  0.07439589  0.47737997  1
  O2-  O271  1  0.06898197  0.07151520  0.98228293  1
  O2-  O272  1  0.06752706  0.40270178  0.48397927  1
  O2-  O273  1  0.07207474  0.40820637  0.97742364  1
  O2-  O274  1  0.07092942  0.74082380  0.48068936  1
  O2-  O275  1  0.07021545  0.73858927  0.97690995  1
  O2-  O276  1  0.40395316  0.07195691  0.48035012  1
  O2-  O277  1  0.40466388  0.07054149  0.98053616  1
  O2-  O278  1  0.40398383  0.40296966  0.47878331  1
  O2-  O279  1  0.40266267  0.40382213  0.98006957  1
  O2-  O280  1  0.41225832  0.73831927  0.48279142  1
  O2-  O281  1  0.40330922  0.73799133  0.98226421  1
  O2-  O282  1  0.73710119  0.07321448  0.47683523  1
  O2-  O283  1  0.73607447  0.06905559  0.98158048  1
  O2-  O284  1  0.73645747  0.40687205  0.48030547  1
  O2-  O285  1  0.73798783  0.40447665  0.97845598  1
  O2-  O286  1  0.73620036  0.73517793  0.48277767  1
  O2-  O287  1  0.73912775  0.74054321  0.97495534  1
  O2-  O288  1  0.09572684  0.23858785  0.48356323  1
  O2-  O289  1  0.08930617  0.24207567  0.98310822  1
  O2-  O290  1  0.09073133  0.57351477  0.48456394  1
  O2-  O291  1  0.09774950  0.57095599  0.98187272  1
  O2-  O292  1  0.09672501  0.90631615  0.47967870  1
  O2-  O293  1  0.09379549  0.90601501  0.97723680  1
  O2-  O294  1  0.43060852  0.23620958  0.48221500  1
  O2-  O295  1  0.42981860  0.23757102  0.98029925  1
  O2-  O296  1  0.43066648  0.57043143  0.48389058  1
  O2-  O297  1  0.42895246  0.56922776  0.97900487  1
  O2-  O298  1  0.42960409  0.90648319  0.47763953  1
  O2-  O299  1  0.42867498  0.90303310  0.97774069  1
  O2-  O300  1  0.76259855  0.24108343  0.47666233  1
  O2-  O301  1  0.75993736  0.23703230  0.97854313  1
  O2-  O302  1  0.76069755  0.57206306  0.48093580  1
  O2-  O303  1  0.75947476  0.57193376  0.97758261  1
  O2-  O304  1  0.76116497  0.90559040  0.48909196  1
  O2-  O305  1  0.76376062  0.90672456  0.97868575  1
  O2-  O306  1  0.07178409  0.07444365  0.27326445  1
  O2-  O307  1  0.06985597  0.07048439  0.76786273  1
  O2-  O308  1  0.07062312  0.40416612  0.26940055  1
  O2-  O309  1  0.06919585  0.40711098  0.76973863  1
  O2-  O310  1  0.07180172  0.74108619  0.26799305  1
  O2-  O311  1  0.06989670  0.73919402  0.77362582  1
  O2-  O312  1  0.40398070  0.07174028  0.27096349  1
  O2-  O313  1  0.40387104  0.07090729  0.76856562  1
  O2-  O314  1  0.40505010  0.40264687  0.27216775  1
  O2-  O315  1  0.40197701  0.40428117  0.77005245  1
  O2-  O316  1  0.41317294  0.74215888  0.26911991  1
  O2-  O317  1  0.40270176  0.73472849  0.76502839  1
  O2-  O318  1  0.73690438  0.07291848  0.27339823  1
  O2-  O319  1  0.73519765  0.07038403  0.76782246  1
  O2-  O320  1  0.73788718  0.40682525  0.26989608  1
  O2-  O321  1  0.73565292  0.40441417  0.77102672  1
  O2-  O322  1  0.73812871  0.73646290  0.26950816  1
  O2-  O323  1  0.73762072  0.73916665  0.77407980  1
  O2-  O324  1  0.23655644  0.09658204  0.22881280  1
  O2-  O325  1  0.23749841  0.09404362  0.72436257  1
  O2-  O326  1  0.23925315  0.42724041  0.22996721  1
  O2-  O327  1  0.23927413  0.42918655  0.72992279  1
  O2-  O328  1  0.24059715  0.76022303  0.23684777  1
  O2-  O329  1  0.23784751  0.76200628  0.72846937  1
  O2-  O330  1  0.56978914  0.09200062  0.22702835  1
  O2-  O331  1  0.57169257  0.09353020  0.72786057  1
  O2-  O332  1  0.57078712  0.42545327  0.22852214  1
  O2-  O333  1  0.57206344  0.42832770  0.72505473  1
  O2-  O334  1  0.57199692  0.76246148  0.23254856  1
  O2-  O335  1  0.57279960  0.75892848  0.72875700  1
  O2-  O336  1  0.90247168  0.09618680  0.23529403  1
  O2-  O337  1  0.90536058  0.09702534  0.73054029  1
  O2-  O338  1  0.90225948  0.43103270  0.23123115  1
  O2-  O339  1  0.90247884  0.42863010  0.72822369  1
  O2-  O340  1  0.90569616  0.76008593  0.22975628  1
  O2-  O341  1  0.90500613  0.76370687  0.73042452  1
  O2-  O342  1  0.26544782  0.26238512  0.01404939  1
  O2-  O343  1  0.26254153  0.26156298  0.52161679  1
  O2-  O344  1  0.26453366  0.59457425  0.02200273  1
  O2-  O345  1  0.26048235  0.59148397  0.52332528  1
  O2-  O346  1  0.26532601  0.93062856  0.01519951  1
  O2-  O347  1  0.25952772  0.93156259  0.51942039  1
  O2-  O348  1  0.59515909  0.25994728  0.02131076  1
  O2-  O349  1  0.59562820  0.26177678  0.52086463  1
  O2-  O350  1  0.59181312  0.59272158  0.01707073  1
  O2-  O351  1  0.59599999  0.59451782  0.52214739  1
  O2-  O352  1  0.59538483  0.92724538  0.02192056  1
  O2-  O353  1  0.59441962  0.92346985  0.52319687  1
  O2-  O354  1  0.92527290  0.25927702  0.01663382  1
  O2-  O355  1  0.92803112  0.26034521  0.52323505  1
  O2-  O356  1  0.92866993  0.59249334  0.01947750  1
  O2-  O357  1  0.92770126  0.59633111  0.51834143  1
  O2-  O358  1  0.92821210  0.93023290  0.02141305  1
  O2-  O359  1  0.93111681  0.92887033  0.52315299  1
