# generated using pymatgen
data_Sr7Ca15Pr50Mn72O216
_symmetry_space_group_name_H-M   'P 1'
_cell_length_a   16.55967217
_cell_length_b   16.60497205
_cell_length_c   15.59317831
_cell_angle_alpha   89.99508047
_cell_angle_beta   89.99564545
_cell_angle_gamma   90.00495065
_symmetry_Int_Tables_number   1
_chemical_formula_structural   Sr7Ca15Pr50Mn72O216
_chemical_formula_sum   'Sr7 Ca15 Pr50 Mn72 O216'
_cell_volume   4287.70131591
_cell_formula_units_Z   1
loop_
 _symmetry_equiv_pos_site_id
 _symmetry_equiv_pos_as_xyz
  1  'x, y, z'
loop_
 _atom_type_symbol
 _atom_type_oxidation_number
  Sr2+  2.0
  Ca2+  2.0
  Pr3+  3.0
  Mn3.30+  3.3
  O2-  -2.0
loop_
 _atom_site_type_symbol
 _atom_site_label
 _atom_site_symmetry_multiplicity
 _atom_site_fract_x
 _atom_site_fract_y
 _atom_site_fract_z
 _atom_site_occupancy
  Sr2+  Sr0  1  0.50216867  0.84425425  0.62523163  1
  Sr2+  Sr1  1  0.83175810  0.50756408  0.12618933  1
  Sr2+  Sr2  1  0.33254780  0.00938057  0.12429630  1
  Sr2+  Sr3  1  0.66912297  0.65748332  0.87387058  1
  Sr2+  Sr4  1  0.83338629  0.17647614  0.12600639  1
  Sr2+  Sr5  1  0.66818813  0.33882568  0.62404021  1
  Sr2+  Sr6  1  0.66428628  0.00875811  0.62317685  1
  Ca2+  Ca7  1  0.33667499  0.98653068  0.87190473  1
  Ca2+  Ca8  1  0.33784140  0.65288413  0.37525433  1
  Ca2+  Ca9  1  0.82808520  0.81685444  0.87285150  1
  Ca2+  Ca10  1  0.82781736  0.14852752  0.37786567  1
  Ca2+  Ca11  1  0.66232502  0.35090498  0.12605596  1
  Ca2+  Ca12  1  -0.00765283  0.01970541  0.62304396  1
  Ca2+  Ca13  1  0.17105881  0.51514211  0.12676861  1
  Ca2+  Ca14  1  0.66869155  0.98759652  0.37763821  1
  Ca2+  Ca15  1  0.33690953  0.31605373  0.37515740  1
  Ca2+  Ca16  1  0.83488301  0.51270312  0.62515755  1
  Ca2+  Ca17  1  0.16725802  0.18041719  0.62376740  1
  Ca2+  Ca18  1  0.83305434  0.17671447  0.62266763  1
  Ca2+  Ca19  1  0.50579525  0.51480815  0.12581213  1
  Ca2+  Ca20  1  1.00175517  0.98842068  0.37737412  1
  Ca2+  Ca21  1  0.32894038  0.01738466  0.62556689  1
  Pr3+  Pr22  1  0.49622637  0.15178035  0.87266737  1
  Pr3+  Pr23  1  0.16719755  0.82239247  0.87549870  1
  Pr3+  Pr24  1  0.49760969  0.82109312  0.37759173  1
  Pr3+  Pr25  1  0.82958420  0.48675028  0.37508503  1
  Pr3+  Pr26  1  0.66945337  0.32230555  0.87610038  1
  Pr3+  Pr27  1  -0.00559066  0.34452848  0.62383449  1
  Pr3+  Pr28  1  1.00100536  0.98758249  0.87294703  1
  Pr3+  Pr29  1  0.33104782  0.68077300  0.62330019  1
  Pr3+  Pr30  1  0.16272229  0.15215675  0.37688187  1
  Pr3+  Pr31  1  0.49809515  0.15447873  0.37722828  1
  Pr3+  Pr32  1  0.50328503  0.84641454  0.12514672  1
  Pr3+  Pr33  1  0.50260960  0.17577714  0.62395121  1
  Pr3+  Pr34  1  -0.00289860  0.34597967  0.12592574  1
  Pr3+  Pr35  1  0.83534223  0.84414709  0.12384826  1
  Pr3+  Pr36  1  -0.00314819  0.67958717  0.62416417  1
  Pr3+  Pr37  1  0.33901947  0.65337675  0.87455474  1
  Pr3+  Pr38  1  0.66640658  0.67744878  0.62510908  1
  Pr3+  Pr39  1  1.00124518  0.32050465  0.87594404  1
  Pr3+  Pr40  1  0.16355676  0.82305732  0.37462681  1
  Pr3+  Pr41  1  0.83075349  0.15545909  0.87305593  1
  Pr3+  Pr42  1  -0.00224954  0.67787749  0.12537024  1
  Pr3+  Pr43  1  0.33168445  0.67825714  0.12652205  1
  Pr3+  Pr44  1  0.50537069  0.18120848  0.12607771  1
  Pr3+  Pr45  1  0.67105595  0.98501653  0.87291020  1
  Pr3+  Pr46  1  0.67152960  0.31858502  0.37390269  1
  Pr3+  Pr47  1  0.17037369  0.85047929  0.62511231  1
  Pr3+  Pr48  1  0.33480773  0.98974768  0.37711295  1
  Pr3+  Pr49  1  0.32987492  0.34811756  0.12820109  1
  Pr3+  Pr50  1  0.66328100  0.01272733  0.12721020  1
  Pr3+  Pr51  1  0.83703521  0.84925081  0.62665698  1
  Pr3+  Pr52  1  0.17004671  0.51210927  0.62418510  1
  Pr3+  Pr53  1  0.32987799  0.34282440  0.62243086  1
  Pr3+  Pr54  1  0.16673047  0.48623646  0.37336778  1
  Pr3+  Pr55  1  0.83208900  0.82537286  0.37696324  1
  Pr3+  Pr56  1  0.16378669  0.48683438  0.87678365  1
  Pr3+  Pr57  1  0.99872014  0.31931970  0.37339857  1
  Pr3+  Pr58  1  0.49518396  0.48435796  0.37339680  1
  Pr3+  Pr59  1  0.66928947  0.65414843  0.37600362  1
  Pr3+  Pr60  1  0.82848933  0.48880597  0.87511117  1
  Pr3+  Pr61  1  0.50002125  0.48715026  0.87655049  1
  Pr3+  Pr62  1  0.50372971  0.50925062  0.62387335  1
  Pr3+  Pr63  1  0.33628131  0.31972804  0.87518886  1
  Pr3+  Pr64  1  1.00341998  0.65429817  0.37487879  1
  Pr3+  Pr65  1  0.16960347  0.84732934  0.12475415  1
  Pr3+  Pr66  1  0.16436353  0.15330449  0.87341358  1
  Pr3+  Pr67  1  0.16987174  0.17707238  0.12608137  1
  Pr3+  Pr68  1  0.49794906  0.82185916  0.87292400  1
  Pr3+  Pr69  1  -0.00382120  0.01249416  0.12631286  1
  Pr3+  Pr70  1  1.00049230  0.65429603  0.87488224  1
  Pr3+  Pr71  1  0.66437508  0.67747008  0.12459598  1
  Mn3.30+  Mn72  1  0.16819569  0.00033984  -0.00268213  1
  Mn3.30+  Mn73  1  0.16386021  0.00288988  0.50420691  1
  Mn3.30+  Mn74  1  0.16766164  0.33403554  0.00227638  1
  Mn3.30+  Mn75  1  0.16608788  0.33126270  0.49812812  1
  Mn3.30+  Mn76  1  0.16757588  0.66561862  0.00087516  1
  Mn3.30+  Mn77  1  0.16813714  0.66714972  0.49813071  1
  Mn3.30+  Mn78  1  0.49904989  0.00034097  -0.00110510  1
  Mn3.30+  Mn79  1  0.49983346  -0.00060042  0.50120368  1
  Mn3.30+  Mn80  1  0.50100040  0.33484961  0.00243614  1
  Mn3.30+  Mn81  1  0.49923510  0.33139934  0.49852882  1
  Mn3.30+  Mn82  1  0.50038908  0.66579690  0.00054706  1
  Mn3.30+  Mn83  1  0.49937397  0.66549710  0.49944459  1
  Mn3.30+  Mn84  1  0.83308308  -0.00102015  -0.00110254  1
  Mn3.30+  Mn85  1  0.83445126  0.00270807  0.49957927  1
  Mn3.30+  Mn86  1  0.83230225  0.33328666  0.00284801  1
  Mn3.30+  Mn87  1  0.83320293  0.33094763  0.50071161  1
  Mn3.30+  Mn88  1  0.83278252  0.66610533  0.00030492  1
  Mn3.30+  Mn89  1  0.83439716  0.66653261  0.50006589  1
  Mn3.30+  Mn90  1  -0.00286569  0.16422283  0.25287632  1
  Mn3.30+  Mn91  1  -0.00049587  0.16693223  0.74617891  1
  Mn3.30+  Mn92  1  0.00137091  0.49971632  0.24920366  1
  Mn3.30+  Mn93  1  -0.00137323  0.49971357  0.74899128  1
  Mn3.30+  Mn94  1  -0.00012067  0.83498123  0.25053008  1
  Mn3.30+  Mn95  1  -0.00037174  0.83486742  0.75070538  1
  Mn3.30+  Mn96  1  0.33400342  0.16635516  0.25054550  1
  Mn3.30+  Mn97  1  0.33071399  0.16461897  0.74857059  1
  Mn3.30+  Mn98  1  0.33440382  0.50058110  0.24974964  1
  Mn3.30+  Mn99  1  0.33368994  0.49866711  0.74978986  1
  Mn3.30+  Mn100  1  0.33342339  0.83296035  0.25198379  1
  Mn3.30+  Mn101  1  0.33321512  0.83719049  0.74817350  1
  Mn3.30+  Mn102  1  0.66860960  0.16667183  0.25099999  1
  Mn3.30+  Mn103  1  0.66654560  0.16594921  0.74834900  1
  Mn3.30+  Mn104  1  0.66354649  0.49935012  0.24926482  1
  Mn3.30+  Mn105  1  0.66835400  0.49884679  0.74785014  1
  Mn3.30+  Mn106  1  0.66713359  0.83437674  0.25207160  1
  Mn3.30+  Mn107  1  0.66807215  0.83279005  0.74915839  1
  Mn3.30+  Mn108  1  0.16546097  0.00024608  0.25120004  1
  Mn3.30+  Mn109  1  0.16654497  0.00277656  0.74758408  1
  Mn3.30+  Mn110  1  0.16810831  0.33287052  0.25159727  1
  Mn3.30+  Mn111  1  0.16600095  0.33208871  0.74876967  1
  Mn3.30+  Mn112  1  0.16904335  0.66579549  0.25067573  1
  Mn3.30+  Mn113  1  0.16708912  0.66712570  0.75042726  1
  Mn3.30+  Mn114  1  0.50085108  0.00068395  0.25200934  1
  Mn3.30+  Mn115  1  0.49800267  -0.00089485  0.74783731  1
  Mn3.30+  Mn116  1  0.49996252  0.33401502  0.24969250  1
  Mn3.30+  Mn117  1  0.50039350  0.33197126  0.74953582  1
  Mn3.30+  Mn118  1  0.49871498  0.66562108  0.25111565  1
  Mn3.30+  Mn119  1  0.50110402  0.66563901  0.74925774  1
  Mn3.30+  Mn120  1  0.83253722  0.00035490  0.25342656  1
  Mn3.30+  Mn121  1  0.83498433  0.00205256  0.74767044  1
  Mn3.30+  Mn122  1  0.83189882  0.33132872  0.24820227  1
  Mn3.30+  Mn123  1  0.83364446  0.33325339  0.74788061  1
  Mn3.30+  Mn124  1  0.83366821  0.66630046  0.25049083  1
  Mn3.30+  Mn125  1  0.83371828  0.66631779  0.74890057  1
  Mn3.30+  Mn126  1  -0.00034937  0.16615873  0.00047505  1
  Mn3.30+  Mn127  1  -0.00271207  0.16508219  0.49940499  1
  Mn3.30+  Mn128  1  0.00044192  0.50018375  0.00197181  1
  Mn3.30+  Mn129  1  -0.00080440  0.49941197  0.49950261  1
  Mn3.30+  Mn130  1  -0.00129837  0.83270195  -0.00263514  1
  Mn3.30+  Mn131  1  0.00064372  0.83764916  0.50140461  1
  Mn3.30+  Mn132  1  0.33448010  0.16483487  0.00024696  1
  Mn3.30+  Mn133  1  0.33034969  0.16647785  0.50105917  1
  Mn3.30+  Mn134  1  0.33382124  0.49986901  0.00331195  1
  Mn3.30+  Mn135  1  0.33403858  0.49922132  0.49753203  1
  Mn3.30+  Mn136  1  0.33394761  0.83451838  -0.00062505  1
  Mn3.30+  Mn137  1  0.33244913  0.83555016  0.50119395  1
  Mn3.30+  Mn138  1  0.66627608  0.16811285  0.00077533  1
  Mn3.30+  Mn139  1  0.66893007  0.16402483  0.49982867  1
  Mn3.30+  Mn140  1  0.66511599  0.50070819  0.00157749  1
  Mn3.30+  Mn141  1  0.66728583  0.49768279  0.50130623  1
  Mn3.30+  Mn142  1  0.66894872  0.83284110  -0.00054477  1
  Mn3.30+  Mn143  1  0.66639098  0.83494335  0.50001525  1
  O2-  O144  1  0.02582686  0.15980860  0.12715963  1
  O2-  O145  1  0.02568873  0.16571193  0.62423726  1
  O2-  O146  1  0.02874671  0.49453034  0.12709873  1
  O2-  O147  1  0.02686331  0.49435393  0.62381309  1
  O2-  O148  1  0.02617971  0.82681567  0.12160823  1
  O2-  O149  1  0.02722989  0.82460441  0.62594151  1
  O2-  O150  1  0.36001627  0.16285746  0.12258233  1
  O2-  O151  1  0.35813584  0.16408047  0.62462553  1
  O2-  O152  1  0.36384432  0.49434441  0.12600729  1
  O2-  O153  1  0.35893224  0.49078105  0.62147418  1
  O2-  O154  1  0.35871654  0.82752234  0.12703385  1
  O2-  O155  1  0.35294506  0.82667043  0.62384883  1
  O2-  O156  1  0.68479391  0.15793420  0.12532825  1
  O2-  O157  1  0.68993444  0.16349044  0.62369967  1
  O2-  O158  1  0.68374044  0.49783163  0.12628469  1
  O2-  O159  1  0.69236328  0.49671681  0.62260544  1
  O2-  O160  1  0.69043650  0.82783786  0.12571039  1
  O2-  O161  1  0.69151168  0.82736351  0.62288259  1
  O2-  O162  1  0.14095487  0.32402884  0.12671238  1
  O2-  O163  1  0.13975230  0.32962359  0.62161920  1
  O2-  O164  1  0.14130014  0.66151315  0.12528590  1
  O2-  O165  1  0.14142421  0.66027333  0.62462916  1
  O2-  O166  1  0.14108644  0.99621353  0.12363481  1
  O2-  O167  1  0.13366135  0.99447332  0.62602510  1
  O2-  O168  1  0.47251113  0.32629133  0.12516836  1
  O2-  O169  1  0.47391793  0.32723139  0.62283713  1
  O2-  O170  1  0.47544411  0.66321819  0.12649559  1
  O2-  O171  1  0.47427741  0.65757379  0.62443645  1
  O2-  O172  1  0.48226439  0.99449868  0.12526951  1
  O2-  O173  1  0.47306536  1.00127356  0.62509747  1
  O2-  O174  1  0.80649074  0.33065665  0.12573233  1
  O2-  O175  1  0.81688040  0.32193713  0.62401358  1
  O2-  O176  1  0.80940935  0.66557978  0.12840366  1
  O2-  O177  1  0.81130953  0.65967048  0.62292929  1
  O2-  O178  1  0.80714206  0.99178292  0.12504340  1
  O2-  O179  1  0.81244770  0.99518303  0.62560782  1
  O2-  O180  1  0.30757360  0.16981261  0.37786152  1
  O2-  O181  1  0.30759718  0.17504458  0.87513935  1
  O2-  O182  1  0.30845850  0.50969825  0.37471452  1
  O2-  O183  1  0.30717825  0.50446542  0.87816702  1
  O2-  O184  1  0.30696563  0.84214793  0.37773584  1
  O2-  O185  1  0.31064146  0.83793117  0.87189634  1
  O2-  O186  1  0.64082488  0.17292810  0.37411659  1
  O2-  O187  1  0.64130554  0.17363848  0.87669830  1
  O2-  O188  1  0.64037784  0.50466007  0.37507866  1
  O2-  O189  1  0.64403898  0.50047985  0.87547760  1
  O2-  O190  1  0.64294482  0.83802657  0.37558292  1
  O2-  O191  1  0.64273108  0.83631546  0.87603042  1
  O2-  O192  1  0.97022302  0.17304279  0.37421298  1
  O2-  O193  1  0.97555286  0.17204497  0.87350296  1
  O2-  O194  1  0.97440225  0.50547630  0.37428179  1
  O2-  O195  1  0.97431728  0.50478507  0.87453824  1
  O2-  O196  1  0.97625399  0.84090430  0.37726049  1
  O2-  O197  1  0.97018927  0.83975006  0.87478481  1
  O2-  O198  1  0.19084701  0.00365935  0.37841324  1
  O2-  O199  1  0.19424157  0.00609512  0.87207830  1
  O2-  O200  1  0.19521883  0.33889604  0.37434622  1
  O2-  O201  1  0.19234422  0.33975849  0.87776964  1
  O2-  O202  1  0.19506512  0.67504686  0.37456152  1
  O2-  O203  1  0.19509935  0.67251464  0.87551241  1
  O2-  O204  1  0.52482232  0.00608078  0.37500972  1
  O2-  O205  1  0.52605808  0.00377445  0.87495103  1
  O2-  O206  1  0.52634158  0.33662252  0.37403318  1
  O2-  O207  1  0.52403128  0.33864589  0.87765354  1
  O2-  O208  1  0.52571830  0.67193721  0.37546220  1
  O2-  O209  1  0.51848968  0.67147776  0.87403961  1
  O2-  O210  1  0.86062055  0.00001455  0.37639412  1
  O2-  O211  1  0.85841678  0.00884809  0.87216888  1
  O2-  O212  1  0.85528515  0.34104963  0.37453851  1
  O2-  O213  1  0.85725478  0.34038071  0.87531278  1
  O2-  O214  1  0.85933082  0.67463316  0.37496498  1
  O2-  O215  1  0.85706285  0.67067801  0.87360052  1
  O2-  O216  1  0.23702837  0.09896579  0.01703903  1
  O2-  O217  1  0.23244492  0.09794486  0.51995845  1
  O2-  O218  1  0.23872239  0.43030687  0.02471808  1
  O2-  O219  1  0.23742034  0.42810977  0.51942629  1
  O2-  O220  1  0.23840030  0.75947372  0.02096970  1
  O2-  O221  1  0.23727432  0.76252708  0.52098773  1
  O2-  O222  1  0.56975756  0.09484412  0.01790223  1
  O2-  O223  1  0.56888955  0.09482234  0.51655980  1
  O2-  O224  1  0.56740812  0.43178202  0.01745921  1
  O2-  O225  1  0.56851556  0.42777783  0.51604837  1
  O2-  O226  1  0.57295859  0.76248866  0.02046845  1
  O2-  O227  1  0.57522694  0.75519534  0.51752840  1
  O2-  O228  1  0.90803110  0.09107261  0.01708840  1
  O2-  O229  1  0.90202916  0.09826056  0.52051519  1
  O2-  O230  1  0.90835722  0.42473613  0.01894288  1
  O2-  O231  1  0.90390868  0.42888223  0.52006690  1
  O2-  O232  1  0.90835818  0.75879973  0.02174411  1
  O2-  O233  1  0.90723867  0.76428401  0.52102746  1
  O2-  O234  1  0.26170743  0.25884751  0.22861423  1
  O2-  O235  1  0.26337127  0.26402254  0.73212077  1
  O2-  O236  1  0.26393544  0.59394638  0.22856339  1
  O2-  O237  1  0.26314842  0.59440014  0.72916907  1
  O2-  O238  1  0.25773913  0.92617841  0.23338745  1
  O2-  O239  1  0.25824185  0.93175575  0.72543610  1
  O2-  O240  1  0.59624012  0.26499998  0.22919013  1
  O2-  O241  1  0.59130048  0.25756285  0.73292046  1
  O2-  O242  1  0.59625035  0.59819704  0.23398693  1
  O2-  O243  1  0.59337444  0.59111528  0.72704809  1
  O2-  O244  1  0.59469589  0.92556196  0.22957417  1
  O2-  O245  1  0.59439833  0.92646517  0.73769173  1
  O2-  O246  1  0.93126490  0.26214948  0.23136082  1
  O2-  O247  1  0.93235388  0.26558505  0.73639939  1
  O2-  O248  1  0.93243354  0.59581931  0.23345485  1
  O2-  O249  1  0.93185592  0.59742904  0.73220572  1
  O2-  O250  1  0.92669771  0.92479566  0.22631936  1
  O2-  O251  1  0.93115107  0.93181066  0.72869309  1
  O2-  O252  1  0.09341187  0.23695813  0.27197118  1
  O2-  O253  1  0.09398629  0.24035875  0.77227094  1
  O2-  O254  1  0.09554083  0.57403764  0.27424538  1
  O2-  O255  1  0.09654113  0.57198304  0.77091765  1
  O2-  O256  1  0.09582446  0.90420904  0.26581017  1
  O2-  O257  1  0.09670823  0.90571018  0.77334302  1
  O2-  O258  1  0.43161744  0.23734122  0.26815077  1
  O2-  O259  1  0.42645859  0.23817576  0.76952831  1
  O2-  O260  1  0.42921797  0.57156309  0.27074517  1
  O2-  O261  1  0.42815028  0.57047680  0.76997848  1
  O2-  O262  1  0.42776192  0.90507857  0.27140964  1
  O2-  O263  1  0.42820942  0.90583311  0.77059739  1
  O2-  O264  1  0.76092100  0.23597092  0.27409362  1
  O2-  O265  1  0.76012792  0.24188840  0.77210275  1
  O2-  O266  1  0.75971492  0.57361190  0.27324820  1
  O2-  O267  1  0.76451511  0.57107728  0.76630534  1
  O2-  O268  1  0.76485285  0.90335646  0.26818431  1
  O2-  O269  1  0.76397780  0.90574403  0.76944228  1
  O2-  O270  1  0.06930768  0.07262020  0.47616796  1
  O2-  O271  1  0.07284943  0.07152453  0.97831008  1
  O2-  O272  1  0.07247673  0.40522253  0.47664011  1
  O2-  O273  1  0.07307381  0.40576809  0.97986148  1
  O2-  O274  1  0.07180293  0.73979094  0.47845617  1
  O2-  O275  1  0.07212562  0.74070091  0.97688968  1
  O2-  O276  1  0.40433059  0.07393107  0.47977475  1
  O2-  O277  1  0.40511974  0.07150877  0.97473036  1
  O2-  O278  1  0.40309145  0.40349033  0.47622302  1
  O2-  O279  1  0.40331221  0.40434089  0.97983394  1
  O2-  O280  1  0.40649464  0.73679206  0.48020979  1
  O2-  O281  1  0.40578134  0.73900164  0.98042881  1
  O2-  O282  1  0.73768603  0.07013340  0.47675394  1
  O2-  O283  1  0.73894674  0.07127136  0.97982274  1
  O2-  O284  1  0.73878350  0.40578929  0.47758784  1
  O2-  O285  1  0.73923496  0.40726793  0.98078956  1
  O2-  O286  1  0.74072028  0.73944508  0.48002357  1
  O2-  O287  1  0.74006509  0.73952237  0.98650359  1
  O2-  O288  1  0.09228428  0.23960757  0.47484728  1
  O2-  O289  1  0.09501473  0.23843340  0.98028870  1
  O2-  O290  1  0.09688401  0.57216580  0.47796019  1
  O2-  O291  1  0.09484522  0.57439447  0.97690403  1
  O2-  O292  1  0.09844251  0.90341960  0.48296933  1
  O2-  O293  1  0.09216704  0.90528694  0.97716257  1
  O2-  O294  1  0.42734452  0.23780276  0.48132483  1
  O2-  O295  1  0.42869809  0.23790208  0.97879047  1
  O2-  O296  1  0.43083881  0.56897936  0.48173254  1
  O2-  O297  1  0.42577759  0.57156306  0.97765678  1
  O2-  O298  1  0.42616205  0.90777426  0.47693315  1
  O2-  O299  1  0.43285210  0.90386118  0.98319724  1
  O2-  O300  1  0.76033388  0.23884523  0.47735229  1
  O2-  O301  1  0.76095287  0.24081533  0.97702757  1
  O2-  O302  1  0.75947828  0.57292825  0.47662788  1
  O2-  O303  1  0.76187333  0.57130662  0.98298960  1
  O2-  O304  1  0.76529986  0.90474954  0.48430310  1
  O2-  O305  1  0.76322431  0.90367250  0.97706104  1
  O2-  O306  1  0.07057851  0.07031667  0.27234414  1
  O2-  O307  1  0.07167325  0.07313123  0.77326180  1
  O2-  O308  1  0.07329266  0.40560668  0.27196635  1
  O2-  O309  1  0.07190398  0.40611694  0.77121498  1
  O2-  O310  1  0.07182713  0.74069946  0.27038401  1
  O2-  O311  1  0.07272378  0.73941703  0.77295267  1
  O2-  O312  1  0.40520281  0.07374865  0.27255980  1
  O2-  O313  1  0.40246576  0.07313011  0.77176036  1
  O2-  O314  1  0.40158866  0.40283567  0.27258142  1
  O2-  O315  1  0.40509160  0.40477287  0.77065730  1
  O2-  O316  1  0.40551402  0.73806747  0.27349083  1
  O2-  O317  1  0.40656607  0.73765287  0.76673706  1
  O2-  O318  1  0.73617715  0.06687640  0.26875975  1
  O2-  O319  1  0.73890453  0.07401739  0.77308266  1
  O2-  O320  1  0.73814002  0.40738164  0.27008472  1
  O2-  O321  1  0.74018310  0.40574757  0.77130160  1
  O2-  O322  1  0.73789797  0.74031002  0.27157318  1
  O2-  O323  1  0.74193973  0.73828915  0.76201213  1
  O2-  O324  1  0.23488060  0.09540765  0.23491764  1
  O2-  O325  1  0.23317394  0.10017262  0.72915730  1
  O2-  O326  1  0.23896316  0.43062630  0.22827677  1
  O2-  O327  1  0.23770359  0.42763026  0.72964988  1
  O2-  O328  1  0.23877411  0.76130889  0.22792076  1
  O2-  O329  1  0.23808266  0.76200873  0.73036860  1
  O2-  O330  1  0.57168649  0.09668640  0.23161766  1
  O2-  O331  1  0.56757039  0.09495038  0.73471645  1
  O2-  O332  1  0.56572266  0.43119431  0.23270282  1
  O2-  O333  1  0.56971783  0.42764602  0.73352214  1
  O2-  O334  1  0.57057830  0.76066609  0.23113283  1
  O2-  O335  1  0.57487930  0.75550124  0.73175800  1
  O2-  O336  1  0.90727353  0.08917900  0.22902990  1
  O2-  O337  1  0.90286495  0.10080251  0.73070019  1
  O2-  O338  1  0.90971861  0.42476267  0.23292265  1
  O2-  O339  1  0.90403723  0.42895854  0.72780016  1
  O2-  O340  1  0.90713225  0.76170328  0.23002955  1
  O2-  O341  1  0.90708388  0.75984038  0.72724349  1
  O2-  O342  1  0.26255384  0.26277876  0.02122387  1
  O2-  O343  1  0.25995292  0.26134602  0.52035770  1
  O2-  O344  1  0.26551196  0.59494296  0.02028290  1
  O2-  O345  1  0.26212485  0.59292834  0.52296305  1
  O2-  O346  1  0.25645923  0.92340157  0.01784784  1
  O2-  O347  1  0.25889785  0.93415592  0.52319630  1
  O2-  O348  1  0.59470478  0.26541381  0.02264301  1
  O2-  O349  1  0.59140937  0.25686066  0.51620577  1
  O2-  O350  1  0.59407381  0.59607116  0.01931372  1
  O2-  O351  1  0.59532215  0.59228271  0.52033945  1
  O2-  O352  1  0.59765708  0.92820613  0.01842397  1
  O2-  O353  1  0.59170971  0.92427721  0.51424000  1
  O2-  O354  1  0.93032452  0.26270639  0.01721464  1
  O2-  O355  1  0.93281978  0.26447037  0.51420899  1
  O2-  O356  1  0.93139996  0.59607359  0.01738654  1
  O2-  O357  1  0.93149140  0.59765821  0.51590351  1
  O2-  O358  1  0.92857058  0.92670770  0.02131146  1
  O2-  O359  1  0.92924886  0.92912894  0.52410841  1
