# generated using pymatgen
data_Sr7Ca15Pr50Mn72O216
_symmetry_space_group_name_H-M   'P 1'
_cell_length_a   16.55843482
_cell_length_b   16.60487159
_cell_length_c   15.59354810
_cell_angle_alpha   90.00028577
_cell_angle_beta   89.99804260
_cell_angle_gamma   90.01406283
_symmetry_Int_Tables_number   1
_chemical_formula_structural   Sr7Ca15Pr50Mn72O216
_chemical_formula_sum   'Sr7 Ca15 Pr50 Mn72 O216'
_cell_volume   4287.45658352
_cell_formula_units_Z   1
loop_
 _symmetry_equiv_pos_site_id
 _symmetry_equiv_pos_as_xyz
  1  'x, y, z'
loop_
 _atom_type_symbol
 _atom_type_oxidation_number
  Sr2+  2.0
  Ca2+  2.0
  Pr3+  3.0
  Mn3.30+  3.3
  O2-  -2.0
loop_
 _atom_site_type_symbol
 _atom_site_label
 _atom_site_symmetry_multiplicity
 _atom_site_fract_x
 _atom_site_fract_y
 _atom_site_fract_z
 _atom_site_occupancy
  Sr2+  Sr0  1  0.33531928  0.98905607  0.37575550  1
  Sr2+  Sr1  1  0.66677870  0.67267706  0.62297993  1
  Sr2+  Sr2  1  0.33075907  0.00875865  0.62521573  1
  Sr2+  Sr3  1  0.33458012  0.98938515  0.87442142  1
  Sr2+  Sr4  1  0.50104279  0.17625231  0.12537795  1
  Sr2+  Sr5  1  0.83089314  0.49178175  0.37738672  1
  Sr2+  Sr6  1  0.17059200  0.50990156  0.62458195  1
  Ca2+  Ca7  1  0.33057125  0.34915244  0.62499227  1
  Ca2+  Ca8  1  0.66328068  0.68022251  0.12676138  1
  Ca2+  Ca9  1  0.33289374  0.67646578  0.62435951  1
  Ca2+  Ca10  1  0.66962008  0.98388988  0.87636744  1
  Ca2+  Ca11  1  0.49955649  0.48767406  0.37892062  1
  Ca2+  Ca12  1  -0.00470473  0.01476106  0.12526856  1
  Ca2+  Ca13  1  0.49653176  0.48648683  0.87115318  1
  Ca2+  Ca14  1  0.33162830  0.68022329  0.12563186  1
  Ca2+  Ca15  1  -0.00373106  0.34796146  0.12528355  1
  Ca2+  Ca16  1  0.83513818  0.51363132  0.62276018  1
  Ca2+  Ca17  1  0.83627200  0.85108914  0.12528552  1
  Ca2+  Ca18  1  0.50226301  0.51549232  0.62443183  1
  Ca2+  Ca19  1  -0.00235541  0.35188909  0.62468450  1
  Ca2+  Ca20  1  0.17400915  0.18354738  0.62528543  1
  Ca2+  Ca21  1  0.66837711  0.64890010  0.37594984  1
  Pr3+  Pr22  1  0.16354048  0.48657196  0.37675151  1
  Pr3+  Pr23  1  -0.00597718  0.68104917  0.12583072  1
  Pr3+  Pr24  1  0.16487906  0.15235323  0.87213659  1
  Pr3+  Pr25  1  0.16573260  0.81969614  0.37529712  1
  Pr3+  Pr26  1  0.83416044  0.84370100  0.62469567  1
  Pr3+  Pr27  1  1.00389689  0.98661358  0.37402455  1
  Pr3+  Pr28  1  0.66939598  0.32469253  0.37612866  1
  Pr3+  Pr29  1  0.66515867  0.01263414  0.12385543  1
  Pr3+  Pr30  1  -0.00488821  0.67370215  0.62391302  1
  Pr3+  Pr31  1  1.00299662  0.65324364  0.87606958  1
  Pr3+  Pr32  1  0.33537507  0.32403966  0.37873415  1
  Pr3+  Pr33  1  0.33119505  0.01379860  0.12481852  1
  Pr3+  Pr34  1  0.16765992  0.17835313  0.12458389  1
  Pr3+  Pr35  1  0.33331563  0.34481439  0.12467858  1
  Pr3+  Pr36  1  0.83862343  0.18274334  0.62491337  1
  Pr3+  Pr37  1  0.16905665  0.84651168  0.12532164  1
  Pr3+  Pr38  1  0.33839354  0.65148185  0.37513733  1
  Pr3+  Pr39  1  0.33914696  0.65292415  0.87480780  1
  Pr3+  Pr40  1  0.83310662  0.51142567  0.12584385  1
  Pr3+  Pr41  1  0.49696084  0.81859034  0.37473935  1
  Pr3+  Pr42  1  0.66231035  0.34381292  0.12531420  1
  Pr3+  Pr43  1  0.17017380  0.84069442  0.62476740  1
  Pr3+  Pr44  1  -0.00111132  0.01286028  0.62529214  1
  Pr3+  Pr45  1  0.16535109  0.48688914  0.87286303  1
  Pr3+  Pr46  1  0.66592098  0.65310713  0.87552333  1
  Pr3+  Pr47  1  1.00379307  0.98619469  0.87631044  1
  Pr3+  Pr48  1  0.82952503  0.15024387  0.87421960  1
  Pr3+  Pr49  1  0.66275176  0.35040808  0.62493189  1
  Pr3+  Pr50  1  0.82643601  0.81743791  0.37230805  1
  Pr3+  Pr51  1  0.83236168  0.15543714  0.37578570  1
  Pr3+  Pr52  1  0.82788599  0.82207607  0.87745739  1
  Pr3+  Pr53  1  0.50020534  0.17855313  0.62491402  1
  Pr3+  Pr54  1  0.16569232  0.82069710  0.87432740  1
  Pr3+  Pr55  1  0.66874829  0.98703380  0.37352278  1
  Pr3+  Pr56  1  1.00331911  0.32293790  0.37710942  1
  Pr3+  Pr57  1  1.00463974  0.32121768  0.87314708  1
  Pr3+  Pr58  1  0.83929114  0.18073810  0.12508313  1
  Pr3+  Pr59  1  0.83086472  0.48726635  0.87279412  1
  Pr3+  Pr60  1  0.49649241  0.15494076  0.37492632  1
  Pr3+  Pr61  1  0.33586631  0.32274025  0.87124609  1
  Pr3+  Pr62  1  0.66191182  0.01003495  0.62627178  1
  Pr3+  Pr63  1  0.16491388  0.15333413  0.37793095  1
  Pr3+  Pr64  1  0.50009479  0.84173048  0.62560610  1
  Pr3+  Pr65  1  0.66747735  0.32164750  0.87378823  1
  Pr3+  Pr66  1  0.49771076  0.15328829  0.87510717  1
  Pr3+  Pr67  1  0.50499535  0.51298539  0.12513066  1
  Pr3+  Pr68  1  0.17142968  0.51418236  0.12458250  1
  Pr3+  Pr69  1  0.49829048  0.82157232  0.87551403  1
  Pr3+  Pr70  1  1.00152789  0.65112564  0.37365398  1
  Pr3+  Pr71  1  0.50124853  0.84408014  0.12474831  1
  Mn3.30+  Mn72  1  0.16430833  -0.00018718  0.00117991  1
  Mn3.30+  Mn73  1  0.16733726  -0.00052241  0.50083719  1
  Mn3.30+  Mn74  1  0.16564667  0.33337151  0.00062045  1
  Mn3.30+  Mn75  1  0.16836618  0.33328668  0.50405833  1
  Mn3.30+  Mn76  1  0.16815361  0.66701830  0.00076862  1
  Mn3.30+  Mn77  1  0.16838108  0.66474714  0.50071854  1
  Mn3.30+  Mn78  1  0.50152039  -0.00059920  -0.00114612  1
  Mn3.30+  Mn79  1  0.49921045  -0.00070634  0.50081195  1
  Mn3.30+  Mn80  1  0.50000178  0.33447501  -0.00203204  1
  Mn3.30+  Mn81  1  0.49891692  0.33680682  0.50250655  1
  Mn3.30+  Mn82  1  0.50035548  0.66551570  0.00248505  1
  Mn3.30+  Mn83  1  0.50065870  0.66336880  0.49956833  1
  Mn3.30+  Mn84  1  0.83398790  -0.00074923  0.00099495  1
  Mn3.30+  Mn85  1  0.83341717  -0.00050793  0.49993348  1
  Mn3.30+  Mn86  1  0.83485230  0.33319445  -0.00073032  1
  Mn3.30+  Mn87  1  0.83515032  0.33664333  0.50198888  1
  Mn3.30+  Mn88  1  0.83100990  0.66799505  0.00239185  1
  Mn3.30+  Mn89  1  0.83033506  0.66470211  0.49896921  1
  Mn3.30+  Mn90  1  0.00045485  0.16790544  0.24961758  1
  Mn3.30+  Mn91  1  0.00185786  0.16880006  0.74709817  1
  Mn3.30+  Mn92  1  -0.00028402  0.49834719  0.24837022  1
  Mn3.30+  Mn93  1  -0.00105869  0.50006596  0.74812351  1
  Mn3.30+  Mn94  1  -0.00330959  0.83426001  0.24890797  1
  Mn3.30+  Mn95  1  -0.00100813  0.83179615  0.75020416  1
  Mn3.30+  Mn96  1  0.33309213  0.16816085  0.25052919  1
  Mn3.30+  Mn97  1  0.33224513  0.16704265  0.74755766  1
  Mn3.30+  Mn98  1  0.33594560  0.50057630  0.24995336  1
  Mn3.30+  Mn99  1  0.33555660  0.50069695  0.74722101  1
  Mn3.30+  Mn100  1  0.33341688  0.83192537  0.24932863  1
  Mn3.30+  Mn101  1  0.33308930  0.83135736  0.75041919  1
  Mn3.30+  Mn102  1  0.66764009  0.16728179  0.25071099  1
  Mn3.30+  Mn103  1  0.66770542  0.16585303  0.74932452  1
  Mn3.30+  Mn104  1  0.66588550  0.50129957  0.25174981  1
  Mn3.30+  Mn105  1  0.66390166  0.50100393  0.74918091  1
  Mn3.30+  Mn106  1  0.66712258  0.82999499  0.24760609  1
  Mn3.30+  Mn107  1  0.66592346  0.83184078  0.75059577  1
  Mn3.30+  Mn108  1  0.16477706  0.00011537  0.24947200  1
  Mn3.30+  Mn109  1  0.16685662  -0.00077352  0.74884904  1
  Mn3.30+  Mn110  1  0.16552775  0.33341545  0.24841633  1
  Mn3.30+  Mn111  1  0.16839816  0.33319866  0.74625260  1
  Mn3.30+  Mn112  1  0.16782705  0.66627186  0.24893058  1
  Mn3.30+  Mn113  1  0.16882090  0.66490896  0.74912381  1
  Mn3.30+  Mn114  1  0.50027611  -0.00055278  0.24965465  1
  Mn3.30+  Mn115  1  0.50024652  -0.00091897  0.75097834  1
  Mn3.30+  Mn116  1  0.50026132  0.33499403  0.25187108  1
  Mn3.30+  Mn117  1  0.49845472  0.33627028  0.74756005  1
  Mn3.30+  Mn118  1  0.50204295  0.66434287  0.25001029  1
  Mn3.30+  Mn119  1  0.49946200  0.66424782  0.74828640  1
  Mn3.30+  Mn120  1  0.83553602  -0.00017661  0.24914431  1
  Mn3.30+  Mn121  1  0.83192349  -0.00107750  0.74974383  1
  Mn3.30+  Mn122  1  0.83471185  0.33482760  0.25038643  1
  Mn3.30+  Mn123  1  0.83535401  0.33531778  0.74785320  1
  Mn3.30+  Mn124  1  0.82824989  0.66685519  0.24774904  1
  Mn3.30+  Mn125  1  0.83244813  0.66581756  0.75071701  1
  Mn3.30+  Mn126  1  -0.00049355  0.16728000  -0.00028424  1
  Mn3.30+  Mn127  1  0.00267194  0.16892378  0.50347894  1
  Mn3.30+  Mn128  1  0.00027510  0.49895659  0.00130810  1
  Mn3.30+  Mn129  1  -0.00120606  0.49934706  0.50165152  1
  Mn3.30+  Mn130  1  -0.00292177  0.83490872  0.00252333  1
  Mn3.30+  Mn131  1  -0.00127583  0.83133934  0.49858681  1
  Mn3.30+  Mn132  1  0.33355618  0.16773465  -0.00094432  1
  Mn3.30+  Mn133  1  0.33188442  0.16744733  0.50267283  1
  Mn3.30+  Mn134  1  0.33615766  0.50106268  0.00003093  1
  Mn3.30+  Mn135  1  0.33569850  0.50045037  0.50235298  1
  Mn3.30+  Mn136  1  0.33311374  0.83233080  0.00084272  1
  Mn3.30+  Mn137  1  0.33319256  0.83086099  0.49966915  1
  Mn3.30+  Mn138  1  0.66759930  0.16551349  -0.00142113  1
  Mn3.30+  Mn139  1  0.66741446  0.16759050  0.50130417  1
  Mn3.30+  Mn140  1  0.66518143  0.49985806  -0.00156578  1
  Mn3.30+  Mn141  1  0.66458483  0.50176950  0.50085313  1
  Mn3.30+  Mn142  1  0.66775622  0.83235485  0.00333729  1
  Mn3.30+  Mn143  1  0.66549161  0.83002472  0.49883265  1
  O2-  O144  1  0.02449129  0.15826094  0.12642665  1
  O2-  O145  1  0.03087106  0.15707154  0.62571314  1
  O2-  O146  1  0.02624386  0.49494023  0.12277491  1
  O2-  O147  1  0.01989478  0.50591316  0.62569908  1
  O2-  O148  1  0.02615483  0.82643398  0.12479339  1
  O2-  O149  1  0.02449899  0.82361070  0.62146465  1
  O2-  O150  1  0.35041759  0.16434835  0.12508838  1
  O2-  O151  1  0.35792971  0.16203755  0.62548615  1
  O2-  O152  1  0.36058071  0.49101114  0.12486188  1
  O2-  O153  1  0.36043546  0.49303225  0.62497890  1
  O2-  O154  1  0.35632051  0.82746474  0.12561063  1
  O2-  O155  1  0.35503065  0.82386002  0.62605185  1
  O2-  O156  1  0.69395603  0.16289204  0.12417445  1
  O2-  O157  1  0.69446709  0.15853480  0.62575757  1
  O2-  O158  1  0.69057112  0.48958025  0.12213196  1
  O2-  O159  1  0.69313451  0.49675927  0.62707510  1
  O2-  O160  1  0.69518108  0.82490490  0.12632714  1
  O2-  O161  1  0.69076530  0.83004239  0.62294857  1
  O2-  O162  1  0.13819569  0.32589567  0.12418350  1
  O2-  O163  1  0.13995971  0.32793833  0.62564926  1
  O2-  O164  1  0.13916516  0.66142900  0.12486392  1
  O2-  O165  1  0.14027282  0.66840564  0.62560267  1
  O2-  O166  1  0.13730933  0.99508493  0.12544351  1
  O2-  O167  1  0.14090008  0.98870099  0.62479618  1
  O2-  O168  1  0.47741400  0.33109024  0.12329312  1
  O2-  O169  1  0.47141418  0.32360648  0.62519386  1
  O2-  O170  1  0.47188981  0.65897480  0.12559137  1
  O2-  O171  1  0.47444789  0.66246352  0.62505148  1
  O2-  O172  1  0.47592359  0.99433080  0.12466050  1
  O2-  O173  1  0.48172608  0.99272340  0.62595014  1
  O2-  O174  1  0.80667925  0.32702148  0.12353544  1
  O2-  O175  1  0.80689039  0.32747726  0.62582536  1
  O2-  O176  1  0.80452587  0.65702328  0.12423827  1
  O2-  O177  1  0.81795517  0.66229407  0.62754770  1
  O2-  O178  1  0.80885207  0.99982644  0.12478077  1
  O2-  O179  1  0.80629704  0.99333948  0.62321421  1
  O2-  O180  1  0.30883605  0.17441788  0.37643270  1
  O2-  O181  1  0.30862992  0.17351961  0.87270458  1
  O2-  O182  1  0.30681050  0.50419368  0.37329067  1
  O2-  O183  1  0.30826208  0.50572355  0.87636341  1
  O2-  O184  1  0.31025687  0.83305594  0.37204977  1
  O2-  O185  1  0.31000447  0.83329306  0.87669172  1
  O2-  O186  1  0.64208002  0.17401927  0.37765728  1
  O2-  O187  1  0.64253495  0.17425660  0.87240160  1
  O2-  O188  1  0.64163869  0.50188762  0.37571411  1
  O2-  O189  1  0.63917096  0.50426615  0.87536061  1
  O2-  O190  1  0.64044246  0.84173360  0.37261536  1
  O2-  O191  1  0.64290101  0.83888234  0.87824272  1
  O2-  O192  1  0.97566060  0.17508489  0.37731397  1
  O2-  O193  1  0.97338101  0.17432239  0.87104943  1
  O2-  O194  1  0.98243246  0.50169214  0.37498240  1
  O2-  O195  1  0.97635204  0.50405774  0.87648548  1
  O2-  O196  1  0.97067060  0.83951436  0.37491900  1
  O2-  O197  1  0.97197810  0.83911341  0.87923693  1
  O2-  O198  1  0.18576160  0.00479307  0.37451413  1
  O2-  O199  1  0.18424638  0.00303266  0.87525449  1
  O2-  O200  1  0.19023558  0.33840572  0.37502712  1
  O2-  O201  1  0.19093581  0.33843727  0.87449241  1
  O2-  O202  1  0.19226431  0.67036096  0.37344074  1
  O2-  O203  1  0.19306829  0.67160818  0.87586110  1
  O2-  O204  1  0.52430250  0.00488406  0.37489334  1
  O2-  O205  1  0.52704741  0.00402831  0.87492262  1
  O2-  O206  1  0.52593935  0.34061930  0.37912482  1
  O2-  O207  1  0.52497332  0.34091221  0.87250449  1
  O2-  O208  1  0.52765880  0.67352427  0.37265670  1
  O2-  O209  1  0.52333806  0.67472665  0.87705628  1
  O2-  O210  1  0.86012007  0.00593218  0.37620354  1
  O2-  O211  1  0.86026883  0.00178112  0.87555667  1
  O2-  O212  1  0.85892197  0.33536832  0.37837310  1
  O2-  O213  1  0.86045868  0.33903554  0.87223470  1
  O2-  O214  1  0.85801357  0.67106177  0.37076602  1
  O2-  O215  1  0.85919489  0.67408980  0.87823789  1
  O2-  O216  1  0.23614218  0.09262484  0.01928905  1
  O2-  O217  1  0.23603852  0.09881724  0.51701012  1
  O2-  O218  1  0.23847603  0.42808875  0.02083820  1
  O2-  O219  1  0.23995838  0.42834589  0.51332500  1
  O2-  O220  1  0.23485141  0.76263744  0.01871541  1
  O2-  O221  1  0.23573432  0.76117784  0.51500550  1
  O2-  O222  1  0.57607048  0.09193930  0.01829548  1
  O2-  O223  1  0.57455803  0.09469183  0.52044463  1
  O2-  O224  1  0.57256806  0.42645255  0.02076866  1
  O2-  O225  1  0.57103100  0.42763825  0.52586292  1
  O2-  O226  1  0.57073632  0.76162245  0.01958849  1
  O2-  O227  1  0.56818162  0.76299200  0.51638935  1
  O2-  O228  1  0.90159203  0.09846019  0.01527505  1
  O2-  O229  1  0.90732210  0.09654335  0.52186043  1
  O2-  O230  1  0.90238742  0.42905040  0.01787201  1
  O2-  O231  1  0.90555280  0.42910292  0.52271489  1
  O2-  O232  1  0.90385953  0.76488967  0.02477926  1
  O2-  O233  1  0.90383786  0.76084258  0.51803179  1
  O2-  O234  1  0.25871274  0.26247535  0.22945840  1
  O2-  O235  1  0.26405764  0.26481563  0.73046567  1
  O2-  O236  1  0.26500284  0.59394969  0.22729487  1
  O2-  O237  1  0.26596178  0.59743865  0.73269171  1
  O2-  O238  1  0.25830700  0.92845315  0.22685145  1
  O2-  O239  1  0.25668671  0.92156108  0.73254013  1
  O2-  O240  1  0.59718675  0.26254118  0.23472046  1
  O2-  O241  1  0.59408679  0.26224126  0.72859890  1
  O2-  O242  1  0.59464076  0.59351791  0.22480464  1
  O2-  O243  1  0.59459162  0.59537270  0.73602930  1
  O2-  O244  1  0.59685399  0.92577316  0.22768263  1
  O2-  O245  1  0.59417642  0.92515149  0.72993119  1
  O2-  O246  1  0.93067049  0.26306827  0.22929208  1
  O2-  O247  1  0.93231686  0.26336374  0.72522836  1
  O2-  O248  1  0.92662200  0.59562660  0.22927994  1
  O2-  O249  1  0.93043006  0.59857142  0.73884447  1
  O2-  O250  1  0.93042859  0.93241557  0.23051196  1
  O2-  O251  1  0.92673811  0.92838782  0.72800515  1
  O2-  O252  1  0.09573864  0.23757033  0.27136075  1
  O2-  O253  1  0.09558124  0.23937587  0.77314517  1
  O2-  O254  1  0.09655632  0.57224534  0.26813573  1
  O2-  O255  1  0.09537181  0.57381153  0.77282705  1
  O2-  O256  1  0.09487270  0.90502420  0.27149224  1
  O2-  O257  1  0.09057142  0.90346060  0.77007405  1
  O2-  O258  1  0.42808209  0.24343905  0.27343128  1
  O2-  O259  1  0.42976616  0.23970977  0.77127972  1
  O2-  O260  1  0.43196272  0.56972291  0.27299912  1
  O2-  O261  1  0.42814875  0.57269714  0.77360308  1
  O2-  O262  1  0.43014272  0.90360727  0.26587983  1
  O2-  O263  1  0.42919655  0.90341098  0.76664887  1
  O2-  O264  1  0.76369090  0.23926254  0.27107137  1
  O2-  O265  1  0.76347764  0.23807091  0.76911999  1
  O2-  O266  1  0.76031537  0.57009444  0.26424442  1
  O2-  O267  1  0.75999814  0.57450512  0.77432796  1
  O2-  O268  1  0.75980919  0.90557328  0.27027543  1
  O2-  O269  1  0.76203131  0.90139531  0.76690477  1
  O2-  O270  1  0.07002587  0.07128047  0.48043567  1
  O2-  O271  1  0.07102382  0.07436064  0.97746249  1
  O2-  O272  1  0.07368556  0.40645611  0.48245312  1
  O2-  O273  1  0.07507690  0.40497131  0.97692250  1
  O2-  O274  1  0.07037141  0.73825292  0.47566418  1
  O2-  O275  1  0.06931237  0.74012822  0.98000285  1
  O2-  O276  1  0.40982672  0.07732232  0.48169882  1
  O2-  O277  1  0.40836238  0.07574641  0.98340741  1
  O2-  O278  1  0.40515304  0.40599927  0.47928115  1
  O2-  O279  1  0.40232636  0.40364935  0.98156928  1
  O2-  O280  1  0.40733586  0.73699559  0.47797098  1
  O2-  O281  1  0.40715311  0.73843869  0.98110616  1
  O2-  O282  1  0.74034155  0.07149988  0.47794758  1
  O2-  O283  1  0.73964914  0.06921015  0.97756858  1
  O2-  O284  1  0.73384879  0.40487935  0.48474216  1
  O2-  O285  1  0.73909605  0.40435717  0.97701265  1
  O2-  O286  1  0.73787013  0.73953764  0.47601179  1
  O2-  O287  1  0.73785032  0.73952938  0.97700579  1
  O2-  O288  1  0.09536385  0.23983851  0.47762270  1
  O2-  O289  1  0.09578187  0.23769547  0.97784115  1
  O2-  O290  1  0.09484803  0.57381878  0.47883386  1
  O2-  O291  1  0.09669506  0.57290062  0.97967876  1
  O2-  O292  1  0.09058302  0.90348416  0.47806104  1
  O2-  O293  1  0.09404265  0.90424930  0.97958358  1
  O2-  O294  1  0.42923370  0.24014373  0.47908514  1
  O2-  O295  1  0.42868725  0.24319126  0.97567542  1
  O2-  O296  1  0.42790008  0.57185106  0.47510240  1
  O2-  O297  1  0.43139327  0.56966231  0.97789282  1
  O2-  O298  1  0.42879550  0.90198615  0.48447197  1
  O2-  O299  1  0.42998535  0.90416932  0.98375374  1
  O2-  O300  1  0.76251686  0.23926450  0.48177982  1
  O2-  O301  1  0.76375245  0.23788129  0.97779075  1
  O2-  O302  1  0.75820981  0.57478585  0.48465813  1
  O2-  O303  1  0.76020071  0.57040985  0.97746768  1
  O2-  O304  1  0.76028594  0.90369453  0.47799903  1
  O2-  O305  1  0.76304902  0.90497583  0.98406124  1
  O2-  O306  1  0.07175941  0.07427763  0.27338354  1
  O2-  O307  1  0.06910571  0.07116505  0.76982888  1
  O2-  O308  1  0.07456906  0.40421207  0.27071920  1
  O2-  O309  1  0.07260025  0.40665947  0.76911422  1
  O2-  O310  1  0.06856918  0.73917413  0.27052839  1
  O2-  O311  1  0.07236449  0.73790282  0.77302573  1
  O2-  O312  1  0.40781653  0.07624903  0.26593441  1
  O2-  O313  1  0.41072872  0.07647224  0.76942441  1
  O2-  O314  1  0.40163826  0.40397685  0.26758567  1
  O2-  O315  1  0.40464859  0.40615312  0.77076692  1
  O2-  O316  1  0.40848961  0.73603856  0.27036946  1
  O2-  O317  1  0.40698052  0.73930446  0.77157273  1
  O2-  O318  1  0.74083422  0.07249599  0.27151219  1
  O2-  O319  1  0.73944979  0.06839935  0.77209834  1
  O2-  O320  1  0.73620072  0.40355333  0.26656492  1
  O2-  O321  1  0.73617149  0.40631282  0.77092187  1
  O2-  O322  1  0.73538627  0.73710915  0.27489256  1
  O2-  O323  1  0.73948678  0.73937487  0.77321856  1
  O2-  O324  1  0.23633879  0.09344342  0.23009508  1
  O2-  O325  1  0.23564144  0.09743826  0.73320240  1
  O2-  O326  1  0.23760481  0.42766128  0.22806774  1
  O2-  O327  1  0.23977017  0.42883908  0.73652820  1
  O2-  O328  1  0.23471365  0.76203759  0.23152589  1
  O2-  O329  1  0.23562656  0.76107591  0.73445830  1
  O2-  O330  1  0.57740052  0.09097353  0.23333453  1
  O2-  O331  1  0.57332437  0.09459613  0.72875920  1
  O2-  O332  1  0.57292605  0.42703118  0.22933965  1
  O2-  O333  1  0.57068526  0.42749513  0.72495784  1
  O2-  O334  1  0.56945319  0.76179324  0.22894275  1
  O2-  O335  1  0.56982713  0.76230688  0.73441478  1
  O2-  O336  1  0.90433074  0.10020349  0.23462677  1
  O2-  O337  1  0.90521431  0.09628166  0.72881043  1
  O2-  O338  1  0.90445784  0.42715481  0.22809630  1
  O2-  O339  1  0.90179689  0.43309133  0.73123933  1
  O2-  O340  1  0.90016713  0.76259737  0.22726432  1
  O2-  O341  1  0.90504439  0.76212175  0.73108390  1
  O2-  O342  1  0.25890977  0.26253120  0.01955442  1
  O2-  O343  1  0.26400570  0.26487732  0.51964404  1
  O2-  O344  1  0.26501966  0.59449994  0.02263973  1
  O2-  O345  1  0.26684900  0.59645106  0.51734507  1
  O2-  O346  1  0.25913845  0.92752171  0.02309657  1
  O2-  O347  1  0.25606702  0.92258178  0.51720775  1
  O2-  O348  1  0.59675627  0.26332765  0.01394647  1
  O2-  O349  1  0.59345654  0.26243092  0.52274456  1
  O2-  O350  1  0.59605879  0.59634029  0.02221497  1
  O2-  O351  1  0.59151393  0.59208264  0.51764129  1
  O2-  O352  1  0.59612675  0.92425744  0.02481121  1
  O2-  O353  1  0.59628184  0.92723043  0.51802134  1
  O2-  O354  1  0.93074689  0.26302838  0.02111898  1
  O2-  O355  1  0.93163805  0.26199367  0.52414753  1
  O2-  O356  1  0.92649321  0.59641928  0.02095369  1
  O2-  O357  1  0.92971640  0.59667985  0.51163430  1
  O2-  O358  1  0.93110658  0.93305972  0.02071640  1
  O2-  O359  1  0.92731575  0.92721208  0.52222861  1
