# generated using pymatgen
data_Sr7Ca15Pr50Mn72O216
_symmetry_space_group_name_H-M   'P 1'
_cell_length_a   16.55868180
_cell_length_b   16.60390075
_cell_length_c   15.59400146
_cell_angle_alpha   90.00242033
_cell_angle_beta   90.00232225
_cell_angle_gamma   90.01178631
_symmetry_Int_Tables_number   1
_chemical_formula_structural   Sr7Ca15Pr50Mn72O216
_chemical_formula_sum   'Sr7 Ca15 Pr50 Mn72 O216'
_cell_volume   4287.39453126
_cell_formula_units_Z   1
loop_
 _symmetry_equiv_pos_site_id
 _symmetry_equiv_pos_as_xyz
  1  'x, y, z'
loop_
 _atom_type_symbol
 _atom_type_oxidation_number
  Sr2+  2.0
  Ca2+  2.0
  Pr3+  3.0
  Mn3.30+  3.3
  O2-  -2.0
loop_
 _atom_site_type_symbol
 _atom_site_label
 _atom_site_symmetry_multiplicity
 _atom_site_fract_x
 _atom_site_fract_y
 _atom_site_fract_z
 _atom_site_occupancy
  Sr2+  Sr0  1  0.33404776  0.32395758  0.37218862  1
  Sr2+  Sr1  1  0.16656467  0.15575397  0.87734489  1
  Sr2+  Sr2  1  0.33442066  0.99010343  0.87405291  1
  Sr2+  Sr3  1  0.33353448  0.01090300  0.62509515  1
  Sr2+  Sr4  1  -0.00098904  0.67604802  0.12356172  1
  Sr2+  Sr5  1  0.50006339  0.17412373  0.62624392  1
  Sr2+  Sr6  1  0.16468944  0.82305927  0.37588338  1
  Ca2+  Ca7  1  0.83524066  0.84391764  0.12752024  1
  Ca2+  Ca8  1  1.00416516  0.65271749  0.87707100  1
  Ca2+  Ca9  1  0.49326450  0.48467679  0.87647187  1
  Ca2+  Ca10  1  0.82941272  0.15174756  0.37115300  1
  Ca2+  Ca11  1  0.49565883  0.82026239  0.87503791  1
  Ca2+  Ca12  1  0.17117799  0.18400972  0.12422109  1
  Ca2+  Ca13  1  0.82969711  0.81879796  0.37168143  1
  Ca2+  Ca14  1  0.83567492  0.84851312  0.62203305  1
  Ca2+  Ca15  1  0.49708430  0.81813239  0.37511196  1
  Ca2+  Ca16  1  0.32667408  0.35079333  0.12542220  1
  Ca2+  Ca17  1  0.16711310  0.51335814  0.12515304  1
  Ca2+  Ca18  1  -0.00101343  0.34775352  0.12321912  1
  Ca2+  Ca19  1  0.66469741  0.68199816  0.12465339  1
  Ca2+  Ca20  1  0.84127682  0.18392933  0.12697390  1
  Ca2+  Ca21  1  0.17106281  0.51434552  0.62516923  1
  Pr3+  Pr22  1  -0.00193353  0.01137699  0.62336760  1
  Pr3+  Pr23  1  0.83518808  0.51211530  0.62598116  1
  Pr3+  Pr24  1  0.66824783  0.98686782  0.87538702  1
  Pr3+  Pr25  1  1.00546088  0.98826344  0.87615283  1
  Pr3+  Pr26  1  0.83667128  0.17916786  0.62377612  1
  Pr3+  Pr27  1  0.83315117  0.15350655  0.87871759  1
  Pr3+  Pr28  1  0.32907823  0.67870813  0.62602810  1
  Pr3+  Pr29  1  0.50093704  0.17983345  0.12416128  1
  Pr3+  Pr30  1  0.16243313  0.48851167  0.87766954  1
  Pr3+  Pr31  1  0.66526303  0.65538661  0.87705578  1
  Pr3+  Pr32  1  -0.00383799  0.68112587  0.62654977  1
  Pr3+  Pr33  1  0.49603072  0.48677298  0.37400952  1
  Pr3+  Pr34  1  1.00598396  0.31853650  0.87876492  1
  Pr3+  Pr35  1  0.83705476  0.51350223  0.12430411  1
  Pr3+  Pr36  1  0.16400615  0.48901013  0.37223445  1
  Pr3+  Pr37  1  0.49694292  0.15426336  0.37357082  1
  Pr3+  Pr38  1  0.67178774  0.98395122  0.37400369  1
  Pr3+  Pr39  1  0.50217865  0.51434693  0.12386321  1
  Pr3+  Pr40  1  0.83459936  0.48969946  0.87732668  1
  Pr3+  Pr41  1  0.32802460  0.67778016  0.12420375  1
  Pr3+  Pr42  1  0.83206386  0.48986017  0.37326808  1
  Pr3+  Pr43  1  0.32759116  0.01349213  0.12525239  1
  Pr3+  Pr44  1  0.66790527  0.01078415  0.12497713  1
  Pr3+  Pr45  1  -0.00293504  0.01193476  0.12654814  1
  Pr3+  Pr46  1  0.50251712  0.51074888  0.62585474  1
  Pr3+  Pr47  1  0.17198943  0.17711574  0.62544081  1
  Pr3+  Pr48  1  0.66910460  0.65653340  0.37295842  1
  Pr3+  Pr49  1  0.49557157  0.15321635  0.87611251  1
  Pr3+  Pr50  1  0.83167878  0.82064570  0.87593781  1
  Pr3+  Pr51  1  0.50362479  0.84274317  0.12401639  1
  Pr3+  Pr52  1  0.33743950  0.65224197  0.87548460  1
  Pr3+  Pr53  1  -0.00040694  0.34658446  0.62628137  1
  Pr3+  Pr54  1  0.66445827  0.68094487  0.62519547  1
  Pr3+  Pr55  1  0.66397903  0.01291016  0.62497320  1
  Pr3+  Pr56  1  0.16990118  0.84750263  0.62342840  1
  Pr3+  Pr57  1  0.66140442  0.34373515  0.62549146  1
  Pr3+  Pr58  1  0.33518136  0.65488206  0.37452165  1
  Pr3+  Pr59  1  0.99945654  0.98526553  0.37440637  1
  Pr3+  Pr60  1  0.50248065  0.84663470  0.62510918  1
  Pr3+  Pr61  1  0.66606065  0.34561447  0.12505839  1
  Pr3+  Pr62  1  1.00130141  0.65690558  0.37313129  1
  Pr3+  Pr63  1  1.00337608  0.32086627  0.37168433  1
  Pr3+  Pr64  1  0.33827020  0.98507376  0.37578770  1
  Pr3+  Pr65  1  0.33474607  0.32143088  0.87840872  1
  Pr3+  Pr66  1  0.16802960  0.84346369  0.12658063  1
  Pr3+  Pr67  1  0.67189878  0.31820394  0.37340569  1
  Pr3+  Pr68  1  0.33092213  0.34420646  0.62441683  1
  Pr3+  Pr69  1  0.66722173  0.32107920  0.87720511  1
  Pr3+  Pr70  1  0.16515895  0.15468835  0.37227503  1
  Pr3+  Pr71  1  0.16190940  0.82022075  0.87418607  1
  Mn3.30+  Mn72  1  0.16632960  0.00025736  0.00088506  1
  Mn3.30+  Mn73  1  0.16702080  0.00031580  0.49809380  1
  Mn3.30+  Mn74  1  0.16696805  0.33434441  0.00525080  1
  Mn3.30+  Mn75  1  0.16614950  0.33450324  0.49848235  1
  Mn3.30+  Mn76  1  0.16528138  0.66623131  0.00014871  1
  Mn3.30+  Mn77  1  0.16527316  0.66546100  0.50086369  1
  Mn3.30+  Mn78  1  0.49878958  -0.00219072  0.00097532  1
  Mn3.30+  Mn79  1  0.50258370  -0.00086111  0.49844798  1
  Mn3.30+  Mn80  1  0.49804576  0.33509976  0.00221470  1
  Mn3.30+  Mn81  1  0.49978894  0.33166572  0.49904426  1
  Mn3.30+  Mn82  1  0.50010772  0.66688620  -0.00057358  1
  Mn3.30+  Mn83  1  0.50012778  0.66729752  0.49979710  1
  Mn3.30+  Mn84  1  0.83510945  -0.00072819  0.00226512  1
  Mn3.30+  Mn85  1  0.83238443  -0.00115616  0.49854801  1
  Mn3.30+  Mn86  1  0.83596393  0.33283444  0.00155047  1
  Mn3.30+  Mn87  1  0.83371507  0.33284302  0.49903879  1
  Mn3.30+  Mn88  1  0.83347577  0.66849785  0.00026119  1
  Mn3.30+  Mn89  1  0.83320521  0.66902862  0.50056708  1
  Mn3.30+  Mn90  1  -0.00135160  0.16796461  0.24861491  1
  Mn3.30+  Mn91  1  0.00167622  0.16630962  0.74960854  1
  Mn3.30+  Mn92  1  -0.00016562  0.49989363  0.24730212  1
  Mn3.30+  Mn93  1  0.00215296  0.50188553  0.74980462  1
  Mn3.30+  Mn94  1  -0.00290915  0.83208514  0.24976633  1
  Mn3.30+  Mn95  1  -0.00260540  0.83295125  0.74942654  1
  Mn3.30+  Mn96  1  0.33135727  0.16872721  0.24851265  1
  Mn3.30+  Mn97  1  0.33385105  0.16685320  0.75028776  1
  Mn3.30+  Mn98  1  0.33178866  0.49957431  0.24790860  1
  Mn3.30+  Mn99  1  0.33269634  0.49904809  0.75039019  1
  Mn3.30+  Mn100  1  0.33592272  0.83237517  0.25083839  1
  Mn3.30+  Mn101  1  0.33372840  0.83347756  0.75147222  1
  Mn3.30+  Mn102  1  0.67005094  0.16579234  0.24710395  1
  Mn3.30+  Mn103  1  0.66768987  0.16632150  0.75201457  1
  Mn3.30+  Mn104  1  0.66637051  0.50176195  0.24777270  1
  Mn3.30+  Mn105  1  0.66502454  0.49973753  0.75387790  1
  Mn3.30+  Mn106  1  0.66787919  0.83166496  0.24896577  1
  Mn3.30+  Mn107  1  0.66670004  0.83298442  0.75099425  1
  Mn3.30+  Mn108  1  0.16558763  0.00053331  0.25004896  1
  Mn3.30+  Mn109  1  0.16759310  0.00014546  0.75099894  1
  Mn3.30+  Mn110  1  0.16663936  0.33399539  0.24638079  1
  Mn3.30+  Mn111  1  0.16673564  0.33478931  0.75004642  1
  Mn3.30+  Mn112  1  0.16601532  0.66680311  0.24970650  1
  Mn3.30+  Mn113  1  0.16477935  0.66517062  0.74985463  1
  Mn3.30+  Mn114  1  0.50052967  -0.00201516  0.24892917  1
  Mn3.30+  Mn115  1  0.50022437  -0.00150117  0.75111933  1
  Mn3.30+  Mn116  1  0.49832172  0.33359832  0.24749885  1
  Mn3.30+  Mn117  1  0.49916456  0.33350132  0.75156478  1
  Mn3.30+  Mn118  1  0.50142296  0.66802299  0.24912525  1
  Mn3.30+  Mn119  1  0.49874603  0.66606705  0.75120440  1
  Mn3.30+  Mn120  1  0.83342309  -0.00050827  0.24952598  1
  Mn3.30+  Mn121  1  0.83430418  -0.00116032  0.74982660  1
  Mn3.30+  Mn122  1  0.83629418  0.33207136  0.24868022  1
  Mn3.30+  Mn123  1  0.83365473  0.33349043  0.75164911  1
  Mn3.30+  Mn124  1  0.83280595  0.66964457  0.24751562  1
  Mn3.30+  Mn125  1  0.83384994  0.66775213  0.75185551  1
  Mn3.30+  Mn126  1  0.00194626  0.16758559  0.00560782  1
  Mn3.30+  Mn127  1  -0.00128035  0.16677271  0.49673886  1
  Mn3.30+  Mn128  1  0.00084844  0.50097799  0.00142187  1
  Mn3.30+  Mn129  1  0.00120321  0.50110435  0.50175590  1
  Mn3.30+  Mn130  1  -0.00213460  0.83174042  0.00135848  1
  Mn3.30+  Mn131  1  -0.00309671  0.83279113  0.49927779  1
  Mn3.30+  Mn132  1  0.33151157  0.16796860  0.00247916  1
  Mn3.30+  Mn133  1  0.33377654  0.16750102  0.49874506  1
  Mn3.30+  Mn134  1  0.33175009  0.49916653  0.00121697  1
  Mn3.30+  Mn135  1  0.33207467  0.49947575  0.50058109  1
  Mn3.30+  Mn136  1  0.33444943  0.83346970  -0.00170498  1
  Mn3.30+  Mn137  1  0.33494950  0.83229046  0.49910606  1
  Mn3.30+  Mn138  1  0.66898809  0.16633279  0.00290409  1
  Mn3.30+  Mn139  1  0.66846599  0.16557331  0.49784701  1
  Mn3.30+  Mn140  1  0.66488069  0.50138476  -0.00097887  1
  Mn3.30+  Mn141  1  0.66679616  0.49997580  0.49983515  1
  Mn3.30+  Mn142  1  0.66666502  0.83197597  0.00037263  1
  Mn3.30+  Mn143  1  0.66858977  0.83276552  0.49854095  1
  O2-  O144  1  0.03012511  0.15743753  0.12765760  1
  O2-  O145  1  0.02707999  0.16017872  0.62049620  1
  O2-  O146  1  0.02371233  0.49518281  0.12419921  1
  O2-  O147  1  0.02860798  0.49367955  0.62555413  1
  O2-  O148  1  0.02397666  0.83280658  0.12504523  1
  O2-  O149  1  0.02534780  0.82987480  0.62505613  1
  O2-  O150  1  0.35880231  0.15920869  0.12593776  1
  O2-  O151  1  0.34970222  0.17113636  0.62387898  1
  O2-  O152  1  0.35835946  0.49924823  0.12492864  1
  O2-  O153  1  0.35935016  0.49435566  0.62618972  1
  O2-  O154  1  0.35856243  0.82678073  0.12538895  1
  O2-  O155  1  0.35740307  0.82725324  0.62493593  1
  O2-  O156  1  0.69787956  0.16039944  0.12402043  1
  O2-  O157  1  0.69287394  0.16259722  0.62542840  1
  O2-  O158  1  0.69360317  0.49275839  0.12372448  1
  O2-  O159  1  0.69170215  0.49179970  0.62969972  1
  O2-  O160  1  0.69281566  0.82817924  0.12367804  1
  O2-  O161  1  0.69378196  0.82831144  0.62560167  1
  O2-  O162  1  0.13851240  0.32618004  0.12595258  1
  O2-  O163  1  0.14146117  0.32365989  0.62269337  1
  O2-  O164  1  0.14964447  0.66349764  0.12372466  1
  O2-  O165  1  0.14020689  0.65847996  0.62506721  1
  O2-  O166  1  0.14297870  0.99081318  0.12713296  1
  O2-  O167  1  0.14367960  0.99762152  0.62321709  1
  O2-  O168  1  0.47189211  0.32807175  0.12524381  1
  O2-  O169  1  0.47751061  0.33167586  0.62602470  1
  O2-  O170  1  0.47233438  0.66210559  0.12459930  1
  O2-  O171  1  0.47376496  0.65800195  0.62726052  1
  O2-  O172  1  0.47240773  0.99045948  0.12528523  1
  O2-  O173  1  0.48446879  0.99427491  0.62378334  1
  O2-  O174  1  0.80859227  0.32970879  0.12513030  1
  O2-  O175  1  0.80611541  0.32814204  0.62674522  1
  O2-  O176  1  0.80563569  0.65884937  0.12299231  1
  O2-  O177  1  0.80711819  0.65772416  0.62824669  1
  O2-  O178  1  0.80973636  0.98784427  0.12444805  1
  O2-  O179  1  0.80728534  0.99432965  0.62331719  1
  O2-  O180  1  0.30990438  0.16805444  0.37194479  1
  O2-  O181  1  0.31623681  0.17270741  0.87830459  1
  O2-  O182  1  0.30924773  0.50579677  0.37391463  1
  O2-  O183  1  0.30651971  0.50319595  0.87509692  1
  O2-  O184  1  0.31437249  0.83605873  0.37474059  1
  O2-  O185  1  0.30698157  0.83317757  0.87474062  1
  O2-  O186  1  0.64158571  0.17061926  0.37026474  1
  O2-  O187  1  0.64101681  0.17153150  0.88056792  1
  O2-  O188  1  0.64036050  0.50754541  0.37052714  1
  O2-  O189  1  0.63472135  0.50701991  0.87647602  1
  O2-  O190  1  0.63859953  0.83622817  0.37420041  1
  O2-  O191  1  0.63805645  0.83894833  0.87558354  1
  O2-  O192  1  0.97005209  0.17490768  0.37372660  1
  O2-  O193  1  0.97667109  0.17033473  0.87835521  1
  O2-  O194  1  0.97536270  0.50658282  0.37624759  1
  O2-  O195  1  0.97809782  0.50471703  0.87443355  1
  O2-  O196  1  0.97267700  0.83516625  0.37548126  1
  O2-  O197  1  0.97479334  0.84236078  0.87437121  1
  O2-  O198  1  0.19276443  0.00586729  0.37288112  1
  O2-  O199  1  0.18317564  -0.00088318  0.87670784  1
  O2-  O200  1  0.18546785  0.34145311  0.37349877  1
  O2-  O201  1  0.19067765  0.34110249  0.87785677  1
  O2-  O202  1  0.19011350  0.66703778  0.37662801  1
  O2-  O203  1  0.19222557  0.67255579  0.87462387  1
  O2-  O204  1  0.52739373  0.00782610  0.37211264  1
  O2-  O205  1  0.52470592  0.00649009  0.87833324  1
  O2-  O206  1  0.52632969  0.33865399  0.37108550  1
  O2-  O207  1  0.52317913  0.33915279  0.87798672  1
  O2-  O208  1  0.52556342  0.67153295  0.37359786  1
  O2-  O209  1  0.52280810  0.67587190  0.87387881  1
  O2-  O210  1  0.85711292  0.00974941  0.37441186  1
  O2-  O211  1  0.86132787  0.00688238  0.87774372  1
  O2-  O212  1  0.85962875  0.34344962  0.37319781  1
  O2-  O213  1  0.86131034  0.33939753  0.87563238  1
  O2-  O214  1  0.85674585  0.67085569  0.37509804  1
  O2-  O215  1  0.86158629  0.67275556  0.87340218  1
  O2-  O216  1  0.24070239  0.09516163  0.02279775  1
  O2-  O217  1  0.23685383  0.09661052  0.51463355  1
  O2-  O218  1  0.23415440  0.43204139  0.02157351  1
  O2-  O219  1  0.23754226  0.42809365  0.52128875  1
  O2-  O220  1  0.23765034  0.76222404  0.01928606  1
  O2-  O221  1  0.23691116  0.75716225  0.52302660  1
  O2-  O222  1  0.57448754  0.09299698  0.02325495  1
  O2-  O223  1  0.57609377  0.09296699  0.51673951  1
  O2-  O224  1  0.57253901  0.42623405  0.02398766  1
  O2-  O225  1  0.57262299  0.42766446  0.51879850  1
  O2-  O226  1  0.57185928  0.75968729  0.01977943  1
  O2-  O227  1  0.57235421  0.76007543  0.52339997  1
  O2-  O228  1  0.90441563  0.09781806  0.02362119  1
  O2-  O229  1  0.90634536  0.09337711  0.52290442  1
  O2-  O230  1  0.90339106  0.42920598  0.01723931  1
  O2-  O231  1  0.90654179  0.42962131  0.52217381  1
  O2-  O232  1  0.90041795  0.76652198  0.01752971  1
  O2-  O233  1  0.90343813  0.75978213  0.52469185  1
  O2-  O234  1  0.26157583  0.26417331  0.22870872  1
  O2-  O235  1  0.25973974  0.26436313  0.73310364  1
  O2-  O236  1  0.26336990  0.59549182  0.23446116  1
  O2-  O237  1  0.26511601  0.59468500  0.73279340  1
  O2-  O238  1  0.26394786  0.92654021  0.23178589  1
  O2-  O239  1  0.25714794  0.92375810  0.73057717  1
  O2-  O240  1  0.59659675  0.26038814  0.22706237  1
  O2-  O241  1  0.59812820  0.26254522  0.73611839  1
  O2-  O242  1  0.59436346  0.59553718  0.22550486  1
  O2-  O243  1  0.59489831  0.59425956  0.72889380  1
  O2-  O244  1  0.59664219  0.92645931  0.22725286  1
  O2-  O245  1  0.59706271  0.92640955  0.73009903  1
  O2-  O246  1  0.93290659  0.26574510  0.22825033  1
  O2-  O247  1  0.92931103  0.25908435  0.72875864  1
  O2-  O248  1  0.92411325  0.59289583  0.23279438  1
  O2-  O249  1  0.92762445  0.59144176  0.72729745  1
  O2-  O250  1  0.92868370  0.93083103  0.23503720  1
  O2-  O251  1  0.92932697  0.93043037  0.73042342  1
  O2-  O252  1  0.09380960  0.23966279  0.27299064  1
  O2-  O253  1  0.09314322  0.24130630  0.76764417  1
  O2-  O254  1  0.09115547  0.57340269  0.27021408  1
  O2-  O255  1  0.09549291  0.57209868  0.77131458  1
  O2-  O256  1  0.08989370  0.90729116  0.26862176  1
  O2-  O257  1  0.09275315  0.90357246  0.76719820  1
  O2-  O258  1  0.43116336  0.23415647  0.26575035  1
  O2-  O259  1  0.42761650  0.24121155  0.77268845  1
  O2-  O260  1  0.42956890  0.57378694  0.27018070  1
  O2-  O261  1  0.42924492  0.56918051  0.77244662  1
  O2-  O262  1  0.43085180  0.90347449  0.27207485  1
  O2-  O263  1  0.43232605  0.90246852  0.76623823  1
  O2-  O264  1  0.76409784  0.24102934  0.27198334  1
  O2-  O265  1  0.76158511  0.23786683  0.77332972  1
  O2-  O266  1  0.76047410  0.57295222  0.27040202  1
  O2-  O267  1  0.75906559  0.57192029  0.77404934  1
  O2-  O268  1  0.76002193  0.90495535  0.27296102  1
  O2-  O269  1  0.76026254  0.90715797  0.77439861  1
  O2-  O270  1  0.07036604  0.07435928  0.47548914  1
  O2-  O271  1  0.06809722  0.06922162  0.98584163  1
  O2-  O272  1  0.06998175  0.40558801  0.47980971  1
  O2-  O273  1  0.07279887  0.40635012  0.97880743  1
  O2-  O274  1  0.06809955  0.73561626  0.48473348  1
  O2-  O275  1  0.07121570  0.73990540  0.97711803  1
  O2-  O276  1  0.40860428  0.07211258  0.47823787  1
  O2-  O277  1  0.40909042  0.07324758  0.98515670  1
  O2-  O278  1  0.40806110  0.40748464  0.48278092  1
  O2-  O279  1  0.40126262  0.40677545  0.98161718  1
  O2-  O280  1  0.40428043  0.73617994  0.48322095  1
  O2-  O281  1  0.40227107  0.73584829  0.98293543  1
  O2-  O282  1  0.73734735  0.06851131  0.48182642  1
  O2-  O283  1  0.74004136  0.07119688  0.97911703  1
  O2-  O284  1  0.73890776  0.40549928  0.47889751  1
  O2-  O285  1  0.73743308  0.40801281  0.97821932  1
  O2-  O286  1  0.73391841  0.73624487  0.48228191  1
  O2-  O287  1  0.73914217  0.73983042  0.97462708  1
  O2-  O288  1  0.09326618  0.23937024  0.47638066  1
  O2-  O289  1  0.09384334  0.24132688  0.98200328  1
  O2-  O290  1  0.09306193  0.57267825  0.47705642  1
  O2-  O291  1  0.09533026  0.57327958  0.98158428  1
  O2-  O292  1  0.09035629  0.90881077  0.48316427  1
  O2-  O293  1  0.09357810  0.90252700  0.98205118  1
  O2-  O294  1  0.43010960  0.23836690  0.47969241  1
  O2-  O295  1  0.43038821  0.23837916  0.98257707  1
  O2-  O296  1  0.42864271  0.57234794  0.47923065  1
  O2-  O297  1  0.43012299  0.57087810  0.97915988  1
  O2-  O298  1  0.43304412  0.90566515  0.47978464  1
  O2-  O299  1  0.43003813  0.90000621  0.98174152  1
  O2-  O300  1  0.76267691  0.23560573  0.47745868  1
  O2-  O301  1  0.76133377  0.24148641  0.97739907  1
  O2-  O302  1  0.76167603  0.57214196  0.48102428  1
  O2-  O303  1  0.75947976  0.57323968  0.97582755  1
  O2-  O304  1  0.76183615  0.90362742  0.47452277  1
  O2-  O305  1  0.75868595  0.90713868  0.97569237  1
  O2-  O306  1  0.06909479  0.07390160  0.27399440  1
  O2-  O307  1  0.06936054  0.07028863  0.76454750  1
  O2-  O308  1  0.07140598  0.40764768  0.27098188  1
  O2-  O309  1  0.07119250  0.40496435  0.77057821  1
  O2-  O310  1  0.07053466  0.73912426  0.26753195  1
  O2-  O311  1  0.06719543  0.73837933  0.76992266  1
  O2-  O312  1  0.40475236  0.06954750  0.26883769  1
  O2-  O313  1  0.41278784  0.07499648  0.76650343  1
  O2-  O314  1  0.40817887  0.41123280  0.26797136  1
  O2-  O315  1  0.40057445  0.40364852  0.76813000  1
  O2-  O316  1  0.40504139  0.73667141  0.26823439  1
  O2-  O317  1  0.40229761  0.73503568  0.76623050  1
  O2-  O318  1  0.73687147  0.06784638  0.26616311  1
  O2-  O319  1  0.74151995  0.07228187  0.77226232  1
  O2-  O320  1  0.73895068  0.40604994  0.26951031  1
  O2-  O321  1  0.73758532  0.40764471  0.77571947  1
  O2-  O322  1  0.73683236  0.73810738  0.27001444  1
  O2-  O323  1  0.73572113  0.73946015  0.77293882  1
  O2-  O324  1  0.23758196  0.09708799  0.22848801  1
  O2-  O325  1  0.23975901  0.09570189  0.73406864  1
  O2-  O326  1  0.23456379  0.43093753  0.23032404  1
  O2-  O327  1  0.23670057  0.42897279  0.72739197  1
  O2-  O328  1  0.24169421  0.76077377  0.23013865  1
  O2-  O329  1  0.23496714  0.75934019  0.72810240  1
  O2-  O330  1  0.57089264  0.09224818  0.22533352  1
  O2-  O331  1  0.57866974  0.09113542  0.73551404  1
  O2-  O332  1  0.57370747  0.42849435  0.22704948  1
  O2-  O333  1  0.57263827  0.42630859  0.72954311  1
  O2-  O334  1  0.57209132  0.76056058  0.22849449  1
  O2-  O335  1  0.57253226  0.75889327  0.72617370  1
  O2-  O336  1  0.90560059  0.09538485  0.22583275  1
  O2-  O337  1  0.90513475  0.09528837  0.72915471  1
  O2-  O338  1  0.90278380  0.43076888  0.23187166  1
  O2-  O339  1  0.90676128  0.42887618  0.72939609  1
  O2-  O340  1  0.90192539  0.76267977  0.23064655  1
  O2-  O341  1  0.90300802  0.76500985  0.72697060  1
  O2-  O342  1  0.26420379  0.26654951  0.01945058  1
  O2-  O343  1  0.25783395  0.26204959  0.51799894  1
  O2-  O344  1  0.26500869  0.59649665  0.01430276  1
  O2-  O345  1  0.26207048  0.59492051  0.51889972  1
  O2-  O346  1  0.26065036  0.92577611  0.02256216  1
  O2-  O347  1  0.26056730  0.92418756  0.51519210  1
  O2-  O348  1  0.59642076  0.26007575  0.02274180  1
  O2-  O349  1  0.59933486  0.26337147  0.51441910  1
  O2-  O350  1  0.59561360  0.59569725  0.02232998  1
  O2-  O351  1  0.59438962  0.59419610  0.52143255  1
  O2-  O352  1  0.59512408  0.92728205  0.02225109  1
  O2-  O353  1  0.59900342  0.92685805  0.51960635  1
  O2-  O354  1  0.93288898  0.26238402  0.01989196  1
  O2-  O355  1  0.92909349  0.26177452  0.52260578  1
  O2-  O356  1  0.92254748  0.59148455  0.01740281  1
  O2-  O357  1  0.92863768  0.59400827  0.52181375  1
  O2-  O358  1  0.93078188  0.93120192  0.01707945  1
  O2-  O359  1  0.92738363  0.93027404  0.51735944  1
