# generated using pymatgen
data_Sr7Ca15Pr50Mn72O216
_symmetry_space_group_name_H-M   'P 1'
_cell_length_a   16.55823863
_cell_length_b   16.60411985
_cell_length_c   15.59450687
_cell_angle_alpha   89.99498679
_cell_angle_beta   89.99282833
_cell_angle_gamma   89.98374329
_symmetry_Int_Tables_number   1
_chemical_formula_structural   Sr7Ca15Pr50Mn72O216
_chemical_formula_sum   'Sr7 Ca15 Pr50 Mn72 O216'
_cell_volume   4287.47519147
_cell_formula_units_Z   1
loop_
 _symmetry_equiv_pos_site_id
 _symmetry_equiv_pos_as_xyz
  1  'x, y, z'
loop_
 _atom_type_symbol
 _atom_type_oxidation_number
  Sr2+  2.0
  Ca2+  2.0
  Pr3+  3.0
  Mn3.30+  3.3
  O2-  -2.0
loop_
 _atom_site_type_symbol
 _atom_site_label
 _atom_site_symmetry_multiplicity
 _atom_site_fract_x
 _atom_site_fract_y
 _atom_site_fract_z
 _atom_site_occupancy
  Sr2+  Sr0  1  0.16248312  0.15451019  0.87518123  1
  Sr2+  Sr1  1  0.50088265  0.84299722  0.62482983  1
  Sr2+  Sr2  1  1.00058502  0.65641079  0.37248733  1
  Sr2+  Sr3  1  -0.00420570  0.01211233  0.12413233  1
  Sr2+  Sr4  1  0.33304225  0.67852183  0.62284635  1
  Sr2+  Sr5  1  0.66778834  0.34111388  0.12732183  1
  Sr2+  Sr6  1  0.83734971  0.17927222  0.12775926  1
  Ca2+  Ca7  1  -0.00531845  0.68051846  0.12704755  1
  Ca2+  Ca8  1  0.16102662  0.15341227  0.37436139  1
  Ca2+  Ca9  1  0.50056856  0.15446527  0.37444758  1
  Ca2+  Ca10  1  0.49687410  0.48474812  0.87621608  1
  Ca2+  Ca11  1  0.16306590  0.48464650  0.87455568  1
  Ca2+  Ca12  1  1.00297128  0.98826372  0.87818807  1
  Ca2+  Ca13  1  0.82994856  0.15526200  0.37342134  1
  Ca2+  Ca14  1  0.16295510  0.48851576  0.37506190  1
  Ca2+  Ca15  1  0.82889299  0.81565856  0.37286323  1
  Ca2+  Ca16  1  0.83641685  0.18095940  0.62119313  1
  Ca2+  Ca17  1  0.33600838  0.65238064  0.37607349  1
  Ca2+  Ca18  1  0.66997767  0.98548339  0.87497863  1
  Ca2+  Ca19  1  -0.00418010  0.34413315  0.12584024  1
  Ca2+  Ca20  1  0.67363496  0.31507523  0.37422594  1
  Ca2+  Ca21  1  0.67281480  0.65326759  0.37468199  1
  Pr3+  Pr22  1  0.49751252  0.15431020  0.87565978  1
  Pr3+  Pr23  1  0.33061622  0.67883235  0.12780717  1
  Pr3+  Pr24  1  1.00447919  0.32033517  0.87635740  1
  Pr3+  Pr25  1  0.33495576  0.32025045  0.37529883  1
  Pr3+  Pr26  1  0.33097850  0.00973576  0.62381604  1
  Pr3+  Pr27  1  0.50115631  0.51339066  0.62569782  1
  Pr3+  Pr28  1  0.66571498  0.67768564  0.12628848  1
  Pr3+  Pr29  1  0.99743323  0.99072235  0.37188682  1
  Pr3+  Pr30  1  0.50488127  0.51049129  0.12407436  1
  Pr3+  Pr31  1  0.50542728  0.18100559  0.12771897  1
  Pr3+  Pr32  1  0.33130041  0.34580119  0.12655366  1
  Pr3+  Pr33  1  0.82839706  0.48711289  0.37544763  1
  Pr3+  Pr34  1  0.50096706  0.49040050  0.37443357  1
  Pr3+  Pr35  1  0.16504749  0.51052514  0.12689844  1
  Pr3+  Pr36  1  0.50448720  0.84713569  0.12604398  1
  Pr3+  Pr37  1  0.17013925  0.18018590  0.62329649  1
  Pr3+  Pr38  1  -0.00007738  0.68034184  0.62239910  1
  Pr3+  Pr39  1  0.83263951  0.48594520  0.87398266  1
  Pr3+  Pr40  1  0.83866431  0.84635305  0.12771648  1
  Pr3+  Pr41  1  0.33355263  0.98816411  0.87567334  1
  Pr3+  Pr42  1  0.16431115  0.82047535  0.37376855  1
  Pr3+  Pr43  1  1.00700292  0.65208811  0.87675989  1
  Pr3+  Pr44  1  0.83967657  0.50907947  0.12545071  1
  Pr3+  Pr45  1  0.66320607  0.01283430  0.62592918  1
  Pr3+  Pr46  1  0.50253360  0.17853215  0.62241545  1
  Pr3+  Pr47  1  0.17173887  0.51470112  0.62359308  1
  Pr3+  Pr48  1  1.00250788  0.32066894  0.37393724  1
  Pr3+  Pr49  1  0.66491631  0.34470344  0.62283484  1
  Pr3+  Pr50  1  0.83554785  0.84571410  0.62172652  1
  Pr3+  Pr51  1  0.16458696  0.18020308  0.12668611  1
  Pr3+  Pr52  1  0.83621141  0.51417245  0.62447591  1
  Pr3+  Pr53  1  0.16321808  0.84607417  0.12781589  1
  Pr3+  Pr54  1  0.17067834  0.84531672  0.62261615  1
  Pr3+  Pr55  1  0.16169128  0.82424580  0.87647226  1
  Pr3+  Pr56  1  0.33034662  0.34717776  0.62392229  1
  Pr3+  Pr57  1  -0.00191982  0.34634242  0.62439200  1
  Pr3+  Pr58  1  0.66874038  0.65341752  0.87435674  1
  Pr3+  Pr59  1  0.66642688  0.01425198  0.12445091  1
  Pr3+  Pr60  1  0.49680939  0.81806015  0.37581387  1
  Pr3+  Pr61  1  -0.00515085  0.01519686  0.62546095  1
  Pr3+  Pr62  1  0.66795068  0.32178609  0.87595499  1
  Pr3+  Pr63  1  0.67170248  0.98752789  0.37507750  1
  Pr3+  Pr64  1  0.33590830  0.65093010  0.87473260  1
  Pr3+  Pr65  1  0.32925255  0.01409559  0.12605797  1
  Pr3+  Pr66  1  0.33604384  0.99006687  0.37463775  1
  Pr3+  Pr67  1  0.49778162  0.82201469  0.87458729  1
  Pr3+  Pr68  1  0.83073977  0.15214985  0.87499356  1
  Pr3+  Pr69  1  0.66193574  0.68077345  0.62287808  1
  Pr3+  Pr70  1  0.33468072  0.32182780  0.87534260  1
  Pr3+  Pr71  1  0.83314313  0.82398311  0.87642066  1
  Mn3.30+  Mn72  1  0.16378906  0.00131826  0.00126643  1
  Mn3.30+  Mn73  1  0.16439969  0.00207708  0.49766009  1
  Mn3.30+  Mn74  1  0.16483781  0.33462592  0.00192095  1
  Mn3.30+  Mn75  1  0.16600956  0.33412401  0.49712523  1
  Mn3.30+  Mn76  1  0.16565222  0.66599404  0.00289021  1
  Mn3.30+  Mn77  1  0.16810388  0.66547917  0.49548105  1
  Mn3.30+  Mn78  1  0.50097345  0.00015468  -0.00058469  1
  Mn3.30+  Mn79  1  0.50129082  0.00078373  0.49899743  1
  Mn3.30+  Mn80  1  0.50026470  0.33449865  0.00006245  1
  Mn3.30+  Mn81  1  0.50187126  0.33259771  0.49659050  1
  Mn3.30+  Mn82  1  0.49964865  0.66526743  -0.00007097  1
  Mn3.30+  Mn83  1  0.50093540  0.66633875  0.49806410  1
  Mn3.30+  Mn84  1  0.83377813  0.00042892  -0.00204511  1
  Mn3.30+  Mn85  1  0.83236976  0.00205190  0.50013047  1
  Mn3.30+  Mn86  1  0.83591727  0.33287095  0.00087615  1
  Mn3.30+  Mn87  1  0.83238728  0.33098970  0.49956798  1
  Mn3.30+  Mn88  1  0.83579240  0.66595079  -0.00038940  1
  Mn3.30+  Mn89  1  0.83194475  0.66731553  0.49802751  1
  Mn3.30+  Mn90  1  -0.00170719  0.16801659  0.25168781  1
  Mn3.30+  Mn91  1  -0.00127925  0.16630107  0.74892420  1
  Mn3.30+  Mn92  1  0.00042835  0.49993051  0.25123974  1
  Mn3.30+  Mn93  1  0.00250671  0.50069123  0.74939711  1
  Mn3.30+  Mn94  1  -0.00273298  0.83205336  0.25199440  1
  Mn3.30+  Mn95  1  0.00020062  0.83544751  0.74931215  1
  Mn3.30+  Mn96  1  0.33316131  0.16752350  0.25239120  1
  Mn3.30+  Mn97  1  0.33294227  0.16603296  0.75006300  1
  Mn3.30+  Mn98  1  0.33243589  0.50060250  0.25217946  1
  Mn3.30+  Mn99  1  0.33298456  0.49971783  0.75172270  1
  Mn3.30+  Mn100  1  0.33375367  0.83283787  0.25032388  1
  Mn3.30+  Mn101  1  0.33192625  0.83328311  0.74998485  1
  Mn3.30+  Mn102  1  0.66782435  0.16761457  0.25278304  1
  Mn3.30+  Mn103  1  0.66815276  0.16589078  0.74941105  1
  Mn3.30+  Mn104  1  0.66810999  0.49845787  0.24988733  1
  Mn3.30+  Mn105  1  0.66615264  0.49920023  0.75092885  1
  Mn3.30+  Mn106  1  0.66895047  0.83172916  0.25117029  1
  Mn3.30+  Mn107  1  0.66717994  0.83474343  0.75144336  1
  Mn3.30+  Mn108  1  0.16534670  0.00302653  0.25111549  1
  Mn3.30+  Mn109  1  0.16296678  0.00054408  0.75001460  1
  Mn3.30+  Mn110  1  0.16455574  0.33452988  0.25129711  1
  Mn3.30+  Mn111  1  0.16628269  0.33412520  0.75058038  1
  Mn3.30+  Mn112  1  0.16509023  0.66485872  0.24995405  1
  Mn3.30+  Mn113  1  0.16828153  0.66696254  0.75120592  1
  Mn3.30+  Mn114  1  0.50108041  0.00138239  0.25117534  1
  Mn3.30+  Mn115  1  0.50113525  -0.00064865  0.75075503  1
  Mn3.30+  Mn116  1  0.50249344  0.33277389  0.25409049  1
  Mn3.30+  Mn117  1  0.49970681  0.33390548  0.74913283  1
  Mn3.30+  Mn118  1  0.50068576  0.66546860  0.25188365  1
  Mn3.30+  Mn119  1  0.50028310  0.66592305  0.75095975  1
  Mn3.30+  Mn120  1  0.83344853  0.00156175  0.25143337  1
  Mn3.30+  Mn121  1  0.83256612  0.00069812  0.75034463  1
  Mn3.30+  Mn122  1  0.83403683  0.33296571  0.25093063  1
  Mn3.30+  Mn123  1  0.83408698  0.33133477  0.74832519  1
  Mn3.30+  Mn124  1  0.83318657  0.66513086  0.25050762  1
  Mn3.30+  Mn125  1  0.83489405  0.66810722  0.75033787  1
  Mn3.30+  Mn126  1  -0.00120173  0.16636489  0.00052591  1
  Mn3.30+  Mn127  1  -0.00160581  0.16738838  0.49862621  1
  Mn3.30+  Mn128  1  0.00247081  0.49930022  0.00090225  1
  Mn3.30+  Mn129  1  0.00115404  0.50123804  0.49796765  1
  Mn3.30+  Mn130  1  -0.00164454  0.83321238  0.00081963  1
  Mn3.30+  Mn131  1  -0.00070929  0.83420772  0.49703491  1
  Mn3.30+  Mn132  1  0.33269315  0.16751145  0.00112619  1
  Mn3.30+  Mn133  1  0.33373590  0.16633585  0.49708687  1
  Mn3.30+  Mn134  1  0.33273392  0.49909497  0.00005296  1
  Mn3.30+  Mn135  1  0.33225728  0.50147290  0.49625571  1
  Mn3.30+  Mn136  1  0.33212602  0.83317220  0.00170594  1
  Mn3.30+  Mn137  1  0.33354639  0.83264894  0.49849979  1
  Mn3.30+  Mn138  1  0.66704645  0.16635182  -0.00041452  1
  Mn3.30+  Mn139  1  0.66937749  0.16687055  0.49897009  1
  Mn3.30+  Mn140  1  0.66710440  0.49846449  -0.00072406  1
  Mn3.30+  Mn141  1  0.66679276  0.49934697  0.49897962  1
  Mn3.30+  Mn142  1  0.66760717  0.83406615  -0.00010851  1
  Mn3.30+  Mn143  1  0.66788870  0.83267488  0.49765423  1
  O2-  O144  1  0.02181587  0.16480429  0.12693052  1
  O2-  O145  1  0.02710883  0.16219824  0.62337733  1
  O2-  O146  1  0.02226072  0.48832092  0.12531141  1
  O2-  O147  1  0.02694760  0.49621836  0.62464604  1
  O2-  O148  1  0.01893678  0.82712809  0.12675680  1
  O2-  O149  1  0.02620247  0.82924730  0.62137678  1
  O2-  O150  1  0.36094065  0.16366860  0.12695500  1
  O2-  O151  1  0.35793416  0.16033051  0.62439428  1
  O2-  O152  1  0.36143525  0.49395944  0.12678958  1
  O2-  O153  1  0.35708012  0.49500616  0.62267554  1
  O2-  O154  1  0.36103816  0.82774136  0.12648607  1
  O2-  O155  1  0.35020264  0.83684636  0.62287249  1
  O2-  O156  1  0.68564613  0.16196869  0.12529830  1
  O2-  O157  1  0.69437327  0.16043136  0.62704964  1
  O2-  O158  1  0.69324846  0.49733140  0.12188747  1
  O2-  O159  1  0.69221201  0.49305777  0.62621656  1
  O2-  O160  1  0.69364503  0.82645934  0.12374675  1
  O2-  O161  1  0.69148138  0.82777231  0.62320008  1
  O2-  O162  1  0.13934005  0.32805125  0.12723827  1
  O2-  O163  1  0.14322099  0.32787312  0.62184968  1
  O2-  O164  1  0.13694534  0.65852521  0.12523748  1
  O2-  O165  1  0.14391801  0.66284571  0.62286962  1
  O2-  O166  1  0.14589665  0.99569623  0.12759392  1
  O2-  O167  1  0.13960471  0.99276119  0.62148430  1
  O2-  O168  1  0.47585929  0.32866047  0.12949161  1
  O2-  O169  1  0.47409298  0.32684663  0.62229822  1
  O2-  O170  1  0.47492176  0.66007295  0.12558261  1
  O2-  O171  1  0.48241401  0.66165095  0.62648932  1
  O2-  O172  1  0.47379326  0.99461994  0.12408761  1
  O2-  O173  1  0.47569250  0.99920780  0.62374321  1
  O2-  O174  1  0.81681505  0.33851014  0.12529466  1
  O2-  O175  1  0.80823325  0.32775422  0.62482851  1
  O2-  O176  1  0.80852640  0.65920870  0.12346200  1
  O2-  O177  1  0.80731150  0.66380509  0.62607310  1
  O2-  O178  1  0.80960836  0.99413805  0.12383860  1
  O2-  O179  1  0.80591322  0.99121352  0.62510255  1
  O2-  O180  1  0.30339884  0.17208299  0.37406368  1
  O2-  O181  1  0.31289213  0.17239065  0.87522530  1
  O2-  O182  1  0.30608557  0.50644990  0.37321252  1
  O2-  O183  1  0.30481769  0.50333502  0.87808605  1
  O2-  O184  1  0.30833793  0.84252423  0.37284934  1
  O2-  O185  1  0.30646304  0.83964708  0.87788069  1
  O2-  O186  1  0.64213608  0.16837230  0.37583629  1
  O2-  O187  1  0.64023406  0.17438317  0.87325264  1
  O2-  O188  1  0.64428040  0.51078758  0.37590606  1
  O2-  O189  1  0.64011903  0.50503966  0.87462728  1
  O2-  O190  1  0.63992398  0.84092774  0.37375036  1
  O2-  O191  1  0.64128776  0.83930749  0.87874721  1
  O2-  O192  1  0.97223828  0.17322865  0.37716349  1
  O2-  O193  1  0.97504953  0.17475685  0.87289622  1
  O2-  O194  1  0.97305694  0.50224308  0.37720549  1
  O2-  O195  1  0.97616071  0.50593392  0.87280589  1
  O2-  O196  1  0.97239669  0.84051333  0.37600607  1
  O2-  O197  1  0.97754185  0.84005943  0.87487070  1
  O2-  O198  1  0.19247974  0.00716759  0.37394408  1
  O2-  O199  1  0.18962789  -0.00260076  0.87747948  1
  O2-  O200  1  0.19211700  0.34323761  0.37493030  1
  O2-  O201  1  0.19119850  0.33908309  0.87691310  1
  O2-  O202  1  0.19473547  0.67413948  0.37179730  1
  O2-  O203  1  0.19253590  0.67726478  0.87969635  1
  O2-  O204  1  0.52656314  0.00669910  0.37592495  1
  O2-  O205  1  0.52708290  0.00649525  0.87678809  1
  O2-  O206  1  0.53105535  0.34383775  0.37610317  1
  O2-  O207  1  0.52322977  0.33843207  0.87155013  1
  O2-  O208  1  0.52931677  0.66950018  0.37203054  1
  O2-  O209  1  0.52482415  0.67428448  0.87637761  1
  O2-  O210  1  0.85395979  0.01011542  0.37838911  1
  O2-  O211  1  0.86089924  0.00355193  0.87254557  1
  O2-  O212  1  0.85869436  0.34070723  0.37743640  1
  O2-  O213  1  0.85981189  0.33807485  0.87191760  1
  O2-  O214  1  0.85115409  0.66730366  0.37574673  1
  O2-  O215  1  0.86286390  0.67401877  0.87412198  1
  O2-  O216  1  0.24097646  0.09480488  0.02301087  1
  O2-  O217  1  0.23750656  0.09192695  0.52259687  1
  O2-  O218  1  0.23993693  0.42688456  0.02560207  1
  O2-  O219  1  0.23987759  0.42597492  0.52162399  1
  O2-  O220  1  0.23626985  0.76033203  0.02629710  1
  O2-  O221  1  0.23707659  0.76438604  0.51379111  1
  O2-  O222  1  0.56980157  0.09430237  0.02089712  1
  O2-  O223  1  0.57445357  0.09499912  0.52261183  1
  O2-  O224  1  0.57007112  0.42752132  0.01703112  1
  O2-  O225  1  0.57096102  0.42850355  0.52214389  1
  O2-  O226  1  0.57247167  0.76157437  0.02125735  1
  O2-  O227  1  0.57365573  0.76057262  0.51576819  1
  O2-  O228  1  0.90227597  0.09705243  0.01184872  1
  O2-  O229  1  0.90506501  0.09477203  0.52467385  1
  O2-  O230  1  0.90440444  0.43166061  0.01163083  1
  O2-  O231  1  0.90453919  0.42844316  0.52236952  1
  O2-  O232  1  0.90243657  0.76189876  0.01799191  1
  O2-  O233  1  0.90741392  0.75992919  0.52083138  1
  O2-  O234  1  0.26164936  0.26144100  0.22955198  1
  O2-  O235  1  0.26173254  0.26101883  0.72925231  1
  O2-  O236  1  0.25926706  0.59283562  0.22457778  1
  O2-  O237  1  0.26147389  0.59574176  0.73409129  1
  O2-  O238  1  0.26191631  0.92720079  0.23002852  1
  O2-  O239  1  0.25907765  0.92973526  0.73124165  1
  O2-  O240  1  0.59167757  0.25733490  0.23313528  1
  O2-  O241  1  0.59404148  0.26127040  0.72778333  1
  O2-  O242  1  0.59459052  0.59193144  0.22612581  1
  O2-  O243  1  0.59703844  0.59347524  0.73059435  1
  O2-  O244  1  0.59744525  0.92660579  0.22792243  1
  O2-  O245  1  0.59451741  0.92889548  0.73256396  1
  O2-  O246  1  0.93244103  0.26698160  0.23527026  1
  O2-  O247  1  0.92947862  0.26242949  0.72960375  1
  O2-  O248  1  0.92904524  0.59304039  0.22678162  1
  O2-  O249  1  0.92990516  0.59621521  0.72846274  1
  O2-  O250  1  0.92441181  0.92720707  0.23427664  1
  O2-  O251  1  0.92546145  0.92776999  0.72594322  1
  O2-  O252  1  0.09677761  0.23825844  0.27260443  1
  O2-  O253  1  0.09305156  0.24019144  0.76560811  1
  O2-  O254  1  0.09785467  0.56774073  0.26810615  1
  O2-  O255  1  0.09756062  0.57225554  0.77096766  1
  O2-  O256  1  0.09424803  0.90821205  0.27003715  1
  O2-  O257  1  0.09581041  0.90281927  0.76616770  1
  O2-  O258  1  0.42750692  0.23915442  0.27455756  1
  O2-  O259  1  0.42984041  0.23936473  0.76914721  1
  O2-  O260  1  0.42922902  0.57166451  0.26937925  1
  O2-  O261  1  0.42851054  0.56946243  0.77204461  1
  O2-  O262  1  0.43109606  0.90658635  0.27055215  1
  O2-  O263  1  0.42470601  0.90720127  0.77370158  1
  O2-  O264  1  0.76238850  0.23856368  0.26975706  1
  O2-  O265  1  0.75826441  0.23959752  0.77348634  1
  O2-  O266  1  0.76407698  0.56884543  0.26511012  1
  O2-  O267  1  0.76307160  0.57308844  0.77109827  1
  O2-  O268  1  0.76160445  0.90266492  0.27082020  1
  O2-  O269  1  0.76318997  0.90353546  0.76896567  1
  O2-  O270  1  0.06784905  0.07096267  0.48006525  1
  O2-  O271  1  0.06974685  0.07185586  0.98201784  1
  O2-  O272  1  0.06888308  0.40401201  0.48307813  1
  O2-  O273  1  0.07277912  0.40636259  0.97907229  1
  O2-  O274  1  0.07586300  0.74004355  0.48067694  1
  O2-  O275  1  0.07123113  0.74043265  0.97922509  1
  O2-  O276  1  0.40346258  0.07252491  0.48057185  1
  O2-  O277  1  0.40627436  0.07096564  0.97990500  1
  O2-  O278  1  0.40469075  0.40676987  0.47772201  1
  O2-  O279  1  0.40204915  0.40305516  0.98259120  1
  O2-  O280  1  0.40701754  0.73983480  0.47641536  1
  O2-  O281  1  0.40376460  0.73885587  0.98007607  1
  O2-  O282  1  0.73452079  0.06796204  0.48445823  1
  O2-  O283  1  0.73720748  0.07029034  0.97822743  1
  O2-  O284  1  0.73553363  0.40332696  0.48020088  1
  O2-  O285  1  0.74171549  0.40650704  0.97521036  1
  O2-  O286  1  0.73581158  0.73569094  0.48198790  1
  O2-  O287  1  0.73782947  0.73880187  0.97811842  1
  O2-  O288  1  0.09705753  0.23800669  0.47843853  1
  O2-  O289  1  0.09308480  0.23992278  0.98323997  1
  O2-  O290  1  0.09759845  0.56958873  0.48227765  1
  O2-  O291  1  0.09806231  0.57013118  0.97825889  1
  O2-  O292  1  0.09391562  0.90756368  0.47527935  1
  O2-  O293  1  0.09437751  0.90272038  0.98775357  1
  O2-  O294  1  0.43065822  0.23985855  0.47602322  1
  O2-  O295  1  0.42706025  0.23944470  0.98101109  1
  O2-  O296  1  0.42999963  0.57140562  0.48110462  1
  O2-  O297  1  0.42755521  0.56955244  0.97772931  1
  O2-  O298  1  0.42583667  0.90698708  0.47643315  1
  O2-  O299  1  0.42921682  0.90661477  0.97904464  1
  O2-  O300  1  0.76312130  0.23503034  0.47974012  1
  O2-  O301  1  0.76071574  0.24095698  0.97808892  1
  O2-  O302  1  0.76285434  0.56795634  0.48669380  1
  O2-  O303  1  0.76339768  0.57347613  0.97583398  1
  O2-  O304  1  0.76308291  0.90139183  0.47770834  1
  O2-  O305  1  0.76167802  0.90455748  0.98105088  1
  O2-  O306  1  0.07192072  0.07505592  0.27173040  1
  O2-  O307  1  0.06650837  0.06747451  0.76648804  1
  O2-  O308  1  0.07149955  0.40584129  0.27138671  1
  O2-  O309  1  0.07068090  0.40452863  0.76705863  1
  O2-  O310  1  0.07688319  0.74305222  0.26872236  1
  O2-  O311  1  0.07226066  0.73732153  0.76919418  1
  O2-  O312  1  0.40212905  0.07225577  0.26828774  1
  O2-  O313  1  0.40569479  0.07162756  0.77084540  1
  O2-  O314  1  0.40636199  0.40515341  0.27330473  1
  O2-  O315  1  0.40239966  0.40245683  0.76686277  1
  O2-  O316  1  0.40488707  0.73816854  0.27221499  1
  O2-  O317  1  0.40628428  0.74029667  0.77270070  1
  O2-  O318  1  0.73545073  0.06927947  0.26535695  1
  O2-  O319  1  0.73738061  0.06951022  0.77375929  1
  O2-  O320  1  0.73882981  0.40521012  0.27382800  1
  O2-  O321  1  0.73821031  0.40574464  0.77036390  1
  O2-  O322  1  0.73350548  0.73472165  0.26647065  1
  O2-  O323  1  0.74106860  0.73958468  0.77264890  1
  O2-  O324  1  0.24010216  0.09468086  0.22686003  1
  O2-  O325  1  0.23719379  0.09187923  0.72815701  1
  O2-  O326  1  0.24056377  0.42529103  0.22662257  1
  O2-  O327  1  0.23955577  0.42719344  0.72774356  1
  O2-  O328  1  0.23800922  0.75977686  0.22663110  1
  O2-  O329  1  0.23565286  0.76460424  0.73379298  1
  O2-  O330  1  0.57180423  0.09230800  0.22872394  1
  O2-  O331  1  0.57171096  0.09662258  0.72919560  1
  O2-  O332  1  0.57033608  0.43092923  0.23273835  1
  O2-  O333  1  0.57081872  0.42503947  0.72624477  1
  O2-  O334  1  0.57091198  0.76174483  0.22854606  1
  O2-  O335  1  0.57684478  0.75934784  0.73521127  1
  O2-  O336  1  0.90633783  0.09408834  0.23780773  1
  O2-  O337  1  0.90116338  0.09719637  0.72758956  1
  O2-  O338  1  0.90318253  0.43154336  0.23705547  1
  O2-  O339  1  0.90569187  0.42938114  0.72861876  1
  O2-  O340  1  0.90136364  0.75852689  0.23320519  1
  O2-  O341  1  0.90763803  0.76307564  0.72769598  1
  O2-  O342  1  0.25909947  0.26267004  0.02221717  1
  O2-  O343  1  0.26391578  0.26093203  0.51973473  1
  O2-  O344  1  0.26415085  0.59470212  0.02255987  1
  O2-  O345  1  0.25948190  0.59249341  0.51890293  1
  O2-  O346  1  0.26175562  0.92708976  0.02225858  1
  O2-  O347  1  0.25877944  0.92933710  0.51694934  1
  O2-  O348  1  0.59111617  0.25943893  0.01581267  1
  O2-  O349  1  0.59665352  0.25852664  0.52294797  1
  O2-  O350  1  0.59617219  0.59461732  0.01979457  1
  O2-  O351  1  0.59455153  0.59136314  0.52274252  1
  O2-  O352  1  0.59341513  0.92689894  0.02424779  1
  O2-  O353  1  0.59869149  0.92921733  0.51683427  1
  O2-  O354  1  0.93081296  0.26566880  0.01521691  1
  O2-  O355  1  0.93184098  0.26345186  0.51933991  1
  O2-  O356  1  0.93334222  0.59429360  0.01993511  1
  O2-  O357  1  0.92714565  0.59397189  0.52336911  1
  O2-  O358  1  0.92323285  0.92375864  0.01815583  1
  O2-  O359  1  0.92663084  0.93035280  0.52032989  1
