# generated using pymatgen
data_Sr7Ca15Pr50Mn72O216
_symmetry_space_group_name_H-M   'P 1'
_cell_length_a   16.56070863
_cell_length_b   16.60363985
_cell_length_c   15.59245061
_cell_angle_alpha   90.00514188
_cell_angle_beta   89.99122406
_cell_angle_gamma   90.01137966
_symmetry_Int_Tables_number   1
_chemical_formula_structural   Sr7Ca15Pr50Mn72O216
_chemical_formula_sum   'Sr7 Ca15 Pr50 Mn72 O216'
_cell_volume   4287.42545938
_cell_formula_units_Z   1
loop_
 _symmetry_equiv_pos_site_id
 _symmetry_equiv_pos_as_xyz
  1  'x, y, z'
loop_
 _atom_type_symbol
 _atom_type_oxidation_number
  Sr2+  2.0
  Ca2+  2.0
  Pr3+  3.0
  Mn3.30+  3.3
  O2-  -2.0
loop_
 _atom_site_type_symbol
 _atom_site_label
 _atom_site_symmetry_multiplicity
 _atom_site_fract_x
 _atom_site_fract_y
 _atom_site_fract_z
 _atom_site_occupancy
  Sr2+  Sr0  1  0.67017634  0.98786168  0.87606093  1
  Sr2+  Sr1  1  -0.00273877  0.67540532  0.62861976  1
  Sr2+  Sr2  1  0.66543703  0.01092572  0.12361994  1
  Sr2+  Sr3  1  0.16424490  0.49046567  0.87306798  1
  Sr2+  Sr4  1  0.50069826  0.48832573  0.37600659  1
  Sr2+  Sr5  1  0.82888229  0.48761853  0.37478518  1
  Sr2+  Sr6  1  0.16476967  0.50760638  0.62572990  1
  Ca2+  Ca7  1  0.33614832  0.31960252  0.87103855  1
  Ca2+  Ca8  1  1.00173148  0.65189704  0.87348368  1
  Ca2+  Ca9  1  0.33016661  0.34858899  0.62505000  1
  Ca2+  Ca10  1  0.17057837  0.85289052  0.12503163  1
  Ca2+  Ca11  1  0.50513398  0.18545044  0.62507862  1
  Ca2+  Ca12  1  0.83200431  0.82087609  0.87415107  1
  Ca2+  Ca13  1  0.83727640  0.84554544  0.62797353  1
  Ca2+  Ca14  1  0.33083009  0.01449070  0.12478998  1
  Ca2+  Ca15  1  -0.00242170  0.01516620  0.12567097  1
  Ca2+  Ca16  1  0.49636759  0.81853530  0.37385464  1
  Ca2+  Ca17  1  0.83669087  0.51437958  0.12492152  1
  Ca2+  Ca18  1  1.00157549  0.32037299  0.37840779  1
  Ca2+  Ca19  1  0.67012114  0.32128823  0.37854918  1
  Ca2+  Ca20  1  -0.00293354  0.34994270  0.62416611  1
  Ca2+  Ca21  1  0.66331042  0.34823905  0.62185824  1
  Pr3+  Pr22  1  -0.00370071  0.67753994  0.12209408  1
  Pr3+  Pr23  1  0.49719396  0.15357583  0.87292799  1
  Pr3+  Pr24  1  0.16714076  0.84181395  0.62549181  1
  Pr3+  Pr25  1  0.33770027  0.98597462  0.37388970  1
  Pr3+  Pr26  1  0.66930471  0.32102396  0.87188640  1
  Pr3+  Pr27  1  0.83725802  0.85008579  0.12372417  1
  Pr3+  Pr28  1  0.66837744  0.65316373  0.37456161  1
  Pr3+  Pr29  1  0.32782746  0.67508924  0.62478683  1
  Pr3+  Pr30  1  0.66467223  0.01330215  0.62582279  1
  Pr3+  Pr31  1  0.33627587  0.65229843  0.37459043  1
  Pr3+  Pr32  1  0.66680649  0.67730601  0.62375804  1
  Pr3+  Pr33  1  0.83724447  0.18345353  0.62550513  1
  Pr3+  Pr34  1  0.83041043  0.15375091  0.87364349  1
  Pr3+  Pr35  1  1.00092585  0.65232213  0.37582395  1
  Pr3+  Pr36  1  0.50388948  0.84366118  0.62340285  1
  Pr3+  Pr37  1  0.83201635  0.82098043  0.37507434  1
  Pr3+  Pr38  1  0.33657103  0.32259927  0.37850783  1
  Pr3+  Pr39  1  0.16781309  0.51223685  0.12412528  1
  Pr3+  Pr40  1  0.83599721  0.17693382  0.12400945  1
  Pr3+  Pr41  1  0.83383562  0.49114254  0.87485323  1
  Pr3+  Pr42  1  0.66690562  0.67764038  0.12651522  1
  Pr3+  Pr43  1  0.16848836  0.17607526  0.12499101  1
  Pr3+  Pr44  1  0.83680326  0.51128902  0.62493385  1
  Pr3+  Pr45  1  0.33076063  0.34384485  0.12492095  1
  Pr3+  Pr46  1  0.33511486  0.65226166  0.87535753  1
  Pr3+  Pr47  1  0.16071399  0.81885119  0.87648329  1
  Pr3+  Pr48  1  0.50238948  0.51156439  0.12635095  1
  Pr3+  Pr49  1  -0.00380063  0.01019495  0.62442997  1
  Pr3+  Pr50  1  0.49936421  0.82173541  0.87623901  1
  Pr3+  Pr51  1  0.16013196  0.48396769  0.37637415  1
  Pr3+  Pr52  1  0.83112144  0.15919474  0.37559315  1
  Pr3+  Pr53  1  0.16782057  0.15681041  0.87417879  1
  Pr3+  Pr54  1  1.00476163  0.32402913  0.87162203  1
  Pr3+  Pr55  1  0.50369800  0.84750242  0.12628842  1
  Pr3+  Pr56  1  0.17010035  0.18249357  0.62514009  1
  Pr3+  Pr57  1  0.67004042  0.65683456  0.87547738  1
  Pr3+  Pr58  1  -0.00514741  0.34705044  0.12564592  1
  Pr3+  Pr59  1  0.66886754  0.98831246  0.37373360  1
  Pr3+  Pr60  1  0.50033753  0.15741551  0.37736412  1
  Pr3+  Pr61  1  1.00308589  0.98715723  0.37324885  1
  Pr3+  Pr62  1  1.00232649  0.98767840  0.87653255  1
  Pr3+  Pr63  1  0.16258798  0.81999700  0.37372698  1
  Pr3+  Pr64  1  0.32714495  0.68249622  0.12555138  1
  Pr3+  Pr65  1  0.50109231  0.50998057  0.62357409  1
  Pr3+  Pr66  1  0.16341559  0.15466004  0.37571407  1
  Pr3+  Pr67  1  0.33148745  0.01327448  0.62534925  1
  Pr3+  Pr68  1  0.50303736  0.17603635  0.12510281  1
  Pr3+  Pr69  1  0.66541450  0.34372482  0.12659392  1
  Pr3+  Pr70  1  0.33709485  0.98729370  0.87646358  1
  Pr3+  Pr71  1  0.49365826  0.48281069  0.87479833  1
  Mn3.30+  Mn72  1  0.16765957  0.00026150  0.00198592  1
  Mn3.30+  Mn73  1  0.16672893  -0.00056825  0.50044867  1
  Mn3.30+  Mn74  1  0.16721498  0.33279237  -0.00183546  1
  Mn3.30+  Mn75  1  0.16579595  0.33325193  0.50204895  1
  Mn3.30+  Mn76  1  0.16373590  0.66742184  0.00018872  1
  Mn3.30+  Mn77  1  0.16571571  0.66569907  0.50073612  1
  Mn3.30+  Mn78  1  0.49949909  -0.00045675  0.00030677  1
  Mn3.30+  Mn79  1  0.50039252  0.00038263  0.50038982  1
  Mn3.30+  Mn80  1  0.49900557  0.33112494  -0.00048884  1
  Mn3.30+  Mn81  1  0.50193182  0.33336293  0.50172020  1
  Mn3.30+  Mn82  1  0.49953241  0.66625194  0.00158175  1
  Mn3.30+  Mn83  1  0.49893327  0.66662756  0.49873239  1
  Mn3.30+  Mn84  1  0.83566978  0.00011576  0.00008106  1
  Mn3.30+  Mn85  1  0.83277574  -0.00010789  0.50007626  1
  Mn3.30+  Mn86  1  0.83386024  0.33517226  -0.00037424  1
  Mn3.30+  Mn87  1  0.83284790  0.33432943  0.50006756  1
  Mn3.30+  Mn88  1  0.83472033  0.66801638  -0.00129289  1
  Mn3.30+  Mn89  1  0.83371761  0.66735210  0.50072257  1
  Mn3.30+  Mn90  1  0.00011693  0.16778518  0.25044813  1
  Mn3.30+  Mn91  1  0.00060780  0.16764758  0.74854162  1
  Mn3.30+  Mn92  1  -0.00238560  0.49791253  0.25112184  1
  Mn3.30+  Mn93  1  0.00010711  0.50051799  0.74929348  1
  Mn3.30+  Mn94  1  0.00217147  0.83393046  0.24583570  1
  Mn3.30+  Mn95  1  -0.00339571  0.83190405  0.75235738  1
  Mn3.30+  Mn96  1  0.33363403  0.16574028  0.25068256  1
  Mn3.30+  Mn97  1  0.33566431  0.16965875  0.74700415  1
  Mn3.30+  Mn98  1  0.33270097  0.49887444  0.25003022  1
  Mn3.30+  Mn99  1  0.33227482  0.49640996  0.75041757  1
  Mn3.30+  Mn100  1  0.33241483  0.83553026  0.24914306  1
  Mn3.30+  Mn101  1  0.33318723  0.83221394  0.75059544  1
  Mn3.30+  Mn102  1  0.66712635  0.16768796  0.25102145  1
  Mn3.30+  Mn103  1  0.66546837  0.16811721  0.74712321  1
  Mn3.30+  Mn104  1  0.66889336  0.49753782  0.24948443  1
  Mn3.30+  Mn105  1  0.66573417  0.49962659  0.75046937  1
  Mn3.30+  Mn106  1  0.66532321  0.83365159  0.25138379  1
  Mn3.30+  Mn107  1  0.67053822  0.83350078  0.74896694  1
  Mn3.30+  Mn108  1  0.16801577  -0.00001839  0.24764456  1
  Mn3.30+  Mn109  1  0.16695652  -0.00030135  0.75029328  1
  Mn3.30+  Mn110  1  0.16442419  0.33160118  0.25046904  1
  Mn3.30+  Mn111  1  0.16921407  0.33453308  0.74897164  1
  Mn3.30+  Mn112  1  0.16545718  0.66771611  0.24899499  1
  Mn3.30+  Mn113  1  0.16401554  0.66548207  0.75058833  1
  Mn3.30+  Mn114  1  0.49934596  -0.00017118  0.25078450  1
  Mn3.30+  Mn115  1  0.50042606  0.00016327  0.74850773  1
  Mn3.30+  Mn116  1  0.50112176  0.33250636  0.25296490  1
  Mn3.30+  Mn117  1  0.49943325  0.33238858  0.74621672  1
  Mn3.30+  Mn118  1  0.49830958  0.66712658  0.25005220  1
  Mn3.30+  Mn119  1  0.50006426  0.66604008  0.74985577  1
  Mn3.30+  Mn120  1  0.83550450  0.00211933  0.24952728  1
  Mn3.30+  Mn121  1  0.83254034  -0.00242531  0.74957551  1
  Mn3.30+  Mn122  1  0.83281531  0.33419854  0.25214072  1
  Mn3.30+  Mn123  1  0.83388720  0.33509518  0.74817006  1
  Mn3.30+  Mn124  1  0.83383724  0.66569955  0.24829110  1
  Mn3.30+  Mn125  1  0.83472956  0.66942390  0.75208920  1
  Mn3.30+  Mn126  1  0.00096423  0.16653841  -0.00073159  1
  Mn3.30+  Mn127  1  -0.00051855  0.16961659  0.50095058  1
  Mn3.30+  Mn128  1  -0.00042922  0.50049863  -0.00002096  1
  Mn3.30+  Mn129  1  -0.00218743  0.49758568  0.49979357  1
  Mn3.30+  Mn130  1  0.00075190  0.83390427  0.00063178  1
  Mn3.30+  Mn131  1  -0.00214586  0.83237779  0.50142645  1
  Mn3.30+  Mn132  1  0.33385400  0.16666745  -0.00034850  1
  Mn3.30+  Mn133  1  0.33514906  0.16821080  0.50253883  1
  Mn3.30+  Mn134  1  0.33276038  0.49769944  -0.00028818  1
  Mn3.30+  Mn135  1  0.33228472  0.49795461  0.50025208  1
  Mn3.30+  Mn136  1  0.33036544  0.83512913  0.00201830  1
  Mn3.30+  Mn137  1  0.33489596  0.83240951  0.49863517  1
  Mn3.30+  Mn138  1  0.66739949  0.16619270  -0.00080455  1
  Mn3.30+  Mn139  1  0.66581135  0.16995074  0.50223580  1
  Mn3.30+  Mn140  1  0.66751648  0.49983463  0.00073711  1
  Mn3.30+  Mn141  1  0.66768048  0.49696378  0.49970056  1
  Mn3.30+  Mn142  1  0.66899596  0.83342482  -0.00048031  1
  Mn3.30+  Mn143  1  0.66704193  0.83324659  0.49917322  1
  O2-  O144  1  0.02444232  0.16184036  0.12504237  1
  O2-  O145  1  0.02655581  0.15634088  0.62591907  1
  O2-  O146  1  0.02456975  0.49442956  0.12719219  1
  O2-  O147  1  0.01472438  0.49617425  0.62435014  1
  O2-  O148  1  0.03035848  0.82304377  0.12441717  1
  O2-  O149  1  0.02389566  0.83369075  0.62722003  1
  O2-  O150  1  0.35883840  0.16075623  0.12813690  1
  O2-  O151  1  0.36296184  0.15751113  0.62428320  1
  O2-  O152  1  0.35746058  0.49259095  0.12488865  1
  O2-  O153  1  0.35694816  0.49750258  0.62690497  1
  O2-  O154  1  0.36046477  0.82746530  0.12491083  1
  O2-  O155  1  0.35958623  0.82372963  0.62312273  1
  O2-  O156  1  0.69040293  0.16743269  0.12536681  1
  O2-  O157  1  0.69408591  0.15950844  0.62499970  1
  O2-  O158  1  0.69465933  0.49129934  0.12359882  1
  O2-  O159  1  0.69158363  0.49647938  0.62637122  1
  O2-  O160  1  0.69189718  0.82729723  0.12689963  1
  O2-  O161  1  0.69442039  0.82634908  0.62341229  1
  O2-  O162  1  0.14010717  0.32532215  0.12537484  1
  O2-  O163  1  0.13972629  0.32843313  0.62421260  1
  O2-  O164  1  0.14029916  0.65930559  0.12494432  1
  O2-  O165  1  0.14913927  0.67032160  0.62419295  1
  O2-  O166  1  0.13990440  0.99953594  0.12345948  1
  O2-  O167  1  0.14100943  0.99215496  0.62509553  1
  O2-  O168  1  0.47484525  0.32497788  0.12607635  1
  O2-  O169  1  0.47218351  0.33129305  0.62516311  1
  O2-  O170  1  0.47192937  0.66019625  0.12547484  1
  O2-  O171  1  0.47288068  0.66163459  0.62498705  1
  O2-  O172  1  0.47380955  0.99583491  0.12630401  1
  O2-  O173  1  0.47427108  0.98936814  0.62380405  1
  O2-  O174  1  0.80857973  0.32424187  0.12309006  1
  O2-  O175  1  0.80548011  0.33090801  0.62605716  1
  O2-  O176  1  0.81047644  0.66122857  0.12423729  1
  O2-  O177  1  0.81001787  0.65921275  0.62679165  1
  O2-  O178  1  0.81435530  0.99912061  0.12661579  1
  O2-  O179  1  0.80928235  0.99178037  0.62404424  1
  O2-  O180  1  0.30758631  0.17390577  0.37736589  1
  O2-  O181  1  0.31119249  0.17324196  0.87150355  1
  O2-  O182  1  0.30605849  0.50317369  0.37218136  1
  O2-  O183  1  0.31464969  0.50559651  0.87658876  1
  O2-  O184  1  0.30544828  0.83925974  0.37411156  1
  O2-  O185  1  0.30582149  0.83989162  0.87825947  1
  O2-  O186  1  0.64436466  0.17384950  0.37758490  1
  O2-  O187  1  0.64212344  0.17293776  0.87150283  1
  O2-  O188  1  0.64804410  0.50674349  0.37415685  1
  O2-  O189  1  0.63775030  0.50697705  0.87656368  1
  O2-  O190  1  0.63854132  0.83912444  0.37487680  1
  O2-  O191  1  0.64285951  0.82985566  0.87399973  1
  O2-  O192  1  0.97579826  0.17419651  0.37635560  1
  O2-  O193  1  0.97500459  0.17492881  0.87190281  1
  O2-  O194  1  0.97880672  0.50581953  0.37371703  1
  O2-  O195  1  0.97818743  0.49948356  0.87520131  1
  O2-  O196  1  0.97673348  0.83862177  0.37164307  1
  O2-  O197  1  0.97289664  0.84345505  0.87703181  1
  O2-  O198  1  0.19275073  0.00522409  0.37660151  1
  O2-  O199  1  0.19407951  0.00591879  0.87501314  1
  O2-  O200  1  0.19188319  0.33476826  0.37514737  1
  O2-  O201  1  0.19249495  0.33099236  0.87500612  1
  O2-  O202  1  0.19166889  0.67250128  0.37344445  1
  O2-  O203  1  0.19178955  0.67222073  0.87719819  1
  O2-  O204  1  0.52563075  0.00883710  0.37760310  1
  O2-  O205  1  0.51908168  0.00385132  0.87229499  1
  O2-  O206  1  0.52692444  0.33198746  0.37567771  1
  O2-  O207  1  0.52586909  0.33617753  0.87340873  1
  O2-  O208  1  0.52396312  0.67278218  0.37329041  1
  O2-  O209  1  0.52509588  0.67302067  0.87625569  1
  O2-  O210  1  0.85927203  0.00742414  0.37404847  1
  O2-  O211  1  0.85860202  0.00771126  0.87445176  1
  O2-  O212  1  0.85924909  0.32931894  0.37552442  1
  O2-  O213  1  0.86056077  0.34075558  0.87547381  1
  O2-  O214  1  0.85704173  0.67374648  0.37282375  1
  O2-  O215  1  0.85844052  0.67502243  0.87626271  1
  O2-  O216  1  0.23768221  0.09653504  0.01663586  1
  O2-  O217  1  0.23847037  0.09388843  0.52232625  1
  O2-  O218  1  0.23769879  0.42437421  0.02395784  1
  O2-  O219  1  0.23800382  0.42665038  0.51322700  1
  O2-  O220  1  0.23604408  0.76466713  0.02308517  1
  O2-  O221  1  0.23935332  0.76228258  0.51790394  1
  O2-  O222  1  0.56977302  0.09549029  0.01576257  1
  O2-  O223  1  0.57291629  0.09687769  0.52232496  1
  O2-  O224  1  0.56963502  0.42580057  0.02068688  1
  O2-  O225  1  0.57133860  0.42789663  0.52143079  1
  O2-  O226  1  0.57047064  0.75842620  0.02230870  1
  O2-  O227  1  0.57482771  0.75929730  0.52213088  1
  O2-  O228  1  0.90693807  0.09662201  0.01532319  1
  O2-  O229  1  0.90532816  0.09693766  0.52086695  1
  O2-  O230  1  0.90332157  0.42912044  0.02180601  1
  O2-  O231  1  0.90153084  0.42697610  0.51917031  1
  O2-  O232  1  0.90608684  0.76244831  0.02461795  1
  O2-  O233  1  0.90167531  0.76627983  0.51579132  1
  O2-  O234  1  0.26238709  0.25958697  0.22971269  1
  O2-  O235  1  0.26288272  0.25976363  0.72421813  1
  O2-  O236  1  0.25887014  0.59637541  0.22826708  1
  O2-  O237  1  0.26422006  0.59506984  0.73632015  1
  O2-  O238  1  0.26645609  0.93268768  0.23086625  1
  O2-  O239  1  0.26132594  0.92715107  0.72853507  1
  O2-  O240  1  0.59250017  0.25851649  0.22793989  1
  O2-  O241  1  0.59774288  0.26607750  0.72923172  1
  O2-  O242  1  0.59357188  0.59108268  0.22857080  1
  O2-  O243  1  0.59376994  0.59506107  0.72815867  1
  O2-  O244  1  0.59341973  0.92568949  0.23193900  1
  O2-  O245  1  0.59547388  0.92487124  0.72750898  1
  O2-  O246  1  0.92635602  0.26032242  0.22687855  1
  O2-  O247  1  0.92904198  0.26378406  0.72737255  1
  O2-  O248  1  0.93136107  0.59585803  0.23241274  1
  O2-  O249  1  0.92112146  0.59134726  0.73610036  1
  O2-  O250  1  0.93223283  0.92787244  0.22866617  1
  O2-  O251  1  0.93127538  0.93150030  0.73319097  1
  O2-  O252  1  0.09562030  0.23585770  0.26849089  1
  O2-  O253  1  0.09773717  0.23895721  0.76859773  1
  O2-  O254  1  0.09438049  0.56949167  0.26950349  1
  O2-  O255  1  0.09005133  0.57594597  0.76561515  1
  O2-  O256  1  0.09645948  0.90616627  0.27088735  1
  O2-  O257  1  0.09408805  0.90441061  0.77164919  1
  O2-  O258  1  0.42723691  0.23815852  0.27203954  1
  O2-  O259  1  0.43148426  0.23726100  0.76848071  1
  O2-  O260  1  0.42447032  0.57339740  0.26797884  1
  O2-  O261  1  0.42822007  0.57077934  0.77047735  1
  O2-  O262  1  0.42875076  0.90346472  0.27285815  1
  O2-  O263  1  0.42709993  0.90289475  0.76970777  1
  O2-  O264  1  0.76313192  0.23737592  0.26650186  1
  O2-  O265  1  0.76437476  0.24068066  0.77046831  1
  O2-  O266  1  0.75663235  0.57587283  0.26594702  1
  O2-  O267  1  0.75928737  0.57466013  0.77306514  1
  O2-  O268  1  0.76180970  0.90685548  0.27016211  1
  O2-  O269  1  0.76393667  0.90232129  0.76946226  1
  O2-  O270  1  0.07031230  0.07287215  0.47882008  1
  O2-  O271  1  0.07619230  0.07394794  0.97598650  1
  O2-  O272  1  0.07314294  0.40420077  0.47809789  1
  O2-  O273  1  0.07064582  0.40093432  0.98447241  1
  O2-  O274  1  0.07346613  0.73978843  0.47819918  1
  O2-  O275  1  0.06890867  0.73780791  0.97615972  1
  O2-  O276  1  0.40420906  0.07182111  0.47930396  1
  O2-  O277  1  0.40486444  0.07312547  0.97865975  1
  O2-  O278  1  0.40618567  0.40490083  0.48193359  1
  O2-  O279  1  0.40579926  0.39980255  0.98022647  1
  O2-  O280  1  0.40321570  0.73801853  0.47886596  1
  O2-  O281  1  0.40211885  0.74004636  0.97993659  1
  O2-  O282  1  0.73810154  0.07199238  0.48031361  1
  O2-  O283  1  0.74282820  0.07793143  0.98138298  1
  O2-  O284  1  0.73670496  0.40264888  0.48154969  1
  O2-  O285  1  0.73777753  0.40639678  0.97682030  1
  O2-  O286  1  0.73766678  0.73896826  0.47731462  1
  O2-  O287  1  0.73728058  0.73648972  0.98477645  1
  O2-  O288  1  0.09809440  0.23569796  0.48355595  1
  O2-  O289  1  0.09490106  0.23848999  0.97863860  1
  O2-  O290  1  0.09335615  0.57375603  0.47867856  1
  O2-  O291  1  0.09352838  0.57187235  0.98695320  1
  O2-  O292  1  0.09460098  0.90491938  0.47975385  1
  O2-  O293  1  0.09579644  0.90637672  0.97760997  1
  O2-  O294  1  0.42877883  0.24083194  0.47874559  1
  O2-  O295  1  0.43143409  0.23512492  0.98281200  1
  O2-  O296  1  0.42393596  0.57399623  0.48173563  1
  O2-  O297  1  0.43009181  0.57185771  0.98119204  1
  O2-  O298  1  0.42817510  0.90280482  0.47736440  1
  O2-  O299  1  0.42693510  0.90404984  0.97950372  1
  O2-  O300  1  0.76513360  0.23640787  0.48507300  1
  O2-  O301  1  0.76188895  0.24173436  0.97681594  1
  O2-  O302  1  0.75686699  0.57561509  0.48440383  1
  O2-  O303  1  0.76038495  0.57544145  0.97679230  1
  O2-  O304  1  0.75797855  0.90650594  0.47363845  1
  O2-  O305  1  0.76742915  0.90405262  0.98485293  1
  O2-  O306  1  0.07325330  0.07372693  0.27273381  1
  O2-  O307  1  0.07381300  0.07181730  0.77171532  1
  O2-  O308  1  0.06884598  0.40315861  0.27103068  1
  O2-  O309  1  0.07227331  0.40500756  0.76608293  1
  O2-  O310  1  0.07070830  0.73714596  0.27135469  1
  O2-  O311  1  0.07041955  0.74205547  0.77392452  1
  O2-  O312  1  0.40593474  0.07438222  0.27454820  1
  O2-  O313  1  0.40289023  0.07125384  0.76904819  1
  O2-  O314  1  0.40436646  0.40109718  0.26716448  1
  O2-  O315  1  0.40623020  0.40445133  0.77235956  1
  O2-  O316  1  0.39985826  0.73886835  0.26739839  1
  O2-  O317  1  0.40564082  0.73798374  0.77258014  1
  O2-  O318  1  0.73870887  0.07577272  0.27255807  1
  O2-  O319  1  0.74108561  0.07289038  0.76592062  1
  O2-  O320  1  0.73501026  0.39922519  0.26772388  1
  O2-  O321  1  0.74025193  0.40877308  0.77454369  1
  O2-  O322  1  0.73755110  0.74088993  0.27103412  1
  O2-  O323  1  0.73527121  0.73513400  0.76622463  1
  O2-  O324  1  0.23741327  0.09687019  0.23314646  1
  O2-  O325  1  0.24021005  0.09561352  0.72851490  1
  O2-  O326  1  0.23660200  0.42693543  0.22998831  1
  O2-  O327  1  0.24090327  0.42527178  0.73153535  1
  O2-  O328  1  0.23689116  0.76626232  0.22795671  1
  O2-  O329  1  0.23956684  0.76164422  0.73218322  1
  O2-  O330  1  0.57120637  0.09638682  0.23509486  1
  O2-  O331  1  0.57093323  0.09520575  0.72701117  1
  O2-  O332  1  0.57307751  0.42562627  0.22633900  1
  O2-  O333  1  0.56783285  0.42963503  0.73288584  1
  O2-  O334  1  0.57281497  0.75816289  0.22670657  1
  O2-  O335  1  0.57280810  0.76123550  0.72857950  1
  O2-  O336  1  0.90636423  0.09808108  0.23258204  1
  O2-  O337  1  0.90485526  0.09442686  0.72920270  1
  O2-  O338  1  0.90298614  0.42763284  0.22644342  1
  O2-  O339  1  0.90219825  0.42921249  0.73376340  1
  O2-  O340  1  0.90591027  0.76291039  0.22808424  1
  O2-  O341  1  0.90197510  0.76467175  0.73142038  1
  O2-  O342  1  0.25989440  0.25838343  0.02302949  1
  O2-  O343  1  0.26251503  0.26169212  0.52313693  1
  O2-  O344  1  0.25972525  0.59648635  0.02029290  1
  O2-  O345  1  0.26146851  0.59665878  0.51494996  1
  O2-  O346  1  0.26414667  0.93251715  0.02102603  1
  O2-  O347  1  0.26363124  0.92583454  0.52158182  1
  O2-  O348  1  0.59486894  0.26151956  0.01873702  1
  O2-  O349  1  0.59564011  0.26250010  0.52311667  1
  O2-  O350  1  0.59611100  0.59196404  0.02471248  1
  O2-  O351  1  0.59234206  0.59260785  0.51940404  1
  O2-  O352  1  0.59066077  0.92237525  0.01735321  1
  O2-  O353  1  0.59630813  0.92756042  0.52152300  1
  O2-  O354  1  0.92758459  0.26226589  0.01936541  1
  O2-  O355  1  0.92902122  0.26181440  0.52525222  1
  O2-  O356  1  0.92616142  0.59573450  0.01693499  1
  O2-  O357  1  0.92417267  0.59490971  0.51481771  1
  O2-  O358  1  0.93368757  0.92918990  0.02359141  1
  O2-  O359  1  0.92973914  0.93139600  0.51441405  1
