# generated using pymatgen
data_Sr7Ca15Pr50Mn72O216
_symmetry_space_group_name_H-M   'P 1'
_cell_length_a   16.56080818
_cell_length_b   16.60367405
_cell_length_c   15.59277227
_cell_angle_alpha   90.00037108
_cell_angle_beta   90.00002778
_cell_angle_gamma   89.99720766
_symmetry_Int_Tables_number   1
_chemical_formula_structural   Sr7Ca15Pr50Mn72O216
_chemical_formula_sum   'Sr7 Ca15 Pr50 Mn72 O216'
_cell_volume   4287.54865838
_cell_formula_units_Z   1
loop_
 _symmetry_equiv_pos_site_id
 _symmetry_equiv_pos_as_xyz
  1  'x, y, z'
loop_
 _atom_type_symbol
 _atom_type_oxidation_number
  Sr2+  2.0
  Ca2+  2.0
  Pr3+  3.0
  Mn3.30+  3.3
  O2-  -2.0
loop_
 _atom_site_type_symbol
 _atom_site_label
 _atom_site_symmetry_multiplicity
 _atom_site_fract_x
 _atom_site_fract_y
 _atom_site_fract_z
 _atom_site_occupancy
  Sr2+  Sr0  1  0.16611494  0.49226538  0.37461601  1
  Sr2+  Sr1  1  0.33207648  0.65859341  0.37434218  1
  Sr2+  Sr2  1  0.66811318  0.34476371  0.62482421  1
  Sr2+  Sr3  1  0.33266653  0.67569212  0.12480469  1
  Sr2+  Sr4  1  0.33196227  0.67420809  0.62546823  1
  Sr2+  Sr5  1  0.16580188  0.82355395  0.37355434  1
  Sr2+  Sr6  1  0.16799248  0.82231665  0.87636514  1
  Ca2+  Ca7  1  0.66141006  0.34759704  0.12354964  1
  Ca2+  Ca8  1  0.66438714  0.01222571  0.12509272  1
  Ca2+  Ca9  1  0.50199739  0.15397424  0.87509001  1
  Ca2+  Ca10  1  0.83480829  0.51438268  0.62538381  1
  Ca2+  Ca11  1  0.83061164  0.81816663  0.37231960  1
  Ca2+  Ca12  1  0.33544268  0.32133642  0.37532406  1
  Ca2+  Ca13  1  1.00341884  0.32158558  0.37526684  1
  Ca2+  Ca14  1  0.66753930  0.32031763  0.87532755  1
  Ca2+  Ca15  1  1.00322040  0.98323504  0.37398640  1
  Ca2+  Ca16  1  0.49830495  0.48673789  0.87500069  1
  Ca2+  Ca17  1  0.50524538  0.84975887  0.12599423  1
  Ca2+  Ca18  1  0.83444498  0.84779306  0.12702826  1
  Ca2+  Ca19  1  0.34009158  0.64947121  0.87621701  1
  Ca2+  Ca20  1  0.65979259  0.68606309  0.12452117  1
  Ca2+  Ca21  1  0.83642880  0.18257549  0.62445729  1
  Pr3+  Pr22  1  0.16797668  0.49174566  0.87562167  1
  Pr3+  Pr23  1  0.83042604  0.51268467  0.12472048  1
  Pr3+  Pr24  1  -0.00302014  0.67734317  0.62452249  1
  Pr3+  Pr25  1  0.17005211  0.84398565  0.12676373  1
  Pr3+  Pr26  1  -0.00240199  0.34565373  0.12699045  1
  Pr3+  Pr27  1  0.33417354  0.00821946  0.12566391  1
  Pr3+  Pr28  1  0.83124472  0.17739666  0.12572429  1
  Pr3+  Pr29  1  0.83128122  0.48818342  0.37509215  1
  Pr3+  Pr30  1  0.83675414  0.84456752  0.62365950  1
  Pr3+  Pr31  1  0.33066956  0.01072653  0.62455441  1
  Pr3+  Pr32  1  0.34105749  0.31904488  0.87506179  1
  Pr3+  Pr33  1  0.16869413  0.51302350  0.62497393  1
  Pr3+  Pr34  1  0.33577091  0.98634586  0.37439585  1
  Pr3+  Pr35  1  1.00155687  0.32049036  0.87575314  1
  Pr3+  Pr36  1  0.67232498  0.98462499  0.37243795  1
  Pr3+  Pr37  1  0.49763436  0.15575009  0.37564223  1
  Pr3+  Pr38  1  0.16201899  0.15485089  0.37481935  1
  Pr3+  Pr39  1  0.49652779  0.82025903  0.37175104  1
  Pr3+  Pr40  1  0.66985434  0.65515488  0.37176342  1
  Pr3+  Pr41  1  1.00331788  0.65677991  0.37352095  1
  Pr3+  Pr42  1  0.82590015  0.48414067  0.87419713  1
  Pr3+  Pr43  1  -0.00268084  0.68129215  0.12533783  1
  Pr3+  Pr44  1  0.50248363  0.84371825  0.62365505  1
  Pr3+  Pr45  1  -0.00327553  0.00935947  0.12709278  1
  Pr3+  Pr46  1  0.66723237  0.98983678  0.87750598  1
  Pr3+  Pr47  1  0.66477044  0.67691683  0.62561253  1
  Pr3+  Pr48  1  0.66802384  0.65284562  0.87802840  1
  Pr3+  Pr49  1  -0.00746372  0.34780081  0.62329926  1
  Pr3+  Pr50  1  0.82849214  0.15549573  0.87402317  1
  Pr3+  Pr51  1  0.66903615  0.32163535  0.37358093  1
  Pr3+  Pr52  1  0.66577580  0.01410828  0.62430539  1
  Pr3+  Pr53  1  0.33205837  0.34599395  0.12595541  1
  Pr3+  Pr54  1  0.50744302  0.17968356  0.12349963  1
  Pr3+  Pr55  1  0.16949799  0.18027035  0.62473364  1
  Pr3+  Pr56  1  1.00178031  0.98625201  0.87580898  1
  Pr3+  Pr57  1  0.17054422  0.51309827  0.12520428  1
  Pr3+  Pr58  1  0.50493865  0.51527003  0.12375397  1
  Pr3+  Pr59  1  0.33123728  0.34689865  0.62408411  1
  Pr3+  Pr60  1  1.00166411  0.65472440  0.87627625  1
  Pr3+  Pr61  1  0.17156071  0.17859009  0.12555339  1
  Pr3+  Pr62  1  0.33821213  0.98757977  0.87532752  1
  Pr3+  Pr63  1  0.50277594  0.51389704  0.62616926  1
  Pr3+  Pr64  1  0.82826688  0.82070036  0.87748415  1
  Pr3+  Pr65  1  0.16465123  0.15326255  0.87530385  1
  Pr3+  Pr66  1  -0.00494884  0.01478604  0.62302230  1
  Pr3+  Pr67  1  0.49328144  0.48669790  0.37458104  1
  Pr3+  Pr68  1  0.50440330  0.18142610  0.62653254  1
  Pr3+  Pr69  1  0.16936101  0.84284888  0.62339702  1
  Pr3+  Pr70  1  0.49480970  0.82011321  0.87798244  1
  Pr3+  Pr71  1  0.83365444  0.15487921  0.37634337  1
  Mn3.30+  Mn72  1  0.16684081  -0.00095739  0.00041866  1
  Mn3.30+  Mn73  1  0.16348356  -0.00058171  0.49908812  1
  Mn3.30+  Mn74  1  0.16814300  0.33337887  -0.00036610  1
  Mn3.30+  Mn75  1  0.16452844  0.33421422  0.49791567  1
  Mn3.30+  Mn76  1  0.16936715  0.66708375  -0.00176552  1
  Mn3.30+  Mn77  1  0.16559766  0.66645200  0.49933999  1
  Mn3.30+  Mn78  1  0.50232572  0.00077876  0.00110562  1
  Mn3.30+  Mn79  1  0.50130302  0.00030637  0.49959391  1
  Mn3.30+  Mn80  1  0.50324247  0.33351215  -0.00239674  1
  Mn3.30+  Mn81  1  0.49949354  0.33389456  0.50021301  1
  Mn3.30+  Mn82  1  0.50071214  0.66777307  0.00094461  1
  Mn3.30+  Mn83  1  0.50046499  0.66684709  0.49936072  1
  Mn3.30+  Mn84  1  0.83118287  -0.00058124  0.00320394  1
  Mn3.30+  Mn85  1  0.83514795  -0.00044203  0.49726788  1
  Mn3.30+  Mn86  1  0.82919288  0.33289611  0.00201585  1
  Mn3.30+  Mn87  1  0.83463619  0.33426802  0.49947689  1
  Mn3.30+  Mn88  1  0.82998414  0.66797271  0.00358576  1
  Mn3.30+  Mn89  1  0.83329081  0.66654505  0.49858534  1
  Mn3.30+  Mn90  1  -0.00006286  0.16653074  0.25046575  1
  Mn3.30+  Mn91  1  -0.00177564  0.16728233  0.74968282  1
  Mn3.30+  Mn92  1  -0.00076294  0.49954261  0.24911148  1
  Mn3.30+  Mn93  1  -0.00275057  0.49973642  0.75149758  1
  Mn3.30+  Mn94  1  -0.00327354  0.83434967  0.25076315  1
  Mn3.30+  Mn95  1  0.00062536  0.83263199  0.75073072  1
  Mn3.30+  Mn96  1  0.33454433  0.16742095  0.25085346  1
  Mn3.30+  Mn97  1  0.33586758  0.16592500  0.75022730  1
  Mn3.30+  Mn98  1  0.33384658  0.49970829  0.25128100  1
  Mn3.30+  Mn99  1  0.33536962  0.49994457  0.75172903  1
  Mn3.30+  Mn100  1  0.33589480  0.83179628  0.24771759  1
  Mn3.30+  Mn101  1  0.33361556  0.83037263  0.75074383  1
  Mn3.30+  Mn102  1  0.66683349  0.16632676  0.24976147  1
  Mn3.30+  Mn103  1  0.66707824  0.16932542  0.74996167  1
  Mn3.30+  Mn104  1  0.66490765  0.50040384  0.24908010  1
  Mn3.30+  Mn105  1  0.66551643  0.49826367  0.75078195  1
  Mn3.30+  Mn106  1  0.66836586  0.83422344  0.24648224  1
  Mn3.30+  Mn107  1  0.66617927  0.83375515  0.75083999  1
  Mn3.30+  Mn108  1  0.16465749  -0.00054609  0.25101469  1
  Mn3.30+  Mn109  1  0.16572176  -0.00094757  0.74947951  1
  Mn3.30+  Mn110  1  0.16634856  0.33371894  0.25291746  1
  Mn3.30+  Mn111  1  0.16651604  0.33371036  0.75067512  1
  Mn3.30+  Mn112  1  0.16642843  0.66683920  0.24982207  1
  Mn3.30+  Mn113  1  0.16834479  0.66661372  0.75289505  1
  Mn3.30+  Mn114  1  0.50345302  0.00037326  0.24926545  1
  Mn3.30+  Mn115  1  0.50063140  0.00062879  0.74974673  1
  Mn3.30+  Mn116  1  0.49993302  0.33344534  0.24932000  1
  Mn3.30+  Mn117  1  0.50296241  0.33408744  0.75236680  1
  Mn3.30+  Mn118  1  0.50198163  0.66879649  0.24674474  1
  Mn3.30+  Mn119  1  0.49884584  0.66594004  0.75235661  1
  Mn3.30+  Mn120  1  0.83329370  -0.00233613  0.25078178  1
  Mn3.30+  Mn121  1  0.83283214  0.00127147  0.74924287  1
  Mn3.30+  Mn122  1  0.83292164  0.33350189  0.24971881  1
  Mn3.30+  Mn123  1  0.83135621  0.33311228  0.74897003  1
  Mn3.30+  Mn124  1  0.83141486  0.66957294  0.24697172  1
  Mn3.30+  Mn125  1  0.83226259  0.66516418  0.75061034  1
  Mn3.30+  Mn126  1  -0.00072321  0.16605758  0.00155566  1
  Mn3.30+  Mn127  1  -0.00095151  0.16814048  0.49875490  1
  Mn3.30+  Mn128  1  -0.00195287  0.49980764  0.00028642  1
  Mn3.30+  Mn129  1  -0.00179011  0.49968423  0.49954764  1
  Mn3.30+  Mn130  1  -0.00174907  0.83340441  0.00114808  1
  Mn3.30+  Mn131  1  -0.00081998  0.83362231  0.49734028  1
  Mn3.30+  Mn132  1  0.33742824  0.16525228  0.00005116  1
  Mn3.30+  Mn133  1  0.33271131  0.16791358  0.49920901  1
  Mn3.30+  Mn134  1  0.33691446  0.49995462  -0.00100226  1
  Mn3.30+  Mn135  1  0.33251653  0.49983395  0.49818234  1
  Mn3.30+  Mn136  1  0.33537336  0.83084592  0.00146809  1
  Mn3.30+  Mn137  1  0.33403270  0.83143345  0.50000216  1
  Mn3.30+  Mn138  1  0.66567895  0.16817245  -0.00084296  1
  Mn3.30+  Mn139  1  0.66848924  0.16770520  0.50059381  1
  Mn3.30+  Mn140  1  0.66385416  0.49834917  -0.00037706  1
  Mn3.30+  Mn141  1  0.66698030  0.50036390  0.50055692  1
  Mn3.30+  Mn142  1  0.66456306  0.83514933  0.00401711  1
  Mn3.30+  Mn143  1  0.66954400  0.83243967  0.49796350  1
  O2-  O144  1  0.02774182  0.15821336  0.12522785  1
  O2-  O145  1  0.02642410  0.16186696  0.62465443  1
  O2-  O146  1  0.02543193  0.49311086  0.12431876  1
  O2-  O147  1  0.02423477  0.49514376  0.62868705  1
  O2-  O148  1  0.02549403  0.83078451  0.12360485  1
  O2-  O149  1  0.02419566  0.82640550  0.62539097  1
  O2-  O150  1  0.36171992  0.15895626  0.12577242  1
  O2-  O151  1  0.35967957  0.15935402  0.62449952  1
  O2-  O152  1  0.35913326  0.49289555  0.12446273  1
  O2-  O153  1  0.35751684  0.49476647  0.62543637  1
  O2-  O154  1  0.36034497  0.83612522  0.12445895  1
  O2-  O155  1  0.35849056  0.83204344  0.62589753  1
  O2-  O156  1  0.68808406  0.15770412  0.12565242  1
  O2-  O157  1  0.69340936  0.16112630  0.62347171  1
  O2-  O158  1  0.68835767  0.48957476  0.12517915  1
  O2-  O159  1  0.69182522  0.50226274  0.62438791  1
  O2-  O160  1  0.69487664  0.82796091  0.12477581  1
  O2-  O161  1  0.69323356  0.82623293  0.62310329  1
  O2-  O162  1  0.14216024  0.32668706  0.12435889  1
  O2-  O163  1  0.13814931  0.32746651  0.62617492  1
  O2-  O164  1  0.14308213  0.66243793  0.12279718  1
  O2-  O165  1  0.14171622  0.66257467  0.62779881  1
  O2-  O166  1  0.14219411  0.99520866  0.12567681  1
  O2-  O167  1  0.14018045  0.99393342  0.62456838  1
  O2-  O168  1  0.47517429  0.32636807  0.12413909  1
  O2-  O169  1  0.47499893  0.32841973  0.62567557  1
  O2-  O170  1  0.48018016  0.66064420  0.12308933  1
  O2-  O171  1  0.48269136  0.66334617  0.62817451  1
  O2-  O172  1  0.47758040  0.99913070  0.12608418  1
  O2-  O173  1  0.47554719  0.99352060  0.62383644  1
  O2-  O174  1  0.80404365  0.32652277  0.12542946  1
  O2-  O175  1  0.81659342  0.32602235  0.62481867  1
  O2-  O176  1  0.80138914  0.65815421  0.12415387  1
  O2-  O177  1  0.80851148  0.66169049  0.62652167  1
  O2-  O178  1  0.80610527  0.99480623  0.12600162  1
  O2-  O179  1  0.80779388  0.99049367  0.62178621  1
  O2-  O180  1  0.30692465  0.17352768  0.37531877  1
  O2-  O181  1  0.30802928  0.17024350  0.87479832  1
  O2-  O182  1  0.31688758  0.50351392  0.37506239  1
  O2-  O183  1  0.31140001  0.50038425  0.87539978  1
  O2-  O184  1  0.31707722  0.83857626  0.37392376  1
  O2-  O185  1  0.31631296  0.84283814  0.87537799  1
  O2-  O186  1  0.64219008  0.17239106  0.37566075  1
  O2-  O187  1  0.64379590  0.17236640  0.87427677  1
  O2-  O188  1  0.63853231  0.50741445  0.37361081  1
  O2-  O189  1  0.63967587  0.50771551  0.87619301  1
  O2-  O190  1  0.64034916  0.83719796  0.37433250  1
  O2-  O191  1  0.63996021  0.84176938  0.87760563  1
  O2-  O192  1  0.97591761  0.17814404  0.37314627  1
  O2-  O193  1  0.97343227  0.17191005  0.87710277  1
  O2-  O194  1  0.97422582  0.50921645  0.37116857  1
  O2-  O195  1  0.97026884  0.50597893  0.87637419  1
  O2-  O196  1  0.97290909  0.83552759  0.37397173  1
  O2-  O197  1  0.97269118  0.83806479  0.87693660  1
  O2-  O198  1  0.19173769  0.00604448  0.37533684  1
  O2-  O199  1  0.19259496  0.00602916  0.87459351  1
  O2-  O200  1  0.19318501  0.33430230  0.37502629  1
  O2-  O201  1  0.19505788  0.34001955  0.87541264  1
  O2-  O202  1  0.18035658  0.66776572  0.37309025  1
  O2-  O203  1  0.19407089  0.66478917  0.87602589  1
  O2-  O204  1  0.52701362  0.00673497  0.37567818  1
  O2-  O205  1  0.52322384  0.00431241  0.87432382  1
  O2-  O206  1  0.52484314  0.33751367  0.37478014  1
  O2-  O207  1  0.52659938  0.34291992  0.87496631  1
  O2-  O208  1  0.52642716  0.67247253  0.37160110  1
  O2-  O209  1  0.52667076  0.67489252  0.87698010  1
  O2-  O210  1  0.86286728  0.00915743  0.37581902  1
  O2-  O211  1  0.85841695  0.00732766  0.87653960  1
  O2-  O212  1  0.86096180  0.34057304  0.37263756  1
  O2-  O213  1  0.85858566  0.33631647  0.87721591  1
  O2-  O214  1  0.85903222  0.67215291  0.37054061  1
  O2-  O215  1  0.85715007  0.67268320  0.87834559  1
  O2-  O216  1  0.23930983  0.09249042  0.02090658  1
  O2-  O217  1  0.23861051  0.09413647  0.52099095  1
  O2-  O218  1  0.23890670  0.42615201  0.02069763  1
  O2-  O219  1  0.23632834  0.42403035  0.52362341  1
  O2-  O220  1  0.23812445  0.76242936  0.01985607  1
  O2-  O221  1  0.23730003  0.75937621  0.51757128  1
  O2-  O222  1  0.57107401  0.09719678  0.01484591  1
  O2-  O223  1  0.57228011  0.09400980  0.52140613  1
  O2-  O224  1  0.56959041  0.42919090  0.02038238  1
  O2-  O225  1  0.56938325  0.43167039  0.51650719  1
  O2-  O226  1  0.56871762  0.76819637  0.01927879  1
  O2-  O227  1  0.57463360  0.76112746  0.51932229  1
  O2-  O228  1  0.90392925  0.09248289  0.02342590  1
  O2-  O229  1  0.90451143  0.09749941  0.52199795  1
  O2-  O230  1  0.90178801  0.42543601  0.02194525  1
  O2-  O231  1  0.90248477  0.43109004  0.52051522  1
  O2-  O232  1  0.90310829  0.76278682  0.02289303  1
  O2-  O233  1  0.90599847  0.76005250  0.52176759  1
  O2-  O234  1  0.26196933  0.25803035  0.22634903  1
  O2-  O235  1  0.26382274  0.25917644  0.72905432  1
  O2-  O236  1  0.25708272  0.58809108  0.23113458  1
  O2-  O237  1  0.25618738  0.58895139  0.73268736  1
  O2-  O238  1  0.26155036  0.92623035  0.23152444  1
  O2-  O239  1  0.26134966  0.92643542  0.72885375  1
  O2-  O240  1  0.59571378  0.26489155  0.23022812  1
  O2-  O241  1  0.59294116  0.25914835  0.72903180  1
  O2-  O242  1  0.59768911  0.59771904  0.22782776  1
  O2-  O243  1  0.59577023  0.59567896  0.73184943  1
  O2-  O244  1  0.60193696  0.93136072  0.23231086  1
  O2-  O245  1  0.59581838  0.92804928  0.72767165  1
  O2-  O246  1  0.92717676  0.25769371  0.22445216  1
  O2-  O247  1  0.93295328  0.26369635  0.73497466  1
  O2-  O248  1  0.92379571  0.59475872  0.22568197  1
  O2-  O249  1  0.92906371  0.59537375  0.73281162  1
  O2-  O250  1  0.92722621  0.92825865  0.22901535  1
  O2-  O251  1  0.92745110  0.92911515  0.73025373  1
  O2-  O252  1  0.09838952  0.23620616  0.26564669  1
  O2-  O253  1  0.09711539  0.23926868  0.77294220  1
  O2-  O254  1  0.08843741  0.57423336  0.26334714  1
  O2-  O255  1  0.09193785  0.57125649  0.77235787  1
  O2-  O256  1  0.09159772  0.90625140  0.26466284  1
  O2-  O257  1  0.09171015  0.90751560  0.76920178  1
  O2-  O258  1  0.43087781  0.23665237  0.26833249  1
  O2-  O259  1  0.43189895  0.23798816  0.77142274  1
  O2-  O260  1  0.43204529  0.57027630  0.26406692  1
  O2-  O261  1  0.43161545  0.57018112  0.76911158  1
  O2-  O262  1  0.42911735  0.90982550  0.26990199  1
  O2-  O263  1  0.42916378  0.90462335  0.76786973  1
  O2-  O264  1  0.76206149  0.23818797  0.27168512  1
  O2-  O265  1  0.76306619  0.23811032  0.76852025  1
  O2-  O266  1  0.76154555  0.57172991  0.27026932  1
  O2-  O267  1  0.75870735  0.57244659  0.77335305  1
  O2-  O268  1  0.76304039  0.90487969  0.27528869  1
  O2-  O269  1  0.76113728  0.90580154  0.77061379  1
  O2-  O270  1  0.06839782  0.07267270  0.47849186  1
  O2-  O271  1  0.07228723  0.07340955  0.97807515  1
  O2-  O272  1  0.06685602  0.40226755  0.48317700  1
  O2-  O273  1  0.07098570  0.40701969  0.97873417  1
  O2-  O274  1  0.06810442  0.73719058  0.48490714  1
  O2-  O275  1  0.06795310  0.73725385  0.98350583  1
  O2-  O276  1  0.40329590  0.07348705  0.47847624  1
  O2-  O277  1  0.40415350  0.06898167  0.98270544  1
  O2-  O278  1  0.40466752  0.40258421  0.48102817  1
  O2-  O279  1  0.40371543  0.40036089  0.98340504  1
  O2-  O280  1  0.41238327  0.74247593  0.48220284  1
  O2-  O281  1  0.40499684  0.73715509  0.97716100  1
  O2-  O282  1  0.74005394  0.07017797  0.47819856  1
  O2-  O283  1  0.73952244  0.07485844  0.97818735  1
  O2-  O284  1  0.73798770  0.40820107  0.47589879  1
  O2-  O285  1  0.73749564  0.40450884  0.97668016  1
  O2-  O286  1  0.73801000  0.73695834  0.48062034  1
  O2-  O287  1  0.73668211  0.74132387  0.97748806  1
  O2-  O288  1  0.09836056  0.23588240  0.48257270  1
  O2-  O289  1  0.09655327  0.23970910  0.97912075  1
  O2-  O290  1  0.08928367  0.57345231  0.48563660  1
  O2-  O291  1  0.09345356  0.57329071  0.97922079  1
  O2-  O292  1  0.09178420  0.90504225  0.48403152  1
  O2-  O293  1  0.09145378  0.90859110  0.98208862  1
  O2-  O294  1  0.42837740  0.23697274  0.48306308  1
  O2-  O295  1  0.43324903  0.23774419  0.97712403  1
  O2-  O296  1  0.43216387  0.57234160  0.48538669  1
  O2-  O297  1  0.43176220  0.56857258  0.98158145  1
  O2-  O298  1  0.43008813  0.90795852  0.47992736  1
  O2-  O299  1  0.42846758  0.90730989  0.98140560  1
  O2-  O300  1  0.76137830  0.24201083  0.47634951  1
  O2-  O301  1  0.76472541  0.23582524  0.98325591  1
  O2-  O302  1  0.75971536  0.57385852  0.47566055  1
  O2-  O303  1  0.76048309  0.56920209  0.98007244  1
  O2-  O304  1  0.76301572  0.90277161  0.47603935  1
  O2-  O305  1  0.75976977  0.90790936  0.97666900  1
  O2-  O306  1  0.06995859  0.07320327  0.27259103  1
  O2-  O307  1  0.06975302  0.07358192  0.77088439  1
  O2-  O308  1  0.06828328  0.40139539  0.26635784  1
  O2-  O309  1  0.06974965  0.40741168  0.77393421  1
  O2-  O310  1  0.06693872  0.73903582  0.26273999  1
  O2-  O311  1  0.07038295  0.73566830  0.76959575  1
  O2-  O312  1  0.40380871  0.07338093  0.27280745  1
  O2-  O313  1  0.40280404  0.06954708  0.76642256  1
  O2-  O314  1  0.40356166  0.40176853  0.26957603  1
  O2-  O315  1  0.40373920  0.40113999  0.76659763  1
  O2-  O316  1  0.41015671  0.74132453  0.26793773  1
  O2-  O317  1  0.40624301  0.73788774  0.77371387  1
  O2-  O318  1  0.74310569  0.07248913  0.27325695  1
  O2-  O319  1  0.73740786  0.07195509  0.76975520  1
  O2-  O320  1  0.73822980  0.40857760  0.27331942  1
  O2-  O321  1  0.73704217  0.40554360  0.77358178  1
  O2-  O322  1  0.73744356  0.73919301  0.27001252  1
  O2-  O323  1  0.73735405  0.73949209  0.77197851  1
  O2-  O324  1  0.24045152  0.09342295  0.22967159  1
  O2-  O325  1  0.23715414  0.09293270  0.72891492  1
  O2-  O326  1  0.23836547  0.42452790  0.22670684  1
  O2-  O327  1  0.23697032  0.42591992  0.72925768  1
  O2-  O328  1  0.23907268  0.76065808  0.23149118  1
  O2-  O329  1  0.23793388  0.76260972  0.73090968  1
  O2-  O330  1  0.56981796  0.09823435  0.23480948  1
  O2-  O331  1  0.57443289  0.09367754  0.72775189  1
  O2-  O332  1  0.56719885  0.43101826  0.23408261  1
  O2-  O333  1  0.57031241  0.42990608  0.72924508  1
  O2-  O334  1  0.57142538  0.76759633  0.23033803  1
  O2-  O335  1  0.57216424  0.76254310  0.73104224  1
  O2-  O336  1  0.90504250  0.09373403  0.22821617  1
  O2-  O337  1  0.90306068  0.09556248  0.72747835  1
  O2-  O338  1  0.90404064  0.42830405  0.22646258  1
  O2-  O339  1  0.90263388  0.42941003  0.73108589  1
  O2-  O340  1  0.90441413  0.76072579  0.22351454  1
  O2-  O341  1  0.90468416  0.76157930  0.73117968  1
  O2-  O342  1  0.26490407  0.25838422  0.02063133  1
  O2-  O343  1  0.26029364  0.25908026  0.52450716  1
  O2-  O344  1  0.25882418  0.58777352  0.01809650  1
  O2-  O345  1  0.25449689  0.58959834  0.51862447  1
  O2-  O346  1  0.26127078  0.92621733  0.02068030  1
  O2-  O347  1  0.26066491  0.92662419  0.51924124  1
  O2-  O348  1  0.59662529  0.26236010  0.02247543  1
  O2-  O349  1  0.59114669  0.26074805  0.51756648  1
  O2-  O350  1  0.59777526  0.59825793  0.02032573  1
  O2-  O351  1  0.59612042  0.59566236  0.51932723  1
  O2-  O352  1  0.59822130  0.93353536  0.01970000  1
  O2-  O353  1  0.59835884  0.92635434  0.52021108  1
  O2-  O354  1  0.92830094  0.26047759  0.02245155  1
  O2-  O355  1  0.93091276  0.26197102  0.51792288  1
  O2-  O356  1  0.92624506  0.59424647  0.02274029  1
  O2-  O357  1  0.92680310  0.59585460  0.51735205  1
  O2-  O358  1  0.92805721  0.92973138  0.01792988  1
  O2-  O359  1  0.92727021  0.92709808  0.52309306  1
