# generated using pymatgen
data_Sr7Ca15Pr50Mn72O216
_symmetry_space_group_name_H-M   'P 1'
_cell_length_a   16.55683453
_cell_length_b   16.60397040
_cell_length_c   15.59639435
_cell_angle_alpha   89.99463285
_cell_angle_beta   90.00136130
_cell_angle_gamma   90.00116220
_symmetry_Int_Tables_number   1
_chemical_formula_structural   Sr7Ca15Pr50Mn72O216
_chemical_formula_sum   'Sr7 Ca15 Pr50 Mn72 O216'
_cell_volume   4287.59212483
_cell_formula_units_Z   1
loop_
 _symmetry_equiv_pos_site_id
 _symmetry_equiv_pos_as_xyz
  1  'x, y, z'
loop_
 _atom_type_symbol
 _atom_type_oxidation_number
  Sr2+  2.0
  Ca2+  2.0
  Pr3+  3.0
  Mn3.30+  3.3
  O2-  -2.0
loop_
 _atom_site_type_symbol
 _atom_site_label
 _atom_site_symmetry_multiplicity
 _atom_site_fract_x
 _atom_site_fract_y
 _atom_site_fract_z
 _atom_site_occupancy
  Sr2+  Sr0  1  0.16537433  0.82498353  0.37805695  1
  Sr2+  Sr1  1  1.00137151  0.98709680  0.37665998  1
  Sr2+  Sr2  1  0.49562052  0.82263930  0.37619235  1
  Sr2+  Sr3  1  0.83315463  0.17608303  0.12605144  1
  Sr2+  Sr4  1  0.49991999  0.84320973  0.12726815  1
  Sr2+  Sr5  1  0.33229981  0.65945956  0.37517388  1
  Sr2+  Sr6  1  0.33083964  0.34204795  0.12152717  1
  Ca2+  Ca7  1  0.16825780  0.17819861  0.62478820  1
  Ca2+  Ca8  1  0.49658574  0.15406610  0.87512072  1
  Ca2+  Ca9  1  0.17228270  0.18275571  0.12513193  1
  Ca2+  Ca10  1  1.00479972  0.98723236  0.87290300  1
  Ca2+  Ca11  1  0.66987980  0.31672439  0.87500341  1
  Ca2+  Ca12  1  0.33426896  0.65208268  0.87456113  1
  Ca2+  Ca13  1  -0.00031889  0.01064059  0.62387090  1
  Ca2+  Ca14  1  0.16532074  0.84820313  0.62216661  1
  Ca2+  Ca15  1  0.16639956  0.48882005  0.37484786  1
  Ca2+  Ca16  1  0.50190083  0.84797566  0.62319493  1
  Ca2+  Ca17  1  0.49421107  0.15114161  0.37518897  1
  Ca2+  Ca18  1  -0.00086682  0.68355982  0.62476256  1
  Ca2+  Ca19  1  0.83210590  0.81984470  0.37667451  1
  Ca2+  Ca20  1  0.33569275  0.31585704  0.87504826  1
  Ca2+  Ca21  1  0.16787419  0.48414207  0.87490219  1
  Pr3+  Pr22  1  1.00545211  0.32150604  0.37511236  1
  Pr3+  Pr23  1  0.50262567  0.17914217  0.12425526  1
  Pr3+  Pr24  1  0.33646595  0.99180504  0.87364840  1
  Pr3+  Pr25  1  0.66762842  0.31944889  0.37549267  1
  Pr3+  Pr26  1  0.33517719  0.32197357  0.37491494  1
  Pr3+  Pr27  1  0.33525051  0.98747911  0.37631178  1
  Pr3+  Pr28  1  -0.00034112  0.67931579  0.12331350  1
  Pr3+  Pr29  1  0.32881892  0.34415101  0.62821075  1
  Pr3+  Pr30  1  0.66873751  0.65836388  0.37444769  1
  Pr3+  Pr31  1  0.83176578  0.15446873  0.87591650  1
  Pr3+  Pr32  1  0.32903696  0.68382014  0.62599419  1
  Pr3+  Pr33  1  0.66233179  0.68282806  0.62590961  1
  Pr3+  Pr34  1  0.66281681  0.67988654  0.12400342  1
  Pr3+  Pr35  1  0.00072021  0.34399268  0.62567165  1
  Pr3+  Pr36  1  0.66329944  0.01098889  0.62513997  1
  Pr3+  Pr37  1  0.00069243  0.34401950  0.12425188  1
  Pr3+  Pr38  1  0.83966512  0.84799991  0.62478724  1
  Pr3+  Pr39  1  0.66568718  0.99009224  0.87523317  1
  Pr3+  Pr40  1  1.00558426  0.65141174  0.87216978  1
  Pr3+  Pr41  1  0.83726076  0.51131621  0.12418612  1
  Pr3+  Pr42  1  0.66348314  0.34639983  0.62662585  1
  Pr3+  Pr43  1  0.84059323  0.51641335  0.62514384  1
  Pr3+  Pr44  1  0.50225827  0.17820473  0.62598239  1
  Pr3+  Pr45  1  0.16914203  0.51344374  0.62694480  1
  Pr3+  Pr46  1  0.66182863  0.34511409  0.12373441  1
  Pr3+  Pr47  1  0.49505973  0.49192745  0.37581454  1
  Pr3+  Pr48  1  0.49851355  0.51079112  0.12414079  1
  Pr3+  Pr49  1  0.66915220  0.65481093  0.87464774  1
  Pr3+  Pr50  1  1.00401359  0.32023487  0.87459861  1
  Pr3+  Pr51  1  0.49279650  0.81903300  0.87368641  1
  Pr3+  Pr52  1  0.33070118  0.67968428  0.12401718  1
  Pr3+  Pr53  1  0.66188052  0.01259434  0.12527131  1
  Pr3+  Pr54  1  0.17265613  0.51162887  0.12322051  1
  Pr3+  Pr55  1  0.83317265  0.82265965  0.87419792  1
  Pr3+  Pr56  1  0.16475330  0.15473901  0.87488050  1
  Pr3+  Pr57  1  0.16427483  0.82295244  0.87210902  1
  Pr3+  Pr58  1  0.49957963  0.51242529  0.62555513  1
  Pr3+  Pr59  1  0.16291691  0.15421811  0.37513884  1
  Pr3+  Pr60  1  0.82822904  0.48328532  0.87409857  1
  Pr3+  Pr61  1  0.67004103  0.98384935  0.37505274  1
  Pr3+  Pr62  1  0.32961893  0.01315148  0.62337393  1
  Pr3+  Pr63  1  0.49525711  0.48459907  0.87390467  1
  Pr3+  Pr64  1  1.00619882  0.65707661  0.37763446  1
  Pr3+  Pr65  1  0.83127495  0.48854279  0.37557076  1
  Pr3+  Pr66  1  0.83624657  0.84551081  0.12534411  1
  Pr3+  Pr67  1  -0.00146560  0.01284485  0.12530584  1
  Pr3+  Pr68  1  0.83313973  0.15238981  0.37439865  1
  Pr3+  Pr69  1  0.17058828  0.84676308  0.12647231  1
  Pr3+  Pr70  1  0.83715560  0.17636238  0.62470010  1
  Pr3+  Pr71  1  0.32975062  0.01541432  0.12654820  1
  Mn3.30+  Mn72  1  0.16601994  0.00201370  -0.00060726  1
  Mn3.30+  Mn73  1  0.16422050  0.00054156  0.50322855  1
  Mn3.30+  Mn74  1  0.16892413  0.33264662  -0.00278979  1
  Mn3.30+  Mn75  1  0.16757316  0.33419535  0.50081423  1
  Mn3.30+  Mn76  1  0.16842799  0.66554037  -0.00437955  1
  Mn3.30+  Mn77  1  0.16543876  0.66815516  0.50253696  1
  Mn3.30+  Mn78  1  0.49862892  0.00089214  0.00031979  1
  Mn3.30+  Mn79  1  0.49956661  0.00015267  0.49974955  1
  Mn3.30+  Mn80  1  0.49879671  0.33096519  -0.00388248  1
  Mn3.30+  Mn81  1  0.49884018  0.33263929  0.50039402  1
  Mn3.30+  Mn82  1  0.49821113  0.66558586  -0.00220888  1
  Mn3.30+  Mn83  1  0.49852178  0.66862166  0.50163005  1
  Mn3.30+  Mn84  1  0.83502432  0.00032312  -0.00100696  1
  Mn3.30+  Mn85  1  0.83470578  -0.00173488  0.49988915  1
  Mn3.30+  Mn86  1  0.83214654  0.33146508  0.00065973  1
  Mn3.30+  Mn87  1  0.83379752  0.33291613  0.49992231  1
  Mn3.30+  Mn88  1  0.83422812  0.66610295  -0.00139629  1
  Mn3.30+  Mn89  1  0.83572136  0.66911145  0.50033022  1
  Mn3.30+  Mn90  1  0.00185921  0.16694879  0.24825162  1
  Mn3.30+  Mn91  1  0.00186284  0.16342285  0.74905970  1
  Mn3.30+  Mn92  1  0.00253142  0.50068730  0.25009755  1
  Mn3.30+  Mn93  1  0.00223606  0.49995069  0.75057139  1
  Mn3.30+  Mn94  1  0.00046223  0.83293134  0.25166578  1
  Mn3.30+  Mn95  1  0.00175293  0.83566994  0.74836701  1
  Mn3.30+  Mn96  1  0.33275509  0.16838816  0.25100057  1
  Mn3.30+  Mn97  1  0.33319254  0.16676594  0.74995464  1
  Mn3.30+  Mn98  1  0.33142688  0.49984464  0.25055318  1
  Mn3.30+  Mn99  1  0.33198067  0.49979723  0.75280245  1
  Mn3.30+  Mn100  1  0.33373073  0.83360777  0.25075264  1
  Mn3.30+  Mn101  1  0.33151693  0.83522820  0.74791473  1
  Mn3.30+  Mn102  1  0.66439309  0.16594150  0.25222900  1
  Mn3.30+  Mn103  1  0.66591059  0.16707152  0.75170558  1
  Mn3.30+  Mn104  1  0.66636814  0.50028930  0.25014117  1
  Mn3.30+  Mn105  1  0.66663166  0.49935925  0.74989118  1
  Mn3.30+  Mn106  1  0.66783303  0.83251471  0.25087083  1
  Mn3.30+  Mn107  1  0.66483034  0.83461124  0.75006770  1
  Mn3.30+  Mn108  1  0.16520873  0.00159604  0.25039325  1
  Mn3.30+  Mn109  1  0.16486135  0.00115872  0.74723241  1
  Mn3.30+  Mn110  1  0.16831215  0.33466889  0.25015365  1
  Mn3.30+  Mn111  1  0.16807050  0.33203674  0.75167904  1
  Mn3.30+  Mn112  1  0.16652164  0.66607336  0.25173638  1
  Mn3.30+  Mn113  1  0.16702870  0.66775717  0.74943032  1
  Mn3.30+  Mn114  1  0.49897080  0.00081810  0.25128821  1
  Mn3.30+  Mn115  1  0.49913282  0.00015233  0.74929294  1
  Mn3.30+  Mn116  1  0.49863283  0.33315700  0.25046407  1
  Mn3.30+  Mn117  1  0.49913122  0.33046756  0.75339138  1
  Mn3.30+  Mn118  1  0.49919848  0.66696640  0.25019086  1
  Mn3.30+  Mn119  1  0.49735907  0.66726114  0.74989694  1
  Mn3.30+  Mn120  1  0.83372734  -0.00208828  0.25069519  1
  Mn3.30+  Mn121  1  0.83635473  0.00038594  0.75106705  1
  Mn3.30+  Mn122  1  0.83364397  0.33281142  0.24956000  1
  Mn3.30+  Mn123  1  0.83246699  0.33179597  0.74964319  1
  Mn3.30+  Mn124  1  0.83527085  0.66751016  0.25053228  1
  Mn3.30+  Mn125  1  0.83553938  0.66785744  0.74965825  1
  Mn3.30+  Mn126  1  0.00145377  0.16558292  0.00079576  1
  Mn3.30+  Mn127  1  0.00208301  0.16507549  0.50233517  1
  Mn3.30+  Mn128  1  0.00261546  0.49876623  -0.00223536  1
  Mn3.30+  Mn129  1  0.00223554  0.50166231  0.50068422  1
  Mn3.30+  Mn130  1  0.00161360  0.83471371  -0.00156774  1
  Mn3.30+  Mn131  1  0.00058066  0.83350450  0.50171594  1
  Mn3.30+  Mn132  1  0.33306200  0.16757051  -0.00107066  1
  Mn3.30+  Mn133  1  0.33286151  0.16781060  0.50008338  1
  Mn3.30+  Mn134  1  0.33227138  0.49827940  -0.00416919  1
  Mn3.30+  Mn135  1  0.33096191  0.50116689  0.49995936  1
  Mn3.30+  Mn136  1  0.33224977  0.83409691  -0.00145449  1
  Mn3.30+  Mn137  1  0.33321234  0.83433654  0.50249449  1
  Mn3.30+  Mn138  1  0.66517149  0.16790396  -0.00171077  1
  Mn3.30+  Mn139  1  0.66522964  0.16533219  0.49877884  1
  Mn3.30+  Mn140  1  0.66606265  0.49811767  -0.00149850  1
  Mn3.30+  Mn141  1  0.66691005  0.50143450  0.50097099  1
  Mn3.30+  Mn142  1  0.66503338  0.83430171  -0.00124220  1
  Mn3.30+  Mn143  1  0.66724920  0.83303736  0.50052716  1
  O2-  O144  1  0.02915040  0.16060812  0.12339821  1
  O2-  O145  1  0.02543710  0.15961352  0.62642825  1
  O2-  O146  1  0.02716979  0.49417803  0.12227010  1
  O2-  O147  1  0.02484520  0.49146803  0.62636748  1
  O2-  O148  1  0.02657094  0.82617967  0.12202052  1
  O2-  O149  1  0.02365198  0.82531346  0.62731518  1
  O2-  O150  1  0.35850890  0.16434487  0.12653673  1
  O2-  O151  1  0.35888987  0.16454908  0.62424024  1
  O2-  O152  1  0.35495313  0.49707614  0.12097742  1
  O2-  O153  1  0.35685259  0.49172910  0.62763843  1
  O2-  O154  1  0.34978762  0.82928385  0.12339538  1
  O2-  O155  1  0.36071403  0.83177308  0.62740683  1
  O2-  O156  1  0.68377520  0.16182392  0.12582865  1
  O2-  O157  1  0.69287630  0.16011135  0.62395369  1
  O2-  O158  1  0.69332270  0.49291248  0.12338437  1
  O2-  O159  1  0.69515217  0.49428630  0.62560270  1
  O2-  O160  1  0.69139964  0.82877691  0.12219517  1
  O2-  O161  1  0.69400926  0.83137846  0.62566733  1
  O2-  O162  1  0.14485331  0.32855747  0.12284466  1
  O2-  O163  1  0.14451810  0.32587060  0.62670407  1
  O2-  O164  1  0.14279660  0.65935509  0.12129090  1
  O2-  O165  1  0.13867238  0.65782778  0.62788240  1
  O2-  O166  1  0.14207375  0.99350797  0.12345209  1
  O2-  O167  1  0.13993284  0.99377280  0.62623556  1
  O2-  O168  1  0.48072501  0.32767198  0.12339079  1
  O2-  O169  1  0.47324570  0.32619334  0.62623638  1
  O2-  O170  1  0.47618089  0.65949003  0.12141216  1
  O2-  O171  1  0.47422844  0.65892904  0.62731859  1
  O2-  O172  1  0.47614312  0.99965537  0.12552394  1
  O2-  O173  1  0.47658624  0.99503658  0.62442870  1
  O2-  O174  1  0.80646136  0.33291799  0.12709404  1
  O2-  O175  1  0.80755209  0.32587313  0.62472175  1
  O2-  O176  1  0.80756368  0.65931090  0.12176184  1
  O2-  O177  1  0.80718769  0.66255332  0.62616091  1
  O2-  O178  1  0.80628495  0.99357447  0.12368981  1
  O2-  O179  1  0.80683672  0.99721778  0.62436070  1
  O2-  O180  1  0.30701183  0.17205239  0.37653714  1
  O2-  O181  1  0.30959966  0.16190673  0.87278413  1
  O2-  O182  1  0.30912868  0.50230566  0.37858856  1
  O2-  O183  1  0.30798290  0.50950575  0.87317393  1
  O2-  O184  1  0.31531979  0.83826907  0.37629565  1
  O2-  O185  1  0.30764063  0.84328776  0.87291087  1
  O2-  O186  1  0.63644251  0.17236198  0.37687971  1
  O2-  O187  1  0.63963982  0.17118003  0.87392552  1
  O2-  O188  1  0.64031630  0.50931045  0.37667418  1
  O2-  O189  1  0.64021792  0.50892913  0.87398548  1
  O2-  O190  1  0.64611798  0.83410230  0.37736865  1
  O2-  O191  1  0.63849148  0.83982436  0.87511839  1
  O2-  O192  1  0.97705560  0.17456501  0.37575056  1
  O2-  O193  1  0.97462159  0.17406144  0.87506995  1
  O2-  O194  1  0.97425513  0.50694560  0.37646534  1
  O2-  O195  1  0.97206560  0.50280528  0.87389894  1
  O2-  O196  1  0.97519886  0.82978769  0.37513547  1
  O2-  O197  1  0.97574321  0.84152875  0.87534613  1
  O2-  O198  1  0.19067550  0.00679227  0.37688964  1
  O2-  O199  1  0.19307853  0.00665122  0.87417861  1
  O2-  O200  1  0.19024113  0.34200891  0.37710271  1
  O2-  O201  1  0.19110222  0.33758477  0.87337617  1
  O2-  O202  1  0.18293989  0.67130998  0.37831744  1
  O2-  O203  1  0.19406059  0.67745221  0.87204492  1
  O2-  O204  1  0.52468353  0.00695086  0.37615386  1
  O2-  O205  1  0.52123331  0.00809488  0.87455706  1
  O2-  O206  1  0.52563738  0.34507033  0.37671279  1
  O2-  O207  1  0.53063817  0.34017038  0.87389431  1
  O2-  O208  1  0.52360967  0.66354118  0.37803583  1
  O2-  O209  1  0.52566221  0.67112253  0.87307731  1
  O2-  O210  1  0.85219042  0.00577318  0.37595553  1
  O2-  O211  1  0.86167896  0.00607019  0.87653964  1
  O2-  O212  1  0.85989131  0.33913242  0.37449420  1
  O2-  O213  1  0.85941465  0.33612951  0.87373112  1
  O2-  O214  1  0.86070510  0.67246714  0.37638454  1
  O2-  O215  1  0.86000007  0.67313000  0.87494644  1
  O2-  O216  1  0.23692505  0.09590022  0.02238599  1
  O2-  O217  1  0.23837820  0.09683860  0.52204630  1
  O2-  O218  1  0.23595078  0.43012250  0.01488328  1
  O2-  O219  1  0.23831748  0.42723032  0.52415802  1
  O2-  O220  1  0.23639699  0.76166358  0.01899173  1
  O2-  O221  1  0.23878404  0.76042632  0.52493566  1
  O2-  O222  1  0.57203265  0.09366268  0.01981352  1
  O2-  O223  1  0.57294872  0.09329830  0.52368463  1
  O2-  O224  1  0.57069935  0.42749888  0.02041338  1
  O2-  O225  1  0.57047531  0.42583346  0.52329151  1
  O2-  O226  1  0.57409299  0.75789876  0.01630726  1
  O2-  O227  1  0.57357135  0.76112671  0.52492614  1
  O2-  O228  1  0.90853147  0.09230669  0.02055532  1
  O2-  O229  1  0.90251867  0.09527589  0.51607680  1
  O2-  O230  1  0.90350132  0.42624369  0.01947832  1
  O2-  O231  1  0.90649937  0.43008736  0.52061440  1
  O2-  O232  1  0.90577478  0.76062076  0.01974205  1
  O2-  O233  1  0.90312852  0.76285150  0.52134163  1
  O2-  O234  1  0.26290103  0.26352187  0.23792345  1
  O2-  O235  1  0.26432719  0.26062053  0.73426635  1
  O2-  O236  1  0.26018638  0.59446243  0.22758087  1
  O2-  O237  1  0.26031330  0.59587246  0.72704112  1
  O2-  O238  1  0.25896284  0.92950357  0.23224407  1
  O2-  O239  1  0.26207918  0.93276374  0.73121504  1
  O2-  O240  1  0.59507475  0.26260454  0.23199011  1
  O2-  O241  1  0.59477715  0.25983818  0.72570565  1
  O2-  O242  1  0.59525770  0.59257297  0.22770257  1
  O2-  O243  1  0.59588599  0.59528051  0.72920965  1
  O2-  O244  1  0.59845444  0.92965243  0.23513008  1
  O2-  O245  1  0.59711346  0.92981366  0.73338128  1
  O2-  O246  1  0.93135571  0.26114231  0.23110419  1
  O2-  O247  1  0.92901944  0.25924836  0.72840328  1
  O2-  O248  1  0.92905297  0.59403511  0.22758940  1
  O2-  O249  1  0.93216405  0.59528498  0.72902350  1
  O2-  O250  1  0.92750847  0.92409178  0.22542370  1
  O2-  O251  1  0.92941738  0.92770602  0.72645080  1
  O2-  O252  1  0.09623062  0.24238556  0.27147537  1
  O2-  O253  1  0.09338798  0.23893787  0.77151242  1
  O2-  O254  1  0.09560275  0.57044269  0.27004620  1
  O2-  O255  1  0.09641337  0.56919606  0.77418005  1
  O2-  O256  1  0.09250605  0.90369155  0.26272492  1
  O2-  O257  1  0.09580581  0.90619574  0.77044723  1
  O2-  O258  1  0.42972513  0.23923626  0.27250017  1
  O2-  O259  1  0.43223183  0.23495181  0.77027244  1
  O2-  O260  1  0.42906342  0.56933988  0.26444919  1
  O2-  O261  1  0.43083112  0.56854328  0.76701968  1
  O2-  O262  1  0.42478898  0.91172386  0.26813475  1
  O2-  O263  1  0.42696069  0.90597333  0.77186002  1
  O2-  O264  1  0.75698353  0.23777144  0.27433949  1
  O2-  O265  1  0.76232874  0.23589279  0.76837925  1
  O2-  O266  1  0.76306694  0.57326147  0.27058359  1
  O2-  O267  1  0.76365751  0.57291211  0.77085726  1
  O2-  O268  1  0.76347114  0.90330318  0.26979930  1
  O2-  O269  1  0.76302040  0.90771486  0.77222963  1
  O2-  O270  1  0.07473001  0.07615362  0.47987807  1
  O2-  O271  1  0.07162173  0.07052441  0.97703014  1
  O2-  O272  1  0.06949680  0.40330383  0.48491732  1
  O2-  O273  1  0.07011450  0.40254642  0.98129009  1
  O2-  O274  1  0.06847406  0.73637990  0.48624373  1
  O2-  O275  1  0.07107397  0.73749723  0.97769962  1
  O2-  O276  1  0.40273908  0.07311397  0.48260807  1
  O2-  O277  1  0.40245758  0.06952419  0.98610093  1
  O2-  O278  1  0.40455557  0.40567884  0.48162098  1
  O2-  O279  1  0.40605996  0.40392772  0.97406287  1
  O2-  O280  1  0.40596368  0.73706565  0.48827222  1
  O2-  O281  1  0.40387690  0.73775224  0.97796790  1
  O2-  O282  1  0.73687992  0.07199136  0.47868023  1
  O2-  O283  1  0.73790320  0.07479549  0.97905085  1
  O2-  O284  1  0.73813349  0.40664032  0.47855202  1
  O2-  O285  1  0.73624348  0.40532994  0.97702509  1
  O2-  O286  1  0.73676830  0.73562774  0.48379088  1
  O2-  O287  1  0.74012129  0.73944348  0.97796376  1
  O2-  O288  1  0.09580012  0.24192646  0.47958300  1
  O2-  O289  1  0.09392337  0.23980131  0.97752024  1
  O2-  O290  1  0.09584985  0.56910988  0.48040576  1
  O2-  O291  1  0.09728814  0.57209681  0.97464069  1
  O2-  O292  1  0.09174561  0.90547426  0.48596082  1
  O2-  O293  1  0.09776357  0.90385362  0.98205207  1
  O2-  O294  1  0.43038474  0.23876434  0.47766370  1
  O2-  O295  1  0.43165879  0.23546665  0.97984804  1
  O2-  O296  1  0.42916388  0.56859012  0.48701431  1
  O2-  O297  1  0.43021833  0.56825694  0.98096125  1
  O2-  O298  1  0.42565473  0.91129394  0.48254493  1
  O2-  O299  1  0.42751348  0.90687711  0.97792711  1
  O2-  O300  1  0.75939660  0.23675022  0.47769864  1
  O2-  O301  1  0.76122023  0.23916755  0.98014225  1
  O2-  O302  1  0.76512968  0.57455928  0.47959652  1
  O2-  O303  1  0.76192113  0.57136344  0.97759917  1
  O2-  O304  1  0.76302631  0.90379633  0.48014137  1
  O2-  O305  1  0.76066252  0.90690789  0.97713888  1
  O2-  O306  1  0.07408193  0.07411503  0.26879624  1
  O2-  O307  1  0.07227979  0.07296534  0.77526715  1
  O2-  O308  1  0.06968617  0.40359381  0.26647587  1
  O2-  O309  1  0.06900700  0.40267408  0.76635245  1
  O2-  O310  1  0.06867133  0.73432189  0.26287962  1
  O2-  O311  1  0.07191196  0.73993053  0.77334044  1
  O2-  O312  1  0.40160659  0.07351087  0.26917308  1
  O2-  O313  1  0.40238028  0.07062266  0.76248614  1
  O2-  O314  1  0.40688148  0.40705631  0.27111567  1
  O2-  O315  1  0.40548211  0.40177496  0.77273791  1
  O2-  O316  1  0.40742912  0.73890530  0.26069242  1
  O2-  O317  1  0.40221872  0.73626866  0.77198809  1
  O2-  O318  1  0.73666475  0.07226440  0.27022291  1
  O2-  O319  1  0.73822026  0.07330420  0.77205439  1
  O2-  O320  1  0.73723614  0.40783963  0.27320627  1
  O2-  O321  1  0.73664332  0.40420245  0.77161288  1
  O2-  O322  1  0.73990690  0.73644026  0.26622666  1
  O2-  O323  1  0.73568978  0.74048138  0.77090914  1
  O2-  O324  1  0.23901265  0.09739323  0.22939533  1
  O2-  O325  1  0.23601682  0.09552683  0.72686788  1
  O2-  O326  1  0.23611941  0.43002562  0.23255089  1
  O2-  O327  1  0.23861519  0.42732412  0.72920765  1
  O2-  O328  1  0.23843996  0.75797718  0.22960102  1
  O2-  O329  1  0.23692062  0.76560303  0.72582685  1
  O2-  O330  1  0.57154815  0.09405807  0.22957822  1
  O2-  O331  1  0.57456910  0.09332981  0.72753233  1
  O2-  O332  1  0.57127575  0.42707860  0.22921631  1
  O2-  O333  1  0.57029249  0.42690758  0.72759074  1
  O2-  O334  1  0.57813429  0.75564228  0.23168617  1
  O2-  O335  1  0.56834438  0.76226965  0.72885656  1
  O2-  O336  1  0.90694895  0.09008804  0.23343802  1
  O2-  O337  1  0.90296492  0.09664451  0.73230077  1
  O2-  O338  1  0.90779759  0.43050454  0.22956923  1
  O2-  O339  1  0.90402088  0.42819475  0.72949892  1
  O2-  O340  1  0.90669333  0.75909429  0.22480673  1
  O2-  O341  1  0.90268364  0.76492748  0.73475985  1
  O2-  O342  1  0.26053055  0.25971484  0.01121109  1
  O2-  O343  1  0.26553183  0.26481078  0.51614733  1
  O2-  O344  1  0.26189857  0.59520894  0.01948300  1
  O2-  O345  1  0.25973777  0.59439886  0.52564242  1
  O2-  O346  1  0.26041992  0.93103379  0.01963262  1
  O2-  O347  1  0.25989030  0.93116871  0.51780824  1
  O2-  O348  1  0.59488320  0.26061611  0.02068892  1
  O2-  O349  1  0.59610696  0.26128930  0.52196542  1
  O2-  O350  1  0.59633929  0.59256786  0.01981271  1
  O2-  O351  1  0.59480692  0.59523845  0.52326783  1
  O2-  O352  1  0.59505762  0.93228845  0.01634462  1
  O2-  O353  1  0.59807739  0.92929557  0.51638809  1
  O2-  O354  1  0.93083142  0.26139888  0.01887030  1
  O2-  O355  1  0.92940863  0.25904000  0.52132931  1
  O2-  O356  1  0.92951229  0.59249568  0.01928690  1
  O2-  O357  1  0.92966057  0.59651279  0.52267519  1
  O2-  O358  1  0.92720911  0.92431404  0.02413888  1
  O2-  O359  1  0.92769261  0.92703144  0.52403204  1
