# generated using pymatgen
data_Sr7Ca15Pr50Mn72O216
_symmetry_space_group_name_H-M   'P 1'
_cell_length_a   16.55483195
_cell_length_b   16.59649797
_cell_length_c   15.58978419
_cell_angle_alpha   89.99919064
_cell_angle_beta   90.00228090
_cell_angle_gamma   90.00957668
_symmetry_Int_Tables_number   1
_chemical_formula_structural   Sr7Ca15Pr50Mn72O216
_chemical_formula_sum   'Sr7 Ca15 Pr50 Mn72 O216'
_cell_volume   4283.32798380
_cell_formula_units_Z   1
loop_
 _symmetry_equiv_pos_site_id
 _symmetry_equiv_pos_as_xyz
  1  'x, y, z'
loop_
 _atom_type_symbol
 _atom_type_oxidation_number
  Sr2+  2.0
  Ca2+  2.0
  Pr3+  3.0
  Mn3.30+  3.3
  O2-  -2.0
loop_
 _atom_site_type_symbol
 _atom_site_label
 _atom_site_symmetry_multiplicity
 _atom_site_fract_x
 _atom_site_fract_y
 _atom_site_fract_z
 _atom_site_occupancy
  Sr2+  Sr0  1  0.83076585  0.82184167  0.87494335  1
  Sr2+  Sr1  1  0.66597169  0.34177208  0.12480798  1
  Sr2+  Sr2  1  0.83353907  0.50773526  0.12406790  1
  Sr2+  Sr3  1  0.66679884  0.98861952  0.37519915  1
  Sr2+  Sr4  1  0.50028673  0.82608568  0.37343099  1
  Sr2+  Sr5  1  0.99924191  0.65819847  0.87364507  1
  Sr2+  Sr6  1  0.66478305  0.67782352  0.62824393  1
  Ca2+  Ca7  1  0.16852652  0.17644315  0.62494230  1
  Ca2+  Ca8  1  0.66372056  0.34615932  0.62550276  1
  Ca2+  Ca9  1  0.67135771  0.65416802  0.87387347  1
  Ca2+  Ca10  1  0.50575447  0.84731656  0.12350971  1
  Ca2+  Ca11  1  0.66981339  0.98407903  0.87557688  1
  Ca2+  Ca12  1  0.16364847  0.15079690  0.37596612  1
  Ca2+  Ca13  1  -0.00479169  0.34717612  0.12478316  1
  Ca2+  Ca14  1  -0.00212317  0.01562258  0.62709109  1
  Ca2+  Ca15  1  -0.00210218  0.01527517  0.12288373  1
  Ca2+  Ca16  1  0.32796342  0.01675605  0.62485367  1
  Ca2+  Ca17  1  0.50101083  0.82097610  0.87506202  1
  Ca2+  Ca18  1  0.16288900  0.15184727  0.87454421  1
  Ca2+  Ca19  1  -0.00577219  0.68211477  0.62711313  1
  Ca2+  Ca20  1  0.16760802  0.17834344  0.12440369  1
  Ca2+  Ca21  1  0.50445523  0.18098702  0.12497128  1
  Pr3+  Pr22  1  0.33530562  0.98782327  0.87407520  1
  Pr3+  Pr23  1  0.32769492  0.34402711  0.62575124  1
  Pr3+  Pr24  1  0.83133548  0.15149110  0.37439144  1
  Pr3+  Pr25  1  0.33542917  0.98949945  0.37561796  1
  Pr3+  Pr26  1  0.33359194  0.31801619  0.87542418  1
  Pr3+  Pr27  1  1.00305241  0.31972569  0.87731926  1
  Pr3+  Pr28  1  0.33302161  0.01368792  0.12522017  1
  Pr3+  Pr29  1  0.16031817  0.48769220  0.87534539  1
  Pr3+  Pr30  1  -0.00623673  0.67698278  0.12315001  1
  Pr3+  Pr31  1  0.83638741  0.84730997  0.12225013  1
  Pr3+  Pr32  1  0.33479511  0.31746593  0.37465019  1
  Pr3+  Pr33  1  0.50598039  0.51109204  0.12427932  1
  Pr3+  Pr34  1  1.00427978  0.98818511  0.87494974  1
  Pr3+  Pr35  1  0.33614314  0.65591089  0.87505119  1
  Pr3+  Pr36  1  0.83514773  0.51556856  0.62489827  1
  Pr3+  Pr37  1  0.16472563  0.82298742  0.37437930  1
  Pr3+  Pr38  1  0.49757632  0.48735493  0.37579893  1
  Pr3+  Pr39  1  0.66999793  0.31893891  0.37500465  1
  Pr3+  Pr40  1  0.49791832  0.15417730  0.87788369  1
  Pr3+  Pr41  1  0.16857334  0.51449391  0.62518624  1
  Pr3+  Pr42  1  0.33318091  0.68145044  0.12417967  1
  Pr3+  Pr43  1  0.50227887  0.17826524  0.62519570  1
  Pr3+  Pr44  1  0.49737699  0.15322480  0.37226495  1
  Pr3+  Pr45  1  0.67090234  0.32232413  0.87532364  1
  Pr3+  Pr46  1  0.82830804  0.82287817  0.37509796  1
  Pr3+  Pr47  1  0.33843084  0.65548150  0.37502437  1
  Pr3+  Pr48  1  0.16207510  0.82104710  0.87534439  1
  Pr3+  Pr49  1  0.82928442  0.15183526  0.87584872  1
  Pr3+  Pr50  1  1.00453355  0.31650908  0.37272884  1
  Pr3+  Pr51  1  0.66545549  0.00752160  0.62682441  1
  Pr3+  Pr52  1  0.16656896  0.51098862  0.12444688  1
  Pr3+  Pr53  1  0.33207807  0.68100660  0.62590483  1
  Pr3+  Pr54  1  0.16349530  0.48564757  0.37442119  1
  Pr3+  Pr55  1  0.33213951  0.34310710  0.12414289  1
  Pr3+  Pr56  1  0.16900192  0.84900485  0.62690953  1
  Pr3+  Pr57  1  0.83121814  0.49225591  0.87530314  1
  Pr3+  Pr58  1  0.50393773  0.51285062  0.62610204  1
  Pr3+  Pr59  1  0.82998749  0.48701930  0.37509568  1
  Pr3+  Pr60  1  0.50295720  0.84642254  0.62633058  1
  Pr3+  Pr61  1  0.66807576  0.65724295  0.37680069  1
  Pr3+  Pr62  1  1.00195917  0.65398818  0.37613370  1
  Pr3+  Pr63  1  0.50029868  0.48832692  0.87421747  1
  Pr3+  Pr64  1  0.66190487  0.01206387  0.12345448  1
  Pr3+  Pr65  1  -0.00024454  0.34281615  0.62506786  1
  Pr3+  Pr66  1  0.83713555  0.17662093  0.62515592  1
  Pr3+  Pr67  1  0.66400195  0.67947566  0.12192557  1
  Pr3+  Pr68  1  0.83939904  0.17988254  0.12498083  1
  Pr3+  Pr69  1  1.00410367  0.98962640  0.37506447  1
  Pr3+  Pr70  1  0.16823090  0.84756760  0.12294395  1
  Pr3+  Pr71  1  0.83683618  0.84638995  0.62791872  1
  Mn3.30+  Mn72  1  0.16666390  0.00367956  0.00133580  1
  Mn3.30+  Mn73  1  0.16657930  0.00296568  0.50244087  1
  Mn3.30+  Mn74  1  0.16457079  0.33008105  0.00259125  1
  Mn3.30+  Mn75  1  0.16635565  0.32936371  0.49937216  1
  Mn3.30+  Mn76  1  0.16590592  0.66695163  0.00070232  1
  Mn3.30+  Mn77  1  0.16550775  0.66843697  0.50089379  1
  Mn3.30+  Mn78  1  0.50135754  -0.00209748  -0.00142142  1
  Mn3.30+  Mn79  1  0.49716084  0.00005687  0.50189210  1
  Mn3.30+  Mn80  1  0.50063605  0.33174734  -0.00027346  1
  Mn3.30+  Mn81  1  0.50035972  0.33208636  0.50123635  1
  Mn3.30+  Mn82  1  0.50185417  0.66928674  -0.00259690  1
  Mn3.30+  Mn83  1  0.50051881  0.66811273  0.50052733  1
  Mn3.30+  Mn84  1  0.83261003  -0.00003794  -0.00049064  1
  Mn3.30+  Mn85  1  0.83572510  -0.00035232  0.50137235  1
  Mn3.30+  Mn86  1  0.83594221  0.33381719  0.00024192  1
  Mn3.30+  Mn87  1  0.83281516  0.33252064  0.50159314  1
  Mn3.30+  Mn88  1  0.83058472  0.66595225  -0.00179100  1
  Mn3.30+  Mn89  1  0.83534746  0.66860869  0.50177763  1
  Mn3.30+  Mn90  1  0.00385944  0.16572013  0.24742225  1
  Mn3.30+  Mn91  1  0.00223930  0.16563963  0.75016681  1
  Mn3.30+  Mn92  1  -0.00108539  0.49819582  0.25007831  1
  Mn3.30+  Mn93  1  -0.00075652  0.50103574  0.74840976  1
  Mn3.30+  Mn94  1  -0.00068930  0.83525187  0.24941555  1
  Mn3.30+  Mn95  1  0.00065658  0.83386422  0.74872771  1
  Mn3.30+  Mn96  1  0.33107830  0.16649775  0.24790542  1
  Mn3.30+  Mn97  1  0.33056708  0.16461244  0.75048370  1
  Mn3.30+  Mn98  1  0.33339561  0.49944549  0.24866195  1
  Mn3.30+  Mn99  1  0.33215801  0.49979134  0.75127828  1
  Mn3.30+  Mn100  1  0.33492608  0.83531069  0.24775665  1
  Mn3.30+  Mn101  1  0.33477031  0.83549784  0.75126481  1
  Mn3.30+  Mn102  1  0.66645144  0.16549020  0.24877914  1
  Mn3.30+  Mn103  1  0.66653814  0.16556205  0.75001856  1
  Mn3.30+  Mn104  1  0.66662454  0.49984882  0.24989859  1
  Mn3.30+  Mn105  1  0.66648335  0.49962863  0.74911140  1
  Mn3.30+  Mn106  1  0.66610753  0.83350282  0.24870556  1
  Mn3.30+  Mn107  1  0.66642605  0.83259346  0.75324502  1
  Mn3.30+  Mn108  1  0.16582429  0.00319017  0.24775934  1
  Mn3.30+  Mn109  1  0.16751439  0.00361462  0.74851986  1
  Mn3.30+  Mn110  1  0.16531238  0.32940526  0.24735766  1
  Mn3.30+  Mn111  1  0.16557227  0.32982306  0.75093285  1
  Mn3.30+  Mn112  1  0.16664659  0.66728544  0.24990996  1
  Mn3.30+  Mn113  1  0.16453396  0.66801007  0.74835581  1
  Mn3.30+  Mn114  1  0.49944665  -0.00093824  0.24761380  1
  Mn3.30+  Mn115  1  0.49934443  -0.00062292  0.75191721  1
  Mn3.30+  Mn116  1  0.50069852  0.33173732  0.24994549  1
  Mn3.30+  Mn117  1  0.50035371  0.33212307  0.74944703  1
  Mn3.30+  Mn118  1  0.50067489  0.66863652  0.24889576  1
  Mn3.30+  Mn119  1  0.50194605  0.66863908  0.75328299  1
  Mn3.30+  Mn120  1  0.83488970  0.00011949  0.24777647  1
  Mn3.30+  Mn121  1  0.83351130  -0.00045832  0.75137410  1
  Mn3.30+  Mn122  1  0.83632397  0.33316991  0.24989887  1
  Mn3.30+  Mn123  1  0.83281846  0.33333997  0.74827695  1
  Mn3.30+  Mn124  1  0.83306983  0.66655740  0.24921781  1
  Mn3.30+  Mn125  1  0.83234551  0.66792623  0.75039457  1
  Mn3.30+  Mn126  1  0.00264072  0.16649835  0.00132673  1
  Mn3.30+  Mn127  1  0.00322270  0.16488599  0.50140529  1
  Mn3.30+  Mn128  1  -0.00134354  0.49903108  -0.00011630  1
  Mn3.30+  Mn129  1  -0.00009095  0.49984580  0.50075928  1
  Mn3.30+  Mn130  1  0.00008743  0.83458707  0.00014560  1
  Mn3.30+  Mn131  1  0.00012257  0.83492101  0.50141502  1
  Mn3.30+  Mn132  1  0.33144461  0.16572709  0.00124644  1
  Mn3.30+  Mn133  1  0.33025873  0.16529008  0.50067763  1
  Mn3.30+  Mn134  1  0.33329896  0.49964592  -0.00015551  1
  Mn3.30+  Mn135  1  0.33260912  0.49956789  0.50029863  1
  Mn3.30+  Mn136  1  0.33707002  0.83497594  -0.00043723  1
  Mn3.30+  Mn137  1  0.33320838  0.83594892  0.50119567  1
  Mn3.30+  Mn138  1  0.66520444  0.16562423  -0.00023038  1
  Mn3.30+  Mn139  1  0.66735809  0.16530252  0.50176149  1
  Mn3.30+  Mn140  1  0.66682337  0.50052930  -0.00023763  1
  Mn3.30+  Mn141  1  0.66601513  0.49895820  0.50087179  1
  Mn3.30+  Mn142  1  0.66539273  0.83313033  -0.00279080  1
  Mn3.30+  Mn143  1  0.66684212  0.83297277  0.50117767  1
  O2-  O144  1  0.02679047  0.15734204  0.12438003  1
  O2-  O145  1  0.02590320  0.16313384  0.62573570  1
  O2-  O146  1  0.02274066  0.49554103  0.12647958  1
  O2-  O147  1  0.02642242  0.49029785  0.62344805  1
  O2-  O148  1  0.02501266  0.82362880  0.12620343  1
  O2-  O149  1  0.02624626  0.82466831  0.62403082  1
  O2-  O150  1  0.36240776  0.16314144  0.12419742  1
  O2-  O151  1  0.35866979  0.16429768  0.62575962  1
  O2-  O152  1  0.36139699  0.49264733  0.12434665  1
  O2-  O153  1  0.35884102  0.49307359  0.62712327  1
  O2-  O154  1  0.36194716  0.82930498  0.12248250  1
  O2-  O155  1  0.35914080  0.82711837  0.62776305  1
  O2-  O156  1  0.69362842  0.16104113  0.12314730  1
  O2-  O157  1  0.69344784  0.15545776  0.62617201  1
  O2-  O158  1  0.68301415  0.49903019  0.12646276  1
  O2-  O159  1  0.69023735  0.49161672  0.62362772  1
  O2-  O160  1  0.69241791  0.82719991  0.12386560  1
  O2-  O161  1  0.69023445  0.83484745  0.62667246  1
  O2-  O162  1  0.13739186  0.32441772  0.12538067  1
  O2-  O163  1  0.14360125  0.32352436  0.62629459  1
  O2-  O164  1  0.13945010  0.66132071  0.12590815  1
  O2-  O165  1  0.13871308  0.66209085  0.62277077  1
  O2-  O166  1  0.13888338  0.99198822  0.12502013  1
  O2-  O167  1  0.13798680  0.99321732  0.62497533  1
  O2-  O168  1  0.47691952  0.33004261  0.12539689  1
  O2-  O169  1  0.47169555  0.32722919  0.62620801  1
  O2-  O170  1  0.47527674  0.65649156  0.12369646  1
  O2-  O171  1  0.47532528  0.66073791  0.62813709  1
  O2-  O172  1  0.47561231  0.99059395  0.12196507  1
  O2-  O173  1  0.47116167  0.99473749  0.62858519  1
  O2-  O174  1  0.81540539  0.32753673  0.12532231  1
  O2-  O175  1  0.80620869  0.32441633  0.62453358  1
  O2-  O176  1  0.81000062  0.66557512  0.12363544  1
  O2-  O177  1  0.81388695  0.66501503  0.62487134  1
  O2-  O178  1  0.80742668  0.99771485  0.12265509  1
  O2-  O179  1  0.81001235  0.99775052  0.62647513  1
  O2-  O180  1  0.30648766  0.16993962  0.37408552  1
  O2-  O181  1  0.30583955  0.16968928  0.87618836  1
  O2-  O182  1  0.30686478  0.50706504  0.37345696  1
  O2-  O183  1  0.30436400  0.50678764  0.87520612  1
  O2-  O184  1  0.30827955  0.83954574  0.37446816  1
  O2-  O185  1  0.30539626  0.83818280  0.87514321  1
  O2-  O186  1  0.64242470  0.17042954  0.37687682  1
  O2-  O187  1  0.64148382  0.17600290  0.87391227  1
  O2-  O188  1  0.64146328  0.50729794  0.37642886  1
  O2-  O189  1  0.64438443  0.50388424  0.87365553  1
  O2-  O190  1  0.65071137  0.83130980  0.37421025  1
  O2-  O191  1  0.64090568  0.84252625  0.87546848  1
  O2-  O192  1  0.97469512  0.16930453  0.37462506  1
  O2-  O193  1  0.97297522  0.17260514  0.87527489  1
  O2-  O194  1  0.97520590  0.50529280  0.37757486  1
  O2-  O195  1  0.97717464  0.50023819  0.87176322  1
  O2-  O196  1  0.97263441  0.84266015  0.37444214  1
  O2-  O197  1  0.98300682  0.84103241  0.87472355  1
  O2-  O198  1  0.19142630  0.00390829  0.37390804  1
  O2-  O199  1  0.19171777  0.00638929  0.87578439  1
  O2-  O200  1  0.19246623  0.34043360  0.37196908  1
  O2-  O201  1  0.19102656  0.34264521  0.87616127  1
  O2-  O202  1  0.19401552  0.67307670  0.37557047  1
  O2-  O203  1  0.19133216  0.67088206  0.87566011  1
  O2-  O204  1  0.51687589  0.00686433  0.37373930  1
  O2-  O205  1  0.52812768  0.01002092  0.87584699  1
  O2-  O206  1  0.52515720  0.33774143  0.37623153  1
  O2-  O207  1  0.52566834  0.33735938  0.87258220  1
  O2-  O208  1  0.52324437  0.66879957  0.37313646  1
  O2-  O209  1  0.52787730  0.67418377  0.87564843  1
  O2-  O210  1  0.85914459  0.00226925  0.37517615  1
  O2-  O211  1  0.85989925  0.00442859  0.87574901  1
  O2-  O212  1  0.85947145  0.33773737  0.37719445  1
  O2-  O213  1  0.85821394  0.33935614  0.87270259  1
  O2-  O214  1  0.85844600  0.67392708  0.37679027  1
  O2-  O215  1  0.85108823  0.66109260  0.87408572  1
  O2-  O216  1  0.23973268  0.09399560  0.02584205  1
  O2-  O217  1  0.23621851  0.09650632  0.52136590  1
  O2-  O218  1  0.23694395  0.42489570  0.02326236  1
  O2-  O219  1  0.23723747  0.42769277  0.52017338  1
  O2-  O220  1  0.24148081  0.76251796  0.02103829  1
  O2-  O221  1  0.23855662  0.76358093  0.52156457  1
  O2-  O222  1  0.56978106  0.09502416  0.02264314  1
  O2-  O223  1  0.57061302  0.09246174  0.52133050  1
  O2-  O224  1  0.57045448  0.43037844  0.01325588  1
  O2-  O225  1  0.56752151  0.42770389  0.51837922  1
  O2-  O226  1  0.57055201  0.76153541  0.02372885  1
  O2-  O227  1  0.57074533  0.76081985  0.51942468  1
  O2-  O228  1  0.90349656  0.09788180  0.01695737  1
  O2-  O229  1  0.90521279  0.09622452  0.51760649  1
  O2-  O230  1  0.90695266  0.42730051  0.01318582  1
  O2-  O231  1  0.90405148  0.42763499  0.52185861  1
  O2-  O232  1  0.90606937  0.75843489  0.01878593  1
  O2-  O233  1  0.90492175  0.76575494  0.51760337  1
  O2-  O234  1  0.26402566  0.26320478  0.22977808  1
  O2-  O235  1  0.26456023  0.26383643  0.73497000  1
  O2-  O236  1  0.26189548  0.59334562  0.22714059  1
  O2-  O237  1  0.26007426  0.59531402  0.72819446  1
  O2-  O238  1  0.25868285  0.92929399  0.22788199  1
  O2-  O239  1  0.26309975  0.93093625  0.72944629  1
  O2-  O240  1  0.59454534  0.25899609  0.23663170  1
  O2-  O241  1  0.59609382  0.25971878  0.72662426  1
  O2-  O242  1  0.59440606  0.59581940  0.23116494  1
  O2-  O243  1  0.59043459  0.58895561  0.73199265  1
  O2-  O244  1  0.59585940  0.92618747  0.23053995  1
  O2-  O245  1  0.59202685  0.92747499  0.72828447  1
  O2-  O246  1  0.93398100  0.26002271  0.23040898  1
  O2-  O247  1  0.92937229  0.26040151  0.72919357  1
  O2-  O248  1  0.92908663  0.59864153  0.23530929  1
  O2-  O249  1  0.92780978  0.59262532  0.72630107  1
  O2-  O250  1  0.93000116  0.92971053  0.22567223  1
  O2-  O251  1  0.93068647  0.92747615  0.72861947  1
  O2-  O252  1  0.09677542  0.23645586  0.27477685  1
  O2-  O253  1  0.09424305  0.23916640  0.77520452  1
  O2-  O254  1  0.09376715  0.57077637  0.27105949  1
  O2-  O255  1  0.09665184  0.56777880  0.76537170  1
  O2-  O256  1  0.09471518  0.90510201  0.27066572  1
  O2-  O257  1  0.09859804  0.90734781  0.76913569  1
  O2-  O258  1  0.42535504  0.23929223  0.27245327  1
  O2-  O259  1  0.42740134  0.23734891  0.77153203  1
  O2-  O260  1  0.42867121  0.57251073  0.27036596  1
  O2-  O261  1  0.42707582  0.57417477  0.77266638  1
  O2-  O262  1  0.42209162  0.91055110  0.26857958  1
  O2-  O263  1  0.42914019  0.90469014  0.77506802  1
  O2-  O264  1  0.76326068  0.23983829  0.27051207  1
  O2-  O265  1  0.76152720  0.23781492  0.77105792  1
  O2-  O266  1  0.75874083  0.57334461  0.27409307  1
  O2-  O267  1  0.76257911  0.56972595  0.76224354  1
  O2-  O268  1  0.76506042  0.90233954  0.26286110  1
  O2-  O269  1  0.76049193  0.90583962  0.76423636  1
  O2-  O270  1  0.07144448  0.07087354  0.47984058  1
  O2-  O271  1  0.07025594  0.07226333  0.97877935  1
  O2-  O272  1  0.07198662  0.40291871  0.47954570  1
  O2-  O273  1  0.07331192  0.40566526  0.98036850  1
  O2-  O274  1  0.07232515  0.74213726  0.47447613  1
  O2-  O275  1  0.07552242  0.74197588  0.98318487  1
  O2-  O276  1  0.40372305  0.07545870  0.47959730  1
  O2-  O277  1  0.40447276  0.07103240  0.97952714  1
  O2-  O278  1  0.40301074  0.40540038  0.47867621  1
  O2-  O279  1  0.40547821  0.40560457  0.97746049  1
  O2-  O280  1  0.40237157  0.73638522  0.48453203  1
  O2-  O281  1  0.40331239  0.73625062  0.98122673  1
  O2-  O282  1  0.74257020  0.07318542  0.48249715  1
  O2-  O283  1  0.73583687  0.07264290  0.97732941  1
  O2-  O284  1  0.73813271  0.40732161  0.47672870  1
  O2-  O285  1  0.74026089  0.40762613  0.97904840  1
  O2-  O286  1  0.74181635  0.73896978  0.48051350  1
  O2-  O287  1  0.73279842  0.73590822  0.98230205  1
  O2-  O288  1  0.09469858  0.23773633  0.47598630  1
  O2-  O289  1  0.09579858  0.23802321  0.97500347  1
  O2-  O290  1  0.09602268  0.57122436  0.47830150  1
  O2-  O291  1  0.09484346  0.56839851  0.98439738  1
  O2-  O292  1  0.09566052  0.90560812  0.47866002  1
  O2-  O293  1  0.09811273  0.90711017  0.98117191  1
  O2-  O294  1  0.42904717  0.23770156  0.47900679  1
  O2-  O295  1  0.42422198  0.23918739  0.97794971  1
  O2-  O296  1  0.42671569  0.57215365  0.48093894  1
  O2-  O297  1  0.42924474  0.57431645  0.97670992  1
  O2-  O298  1  0.42447952  0.90797099  0.48230647  1
  O2-  O299  1  0.42769988  0.90628423  0.97282684  1
  O2-  O300  1  0.76257395  0.23847898  0.47833445  1
  O2-  O301  1  0.76267616  0.24000240  0.97990155  1
  O2-  O302  1  0.76274221  0.57296783  0.48194160  1
  O2-  O303  1  0.75952351  0.57117679  0.98168787  1
  O2-  O304  1  0.76542828  0.90467539  0.48632373  1
  O2-  O305  1  0.76116095  0.90411741  0.98609719  1
  O2-  O306  1  0.07166703  0.07126735  0.27070520  1
  O2-  O307  1  0.07027227  0.07181205  0.77075734  1
  O2-  O308  1  0.07463144  0.40431752  0.27172050  1
  O2-  O309  1  0.07103288  0.40288030  0.76834701  1
  O2-  O310  1  0.07116223  0.74076552  0.27287176  1
  O2-  O311  1  0.07669491  0.74309244  0.76914242  1
  O2-  O312  1  0.40189674  0.07391069  0.26813008  1
  O2-  O313  1  0.40618432  0.07360291  0.77367502  1
  O2-  O314  1  0.40449705  0.40536390  0.27167107  1
  O2-  O315  1  0.40401432  0.40606748  0.77295964  1
  O2-  O316  1  0.40309545  0.73564201  0.26604504  1
  O2-  O317  1  0.40228357  0.73742373  0.76881411  1
  O2-  O318  1  0.74113964  0.07392099  0.26780426  1
  O2-  O319  1  0.73653866  0.07191781  0.77287498  1
  O2-  O320  1  0.73847455  0.40759981  0.27337049  1
  O2-  O321  1  0.73950879  0.40728460  0.77100309  1
  O2-  O322  1  0.73884166  0.73719487  0.26827596  1
  O2-  O323  1  0.73559218  0.73819147  0.76936399  1
  O2-  O324  1  0.23922740  0.09447641  0.22430866  1
  O2-  O325  1  0.23684826  0.09610292  0.72784731  1
  O2-  O326  1  0.23750003  0.42585980  0.22676248  1
  O2-  O327  1  0.23583078  0.42667685  0.72870900  1
  O2-  O328  1  0.24022582  0.76338108  0.22788229  1
  O2-  O329  1  0.24001474  0.76299288  0.72953491  1
  O2-  O330  1  0.57017672  0.09297604  0.22797847  1
  O2-  O331  1  0.57078092  0.09423684  0.72868670  1
  O2-  O332  1  0.56931760  0.43111493  0.23650936  1
  O2-  O333  1  0.57027256  0.42782321  0.73167714  1
  O2-  O334  1  0.57290562  0.75972883  0.22584042  1
  O2-  O335  1  0.56915902  0.76373179  0.73187570  1
  O2-  O336  1  0.90542790  0.09757800  0.23233294  1
  O2-  O337  1  0.90403758  0.09718843  0.73349081  1
  O2-  O338  1  0.90576010  0.42804652  0.23762755  1
  O2-  O339  1  0.90575057  0.42783615  0.72597330  1
  O2-  O340  1  0.90570959  0.76375127  0.23027242  1
  O2-  O341  1  0.90608214  0.76097952  0.73280903  1
  O2-  O342  1  0.26286176  0.26294662  0.01889585  1
  O2-  O343  1  0.26556626  0.26328349  0.51643148  1
  O2-  O344  1  0.26054361  0.59421235  0.02265671  1
  O2-  O345  1  0.26160671  0.59439291  0.52191221  1
  O2-  O346  1  0.26316427  0.92871321  0.02075631  1
  O2-  O347  1  0.25935194  0.93096406  0.52185360  1
  O2-  O348  1  0.59389225  0.25939020  0.01445647  1
  O2-  O349  1  0.59659063  0.26008994  0.52265523  1
  O2-  O350  1  0.59241624  0.59409263  0.01907190  1
  O2-  O351  1  0.59226501  0.59132238  0.51813667  1
  O2-  O352  1  0.59605081  0.92818697  0.02010735  1
  O2-  O353  1  0.59146215  0.92656820  0.52092911  1
  O2-  O354  1  0.93254277  0.26057258  0.02028267  1
  O2-  O355  1  0.93043224  0.25927293  0.52033197  1
  O2-  O356  1  0.92787236  0.59365765  0.01738777  1
  O2-  O357  1  0.92967158  0.59706991  0.52021728  1
  O2-  O358  1  0.93015407  0.92759670  0.02159496  1
  O2-  O359  1  0.93090337  0.92999538  0.52416015  1
