# generated using pymatgen
data_Sr7Ca15Pr50Mn72O216
_symmetry_space_group_name_H-M   'P 1'
_cell_length_a   16.56028037
_cell_length_b   16.60916072
_cell_length_c   15.59441317
_cell_angle_alpha   89.99808513
_cell_angle_beta   90.00002874
_cell_angle_gamma   89.99159945
_symmetry_Int_Tables_number   1
_chemical_formula_structural   Sr7Ca15Pr50Mn72O216
_chemical_formula_sum   'Sr7 Ca15 Pr50 Mn72 O216'
_cell_volume   4289.28006851
_cell_formula_units_Z   1
loop_
 _symmetry_equiv_pos_site_id
 _symmetry_equiv_pos_as_xyz
  1  'x, y, z'
loop_
 _atom_type_symbol
 _atom_type_oxidation_number
  Sr2+  2.0
  Ca2+  2.0
  Pr3+  3.0
  Mn3.30+  3.3
  O2-  -2.0
loop_
 _atom_site_type_symbol
 _atom_site_label
 _atom_site_symmetry_multiplicity
 _atom_site_fract_x
 _atom_site_fract_y
 _atom_site_fract_z
 _atom_site_occupancy
  Sr2+  Sr0  1  0.99927217  0.32432845  0.37291623  1
  Sr2+  Sr1  1  0.49934433  0.82629451  0.87335920  1
  Sr2+  Sr2  1  0.66698826  0.65541788  0.37402260  1
  Sr2+  Sr3  1  0.50379372  0.84418951  0.12467470  1
  Sr2+  Sr4  1  0.99873069  0.99409504  0.87442989  1
  Sr2+  Sr5  1  0.83391463  0.50655460  0.12494166  1
  Sr2+  Sr6  1  0.50274229  0.50997824  0.12289645  1
  Ca2+  Ca7  1  0.83796192  0.85194381  0.62501345  1
  Ca2+  Ca8  1  -0.00564285  0.34786958  0.12502604  1
  Ca2+  Ca9  1  0.67003610  0.31662399  0.87633569  1
  Ca2+  Ca10  1  0.50065325  0.15426358  0.37263858  1
  Ca2+  Ca11  1  0.17183216  0.84910486  0.12362779  1
  Ca2+  Ca12  1  0.65887522  0.01768498  0.12383059  1
  Ca2+  Ca13  1  0.50431088  0.84917030  0.62510849  1
  Ca2+  Ca14  1  0.66972813  0.31992712  0.37267314  1
  Ca2+  Ca15  1  0.50541039  0.51309864  0.62651797  1
  Ca2+  Ca16  1  0.50664006  0.17943170  0.12561750  1
  Ca2+  Ca17  1  -0.00605433  0.01544348  0.62669025  1
  Ca2+  Ca18  1  0.16234376  0.15116686  0.87578471  1
  Ca2+  Ca19  1  0.49767052  0.48445691  0.87369887  1
  Ca2+  Ca20  1  0.82930384  0.14996315  0.87599721  1
  Ca2+  Ca21  1  0.66050118  0.34916322  0.62706410  1
  Pr3+  Pr22  1  0.66526969  0.65409023  0.87553381  1
  Pr3+  Pr23  1  0.50164513  0.15592427  0.87685065  1
  Pr3+  Pr24  1  1.00140875  0.65535868  0.87470763  1
  Pr3+  Pr25  1  0.16709106  0.84927615  0.62559448  1
  Pr3+  Pr26  1  0.33039917  0.68191619  0.12467051  1
  Pr3+  Pr27  1  0.16378876  0.48479145  0.37575711  1
  Pr3+  Pr28  1  -0.00447561  0.34428713  0.62488724  1
  Pr3+  Pr29  1  0.66564713  0.01136015  0.62588403  1
  Pr3+  Pr30  1  0.82887075  0.81941317  0.37643114  1
  Pr3+  Pr31  1  0.82988140  0.15695923  0.37441994  1
  Pr3+  Pr32  1  0.82498274  0.48267964  0.37479786  1
  Pr3+  Pr33  1  0.16842863  0.51004334  0.12534476  1
  Pr3+  Pr34  1  0.82905804  0.82275755  0.87392928  1
  Pr3+  Pr35  1  0.83162047  0.51126198  0.62556956  1
  Pr3+  Pr36  1  0.50708892  0.18032611  0.62534423  1
  Pr3+  Pr37  1  0.33872275  0.98901995  0.37479926  1
  Pr3+  Pr38  1  0.16695270  0.17610222  0.62819595  1
  Pr3+  Pr39  1  0.67186395  0.98809040  0.87641782  1
  Pr3+  Pr40  1  0.34021860  0.65345500  0.87442884  1
  Pr3+  Pr41  1  0.16405625  0.48809287  0.87398542  1
  Pr3+  Pr42  1  0.33448343  0.01172741  0.62666084  1
  Pr3+  Pr43  1  0.33495255  0.98862804  0.87493269  1
  Pr3+  Pr44  1  0.16906344  0.17973718  0.12230531  1
  Pr3+  Pr45  1  0.66266066  0.67603612  0.12566849  1
  Pr3+  Pr46  1  0.16907975  0.51237421  0.62443833  1
  Pr3+  Pr47  1  1.00083464  0.65254845  0.37572676  1
  Pr3+  Pr48  1  0.33624425  0.34555140  0.12402460  1
  Pr3+  Pr49  1  0.49841998  0.82023543  0.37638614  1
  Pr3+  Pr50  1  0.33373995  0.34551889  0.62588550  1
  Pr3+  Pr51  1  -0.00041404  0.01128453  0.12363212  1
  Pr3+  Pr52  1  0.66259264  0.34540824  0.12363703  1
  Pr3+  Pr53  1  0.16201454  0.82352984  0.87618360  1
  Pr3+  Pr54  1  0.34001464  0.31704666  0.37443955  1
  Pr3+  Pr55  1  0.33320039  0.01145314  0.12349951  1
  Pr3+  Pr56  1  0.33765882  0.32109382  0.87543781  1
  Pr3+  Pr57  1  -0.00374595  0.67917018  0.12469789  1
  Pr3+  Pr58  1  0.83524657  0.17725864  0.62764198  1
  Pr3+  Pr59  1  0.83531106  0.17970567  0.12264112  1
  Pr3+  Pr60  1  0.33813074  0.65259567  0.37529841  1
  Pr3+  Pr61  1  1.00211950  0.31820209  0.87676944  1
  Pr3+  Pr62  1  0.16391799  0.82101793  0.37422193  1
  Pr3+  Pr63  1  0.83214297  0.84475740  0.12624888  1
  Pr3+  Pr64  1  0.33393483  0.68020738  0.62494599  1
  Pr3+  Pr65  1  -0.00667108  0.68342978  0.62532280  1
  Pr3+  Pr66  1  0.66825506  0.98895507  0.37412235  1
  Pr3+  Pr67  1  0.50128921  0.48562445  0.37501488  1
  Pr3+  Pr68  1  0.66143797  0.68088870  0.62399727  1
  Pr3+  Pr69  1  0.82724105  0.48397457  0.87586167  1
  Pr3+  Pr70  1  0.16387718  0.15587177  0.37428616  1
  Pr3+  Pr71  1  1.00170176  0.98966950  0.37543169  1
  Mn3.30+  Mn72  1  0.16598963  0.00035786  -0.00033129  1
  Mn3.30+  Mn73  1  0.16587004  0.00153582  0.50143827  1
  Mn3.30+  Mn74  1  0.16599818  0.33291483  -0.00028482  1
  Mn3.30+  Mn75  1  0.16724533  0.33156879  0.50047928  1
  Mn3.30+  Mn76  1  0.16701443  0.66787200  0.00009878  1
  Mn3.30+  Mn77  1  0.16643720  0.66746670  0.50028760  1
  Mn3.30+  Mn78  1  0.50205890  0.00083992  0.00146916  1
  Mn3.30+  Mn79  1  0.50152198  0.00143353  0.49989454  1
  Mn3.30+  Mn80  1  0.50288760  0.33248719  -0.00231981  1
  Mn3.30+  Mn81  1  0.50424456  0.33262601  0.50003001  1
  Mn3.30+  Mn82  1  0.49955367  0.66669116  -0.00112613  1
  Mn3.30+  Mn83  1  0.50068317  0.66497481  0.50177007  1
  Mn3.30+  Mn84  1  0.83125645  0.00049911  0.00259391  1
  Mn3.30+  Mn85  1  0.83466928  0.00067257  0.50002099  1
  Mn3.30+  Mn86  1  0.83331613  0.33082613  -0.00182672  1
  Mn3.30+  Mn87  1  0.82805422  0.33160021  0.50224191  1
  Mn3.30+  Mn88  1  0.83279810  0.66558098  0.00001095  1
  Mn3.30+  Mn89  1  0.83093517  0.66708046  0.50122669  1
  Mn3.30+  Mn90  1  -0.00040196  0.16850182  0.24826688  1
  Mn3.30+  Mn91  1  -0.00013256  0.16547338  0.75224747  1
  Mn3.30+  Mn92  1  -0.00106923  0.49810946  0.24982225  1
  Mn3.30+  Mn93  1  -0.00205775  0.49980320  0.74978956  1
  Mn3.30+  Mn94  1  0.00102624  0.83378905  0.24892063  1
  Mn3.30+  Mn95  1  -0.00297152  0.83709583  0.74983643  1
  Mn3.30+  Mn96  1  0.33726738  0.16608779  0.24761561  1
  Mn3.30+  Mn97  1  0.33389927  0.16720413  0.75181098  1
  Mn3.30+  Mn98  1  0.33402041  0.49912944  0.25001430  1
  Mn3.30+  Mn99  1  0.33696445  0.49993316  0.74885678  1
  Mn3.30+  Mn100  1  0.33266579  0.83468740  0.24934870  1
  Mn3.30+  Mn101  1  0.33409103  0.83391201  0.74863104  1
  Mn3.30+  Mn102  1  0.66466088  0.16686859  0.25034764  1
  Mn3.30+  Mn103  1  0.66979429  0.16823116  0.75095124  1
  Mn3.30+  Mn104  1  0.66589556  0.49859555  0.24973300  1
  Mn3.30+  Mn105  1  0.66294128  0.49723812  0.75134178  1
  Mn3.30+  Mn106  1  0.66568729  0.83435292  0.25003971  1
  Mn3.30+  Mn107  1  0.66666707  0.83354645  0.74761319  1
  Mn3.30+  Mn108  1  0.16812232  0.00012836  0.24962840  1
  Mn3.30+  Mn109  1  0.16387197  0.00187070  0.74991235  1
  Mn3.30+  Mn110  1  0.16653130  0.33268291  0.24787054  1
  Mn3.30+  Mn111  1  0.16659533  0.33205438  0.75119911  1
  Mn3.30+  Mn112  1  0.16617916  0.66762178  0.24981341  1
  Mn3.30+  Mn113  1  0.16688705  0.66797264  0.74917709  1
  Mn3.30+  Mn114  1  0.50245302  0.00186377  0.24886505  1
  Mn3.30+  Mn115  1  0.50119099  0.00018806  0.75039393  1
  Mn3.30+  Mn116  1  0.50307562  0.32977326  0.25112274  1
  Mn3.30+  Mn117  1  0.50389041  0.33522894  0.75076395  1
  Mn3.30+  Mn118  1  0.49980469  0.66548468  0.24996097  1
  Mn3.30+  Mn119  1  0.50044805  0.66631758  0.74916146  1
  Mn3.30+  Mn120  1  0.83117231  0.00090461  0.24794007  1
  Mn3.30+  Mn121  1  0.83473473  -0.00014781  0.75032305  1
  Mn3.30+  Mn122  1  0.83289098  0.33205842  0.24945637  1
  Mn3.30+  Mn123  1  0.82883068  0.33098252  0.75070523  1
  Mn3.30+  Mn124  1  0.83263410  0.66455173  0.24960510  1
  Mn3.30+  Mn125  1  0.83129912  0.66762513  0.74953692  1
  Mn3.30+  Mn126  1  0.00035743  0.16684104  -0.00074590  1
  Mn3.30+  Mn127  1  -0.00077732  0.16694645  0.50019141  1
  Mn3.30+  Mn128  1  -0.00151459  0.49863201  -0.00038216  1
  Mn3.30+  Mn129  1  -0.00180833  0.49919347  0.50075287  1
  Mn3.30+  Mn130  1  0.00027518  0.83492598  0.00136351  1
  Mn3.30+  Mn131  1  -0.00244585  0.83622034  0.50062637  1
  Mn3.30+  Mn132  1  0.33458172  0.16695335  -0.00042286  1
  Mn3.30+  Mn133  1  0.33616477  0.16632123  0.50051728  1
  Mn3.30+  Mn134  1  0.33519930  0.50038206  -0.00065333  1
  Mn3.30+  Mn135  1  0.33558384  0.49856777  0.50141096  1
  Mn3.30+  Mn136  1  0.33271980  0.83438165  0.00023684  1
  Mn3.30+  Mn137  1  0.33399087  0.83425246  0.50166019  1
  Mn3.30+  Mn138  1  0.66790951  0.16616564  0.00046130  1
  Mn3.30+  Mn139  1  0.66593301  0.16916974  0.49889029  1
  Mn3.30+  Mn140  1  0.66414786  0.49769417  -0.00275470  1
  Mn3.30+  Mn141  1  0.66456150  0.49757266  0.50152959  1
  Mn3.30+  Mn142  1  0.66523477  0.83357757  0.00029802  1
  Mn3.30+  Mn143  1  0.66714002  0.83423120  0.50248249  1
  O2-  O144  1  0.02573172  0.15900527  0.12504138  1
  O2-  O145  1  0.02319800  0.16294216  0.62772603  1
  O2-  O146  1  0.02412563  0.49492254  0.12277469  1
  O2-  O147  1  0.02382137  0.49366687  0.62528574  1
  O2-  O148  1  0.02978966  0.82633922  0.12786190  1
  O2-  O149  1  0.02546079  0.82771281  0.62437707  1
  O2-  O150  1  0.36340244  0.16046206  0.12316555  1
  O2-  O151  1  0.36197655  0.16099299  0.62743329  1
  O2-  O152  1  0.35292757  0.49491597  0.12414180  1
  O2-  O153  1  0.36228524  0.49274959  0.62454422  1
  O2-  O154  1  0.35353188  0.83020705  0.12531045  1
  O2-  O155  1  0.36034995  0.82982751  0.62429885  1
  O2-  O156  1  0.69126612  0.16232433  0.12514462  1
  O2-  O157  1  0.69153881  0.15763205  0.62541055  1
  O2-  O158  1  0.68461443  0.49466439  0.12273733  1
  O2-  O159  1  0.69018618  0.49314191  0.62743377  1
  O2-  O160  1  0.68866800  0.82352433  0.12456744  1
  O2-  O161  1  0.69538142  0.82960390  0.62413695  1
  O2-  O162  1  0.13876137  0.32826219  0.12235283  1
  O2-  O163  1  0.14078816  0.32569865  0.62724368  1
  O2-  O164  1  0.13903871  0.65645737  0.12628888  1
  O2-  O165  1  0.13836815  0.66014513  0.62492559  1
  O2-  O166  1  0.14382128  0.99421315  0.12579658  1
  O2-  O167  1  0.13702012  0.99707300  0.62435296  1
  O2-  O168  1  0.47884595  0.32486290  0.12445206  1
  O2-  O169  1  0.47514842  0.32509826  0.62489969  1
  O2-  O170  1  0.47541520  0.66470281  0.12433224  1
  O2-  O171  1  0.47543695  0.65632008  0.62480240  1
  O2-  O172  1  0.47609988  0.99649059  0.12446824  1
  O2-  O173  1  0.47850616  0.99735689  0.62536993  1
  O2-  O174  1  0.80759828  0.32850512  0.12237258  1
  O2-  O175  1  0.80299270  0.32500236  0.62790685  1
  O2-  O176  1  0.80867262  0.66421701  0.12352109  1
  O2-  O177  1  0.80608569  0.65867744  0.62599943  1
  O2-  O178  1  0.80235740  0.99313505  0.12772006  1
  O2-  O179  1  0.80938351  0.99789157  0.62267268  1
  O2-  O180  1  0.30767015  0.16981857  0.37377844  1
  O2-  O181  1  0.30490260  0.17377678  0.87521906  1
  O2-  O182  1  0.30698304  0.50335374  0.37661080  1
  O2-  O183  1  0.30697138  0.50472940  0.87381505  1
  O2-  O184  1  0.30778113  0.83951457  0.37719610  1
  O2-  O185  1  0.30672390  0.83805444  0.87278649  1
  O2-  O186  1  0.64185695  0.17490733  0.37563893  1
  O2-  O187  1  0.64481389  0.16905086  0.87478142  1
  O2-  O188  1  0.64425155  0.50217912  0.37612417  1
  O2-  O189  1  0.63799185  0.50807798  0.87363627  1
  O2-  O190  1  0.64262228  0.83990951  0.37771466  1
  O2-  O191  1  0.64943264  0.83933753  0.87396564  1
  O2-  O192  1  0.97543359  0.16876936  0.37092941  1
  O2-  O193  1  0.97263387  0.17161653  0.87592661  1
  O2-  O194  1  0.97246273  0.50484667  0.37849607  1
  O2-  O195  1  0.97354715  0.50731017  0.87305186  1
  O2-  O196  1  0.97285650  0.84072476  0.37472712  1
  O2-  O197  1  0.97333278  0.83599443  0.87393243  1
  O2-  O198  1  0.19385167  0.00718518  0.37584806  1
  O2-  O199  1  0.19090631  0.00365290  0.87467182  1
  O2-  O200  1  0.19440263  0.33562158  0.37480781  1
  O2-  O201  1  0.19425551  0.34227198  0.87466482  1
  O2-  O202  1  0.19404180  0.67400833  0.37515584  1
  O2-  O203  1  0.19440227  0.67482179  0.87311055  1
  O2-  O204  1  0.52414231  0.00747986  0.37514674  1
  O2-  O205  1  0.52638149  0.00636098  0.87562565  1
  O2-  O206  1  0.52770611  0.33992066  0.37743045  1
  O2-  O207  1  0.52650335  0.33783835  0.87247392  1
  O2-  O208  1  0.51695495  0.67227927  0.37799868  1
  O2-  O209  1  0.52158640  0.67403221  0.87262743  1
  O2-  O210  1  0.85856014  0.00772603  0.37252223  1
  O2-  O211  1  0.84873764  0.00089277  0.87751119  1
  O2-  O212  1  0.85032701  0.33380903  0.37680182  1
  O2-  O213  1  0.85922922  0.33826284  0.87329882  1
  O2-  O214  1  0.85737014  0.67151664  0.37626893  1
  O2-  O215  1  0.85797508  0.67426334  0.87433657  1
  O2-  O216  1  0.24199523  0.09284637  0.02228589  1
  O2-  O217  1  0.23799186  0.09390948  0.52303614  1
  O2-  O218  1  0.23789869  0.42750234  0.01985240  1
  O2-  O219  1  0.24056307  0.42712533  0.52226478  1
  O2-  O220  1  0.23542977  0.76153296  0.02194395  1
  O2-  O221  1  0.23672697  0.76136153  0.52204615  1
  O2-  O222  1  0.56943224  0.09871712  0.01736887  1
  O2-  O223  1  0.57492290  0.09522055  0.52095685  1
  O2-  O224  1  0.57387396  0.42323579  0.01792828  1
  O2-  O225  1  0.56661561  0.43235494  0.51882849  1
  O2-  O226  1  0.57611821  0.75737378  0.01711069  1
  O2-  O227  1  0.57053670  0.76291965  0.52163327  1
  O2-  O228  1  0.90570800  0.09074471  0.02293901  1
  O2-  O229  1  0.90328261  0.09606992  0.51721404  1
  O2-  O230  1  0.90518777  0.42582941  0.01230401  1
  O2-  O231  1  0.90036432  0.42448985  0.52220317  1
  O2-  O232  1  0.90706824  0.76243164  0.02188693  1
  O2-  O233  1  0.90455022  0.76527752  0.52096730  1
  O2-  O234  1  0.26482607  0.26055263  0.22673801  1
  O2-  O235  1  0.26303436  0.25965807  0.72781810  1
  O2-  O236  1  0.25899570  0.59671102  0.23027834  1
  O2-  O237  1  0.26321237  0.59285895  0.72695947  1
  O2-  O238  1  0.26441503  0.93042714  0.23325157  1
  O2-  O239  1  0.25796119  0.92814768  0.72791126  1
  O2-  O240  1  0.59766166  0.26181462  0.22970798  1
  O2-  O241  1  0.59604090  0.26089796  0.72908590  1
  O2-  O242  1  0.59457076  0.59362499  0.23292730  1
  O2-  O243  1  0.59793080  0.59798256  0.73228631  1
  O2-  O244  1  0.59790143  0.93333535  0.23409861  1
  O2-  O245  1  0.59695251  0.92769242  0.73161043  1
  O2-  O246  1  0.92774641  0.25914378  0.22533460  1
  O2-  O247  1  0.92920882  0.26183167  0.72966104  1
  O2-  O248  1  0.93186449  0.59666845  0.23362982  1
  O2-  O249  1  0.92659256  0.59616486  0.72920547  1
  O2-  O250  1  0.92821723  0.92671371  0.22802843  1
  O2-  O251  1  0.92879070  0.92959474  0.72834688  1
  O2-  O252  1  0.09946220  0.23685175  0.26587249  1
  O2-  O253  1  0.09510698  0.23908531  0.77325446  1
  O2-  O254  1  0.09556155  0.57284547  0.27318920  1
  O2-  O255  1  0.09632442  0.57447485  0.77045618  1
  O2-  O256  1  0.09241471  0.90698308  0.27440836  1
  O2-  O257  1  0.09647071  0.90313095  0.76714257  1
  O2-  O258  1  0.42880818  0.23762418  0.27402384  1
  O2-  O259  1  0.42951305  0.23984161  0.77148250  1
  O2-  O260  1  0.42542377  0.57213758  0.27249516  1
  O2-  O261  1  0.42771410  0.57113122  0.77337278  1
  O2-  O262  1  0.42985107  0.90674045  0.27326999  1
  O2-  O263  1  0.42158290  0.91120556  0.76789622  1
  O2-  O264  1  0.76351244  0.23592578  0.26422864  1
  O2-  O265  1  0.76641876  0.23246569  0.77046011  1
  O2-  O266  1  0.76171381  0.56902176  0.26777919  1
  O2-  O267  1  0.76016093  0.56946953  0.77045331  1
  O2-  O268  1  0.76249960  0.90556875  0.27214409  1
  O2-  O269  1  0.76166674  0.90572911  0.76748129  1
  O2-  O270  1  0.07451996  0.07335346  0.47658198  1
  O2-  O271  1  0.07445548  0.07313201  0.98636861  1
  O2-  O272  1  0.07654123  0.40689476  0.48316186  1
  O2-  O273  1  0.07396095  0.40779031  0.97503215  1
  O2-  O274  1  0.06900864  0.74118748  0.47887904  1
  O2-  O275  1  0.07205869  0.73771725  0.97818519  1
  O2-  O276  1  0.40284401  0.07098862  0.48393790  1
  O2-  O277  1  0.40528980  0.07409390  0.97639662  1
  O2-  O278  1  0.40479714  0.40262875  0.47863869  1
  O2-  O279  1  0.40474616  0.40349196  0.98259194  1
  O2-  O280  1  0.40329474  0.73730217  0.48206614  1
  O2-  O281  1  0.40157934  0.73699972  0.98392178  1
  O2-  O282  1  0.73842006  0.07274379  0.47879391  1
  O2-  O283  1  0.73640084  0.07085871  0.98341741  1
  O2-  O284  1  0.73566201  0.40307286  0.47982731  1
  O2-  O285  1  0.73837951  0.40288569  0.97744009  1
  O2-  O286  1  0.73955467  0.74016494  0.48151156  1
  O2-  O287  1  0.74057578  0.73820560  0.97967958  1
  O2-  O288  1  0.09711763  0.23654927  0.48389027  1
  O2-  O289  1  0.09845541  0.23928058  0.97672570  1
  O2-  O290  1  0.09688223  0.57435773  0.47816666  1
  O2-  O291  1  0.09626838  0.57332939  0.97798363  1
  O2-  O292  1  0.09658639  0.90548389  0.47831436  1
  O2-  O293  1  0.09361351  0.90511435  0.98202115  1
  O2-  O294  1  0.43205086  0.23810611  0.47840838  1
  O2-  O295  1  0.42757981  0.24143370  0.97552070  1
  O2-  O296  1  0.42554315  0.57069177  0.47676287  1
  O2-  O297  1  0.42718229  0.57276703  0.97639849  1
  O2-  O298  1  0.42809980  0.90729840  0.47845940  1
  O2-  O299  1  0.42368187  0.91135938  0.98045642  1
  O2-  O300  1  0.76341181  0.23407563  0.48366967  1
  O2-  O301  1  0.76679552  0.23343279  0.98254185  1
  O2-  O302  1  0.76240060  0.56580324  0.48537764  1
  O2-  O303  1  0.75795557  0.57124396  0.97660205  1
  O2-  O304  1  0.76335184  0.90860201  0.47773254  1
  O2-  O305  1  0.76255982  0.90265299  0.98349302  1
  O2-  O306  1  0.07304029  0.07283387  0.26931009  1
  O2-  O307  1  0.07637832  0.07645962  0.76868717  1
  O2-  O308  1  0.07683060  0.41062436  0.26934561  1
  O2-  O309  1  0.07087469  0.40562579  0.77063211  1
  O2-  O310  1  0.07119452  0.73806372  0.27426463  1
  O2-  O311  1  0.06973111  0.74109006  0.76984879  1
  O2-  O312  1  0.40317346  0.06885502  0.26700576  1
  O2-  O313  1  0.40588034  0.07561917  0.77258052  1
  O2-  O314  1  0.40838934  0.40160098  0.26936491  1
  O2-  O315  1  0.40214455  0.40246760  0.76832832  1
  O2-  O316  1  0.40218865  0.73966296  0.26917808  1
  O2-  O317  1  0.40186912  0.73514560  0.76432113  1
  O2-  O318  1  0.73795657  0.07581693  0.27386730  1
  O2-  O319  1  0.73737547  0.06896669  0.76549686  1
  O2-  O320  1  0.73805472  0.40396923  0.26764357  1
  O2-  O321  1  0.73633424  0.40395929  0.77530581  1
  O2-  O322  1  0.74343648  0.74178570  0.26676645  1
  O2-  O323  1  0.73691163  0.73782558  0.77034178  1
  O2-  O324  1  0.24070002  0.09655654  0.22733720  1
  O2-  O325  1  0.24252448  0.09148332  0.72731834  1
  O2-  O326  1  0.23965143  0.42620884  0.22975916  1
  O2-  O327  1  0.23841640  0.42819660  0.72792533  1
  O2-  O328  1  0.23452521  0.76270988  0.22913416  1
  O2-  O329  1  0.23782764  0.76127502  0.72577599  1
  O2-  O330  1  0.57060786  0.09765385  0.23116487  1
  O2-  O331  1  0.57382099  0.09607319  0.73182759  1
  O2-  O332  1  0.57286938  0.42535294  0.23360922  1
  O2-  O333  1  0.56824905  0.43053388  0.72838321  1
  O2-  O334  1  0.57355575  0.75921774  0.23691893  1
  O2-  O335  1  0.57251878  0.76179396  0.72459938  1
  O2-  O336  1  0.90553653  0.09248832  0.22639478  1
  O2-  O337  1  0.90563734  0.09379307  0.73270263  1
  O2-  O338  1  0.90586634  0.42505217  0.23729242  1
  O2-  O339  1  0.90106564  0.42534959  0.72889143  1
  O2-  O340  1  0.90780580  0.76142622  0.22986616  1
  O2-  O341  1  0.90434341  0.76403659  0.72753689  1
  O2-  O342  1  0.26311426  0.26131006  0.02316511  1
  O2-  O343  1  0.26396740  0.25977065  0.52122889  1
  O2-  O344  1  0.26058953  0.59593532  0.01988241  1
  O2-  O345  1  0.26299759  0.59261928  0.52208440  1
  O2-  O346  1  0.26078461  0.92962419  0.01615773  1
  O2-  O347  1  0.26015664  0.92948552  0.52306897  1
  O2-  O348  1  0.59843582  0.26039873  0.01574793  1
  O2-  O349  1  0.59649218  0.26225701  0.52640550  1
  O2-  O350  1  0.59571857  0.59712886  0.01565436  1
  O2-  O351  1  0.59557028  0.59469094  0.51983650  1
  O2-  O352  1  0.59798172  0.93151927  0.01614267  1
  O2-  O353  1  0.59754628  0.92963448  0.51811810  1
  O2-  O354  1  0.93132899  0.26234907  0.02090341  1
  O2-  O355  1  0.92464386  0.26084842  0.52314723  1
  O2-  O356  1  0.92998857  0.59756280  0.01569560  1
  O2-  O357  1  0.92690296  0.59721995  0.52171241  1
  O2-  O358  1  0.92422789  0.92640143  0.02618652  1
  O2-  O359  1  0.93309030  0.93326368  0.51708385  1
