# generated using pymatgen
data_Sr7Ca15Pr50Mn72O216
_symmetry_space_group_name_H-M   'P 1'
_cell_length_a   16.56065756
_cell_length_b   16.60594108
_cell_length_c   15.59275816
_cell_angle_alpha   90.00151358
_cell_angle_beta   90.00107458
_cell_angle_gamma   89.98791280
_symmetry_Int_Tables_number   1
_chemical_formula_structural   Sr7Ca15Pr50Mn72O216
_chemical_formula_sum   'Sr7 Ca15 Pr50 Mn72 O216'
_cell_volume   4288.09109639
_cell_formula_units_Z   1
loop_
 _symmetry_equiv_pos_site_id
 _symmetry_equiv_pos_as_xyz
  1  'x, y, z'
loop_
 _atom_type_symbol
 _atom_type_oxidation_number
  Sr2+  2.0
  Ca2+  2.0
  Pr3+  3.0
  Mn3.30+  3.3
  O2-  -2.0
loop_
 _atom_site_type_symbol
 _atom_site_label
 _atom_site_symmetry_multiplicity
 _atom_site_fract_x
 _atom_site_fract_y
 _atom_site_fract_z
 _atom_site_occupancy
  Sr2+  Sr0  1  0.17046370  0.51024286  0.12587669  1
  Sr2+  Sr1  1  0.50513597  0.51199081  0.12561317  1
  Sr2+  Sr2  1  0.49695700  0.15566542  0.37579023  1
  Sr2+  Sr3  1  0.49920119  0.84002330  0.12467476  1
  Sr2+  Sr4  1  0.16863364  0.84188639  0.12568382  1
  Sr2+  Sr5  1  0.83536639  0.51023565  0.12514894  1
  Sr2+  Sr6  1  0.17008705  0.84244403  0.62431125  1
  Ca2+  Ca7  1  0.49575466  0.15244950  0.87410463  1
  Ca2+  Ca8  1  0.50191317  0.17953391  0.62539555  1
  Ca2+  Ca9  1  0.66326776  0.67957842  0.12761076  1
  Ca2+  Ca10  1  -0.00521673  0.34838145  0.62517293  1
  Ca2+  Ca11  1  0.83092446  0.48508401  0.87609757  1
  Ca2+  Ca12  1  0.83060882  0.48658396  0.37328828  1
  Ca2+  Ca13  1  -0.00471989  0.01599445  0.12636436  1
  Ca2+  Ca14  1  0.16219190  0.15110007  0.87580322  1
  Ca2+  Ca15  1  0.33048395  0.68193692  0.62409532  1
  Ca2+  Ca16  1  0.66430487  0.68141461  0.62273996  1
  Ca2+  Ca17  1  0.67166494  0.65105388  0.37229791  1
  Ca2+  Ca18  1  0.33136418  0.68016642  0.12611833  1
  Ca2+  Ca19  1  0.83705170  0.18094440  0.12458854  1
  Ca2+  Ca20  1  1.00314734  0.98556981  0.37358746  1
  Ca2+  Ca21  1  0.33577116  0.98441909  0.37373002  1
  Pr3+  Pr22  1  0.67041471  0.32282101  0.37377081  1
  Pr3+  Pr23  1  0.66279452  0.34670073  0.62474352  1
  Pr3+  Pr24  1  0.83767738  0.84508172  0.12561151  1
  Pr3+  Pr25  1  0.66748172  0.98682241  0.37412506  1
  Pr3+  Pr26  1  0.33684092  0.65574657  0.87651818  1
  Pr3+  Pr27  1  0.66742222  0.98684601  0.87554631  1
  Pr3+  Pr28  1  0.49827094  0.82213499  0.37279130  1
  Pr3+  Pr29  1  0.83506947  0.84570943  0.62449534  1
  Pr3+  Pr30  1  0.49797503  0.82036125  0.87683497  1
  Pr3+  Pr31  1  0.16727450  0.17662600  0.12370400  1
  Pr3+  Pr32  1  0.67032802  0.65341248  0.87605290  1
  Pr3+  Pr33  1  0.32916066  0.01195687  0.62278647  1
  Pr3+  Pr34  1  1.00222682  0.65279444  0.87534181  1
  Pr3+  Pr35  1  0.49737641  0.48761693  0.87560066  1
  Pr3+  Pr36  1  0.50113173  0.84512116  0.62468671  1
  Pr3+  Pr37  1  0.33347141  0.34285670  0.62397678  1
  Pr3+  Pr38  1  0.33086013  0.34554272  0.12593999  1
  Pr3+  Pr39  1  0.16467486  0.81915324  0.87533385  1
  Pr3+  Pr40  1  1.00041721  0.32304074  0.37411538  1
  Pr3+  Pr41  1  -0.00283239  0.68126106  0.62394016  1
  Pr3+  Pr42  1  -0.00290172  0.67834955  0.12585787  1
  Pr3+  Pr43  1  0.50623636  0.51734761  0.62451529  1
  Pr3+  Pr44  1  0.82894923  0.15400142  0.37305893  1
  Pr3+  Pr45  1  0.50045336  0.48899320  0.37458081  1
  Pr3+  Pr46  1  0.82903332  0.81863399  0.37485739  1
  Pr3+  Pr47  1  0.32962079  0.00949254  0.12778929  1
  Pr3+  Pr48  1  0.66673956  0.34651813  0.12521508  1
  Pr3+  Pr49  1  0.66281853  0.01029159  0.12569313  1
  Pr3+  Pr50  1  0.16472295  0.48739064  0.37440181  1
  Pr3+  Pr51  1  0.66889725  0.32195696  0.87569728  1
  Pr3+  Pr52  1  1.00218796  0.65331032  0.37484496  1
  Pr3+  Pr53  1  0.33323035  0.98800195  0.87592512  1
  Pr3+  Pr54  1  0.33625030  0.32181105  0.37419021  1
  Pr3+  Pr55  1  0.83729894  0.18285943  0.62522437  1
  Pr3+  Pr56  1  0.33672518  0.31766200  0.87557499  1
  Pr3+  Pr57  1  0.16202277  0.15096612  0.37489583  1
  Pr3+  Pr58  1  0.50132160  0.17727072  0.12478712  1
  Pr3+  Pr59  1  0.66042125  0.01524826  0.62427170  1
  Pr3+  Pr60  1  0.16904357  0.51292688  0.62438350  1
  Pr3+  Pr61  1  -0.00076538  0.01116425  0.62291043  1
  Pr3+  Pr62  1  0.16499673  0.48786097  0.87534701  1
  Pr3+  Pr63  1  1.00306237  0.31907219  0.87513628  1
  Pr3+  Pr64  1  -0.00318982  0.34559813  0.12425723  1
  Pr3+  Pr65  1  0.16794016  0.17782721  0.62650983  1
  Pr3+  Pr66  1  0.33705812  0.65718531  0.37396703  1
  Pr3+  Pr67  1  0.82961806  0.15423892  0.87672466  1
  Pr3+  Pr68  1  1.00368459  0.98905787  0.87648339  1
  Pr3+  Pr69  1  0.16584567  0.82192046  0.37499664  1
  Pr3+  Pr70  1  0.83651588  0.51264648  0.62445587  1
  Pr3+  Pr71  1  0.83053703  0.82095000  0.87534299  1
  Mn3.30+  Mn72  1  0.16446960  0.00014249  0.00253728  1
  Mn3.30+  Mn73  1  0.16648382  -0.00157602  0.49754691  1
  Mn3.30+  Mn74  1  0.16727944  0.33139597  -0.00188576  1
  Mn3.30+  Mn75  1  0.16450955  0.33239047  0.50256828  1
  Mn3.30+  Mn76  1  0.16858715  0.66506081  0.00154376  1
  Mn3.30+  Mn77  1  0.16900426  0.66669977  0.50046323  1
  Mn3.30+  Mn78  1  0.49914626  0.00031425  -0.00011337  1
  Mn3.30+  Mn79  1  0.49697561  0.00145395  0.49933472  1
  Mn3.30+  Mn80  1  0.50052183  0.33220969  -0.00059640  1
  Mn3.30+  Mn81  1  0.50034143  0.33265540  0.50071802  1
  Mn3.30+  Mn82  1  0.50209005  0.66619438  0.00320071  1
  Mn3.30+  Mn83  1  0.50348872  0.66826596  0.49927903  1
  Mn3.30+  Mn84  1  0.83459297  0.00168713  0.00249177  1
  Mn3.30+  Mn85  1  0.83304920  0.00049215  0.49849939  1
  Mn3.30+  Mn86  1  0.83416214  0.33333999  -0.00078020  1
  Mn3.30+  Mn87  1  0.83406332  0.33529535  0.50019596  1
  Mn3.30+  Mn88  1  0.83208680  0.66523209  0.00122787  1
  Mn3.30+  Mn89  1  0.83022856  0.66506196  0.49939581  1
  Mn3.30+  Mn90  1  -0.00243599  0.16449036  0.24985140  1
  Mn3.30+  Mn91  1  0.00072172  0.16719884  0.74983865  1
  Mn3.30+  Mn92  1  -0.00113848  0.50025307  0.24991187  1
  Mn3.30+  Mn93  1  -0.00131824  0.49843071  0.75013520  1
  Mn3.30+  Mn94  1  -0.00024736  0.83570754  0.25053440  1
  Mn3.30+  Mn95  1  0.00001553  0.83405784  0.74956857  1
  Mn3.30+  Mn96  1  0.33267191  0.16450573  0.25140366  1
  Mn3.30+  Mn97  1  0.33393360  0.16550969  0.75063494  1
  Mn3.30+  Mn98  1  0.33444919  0.50241967  0.24914756  1
  Mn3.30+  Mn99  1  0.33432130  0.50032771  0.74809273  1
  Mn3.30+  Mn100  1  0.33251386  0.83335743  0.24949592  1
  Mn3.30+  Mn101  1  0.33344013  0.83269327  0.74967471  1
  Mn3.30+  Mn102  1  0.66771920  0.16609177  0.24838376  1
  Mn3.30+  Mn103  1  0.66357971  0.16728708  0.75098389  1
  Mn3.30+  Mn104  1  0.66903766  0.50264502  0.24993126  1
  Mn3.30+  Mn105  1  0.66853701  0.50166733  0.75023732  1
  Mn3.30+  Mn106  1  0.66663280  0.83051844  0.24948769  1
  Mn3.30+  Mn107  1  0.66633418  0.83251954  0.74845087  1
  Mn3.30+  Mn108  1  0.16370058  -0.00116746  0.25029319  1
  Mn3.30+  Mn109  1  0.16669197  0.00019311  0.75019368  1
  Mn3.30+  Mn110  1  0.16693421  0.33187430  0.25068819  1
  Mn3.30+  Mn111  1  0.16533903  0.33193249  0.74879380  1
  Mn3.30+  Mn112  1  0.16839239  0.66607361  0.24928619  1
  Mn3.30+  Mn113  1  0.16878258  0.66597500  0.74891629  1
  Mn3.30+  Mn114  1  0.49795696  -0.00068935  0.25053182  1
  Mn3.30+  Mn115  1  0.49852240  0.00244519  0.75013856  1
  Mn3.30+  Mn116  1  0.50079506  0.33347442  0.24987796  1
  Mn3.30+  Mn117  1  0.50000755  0.33135691  0.75007311  1
  Mn3.30+  Mn118  1  0.50368373  0.66674532  0.24935245  1
  Mn3.30+  Mn119  1  0.50134312  0.66791265  0.74809327  1
  Mn3.30+  Mn120  1  0.83602709  0.00038410  0.24963681  1
  Mn3.30+  Mn121  1  0.83235777  0.00109117  0.74944824  1
  Mn3.30+  Mn122  1  0.83450064  0.33353890  0.24942688  1
  Mn3.30+  Mn123  1  0.83414959  0.33486788  0.75085562  1
  Mn3.30+  Mn124  1  0.83059260  0.66482935  0.25004054  1
  Mn3.30+  Mn125  1  0.83207752  0.66540055  0.74951320  1
  Mn3.30+  Mn126  1  -0.00080810  0.16527421  0.00095040  1
  Mn3.30+  Mn127  1  -0.00115800  0.16716107  0.49936723  1
  Mn3.30+  Mn128  1  -0.00117460  0.49985132  -0.00057184  1
  Mn3.30+  Mn129  1  -0.00112840  0.49884638  0.50015793  1
  Mn3.30+  Mn130  1  0.00022242  0.83455366  0.00148086  1
  Mn3.30+  Mn131  1  -0.00062139  0.83505111  0.49831573  1
  Mn3.30+  Mn132  1  0.33267158  0.16490639  -0.00194604  1
  Mn3.30+  Mn133  1  0.33362685  0.16516953  0.49998365  1
  Mn3.30+  Mn134  1  0.33379375  0.50115031  0.00149037  1
  Mn3.30+  Mn135  1  0.33484218  0.50154310  0.50117341  1
  Mn3.30+  Mn136  1  0.33222686  0.83245146  0.00182597  1
  Mn3.30+  Mn137  1  0.33410120  0.83332886  0.49943135  1
  Mn3.30+  Mn138  1  0.66621636  0.16605081  0.00037324  1
  Mn3.30+  Mn139  1  0.66492186  0.16748082  0.49995552  1
  Mn3.30+  Mn140  1  0.66833601  0.50165438  0.00077253  1
  Mn3.30+  Mn141  1  0.66956183  0.50292411  0.49910422  1
  Mn3.30+  Mn142  1  0.66670661  0.83169386  0.00163438  1
  Mn3.30+  Mn143  1  0.66615462  0.83125517  0.50003166  1
  O2-  O144  1  0.02443899  0.16274603  0.12724767  1
  O2-  O145  1  0.02446152  0.15786557  0.62467912  1
  O2-  O146  1  0.02031111  0.49534446  0.12508067  1
  O2-  O147  1  0.02490715  0.49437877  0.62546309  1
  O2-  O148  1  0.01894088  0.82401113  0.12582024  1
  O2-  O149  1  0.01945864  0.82985611  0.62449081  1
  O2-  O150  1  0.35702016  0.15929820  0.12486302  1
  O2-  O151  1  0.35955460  0.15976018  0.62514283  1
  O2-  O152  1  0.35533696  0.49061302  0.12679570  1
  O2-  O153  1  0.36265987  0.48938694  0.62652392  1
  O2-  O154  1  0.34986646  0.82872905  0.12439997  1
  O2-  O155  1  0.35734269  0.82801125  0.62569159  1
  O2-  O156  1  0.69445115  0.15878663  0.12456014  1
  O2-  O157  1  0.69292247  0.16257220  0.62621307  1
  O2-  O158  1  0.68732697  0.49261732  0.12476846  1
  O2-  O159  1  0.69313949  0.49285574  0.62544856  1
  O2-  O160  1  0.69323071  0.82811539  0.12643797  1
  O2-  O161  1  0.69170199  0.82826516  0.62514850  1
  O2-  O162  1  0.14196834  0.32601175  0.12249327  1
  O2-  O163  1  0.13585442  0.32487503  0.62557775  1
  O2-  O164  1  0.14140324  0.66451651  0.12462970  1
  O2-  O165  1  0.14138543  0.66213089  0.62427729  1
  O2-  O166  1  0.13853927  0.99951940  0.12635316  1
  O2-  O167  1  0.14308738  0.99869397  0.62311490  1
  O2-  O168  1  0.47529744  0.32698386  0.12379173  1
  O2-  O169  1  0.47749326  0.32752016  0.62632172  1
  O2-  O170  1  0.47439438  0.66502945  0.12512336  1
  O2-  O171  1  0.47311702  0.66370621  0.62481007  1
  O2-  O172  1  0.47491384  0.99890907  0.12486370  1
  O2-  O173  1  0.47291695  0.99216868  0.62532694  1
  O2-  O174  1  0.81104111  0.32648011  0.12293417  1
  O2-  O175  1  0.80684018  0.32949208  0.62604133  1
  O2-  O176  1  0.80755502  0.66646755  0.12547182  1
  O2-  O177  1  0.80605169  0.65969437  0.62518033  1
  O2-  O178  1  0.80564985  0.99169595  0.12565533  1
  O2-  O179  1  0.80540824  0.99474382  0.62440365  1
  O2-  O180  1  0.30546433  0.17597742  0.37579271  1
  O2-  O181  1  0.30344136  0.17122201  0.87431518  1
  O2-  O182  1  0.30842182  0.50776793  0.37533008  1
  O2-  O183  1  0.30932422  0.50726202  0.87164817  1
  O2-  O184  1  0.31073958  0.83722244  0.37472125  1
  O2-  O185  1  0.30947209  0.83876988  0.87555679  1
  O2-  O186  1  0.64772927  0.17348731  0.37328412  1
  O2-  O187  1  0.63859440  0.17305863  0.87545480  1
  O2-  O188  1  0.64336434  0.50369575  0.37590297  1
  O2-  O189  1  0.64065809  0.50599791  0.87418511  1
  O2-  O190  1  0.64259135  0.84088702  0.37515152  1
  O2-  O191  1  0.64314538  0.83885446  0.87306531  1
  O2-  O192  1  0.97202863  0.17645692  0.37498159  1
  O2-  O193  1  0.97312699  0.17002623  0.87306306  1
  O2-  O194  1  0.97482063  0.50465009  0.37564972  1
  O2-  O195  1  0.97370118  0.50635740  0.87358271  1
  O2-  O196  1  0.97269270  0.83946419  0.37492058  1
  O2-  O197  1  0.97448193  0.83979733  0.87489841  1
  O2-  O198  1  0.19349874  0.00526778  0.37502218  1
  O2-  O199  1  0.18860980  0.00614790  0.87619096  1
  O2-  O200  1  0.19226439  0.33774304  0.37920242  1
  O2-  O201  1  0.19335986  0.34069162  0.87306892  1
  O2-  O202  1  0.19076462  0.66874612  0.37667822  1
  O2-  O203  1  0.19080061  0.66651404  0.87400412  1
  O2-  O204  1  0.52406896  0.00062085  0.37556064  1
  O2-  O205  1  0.52464347  0.00663961  0.87428917  1
  O2-  O206  1  0.52478413  0.33812087  0.37580234  1
  O2-  O207  1  0.52475374  0.33995755  0.87408566  1
  O2-  O208  1  0.52950464  0.67382547  0.37620668  1
  O2-  O209  1  0.52558797  0.67058823  0.87369937  1
  O2-  O210  1  0.86026884  0.00726463  0.37411966  1
  O2-  O211  1  0.85856072  0.00601600  0.87580401  1
  O2-  O212  1  0.85681304  0.33863532  0.37606678  1
  O2-  O213  1  0.85829113  0.33644891  0.87433134  1
  O2-  O214  1  0.85984955  0.67279951  0.37595981  1
  O2-  O215  1  0.85975666  0.67507781  0.87331285  1
  O2-  O216  1  0.23855419  0.09266319  0.02278363  1
  O2-  O217  1  0.23626886  0.09573415  0.51995038  1
  O2-  O218  1  0.24095264  0.42446871  0.01575567  1
  O2-  O219  1  0.23634343  0.42444177  0.52282569  1
  O2-  O220  1  0.23819635  0.76004556  0.01019978  1
  O2-  O221  1  0.24164838  0.75948320  0.51351821  1
  O2-  O222  1  0.57331158  0.09359191  0.02253545  1
  O2-  O223  1  0.56959806  0.09403053  0.52245925  1
  O2-  O224  1  0.57613279  0.42574533  0.01507284  1
  O2-  O225  1  0.57324872  0.43077236  0.51996796  1
  O2-  O226  1  0.57398075  0.76100962  0.01315016  1
  O2-  O227  1  0.57060852  0.76370845  0.52061677  1
  O2-  O228  1  0.89916609  0.09781513  0.01875397  1
  O2-  O229  1  0.90411768  0.09695732  0.52130996  1
  O2-  O230  1  0.90955538  0.42367680  0.01743636  1
  O2-  O231  1  0.90415599  0.42780375  0.52070546  1
  O2-  O232  1  0.90449648  0.76210547  0.01799129  1
  O2-  O233  1  0.90251750  0.75993614  0.52010478  1
  O2-  O234  1  0.26005182  0.25901977  0.22870790  1
  O2-  O235  1  0.26283357  0.26031547  0.72722753  1
  O2-  O236  1  0.26684965  0.59654050  0.23231545  1
  O2-  O237  1  0.26377596  0.59285745  0.72572767  1
  O2-  O238  1  0.25998105  0.92887657  0.23295989  1
  O2-  O239  1  0.26452419  0.92918262  0.73422469  1
  O2-  O240  1  0.59487433  0.25866904  0.22738593  1
  O2-  O241  1  0.59766875  0.26315808  0.73176776  1
  O2-  O242  1  0.59849802  0.59619546  0.23238546  1
  O2-  O243  1  0.59793325  0.59726908  0.72767328  1
  O2-  O244  1  0.59799590  0.92845517  0.23382860  1
  O2-  O245  1  0.59331243  0.93027954  0.72974881  1
  O2-  O246  1  0.93068016  0.26263608  0.23207324  1
  O2-  O247  1  0.93025052  0.26140804  0.72862563  1
  O2-  O248  1  0.93011161  0.59941987  0.23374438  1
  O2-  O249  1  0.92917054  0.59612857  0.72768606  1
  O2-  O250  1  0.92749512  0.92905868  0.22612737  1
  O2-  O251  1  0.92718763  0.92865595  0.72921577  1
  O2-  O252  1  0.09381607  0.23786795  0.27079974  1
  O2-  O253  1  0.09550949  0.23603918  0.77344390  1
  O2-  O254  1  0.09420796  0.57285500  0.27199633  1
  O2-  O255  1  0.09422760  0.57020922  0.76828461  1
  O2-  O256  1  0.09478911  0.90537583  0.27268941  1
  O2-  O257  1  0.09394495  0.90727145  0.77192430  1
  O2-  O258  1  0.42356503  0.24143635  0.26630066  1
  O2-  O259  1  0.42507736  0.23719785  0.77360865  1
  O2-  O260  1  0.43018932  0.57487374  0.27460351  1
  O2-  O261  1  0.43091175  0.57245122  0.76928786  1
  O2-  O262  1  0.42683730  0.90573863  0.26825304  1
  O2-  O263  1  0.42882242  0.90551216  0.77116496  1
  O2-  O264  1  0.76124084  0.24147267  0.27005377  1
  O2-  O265  1  0.76159581  0.23850536  0.77073541  1
  O2-  O266  1  0.76441121  0.57012578  0.27209091  1
  O2-  O267  1  0.76421593  0.57009937  0.77323747  1
  O2-  O268  1  0.76294681  0.90534820  0.27083716  1
  O2-  O269  1  0.76124745  0.90635285  0.76994061  1
  O2-  O270  1  0.06916073  0.07210097  0.47827473  1
  O2-  O271  1  0.06959220  0.07237834  0.98176905  1
  O2-  O272  1  0.07385970  0.40591914  0.47736698  1
  O2-  O273  1  0.07400941  0.40421131  0.97822444  1
  O2-  O274  1  0.07131169  0.73982366  0.47959393  1
  O2-  O275  1  0.07344048  0.73759145  0.97807880  1
  O2-  O276  1  0.39946516  0.06742908  0.48104928  1
  O2-  O277  1  0.40235406  0.07228334  0.98047922  1
  O2-  O278  1  0.40577200  0.40738816  0.47881719  1
  O2-  O279  1  0.40574601  0.40538128  0.97906865  1
  O2-  O280  1  0.40888767  0.74077752  0.47713691  1
  O2-  O281  1  0.40905484  0.74031267  0.97813551  1
  O2-  O282  1  0.73759636  0.07218324  0.47977400  1
  O2-  O283  1  0.73674867  0.07155678  0.97767395  1
  O2-  O284  1  0.73612866  0.40273470  0.48235566  1
  O2-  O285  1  0.73898900  0.40459079  0.98192525  1
  O2-  O286  1  0.73931084  0.73598823  0.47741290  1
  O2-  O287  1  0.74149289  0.74006202  0.97657160  1
  O2-  O288  1  0.09399454  0.23796069  0.47814672  1
  O2-  O289  1  0.09662649  0.23780650  0.97793265  1
  O2-  O290  1  0.09572475  0.57168642  0.48124575  1
  O2-  O291  1  0.09421221  0.57197514  0.97816939  1
  O2-  O292  1  0.09522901  0.90713616  0.47916376  1
  O2-  O293  1  0.09384823  0.90644593  0.97721540  1
  O2-  O294  1  0.42048958  0.24229024  0.48178400  1
  O2-  O295  1  0.42756098  0.23667619  0.97891917  1
  O2-  O296  1  0.43393127  0.57539477  0.47883101  1
  O2-  O297  1  0.42923379  0.57345550  0.97726131  1
  O2-  O298  1  0.43068559  0.90274336  0.48362076  1
  O2-  O299  1  0.42604806  0.90761841  0.97814931  1
  O2-  O300  1  0.76415804  0.23984692  0.48134682  1
  O2-  O301  1  0.75894459  0.24009199  0.97724407  1
  O2-  O302  1  0.76712049  0.56654522  0.48109134  1
  O2-  O303  1  0.76272962  0.57220115  0.97535113  1
  O2-  O304  1  0.75999577  0.90428761  0.47948973  1
  O2-  O305  1  0.76235064  0.90581177  0.97992277  1
  O2-  O306  1  0.06999712  0.07269633  0.27483771  1
  O2-  O307  1  0.06813317  0.07068257  0.76655022  1
  O2-  O308  1  0.07488617  0.40524642  0.27034328  1
  O2-  O309  1  0.07210045  0.40679942  0.77363063  1
  O2-  O310  1  0.07109996  0.74006785  0.27210724  1
  O2-  O311  1  0.07192707  0.73899471  0.77029517  1
  O2-  O312  1  0.39922394  0.07086656  0.26822431  1
  O2-  O313  1  0.40188708  0.07007778  0.77016320  1
  O2-  O314  1  0.40696255  0.40835820  0.27186143  1
  O2-  O315  1  0.40417198  0.40497717  0.77145714  1
  O2-  O316  1  0.40889508  0.74070600  0.27173723  1
  O2-  O317  1  0.40769244  0.74100838  0.77331040  1
  O2-  O318  1  0.73843414  0.07046776  0.27103656  1
  O2-  O319  1  0.73601708  0.07329486  0.77150655  1
  O2-  O320  1  0.73902260  0.40430313  0.26614974  1
  O2-  O321  1  0.73535351  0.40463422  0.76961448  1
  O2-  O322  1  0.74021222  0.73855590  0.27426022  1
  O2-  O323  1  0.74126695  0.73851173  0.77165760  1
  O2-  O324  1  0.23507435  0.09468068  0.23009076  1
  O2-  O325  1  0.23954897  0.09365152  0.72789861  1
  O2-  O326  1  0.24261497  0.42390764  0.23619590  1
  O2-  O327  1  0.23821590  0.42696243  0.72699038  1
  O2-  O328  1  0.23922950  0.76012431  0.23903469  1
  O2-  O329  1  0.24075833  0.76048991  0.73747604  1
  O2-  O330  1  0.57242481  0.09248724  0.22878694  1
  O2-  O331  1  0.57048993  0.09521604  0.72605347  1
  O2-  O332  1  0.57676469  0.42531413  0.23491097  1
  O2-  O333  1  0.57234420  0.43106238  0.72983674  1
  O2-  O334  1  0.57299337  0.76095099  0.23365701  1
  O2-  O335  1  0.56978449  0.76349490  0.73207691  1
  O2-  O336  1  0.90062071  0.09861716  0.22975962  1
  O2-  O337  1  0.90331467  0.09540795  0.72891272  1
  O2-  O338  1  0.90980562  0.42304595  0.23161792  1
  O2-  O339  1  0.90514028  0.42937610  0.73010292  1
  O2-  O340  1  0.90375789  0.76183110  0.23257510  1
  O2-  O341  1  0.90408298  0.76073437  0.72858793  1
  O2-  O342  1  0.26328474  0.26023664  0.02069067  1
  O2-  O343  1  0.25780945  0.26000957  0.52407191  1
  O2-  O344  1  0.26523923  0.59736539  0.01740434  1
  O2-  O345  1  0.26402068  0.59249041  0.52356091  1
  O2-  O346  1  0.26072268  0.93062567  0.01654769  1
  O2-  O347  1  0.26309429  0.92746615  0.51738536  1
  O2-  O348  1  0.59557775  0.25939651  0.02284725  1
  O2-  O349  1  0.59670506  0.26270464  0.51757628  1
  O2-  O350  1  0.59943089  0.59823019  0.01708429  1
  O2-  O351  1  0.59697963  0.59561415  0.52352871  1
  O2-  O352  1  0.59774189  0.92892848  0.01535347  1
  O2-  O353  1  0.59380947  0.92959068  0.52065343  1
  O2-  O354  1  0.93130320  0.26185395  0.01618895  1
  O2-  O355  1  0.92880553  0.26323861  0.52207864  1
  O2-  O356  1  0.92971945  0.59991964  0.01647180  1
  O2-  O357  1  0.92896461  0.59659302  0.52166958  1
  O2-  O358  1  0.92764082  0.93157643  0.02112511  1
  O2-  O359  1  0.92456134  0.92766785  0.52200367  1
