# generated using pymatgen
data_Sr7Ca15Pr50Mn72O216
_symmetry_space_group_name_H-M   'P 1'
_cell_length_a   16.55650871
_cell_length_b   16.60265534
_cell_length_c   15.59110134
_cell_angle_alpha   90.00205762
_cell_angle_beta   89.99719521
_cell_angle_gamma   90.00402316
_symmetry_Int_Tables_number   1
_chemical_formula_structural   Sr7Ca15Pr50Mn72O216
_chemical_formula_sum   'Sr7 Ca15 Pr50 Mn72 O216'
_cell_volume   4285.71321965
_cell_formula_units_Z   1
loop_
 _symmetry_equiv_pos_site_id
 _symmetry_equiv_pos_as_xyz
  1  'x, y, z'
loop_
 _atom_type_symbol
 _atom_type_oxidation_number
  Sr2+  2.0
  Ca2+  2.0
  Pr3+  3.0
  Mn3.30+  3.3
  O2-  -2.0
loop_
 _atom_site_type_symbol
 _atom_site_label
 _atom_site_symmetry_multiplicity
 _atom_site_fract_x
 _atom_site_fract_y
 _atom_site_fract_z
 _atom_site_occupancy
  Sr2+  Sr0  1  0.49834739  0.17487570  0.62553014  1
  Sr2+  Sr1  1  0.33770877  0.98992413  0.87567138  1
  Sr2+  Sr2  1  0.33401792  0.32231079  0.87570337  1
  Sr2+  Sr3  1  1.00429598  0.65415833  0.37561466  1
  Sr2+  Sr4  1  0.83583727  0.17811094  0.12384941  1
  Sr2+  Sr5  1  0.17092549  0.84417797  0.12560461  1
  Sr2+  Sr6  1  -0.00065209  0.34340760  0.62439658  1
  Ca2+  Ca7  1  0.83148792  0.48482564  0.87546266  1
  Ca2+  Ca8  1  0.50216104  0.51176423  0.62393711  1
  Ca2+  Ca9  1  0.66359997  0.01537210  0.12533776  1
  Ca2+  Ca10  1  0.16174883  0.48566522  0.37261442  1
  Ca2+  Ca11  1  0.49494206  0.81971289  0.87453690  1
  Ca2+  Ca12  1  0.33195295  0.01601702  0.62572293  1
  Ca2+  Ca13  1  0.49323849  0.48196079  0.37632100  1
  Ca2+  Ca14  1  0.66982261  0.98728989  0.37312770  1
  Ca2+  Ca15  1  0.83016650  0.15378353  0.87748203  1
  Ca2+  Ca16  1  -0.00288576  0.67985448  0.62377192  1
  Ca2+  Ca17  1  0.16995066  0.18083265  0.12528310  1
  Ca2+  Ca18  1  0.33413258  0.31914860  0.37423785  1
  Ca2+  Ca19  1  0.32767184  0.01675398  0.12407276  1
  Ca2+  Ca20  1  0.16753999  0.51181128  0.12665564  1
  Ca2+  Ca21  1  -0.00069510  0.34625026  0.12610745  1
  Pr3+  Pr22  1  0.83668901  0.84522409  0.62557865  1
  Pr3+  Pr23  1  0.33513619  0.65081331  0.37417039  1
  Pr3+  Pr24  1  0.17060169  0.84764510  0.62385285  1
  Pr3+  Pr25  1  0.82958593  0.15323768  0.37358132  1
  Pr3+  Pr26  1  0.83917555  0.51282541  0.62597151  1
  Pr3+  Pr27  1  1.00406299  0.98849362  0.37355468  1
  Pr3+  Pr28  1  0.16589832  0.82225800  0.87624921  1
  Pr3+  Pr29  1  0.16656004  0.51197178  0.62319595  1
  Pr3+  Pr30  1  0.66632644  0.98991562  0.87650983  1
  Pr3+  Pr31  1  -0.00103833  0.01420119  0.12474621  1
  Pr3+  Pr32  1  0.16468463  0.48628108  0.87651817  1
  Pr3+  Pr33  1  0.66334511  0.01378561  0.62481673  1
  Pr3+  Pr34  1  0.66982763  0.65100517  0.87528265  1
  Pr3+  Pr35  1  0.83668441  0.84729854  0.12482082  1
  Pr3+  Pr36  1  0.00132533  0.67746357  0.12643445  1
  Pr3+  Pr37  1  0.16387664  0.82042271  0.37322965  1
  Pr3+  Pr38  1  0.67105716  0.31860625  0.87579701  1
  Pr3+  Pr39  1  1.00352281  0.98985726  0.87669561  1
  Pr3+  Pr40  1  0.17080443  0.18041849  0.62477812  1
  Pr3+  Pr41  1  0.83076071  0.82025824  0.37488889  1
  Pr3+  Pr42  1  0.66698410  0.32041990  0.37414560  1
  Pr3+  Pr43  1  0.83110045  0.82064512  0.87558273  1
  Pr3+  Pr44  1  0.49395035  0.15428264  0.87517673  1
  Pr3+  Pr45  1  0.49721022  0.15413095  0.37455626  1
  Pr3+  Pr46  1  0.83738532  0.50859002  0.12426346  1
  Pr3+  Pr47  1  0.66228266  0.67816000  0.62522954  1
  Pr3+  Pr48  1  0.50006985  0.82058296  0.37520698  1
  Pr3+  Pr49  1  0.83635589  0.18063981  0.62657589  1
  Pr3+  Pr50  1  0.66391905  0.67950357  0.12564797  1
  Pr3+  Pr51  1  0.50078218  0.51156860  0.12620889  1
  Pr3+  Pr52  1  -0.00304530  0.01339662  0.62529866  1
  Pr3+  Pr53  1  0.67069486  0.65248981  0.37517387  1
  Pr3+  Pr54  1  0.16623682  0.15672044  0.37298260  1
  Pr3+  Pr55  1  0.83261417  0.48628893  0.37455367  1
  Pr3+  Pr56  1  0.66407571  0.34404290  0.12565180  1
  Pr3+  Pr57  1  0.65938597  0.34711268  0.62452647  1
  Pr3+  Pr58  1  1.00339565  0.32300591  0.37414105  1
  Pr3+  Pr59  1  1.00015310  0.32125423  0.87599767  1
  Pr3+  Pr60  1  0.50237159  0.84856341  0.12421048  1
  Pr3+  Pr61  1  0.33110080  0.34508243  0.62401426  1
  Pr3+  Pr62  1  0.49506835  0.48646057  0.87381031  1
  Pr3+  Pr63  1  0.33346664  0.67776281  0.62423401  1
  Pr3+  Pr64  1  0.32623146  0.34581013  0.12603589  1
  Pr3+  Pr65  1  0.32873365  0.67872861  0.12514858  1
  Pr3+  Pr66  1  0.33680887  0.98882940  0.37430673  1
  Pr3+  Pr67  1  0.16684829  0.15500468  0.87706542  1
  Pr3+  Pr68  1  0.33627330  0.65730382  0.87520579  1
  Pr3+  Pr69  1  0.50121885  0.17713380  0.12426187  1
  Pr3+  Pr70  1  1.00347560  0.65270823  0.87418861  1
  Pr3+  Pr71  1  0.50260497  0.84655050  0.62616790  1
  Mn3.30+  Mn72  1  0.16990702  0.00048107  0.00171330  1
  Mn3.30+  Mn73  1  0.16881385  0.00173891  0.50024356  1
  Mn3.30+  Mn74  1  0.16423441  0.33264280  0.00294614  1
  Mn3.30+  Mn75  1  0.16823997  0.33602436  0.49713326  1
  Mn3.30+  Mn76  1  0.16799533  0.66538760  -0.00001869  1
  Mn3.30+  Mn77  1  0.16542960  0.66551310  0.50054782  1
  Mn3.30+  Mn78  1  0.49897407  -0.00059507  0.00224368  1
  Mn3.30+  Mn79  1  0.50123909  -0.00014827  0.49911221  1
  Mn3.30+  Mn80  1  0.49842547  0.33317358  0.00078015  1
  Mn3.30+  Mn81  1  0.49737820  0.33384751  0.49900652  1
  Mn3.30+  Mn82  1  0.50018197  0.66800295  -0.00033411  1
  Mn3.30+  Mn83  1  0.50007519  0.66260459  0.49849124  1
  Mn3.30+  Mn84  1  0.83237020  0.00249883  0.00058241  1
  Mn3.30+  Mn85  1  0.83206115  -0.00064307  0.49915078  1
  Mn3.30+  Mn86  1  0.83485645  0.33306119  0.00041004  1
  Mn3.30+  Mn87  1  0.83224479  0.33319537  0.50019083  1
  Mn3.30+  Mn88  1  0.83360215  0.66460130  -0.00014299  1
  Mn3.30+  Mn89  1  0.83472630  0.66567877  0.50044836  1
  Mn3.30+  Mn90  1  0.00113392  0.16895436  0.24764286  1
  Mn3.30+  Mn91  1  -0.00179670  0.16720608  0.75236270  1
  Mn3.30+  Mn92  1  0.00320280  0.49923050  0.24878986  1
  Mn3.30+  Mn93  1  -0.00180895  0.50005539  0.75040902  1
  Mn3.30+  Mn94  1  0.00107676  0.83350244  0.24898566  1
  Mn3.30+  Mn95  1  0.00065003  0.83265686  0.74965631  1
  Mn3.30+  Mn96  1  0.33190577  0.16713148  0.24923155  1
  Mn3.30+  Mn97  1  0.33370612  0.16671078  0.74949621  1
  Mn3.30+  Mn98  1  0.33103283  0.49721218  0.25298878  1
  Mn3.30+  Mn99  1  0.33469815  0.50065561  0.74746634  1
  Mn3.30+  Mn100  1  0.33375871  0.83442648  0.24976299  1
  Mn3.30+  Mn101  1  0.33513846  0.83547381  0.74924729  1
  Mn3.30+  Mn102  1  0.66614962  0.16474892  0.24843725  1
  Mn3.30+  Mn103  1  0.66704384  0.16666013  0.75135233  1
  Mn3.30+  Mn104  1  0.66438708  0.49892310  0.25140747  1
  Mn3.30+  Mn105  1  0.66699174  0.49906277  0.74987885  1
  Mn3.30+  Mn106  1  0.66673322  0.83652613  0.24877560  1
  Mn3.30+  Mn107  1  0.66520499  0.83291882  0.75270073  1
  Mn3.30+  Mn108  1  0.16983507  0.00184902  0.24735563  1
  Mn3.30+  Mn109  1  0.16902155  0.00069689  0.75037638  1
  Mn3.30+  Mn110  1  0.16632901  0.33506335  0.24898647  1
  Mn3.30+  Mn111  1  0.16602776  0.33379864  0.75054008  1
  Mn3.30+  Mn112  1  0.16747183  0.66352555  0.25076163  1
  Mn3.30+  Mn113  1  0.16586465  0.66715879  0.74767691  1
  Mn3.30+  Mn114  1  0.50123906  -0.00013227  0.24922296  1
  Mn3.30+  Mn115  1  0.49869544  -0.00049075  0.74940933  1
  Mn3.30+  Mn116  1  0.49587478  0.33341777  0.25138793  1
  Mn3.30+  Mn117  1  0.49958674  0.33358600  0.74850279  1
  Mn3.30+  Mn118  1  0.49952677  0.66461094  0.25142554  1
  Mn3.30+  Mn119  1  0.50049114  0.66621273  0.74975392  1
  Mn3.30+  Mn120  1  0.83171494  0.00087591  0.24877934  1
  Mn3.30+  Mn121  1  0.83287367  0.00111922  0.75221094  1
  Mn3.30+  Mn122  1  0.83510472  0.33250603  0.24825774  1
  Mn3.30+  Mn123  1  0.83226082  0.33370407  0.75149528  1
  Mn3.30+  Mn124  1  0.83384231  0.66541454  0.24988744  1
  Mn3.30+  Mn125  1  0.83446332  0.66497577  0.75076941  1
  Mn3.30+  Mn126  1  -0.00045121  0.16864090  0.00143152  1
  Mn3.30+  Mn127  1  -0.00012799  0.16752078  0.49925181  1
  Mn3.30+  Mn128  1  0.00004145  0.49849246  0.00103358  1
  Mn3.30+  Mn129  1  0.00141424  0.50059363  0.49972541  1
  Mn3.30+  Mn130  1  0.00047591  0.83353568  0.00066981  1
  Mn3.30+  Mn131  1  0.00091428  0.83243838  0.50076410  1
  Mn3.30+  Mn132  1  0.33182679  0.16618251  0.00198273  1
  Mn3.30+  Mn133  1  0.33369703  0.16769371  0.49922523  1
  Mn3.30+  Mn134  1  0.33182547  0.50005534  0.00101926  1
  Mn3.30+  Mn135  1  0.33428789  0.49775910  0.49786515  1
  Mn3.30+  Mn136  1  0.33518105  0.83570231  -0.00024742  1
  Mn3.30+  Mn137  1  0.33400539  0.83405749  0.50006909  1
  Mn3.30+  Mn138  1  0.66749973  0.16551119  0.00133543  1
  Mn3.30+  Mn139  1  0.66585445  0.16581732  0.49918756  1
  Mn3.30+  Mn140  1  0.66748428  0.49859452  0.00003871  1
  Mn3.30+  Mn141  1  0.66361396  0.49914419  0.49904651  1
  Mn3.30+  Mn142  1  0.66484513  0.83479922  -0.00057748  1
  Mn3.30+  Mn143  1  0.66723061  0.83408818  0.49985912  1
  O2-  O144  1  0.02802339  0.15960377  0.12584641  1
  O2-  O145  1  0.02498150  0.16095336  0.62466073  1
  O2-  O146  1  0.02572275  0.49328659  0.12461150  1
  O2-  O147  1  0.02254023  0.49588255  0.62584429  1
  O2-  O148  1  0.02004429  0.82718281  0.12352204  1
  O2-  O149  1  0.02510694  0.82877174  0.62566237  1
  O2-  O150  1  0.35725948  0.16359704  0.12606974  1
  O2-  O151  1  0.34894897  0.16344421  0.62252552  1
  O2-  O152  1  0.35815599  0.49537157  0.12824437  1
  O2-  O153  1  0.36105144  0.49457984  0.62284462  1
  O2-  O154  1  0.35897816  0.82435868  0.12756027  1
  O2-  O155  1  0.35984353  0.82494603  0.62258800  1
  O2-  O156  1  0.68651067  0.16277775  0.12566210  1
  O2-  O157  1  0.69276793  0.16153458  0.62556864  1
  O2-  O158  1  0.69157205  0.49427375  0.12568766  1
  O2-  O159  1  0.69406670  0.49519299  0.62328847  1
  O2-  O160  1  0.69397580  0.82522992  0.12374868  1
  O2-  O161  1  0.69285225  0.82674427  0.62772927  1
  O2-  O162  1  0.13953394  0.32409602  0.12466063  1
  O2-  O163  1  0.14821603  0.32853568  0.62497587  1
  O2-  O164  1  0.14572670  0.65994016  0.12482525  1
  O2-  O165  1  0.13920906  0.66055618  0.62531672  1
  O2-  O166  1  0.14152580  0.99576383  0.12468799  1
  O2-  O167  1  0.14015935  0.99671391  0.62445048  1
  O2-  O168  1  0.47232373  0.32695062  0.12711930  1
  O2-  O169  1  0.47527349  0.32871621  0.62242118  1
  O2-  O170  1  0.47359830  0.65961010  0.12567873  1
  O2-  O171  1  0.47721169  0.65757956  0.62108561  1
  O2-  O172  1  0.47076076  0.99490503  0.12647586  1
  O2-  O173  1  0.47526821  0.99349806  0.62328656  1
  O2-  O174  1  0.80803591  0.33529530  0.12509850  1
  O2-  O175  1  0.80526080  0.32760241  0.62426995  1
  O2-  O176  1  0.80718259  0.65818058  0.12384367  1
  O2-  O177  1  0.80584865  0.66086655  0.62495008  1
  O2-  O178  1  0.80630390  0.99405135  0.12393830  1
  O2-  O179  1  0.80762932  0.99334782  0.62531304  1
  O2-  O180  1  0.30983241  0.16928257  0.37423430  1
  O2-  O181  1  0.31162582  0.16712683  0.87665847  1
  O2-  O182  1  0.30246806  0.50602930  0.37551573  1
  O2-  O183  1  0.30920258  0.50824654  0.87296448  1
  O2-  O184  1  0.30842935  0.84044102  0.37652884  1
  O2-  O185  1  0.30947523  0.83388067  0.87187744  1
  O2-  O186  1  0.64176464  0.17294947  0.37270196  1
  O2-  O187  1  0.63904386  0.17059777  0.87649058  1
  O2-  O188  1  0.63736617  0.50556893  0.37479363  1
  O2-  O189  1  0.63905171  0.50351663  0.87657082  1
  O2-  O190  1  0.64352399  0.84095657  0.37309422  1
  O2-  O191  1  0.63694891  0.84136280  0.87640625  1
  O2-  O192  1  0.97442420  0.17210556  0.37398219  1
  O2-  O193  1  0.97216381  0.17204983  0.87589743  1
  O2-  O194  1  0.97565410  0.50090481  0.37459666  1
  O2-  O195  1  0.97324224  0.50694156  0.87486887  1
  O2-  O196  1  0.97584853  0.84012065  0.37479979  1
  O2-  O197  1  0.97547583  0.84019911  0.87620060  1
  O2-  O198  1  0.19242683  0.00731180  0.37477411  1
  O2-  O199  1  0.18769150  0.00557192  0.87629464  1
  O2-  O200  1  0.19241582  0.34079084  0.37429428  1
  O2-  O201  1  0.18558883  0.33847698  0.87594561  1
  O2-  O202  1  0.19135376  0.67405845  0.37668859  1
  O2-  O203  1  0.19175144  0.67233325  0.87211734  1
  O2-  O204  1  0.52787393  0.00468662  0.37439735  1
  O2-  O205  1  0.52275298  0.00707883  0.87593252  1
  O2-  O206  1  0.52426399  0.33842107  0.37448308  1
  O2-  O207  1  0.52521336  0.33946833  0.87543421  1
  O2-  O208  1  0.52826821  0.67383905  0.37571036  1
  O2-  O209  1  0.52583690  0.67357524  0.87767914  1
  O2-  O210  1  0.86019670  0.00367272  0.37524645  1
  O2-  O211  1  0.85929120  0.00537973  0.87616310  1
  O2-  O212  1  0.85701460  0.33759625  0.37439260  1
  O2-  O213  1  0.85610142  0.34091175  0.87670332  1
  O2-  O214  1  0.85380060  0.67234733  0.37575243  1
  O2-  O215  1  0.86001872  0.67384710  0.87615036  1
  O2-  O216  1  0.23600309  0.09749710  0.01903760  1
  O2-  O217  1  0.23486372  0.09787766  0.51589749  1
  O2-  O218  1  0.23517879  0.42758857  0.02059370  1
  O2-  O219  1  0.24092300  0.42794484  0.52499883  1
  O2-  O220  1  0.24228353  0.76016369  0.01501559  1
  O2-  O221  1  0.23901479  0.76083981  0.52076515  1
  O2-  O222  1  0.57095170  0.09420584  0.01825772  1
  O2-  O223  1  0.57502353  0.09201452  0.51875568  1
  O2-  O224  1  0.57087837  0.42648070  0.02253573  1
  O2-  O225  1  0.57030370  0.42844382  0.52241098  1
  O2-  O226  1  0.57337602  0.75997217  0.02503793  1
  O2-  O227  1  0.57211138  0.76057668  0.52018532  1
  O2-  O228  1  0.91134456  0.09238451  0.02059295  1
  O2-  O229  1  0.90298179  0.09269766  0.52061470  1
  O2-  O230  1  0.90412563  0.42929479  0.01833130  1
  O2-  O231  1  0.90088783  0.42940125  0.51579372  1
  O2-  O232  1  0.90427886  0.75955413  0.02028479  1
  O2-  O233  1  0.90199625  0.76174694  0.51905766  1
  O2-  O234  1  0.25966020  0.26390900  0.23200603  1
  O2-  O235  1  0.25974202  0.25953360  0.73104129  1
  O2-  O236  1  0.26600849  0.59611931  0.23368469  1
  O2-  O237  1  0.26193852  0.59405347  0.72684688  1
  O2-  O238  1  0.26549482  0.93425000  0.23378214  1
  O2-  O239  1  0.26342193  0.92671660  0.72496355  1
  O2-  O240  1  0.59274429  0.26114001  0.23063179  1
  O2-  O241  1  0.59836426  0.26312133  0.73387044  1
  O2-  O242  1  0.59426465  0.59499844  0.22855046  1
  O2-  O243  1  0.59958105  0.59544158  0.73438207  1
  O2-  O244  1  0.59557625  0.92824209  0.22487536  1
  O2-  O245  1  0.59529204  0.92831608  0.72878417  1
  O2-  O246  1  0.93254143  0.26334490  0.23168010  1
  O2-  O247  1  0.92527571  0.25953910  0.73207862  1
  O2-  O248  1  0.92959746  0.59117802  0.22693957  1
  O2-  O249  1  0.93031018  0.59706787  0.72876005  1
  O2-  O250  1  0.92726047  0.92878251  0.22881800  1
  O2-  O251  1  0.92865510  0.92730697  0.73020023  1
  O2-  O252  1  0.09466635  0.24218160  0.27492751  1
  O2-  O253  1  0.09185550  0.23779867  0.77045793  1
  O2-  O254  1  0.09737910  0.56976035  0.26707446  1
  O2-  O255  1  0.09447756  0.57133052  0.77151502  1
  O2-  O256  1  0.09569057  0.90973249  0.27189617  1
  O2-  O257  1  0.09660507  0.90658946  0.76940812  1
  O2-  O258  1  0.42960575  0.23604168  0.26805032  1
  O2-  O259  1  0.42776661  0.23902270  0.76785461  1
  O2-  O260  1  0.42746159  0.56632958  0.27277517  1
  O2-  O261  1  0.42777572  0.57497219  0.77178611  1
  O2-  O262  1  0.43155864  0.90409099  0.27184890  1
  O2-  O263  1  0.43292229  0.90049048  0.76620304  1
  O2-  O264  1  0.75973042  0.24020948  0.27028108  1
  O2-  O265  1  0.76189841  0.23613146  0.77255802  1
  O2-  O266  1  0.76109582  0.57265799  0.27113232  1
  O2-  O267  1  0.76319996  0.56979990  0.77220503  1
  O2-  O268  1  0.76495043  0.90283131  0.26757002  1
  O2-  O269  1  0.76126981  0.90552806  0.77258160  1
  O2-  O270  1  0.07126072  0.07259102  0.47911233  1
  O2-  O271  1  0.07249668  0.07341135  0.97964952  1
  O2-  O272  1  0.07317621  0.40584611  0.48090217  1
  O2-  O273  1  0.07072994  0.40698199  0.97717586  1
  O2-  O274  1  0.07646629  0.74310519  0.48078651  1
  O2-  O275  1  0.07328582  0.73812654  0.97993398  1
  O2-  O276  1  0.40750137  0.07339916  0.47840478  1
  O2-  O277  1  0.40902966  0.07519032  0.98385288  1
  O2-  O278  1  0.40057773  0.40132500  0.47913028  1
  O2-  O279  1  0.40600444  0.40995534  0.98342533  1
  O2-  O280  1  0.40781005  0.73597921  0.47841871  1
  O2-  O281  1  0.40515285  0.73725502  0.98247719  1
  O2-  O282  1  0.73962317  0.06921927  0.47800753  1
  O2-  O283  1  0.73843955  0.07278452  0.97910715  1
  O2-  O284  1  0.73505034  0.40576654  0.47781775  1
  O2-  O285  1  0.73631994  0.40283374  0.98302241  1
  O2-  O286  1  0.73792606  0.73858266  0.48008196  1
  O2-  O287  1  0.73703356  0.73953561  0.97820964  1
  O2-  O288  1  0.09563972  0.24144149  0.47904284  1
  O2-  O289  1  0.09215406  0.23971688  0.97573041  1
  O2-  O290  1  0.10035604  0.56950098  0.48276800  1
  O2-  O291  1  0.09353895  0.57245397  0.97752494  1
  O2-  O292  1  0.09738477  0.90824648  0.47948952  1
  O2-  O293  1  0.09433058  0.90807368  0.97858559  1
  O2-  O294  1  0.42801412  0.23864745  0.47869189  1
  O2-  O295  1  0.42976015  0.23801345  0.98377584  1
  O2-  O296  1  0.42674127  0.56995124  0.47400910  1
  O2-  O297  1  0.43005407  0.57381310  0.97987065  1
  O2-  O298  1  0.43041515  0.90537799  0.47796881  1
  O2-  O299  1  0.43435500  0.90055950  0.98310452  1
  O2-  O300  1  0.76040224  0.23761981  0.47914759  1
  O2-  O301  1  0.76075339  0.23954326  0.97865815  1
  O2-  O302  1  0.76148272  0.57156220  0.47840395  1
  O2-  O303  1  0.76224301  0.57122734  0.97782909  1
  O2-  O304  1  0.76548527  0.90297159  0.48252716  1
  O2-  O305  1  0.76025921  0.90476246  0.97793363  1
  O2-  O306  1  0.07269417  0.07355959  0.27103309  1
  O2-  O307  1  0.06980089  0.07336311  0.77078242  1
  O2-  O308  1  0.07066046  0.40439220  0.26965137  1
  O2-  O309  1  0.07163844  0.40839200  0.77182602  1
  O2-  O310  1  0.07601146  0.74009873  0.26542793  1
  O2-  O311  1  0.07257664  0.74142751  0.77343170  1
  O2-  O312  1  0.40789114  0.07161097  0.27248159  1
  O2-  O313  1  0.40910926  0.07523090  0.76546221  1
  O2-  O314  1  0.39900881  0.40126318  0.26929615  1
  O2-  O315  1  0.40666151  0.40892280  0.76803426  1
  O2-  O316  1  0.40817059  0.73648972  0.27248802  1
  O2-  O317  1  0.40253094  0.73708555  0.76483350  1
  O2-  O318  1  0.74059844  0.07169379  0.27330443  1
  O2-  O319  1  0.73687639  0.07071640  0.76893262  1
  O2-  O320  1  0.73702905  0.40638094  0.27091571  1
  O2-  O321  1  0.73373982  0.40266044  0.76767275  1
  O2-  O322  1  0.73670027  0.73988027  0.26920552  1
  O2-  O323  1  0.73809964  0.73792048  0.77333823  1
  O2-  O324  1  0.23556360  0.09881608  0.23160614  1
  O2-  O325  1  0.23597834  0.09659134  0.73330243  1
  O2-  O326  1  0.23638544  0.42809496  0.22409079  1
  O2-  O327  1  0.24035399  0.42962399  0.73016628  1
  O2-  O328  1  0.24229328  0.75861600  0.23500841  1
  O2-  O329  1  0.23881674  0.76255592  0.72760192  1
  O2-  O330  1  0.56917047  0.09488997  0.23063256  1
  O2-  O331  1  0.57580499  0.09148272  0.73272512  1
  O2-  O332  1  0.57041654  0.42506383  0.22734210  1
  O2-  O333  1  0.57126706  0.43025055  0.72810122  1
  O2-  O334  1  0.57360524  0.76335738  0.22961189  1
  O2-  O335  1  0.57186805  0.75869389  0.72725408  1
  O2-  O336  1  0.90751417  0.09216932  0.23276375  1
  O2-  O337  1  0.90659030  0.09303165  0.72703590  1
  O2-  O338  1  0.90375158  0.43028287  0.23399819  1
  O2-  O339  1  0.90251895  0.43004454  0.73270251  1
  O2-  O340  1  0.90367395  0.75878824  0.22945791  1
  O2-  O341  1  0.90246895  0.76241605  0.73265481  1
  O2-  O342  1  0.25968350  0.26105181  0.01923294  1
  O2-  O343  1  0.26001163  0.26154557  0.51809829  1
  O2-  O344  1  0.26399598  0.59560412  0.01669064  1
  O2-  O345  1  0.26312912  0.59514460  0.52154274  1
  O2-  O346  1  0.26527392  0.92980465  0.01885310  1
  O2-  O347  1  0.26157309  0.93225027  0.52178891  1
  O2-  O348  1  0.59496361  0.26024757  0.02064020  1
  O2-  O349  1  0.59525620  0.26475283  0.51484894  1
  O2-  O350  1  0.59457294  0.59474891  0.02079241  1
  O2-  O351  1  0.59847805  0.59632866  0.51781057  1
  O2-  O352  1  0.59630444  0.93015784  0.02363530  1
  O2-  O353  1  0.59518468  0.92522491  0.52292455  1
  O2-  O354  1  0.93173870  0.26618979  0.01850594  1
  O2-  O355  1  0.92467859  0.25766360  0.51792467  1
  O2-  O356  1  0.93131163  0.59347047  0.02240355  1
  O2-  O357  1  0.92699676  0.59480411  0.52263135  1
  O2-  O358  1  0.92606950  0.92810336  0.02047159  1
  O2-  O359  1  0.92888500  0.92843954  0.52100110  1
