# generated using pymatgen
data_Sr7Ca15Pr50Mn72O216
_symmetry_space_group_name_H-M   'P 1'
_cell_length_a   16.55809043
_cell_length_b   16.60368418
_cell_length_c   15.59504327
_cell_angle_alpha   90.00234581
_cell_angle_beta   90.00071303
_cell_angle_gamma   90.00556330
_symmetry_Int_Tables_number   1
_chemical_formula_structural   Sr7Ca15Pr50Mn72O216
_chemical_formula_sum   'Sr7 Ca15 Pr50 Mn72 O216'
_cell_volume   4287.47198819
_cell_formula_units_Z   1
loop_
 _symmetry_equiv_pos_site_id
 _symmetry_equiv_pos_as_xyz
  1  'x, y, z'
loop_
 _atom_type_symbol
 _atom_type_oxidation_number
  Sr2+  2.0
  Ca2+  2.0
  Pr3+  3.0
  Mn3.30+  3.3
  O2-  -2.0
loop_
 _atom_site_type_symbol
 _atom_site_label
 _atom_site_symmetry_multiplicity
 _atom_site_fract_x
 _atom_site_fract_y
 _atom_site_fract_z
 _atom_site_occupancy
  Sr2+  Sr0  1  -0.00380644  0.67457829  0.12605873  1
  Sr2+  Sr1  1  0.66457361  0.67630029  0.12625534  1
  Sr2+  Sr2  1  0.33586675  0.32578713  0.37608956  1
  Sr2+  Sr3  1  0.16549406  0.49051508  0.37460304  1
  Sr2+  Sr4  1  -0.00228419  0.67752651  0.62408350  1
  Sr2+  Sr5  1  0.16532944  0.82353669  0.37556761  1
  Sr2+  Sr6  1  0.49780224  0.82233670  0.87480940  1
  Ca2+  Ca7  1  0.50581349  0.51592318  0.12662073  1
  Ca2+  Ca8  1  0.66520937  0.34819395  0.62416365  1
  Ca2+  Ca9  1  0.33118964  0.01274278  0.62448011  1
  Ca2+  Ca10  1  0.49830203  0.48663243  0.37306457  1
  Ca2+  Ca11  1  0.82959747  0.48938605  0.37386147  1
  Ca2+  Ca12  1  0.50254911  0.84843456  0.62616406  1
  Ca2+  Ca13  1  0.83689934  0.18224665  0.62264608  1
  Ca2+  Ca14  1  0.82834599  0.15250987  0.37734394  1
  Ca2+  Ca15  1  0.49944936  0.48889381  0.87744941  1
  Ca2+  Ca16  1  0.50462937  0.84503068  0.12373459  1
  Ca2+  Ca17  1  1.00279803  0.98324024  0.87308461  1
  Ca2+  Ca18  1  0.83766134  0.84686126  0.62435187  1
  Ca2+  Ca19  1  0.16300219  0.48651182  0.87515503  1
  Ca2+  Ca20  1  0.83539237  0.51712897  0.12792674  1
  Ca2+  Ca21  1  0.67050835  0.64714183  0.37378198  1
  Pr3+  Pr22  1  0.67143575  0.32284989  0.37683418  1
  Pr3+  Pr23  1  0.16594887  0.15791036  0.37522898  1
  Pr3+  Pr24  1  0.33927875  0.65130931  0.87513377  1
  Pr3+  Pr25  1  0.82670158  0.81752910  0.37720358  1
  Pr3+  Pr26  1  0.83083765  0.49008282  0.87610248  1
  Pr3+  Pr27  1  0.16943269  0.17939539  0.12486142  1
  Pr3+  Pr28  1  0.83532317  0.84247296  0.12560302  1
  Pr3+  Pr29  1  0.66304400  0.35109840  0.12546666  1
  Pr3+  Pr30  1  1.00175114  0.65360869  0.37509594  1
  Pr3+  Pr31  1  -0.00275130  0.34525686  0.62485258  1
  Pr3+  Pr32  1  0.16088087  0.14946349  0.87452921  1
  Pr3+  Pr33  1  1.00360191  0.32206778  0.87521216  1
  Pr3+  Pr34  1  0.33356131  0.34799295  0.12677101  1
  Pr3+  Pr35  1  0.33689667  0.98770290  0.37721512  1
  Pr3+  Pr36  1  0.33275153  0.00901638  0.12433734  1
  Pr3+  Pr37  1  0.83075691  0.82004061  0.87254045  1
  Pr3+  Pr38  1  0.50480524  0.17958678  0.12494757  1
  Pr3+  Pr39  1  0.66789369  0.98461502  0.87359212  1
  Pr3+  Pr40  1  0.17040512  0.51301433  0.62392008  1
  Pr3+  Pr41  1  0.49822561  0.15391731  0.87396891  1
  Pr3+  Pr42  1  0.16984408  0.51410199  0.12605712  1
  Pr3+  Pr43  1  -0.00364739  0.01008328  0.12517709  1
  Pr3+  Pr44  1  0.16959629  0.17772723  0.62468193  1
  Pr3+  Pr45  1  0.66319001  0.00875059  0.12439037  1
  Pr3+  Pr46  1  0.50391189  0.18149917  0.62551837  1
  Pr3+  Pr47  1  0.83323420  0.51113890  0.62314443  1
  Pr3+  Pr48  1  1.00080549  0.32384736  0.37492338  1
  Pr3+  Pr49  1  0.16925628  0.84787810  0.62282127  1
  Pr3+  Pr50  1  0.66926008  0.32334501  0.87324977  1
  Pr3+  Pr51  1  -0.00642932  0.01291179  0.62522544  1
  Pr3+  Pr52  1  0.83533894  0.17958601  0.12706968  1
  Pr3+  Pr53  1  0.66740516  0.01088535  0.62510600  1
  Pr3+  Pr54  1  1.00064635  0.98740068  0.37599196  1
  Pr3+  Pr55  1  0.33693255  0.98569103  0.87245620  1
  Pr3+  Pr56  1  0.33165361  0.67828100  0.62391577  1
  Pr3+  Pr57  1  0.50428450  0.50997425  0.62408253  1
  Pr3+  Pr58  1  0.33599327  0.32295471  0.87524646  1
  Pr3+  Pr59  1  0.83193220  0.15302663  0.87336762  1
  Pr3+  Pr60  1  0.33154304  0.34680835  0.62390501  1
  Pr3+  Pr61  1  0.49757639  0.81982877  0.37513096  1
  Pr3+  Pr62  1  0.66600281  0.65430752  0.87546665  1
  Pr3+  Pr63  1  0.33651047  0.65140864  0.37479587  1
  Pr3+  Pr64  1  0.16663455  0.84290166  0.12701361  1
  Pr3+  Pr65  1  0.16390517  0.82165604  0.87388046  1
  Pr3+  Pr66  1  0.66231622  0.68089710  0.62292417  1
  Pr3+  Pr67  1  0.33448554  0.67834035  0.12623398  1
  Pr3+  Pr68  1  -0.00476709  0.35059052  0.12511031  1
  Pr3+  Pr69  1  1.00340078  0.65234737  0.87446596  1
  Pr3+  Pr70  1  0.49734966  0.15629015  0.37635264  1
  Pr3+  Pr71  1  0.66920512  0.98782125  0.37595951  1
  Mn3.30+  Mn72  1  0.16479615  -0.00214333  -0.00009432  1
  Mn3.30+  Mn73  1  0.16636301  0.00100298  0.50000749  1
  Mn3.30+  Mn74  1  0.16731987  0.33474586  0.00049639  1
  Mn3.30+  Mn75  1  0.16606649  0.33339345  0.49852935  1
  Mn3.30+  Mn76  1  0.16760095  0.66613778  -0.00052464  1
  Mn3.30+  Mn77  1  0.16564590  0.66775395  0.49940052  1
  Mn3.30+  Mn78  1  0.49937706  -0.00187955  -0.00070297  1
  Mn3.30+  Mn79  1  0.50023141  0.00008696  0.50371677  1
  Mn3.30+  Mn80  1  0.50098340  0.33620565  -0.00058981  1
  Mn3.30+  Mn81  1  0.50313812  0.33497984  0.50030345  1
  Mn3.30+  Mn82  1  0.50053158  0.66604844  0.00098662  1
  Mn3.30+  Mn83  1  0.50236803  0.66602048  0.49819193  1
  Mn3.30+  Mn84  1  0.83400155  -0.00104852  -0.00185165  1
  Mn3.30+  Mn85  1  0.83267017  0.00090735  0.50072924  1
  Mn3.30+  Mn86  1  0.83311360  0.33537487  0.00106196  1
  Mn3.30+  Mn87  1  0.83230224  0.33302673  0.50038668  1
  Mn3.30+  Mn88  1  0.83315518  0.66593596  0.00086458  1
  Mn3.30+  Mn89  1  0.83049997  0.66560748  0.49978406  1
  Mn3.30+  Mn90  1  -0.00229964  0.16724469  0.25148791  1
  Mn3.30+  Mn91  1  -0.00174067  0.16560469  0.74969759  1
  Mn3.30+  Mn92  1  -0.00386092  0.50115719  0.25074413  1
  Mn3.30+  Mn93  1  0.00097670  0.49963690  0.74971098  1
  Mn3.30+  Mn94  1  -0.00181784  0.83193036  0.25128878  1
  Mn3.30+  Mn95  1  -0.00150519  0.83346562  0.74844344  1
  Mn3.30+  Mn96  1  0.33499191  0.16693978  0.24966620  1
  Mn3.30+  Mn97  1  0.33262403  0.16624213  0.74997038  1
  Mn3.30+  Mn98  1  0.33835625  0.49973302  0.24987334  1
  Mn3.30+  Mn99  1  0.33396493  0.49945946  0.75268026  1
  Mn3.30+  Mn100  1  0.33571944  0.83265456  0.25016145  1
  Mn3.30+  Mn101  1  0.33455002  0.83374415  0.74676474  1
  Mn3.30+  Mn102  1  0.66872578  0.16745585  0.25143374  1
  Mn3.30+  Mn103  1  0.66912658  0.16804764  0.74753619  1
  Mn3.30+  Mn104  1  0.66637631  0.50159690  0.25115865  1
  Mn3.30+  Mn105  1  0.66551437  0.49934079  0.75033825  1
  Mn3.30+  Mn106  1  0.66412183  0.83087253  0.25031722  1
  Mn3.30+  Mn107  1  0.66628070  0.83261324  0.74712348  1
  Mn3.30+  Mn108  1  0.16589991  0.00024764  0.25052755  1
  Mn3.30+  Mn109  1  0.16547457  -0.00073381  0.74868854  1
  Mn3.30+  Mn110  1  0.16597475  0.33428659  0.25012456  1
  Mn3.30+  Mn111  1  0.16724165  0.33390846  0.75087030  1
  Mn3.30+  Mn112  1  0.16613526  0.66719658  0.25062501  1
  Mn3.30+  Mn113  1  0.16754495  0.66642751  0.75001790  1
  Mn3.30+  Mn114  1  0.50087677  -0.00071877  0.25016806  1
  Mn3.30+  Mn115  1  0.49867341  -0.00085098  0.74679021  1
  Mn3.30+  Mn116  1  0.50178040  0.33593721  0.25027972  1
  Mn3.30+  Mn117  1  0.50188909  0.33537994  0.75092449  1
  Mn3.30+  Mn118  1  0.50373656  0.66515794  0.25147299  1
  Mn3.30+  Mn119  1  0.49930088  0.66671837  0.74921840  1
  Mn3.30+  Mn120  1  0.83168674  0.00013984  0.25096997  1
  Mn3.30+  Mn121  1  0.83494732  -0.00036407  0.74989408  1
  Mn3.30+  Mn122  1  0.83235101  0.33588735  0.25105437  1
  Mn3.30+  Mn123  1  0.83293519  0.33280836  0.74809764  1
  Mn3.30+  Mn124  1  0.83047019  0.66425097  0.25128327  1
  Mn3.30+  Mn125  1  0.83317576  0.66733167  0.74792523  1
  Mn3.30+  Mn126  1  -0.00024087  0.16534455  0.00026019  1
  Mn3.30+  Mn127  1  -0.00386137  0.16708933  0.49857253  1
  Mn3.30+  Mn128  1  -0.00043481  0.50082833  -0.00016661  1
  Mn3.30+  Mn129  1  -0.00202467  0.50014513  0.49930068  1
  Mn3.30+  Mn130  1  -0.00093703  0.83248894  -0.00101725  1
  Mn3.30+  Mn131  1  -0.00283229  0.83279671  0.50100060  1
  Mn3.30+  Mn132  1  0.33332660  0.16675018  -0.00047581  1
  Mn3.30+  Mn133  1  0.33441444  0.16657365  0.50106000  1
  Mn3.30+  Mn134  1  0.33561833  0.50031087  0.00020216  1
  Mn3.30+  Mn135  1  0.33703455  0.49925961  0.49827314  1
  Mn3.30+  Mn136  1  0.33437285  0.83227091  0.00106135  1
  Mn3.30+  Mn137  1  0.33534966  0.83382471  0.50136752  1
  Mn3.30+  Mn138  1  0.66784480  0.16678905  -0.00137734  1
  Mn3.30+  Mn139  1  0.66977183  0.16859073  0.50256031  1
  Mn3.30+  Mn140  1  0.66489468  0.50184062  0.00129331  1
  Mn3.30+  Mn141  1  0.66718608  0.49926261  0.49768020  1
  Mn3.30+  Mn142  1  0.66480369  0.83092655  -0.00010122  1
  Mn3.30+  Mn143  1  0.66532259  0.83244543  0.50177727  1
  O2-  O144  1  0.02554159  0.15862551  0.12475809  1
  O2-  O145  1  0.02607337  0.16179872  0.62427572  1
  O2-  O146  1  0.02489131  0.49820722  0.12424581  1
  O2-  O147  1  0.02604665  0.49405819  0.62655311  1
  O2-  O148  1  0.02141976  0.83168138  0.12566277  1
  O2-  O149  1  0.02457584  0.83345257  0.62494955  1
  O2-  O150  1  0.36025140  0.15792657  0.12377761  1
  O2-  O151  1  0.35788308  0.16085731  0.62673074  1
  O2-  O152  1  0.36236795  0.49622073  0.12496826  1
  O2-  O153  1  0.35889151  0.49645029  0.62551834  1
  O2-  O154  1  0.36170522  0.82829831  0.12760123  1
  O2-  O155  1  0.36170828  0.82434260  0.62355066  1
  O2-  O156  1  0.69170157  0.15866457  0.12303797  1
  O2-  O157  1  0.69655252  0.15756152  0.62613432  1
  O2-  O158  1  0.69370415  0.49674596  0.12485140  1
  O2-  O159  1  0.69012488  0.49549041  0.62539729  1
  O2-  O160  1  0.69139601  0.83552173  0.12394549  1
  O2-  O161  1  0.69599611  0.82842555  0.62413515  1
  O2-  O162  1  0.14047121  0.32730221  0.12470467  1
  O2-  O163  1  0.14211660  0.32642048  0.62393759  1
  O2-  O164  1  0.14699489  0.66290532  0.12524879  1
  O2-  O165  1  0.14879889  0.66040625  0.62636608  1
  O2-  O166  1  0.14036496  0.99371174  0.12605337  1
  O2-  O167  1  0.13847852  0.99831175  0.62527357  1
  O2-  O168  1  0.47702010  0.32429320  0.12203161  1
  O2-  O169  1  0.47574626  0.32958951  0.62752633  1
  O2-  O170  1  0.47652568  0.65781173  0.12670344  1
  O2-  O171  1  0.47473248  0.65536219  0.62389765  1
  O2-  O172  1  0.47705637  0.99508617  0.12314267  1
  O2-  O173  1  0.47312588  0.99582900  0.62542490  1
  O2-  O174  1  0.80599856  0.32433741  0.12565260  1
  O2-  O175  1  0.80702341  0.32653656  0.62594975  1
  O2-  O176  1  0.81538128  0.66470718  0.12500989  1
  O2-  O177  1  0.80609707  0.65794340  0.62380319  1
  O2-  O178  1  0.80701636  0.99266897  0.12330456  1
  O2-  O179  1  0.81042600  0.99111016  0.62490636  1
  O2-  O180  1  0.31123154  0.16836673  0.37400290  1
  O2-  O181  1  0.30572926  0.17423509  0.87548359  1
  O2-  O182  1  0.31490232  0.50263878  0.37357810  1
  O2-  O183  1  0.30443613  0.50367612  0.87632279  1
  O2-  O184  1  0.31494654  0.83929600  0.37585583  1
  O2-  O185  1  0.30802899  0.83801360  0.87250561  1
  O2-  O186  1  0.64062800  0.17285590  0.37817300  1
  O2-  O187  1  0.64184030  0.17333454  0.87324384  1
  O2-  O188  1  0.64015858  0.49983558  0.37533798  1
  O2-  O189  1  0.64137003  0.50407755  0.87501490  1
  O2-  O190  1  0.64020876  0.84208848  0.37772120  1
  O2-  O191  1  0.64709937  0.83627475  0.87326526  1
  O2-  O192  1  0.96960789  0.17569802  0.37416937  1
  O2-  O193  1  0.97493321  0.17516389  0.87652619  1
  O2-  O194  1  0.97357892  0.50303753  0.37561328  1
  O2-  O195  1  0.97582312  0.50107369  0.87363683  1
  O2-  O196  1  0.97226536  0.84014030  0.37579954  1
  O2-  O197  1  0.97606150  0.83877817  0.87328142  1
  O2-  O198  1  0.19243850  0.00769922  0.37371348  1
  O2-  O199  1  0.19262728  0.00081971  0.87401828  1
  O2-  O200  1  0.18479664  0.33123170  0.37404663  1
  O2-  O201  1  0.19195806  0.34022068  0.87749642  1
  O2-  O202  1  0.19051352  0.66860995  0.37369291  1
  O2-  O203  1  0.19486770  0.67569750  0.87425164  1
  O2-  O204  1  0.52510033  0.00790753  0.37881643  1
  O2-  O205  1  0.52299490  0.00556497  0.87266684  1
  O2-  O206  1  0.52624902  0.33648957  0.37569127  1
  O2-  O207  1  0.52560955  0.34079711  0.87575366  1
  O2-  O208  1  0.52977545  0.67655428  0.37646536  1
  O2-  O209  1  0.52243251  0.67116859  0.87315791  1
  O2-  O210  1  0.85683416  0.00699994  0.37671227  1
  O2-  O211  1  0.86172025  0.00667365  0.87492112  1
  O2-  O212  1  0.85843396  0.34522567  0.37378604  1
  O2-  O213  1  0.85987690  0.34163476  0.87562136  1
  O2-  O214  1  0.85791070  0.67260908  0.37766386  1
  O2-  O215  1  0.85754912  0.67137875  0.87277339  1
  O2-  O216  1  0.23623664  0.09236566  0.01978661  1
  O2-  O217  1  0.23583366  0.09539933  0.51752423  1
  O2-  O218  1  0.24101747  0.42764789  0.02550540  1
  O2-  O219  1  0.24115555  0.42608004  0.52117707  1
  O2-  O220  1  0.23904680  0.76224183  0.02135579  1
  O2-  O221  1  0.24180884  0.76114803  0.52106528  1
  O2-  O222  1  0.57177306  0.09394830  0.01781028  1
  O2-  O223  1  0.57260991  0.09553844  0.52348611  1
  O2-  O224  1  0.57234917  0.42878818  0.02359954  1
  O2-  O225  1  0.57361577  0.42753974  0.52035138  1
  O2-  O226  1  0.56997212  0.76245937  0.01916819  1
  O2-  O227  1  0.56948631  0.76363242  0.52459606  1
  O2-  O228  1  0.90352901  0.09432063  0.02202462  1
  O2-  O229  1  0.90524535  0.09516094  0.52357417  1
  O2-  O230  1  0.90175279  0.42933450  0.02247991  1
  O2-  O231  1  0.90602199  0.42504674  0.52490099  1
  O2-  O232  1  0.90218887  0.76415821  0.01386777  1
  O2-  O233  1  0.89876006  0.76461874  0.51723099  1
  O2-  O234  1  0.26043872  0.25777140  0.22635698  1
  O2-  O235  1  0.26179764  0.26151826  0.72953393  1
  O2-  O236  1  0.26357355  0.59173252  0.23043016  1
  O2-  O237  1  0.26404041  0.59363590  0.73011478  1
  O2-  O238  1  0.26178653  0.92569985  0.22924105  1
  O2-  O239  1  0.26095491  0.92959941  0.72557270  1
  O2-  O240  1  0.59735741  0.26240537  0.22937968  1
  O2-  O241  1  0.59795939  0.26088210  0.72861997  1
  O2-  O242  1  0.59515592  0.59401216  0.23472105  1
  O2-  O243  1  0.59452844  0.59542081  0.72952114  1
  O2-  O244  1  0.59614169  0.93094273  0.23387001  1
  O2-  O245  1  0.59771689  0.92821729  0.73122260  1
  O2-  O246  1  0.92864193  0.26216337  0.22751689  1
  O2-  O247  1  0.92991411  0.26312239  0.73286597  1
  O2-  O248  1  0.92610704  0.59493838  0.23751067  1
  O2-  O249  1  0.92398990  0.59237778  0.73340824  1
  O2-  O250  1  0.92549283  0.92808047  0.23077658  1
  O2-  O251  1  0.93051142  0.93037307  0.73220816  1
  O2-  O252  1  0.09237904  0.23779061  0.26865374  1
  O2-  O253  1  0.09579628  0.23696462  0.77099299  1
  O2-  O254  1  0.09030869  0.57411013  0.26717888  1
  O2-  O255  1  0.09595683  0.57163165  0.77179718  1
  O2-  O256  1  0.08973203  0.90945623  0.26809936  1
  O2-  O257  1  0.09793098  0.90289029  0.76603173  1
  O2-  O258  1  0.43365615  0.23677868  0.26501904  1
  O2-  O259  1  0.43008301  0.24026594  0.77110024  1
  O2-  O260  1  0.42978306  0.57431819  0.27444372  1
  O2-  O261  1  0.42850717  0.56837501  0.77246925  1
  O2-  O262  1  0.42725961  0.90732194  0.27238654  1
  O2-  O263  1  0.42331540  0.90741444  0.76865683  1
  O2-  O264  1  0.76416134  0.23730509  0.27191858  1
  O2-  O265  1  0.76220559  0.24084855  0.77508978  1
  O2-  O266  1  0.76156079  0.56977120  0.27132862  1
  O2-  O267  1  0.75850908  0.57170069  0.77058834  1
  O2-  O268  1  0.75945173  0.90389913  0.27104341  1
  O2-  O269  1  0.76157515  0.90825970  0.77160417  1
  O2-  O270  1  0.06908958  0.07563903  0.47662809  1
  O2-  O271  1  0.07200685  0.06753898  0.97799643  1
  O2-  O272  1  0.06906551  0.40429749  0.48371141  1
  O2-  O273  1  0.06903467  0.40402111  0.98387935  1
  O2-  O274  1  0.06778254  0.74149052  0.48177555  1
  O2-  O275  1  0.07298786  0.73926200  0.97700446  1
  O2-  O276  1  0.40675111  0.07356963  0.47951380  1
  O2-  O277  1  0.40389361  0.07344199  0.97774757  1
  O2-  O278  1  0.40775488  0.40537116  0.48800872  1
  O2-  O279  1  0.40224057  0.40296993  0.98206101  1
  O2-  O280  1  0.40594853  0.73638821  0.47864623  1
  O2-  O281  1  0.40216077  0.73409495  0.98455447  1
  O2-  O282  1  0.73629648  0.07082485  0.48232889  1
  O2-  O283  1  0.73980036  0.07091522  0.97702812  1
  O2-  O284  1  0.73869291  0.40446100  0.48288382  1
  O2-  O285  1  0.73753796  0.40537158  0.97930978  1
  O2-  O286  1  0.73380081  0.73509391  0.47849350  1
  O2-  O287  1  0.73970194  0.73972739  0.97806652  1
  O2-  O288  1  0.09187062  0.23765920  0.47960160  1
  O2-  O289  1  0.09604109  0.23728156  0.98023360  1
  O2-  O290  1  0.08974770  0.57412069  0.48333021  1
  O2-  O291  1  0.09754687  0.57206586  0.97791915  1
  O2-  O292  1  0.09276506  0.90981199  0.48223857  1
  O2-  O293  1  0.09667680  0.90196709  0.98346424  1
  O2-  O294  1  0.43333310  0.23786114  0.48588257  1
  O2-  O295  1  0.43036380  0.23972078  0.97803065  1
  O2-  O296  1  0.43100592  0.57178263  0.47720296  1
  O2-  O297  1  0.42685823  0.57116371  0.97610939  1
  O2-  O298  1  0.42834000  0.90678970  0.47874569  1
  O2-  O299  1  0.42167085  0.90918110  0.98059371  1
  O2-  O300  1  0.76325957  0.23985785  0.47547882  1
  O2-  O301  1  0.76332497  0.23942751  0.97826024  1
  O2-  O302  1  0.76173484  0.56769972  0.48085248  1
  O2-  O303  1  0.75909013  0.57415283  0.97730300  1
  O2-  O304  1  0.75881171  0.90706426  0.47834154  1
  O2-  O305  1  0.76195618  0.90623683  0.97755536  1
  O2-  O306  1  0.07036063  0.07556795  0.27287723  1
  O2-  O307  1  0.06909563  0.06992688  0.77227191  1
  O2-  O308  1  0.06695969  0.40504314  0.26475272  1
  O2-  O309  1  0.07194361  0.40183197  0.76788348  1
  O2-  O310  1  0.06920563  0.74136855  0.26941896  1
  O2-  O311  1  0.07225926  0.73998100  0.77130364  1
  O2-  O312  1  0.40602435  0.07077609  0.26955685  1
  O2-  O313  1  0.40498060  0.07562457  0.77300543  1
  O2-  O314  1  0.40678775  0.40352549  0.26335378  1
  O2-  O315  1  0.40071983  0.40399083  0.76788996  1
  O2-  O316  1  0.40617283  0.73648742  0.27163118  1
  O2-  O317  1  0.40181295  0.73341793  0.76528161  1
  O2-  O318  1  0.73729043  0.07020191  0.26768972  1
  O2-  O319  1  0.73859493  0.07188342  0.77226041  1
  O2-  O320  1  0.73424761  0.40234231  0.26660035  1
  O2-  O321  1  0.74142809  0.40751000  0.77222766  1
  O2-  O322  1  0.73719562  0.73781268  0.27288156  1
  O2-  O323  1  0.73719256  0.73778816  0.76925803  1
  O2-  O324  1  0.23894130  0.09296419  0.22770238  1
  O2-  O325  1  0.23330605  0.09565130  0.73389402  1
  O2-  O326  1  0.24054874  0.42636993  0.22740984  1
  O2-  O327  1  0.23956349  0.42746423  0.72659315  1
  O2-  O328  1  0.24279891  0.75992334  0.22857793  1
  O2-  O329  1  0.23913513  0.76362460  0.72754186  1
  O2-  O330  1  0.57230991  0.09547049  0.23048433  1
  O2-  O331  1  0.57310009  0.09485586  0.72934939  1
  O2-  O332  1  0.57255248  0.42815414  0.22639681  1
  O2-  O333  1  0.57280143  0.42831819  0.73085014  1
  O2-  O334  1  0.56732566  0.76671089  0.23187726  1
  O2-  O335  1  0.57249945  0.76053531  0.72490543  1
  O2-  O336  1  0.90681732  0.09347406  0.22694199  1
  O2-  O337  1  0.90208104  0.09707663  0.72817319  1
  O2-  O338  1  0.90385543  0.42797661  0.22450805  1
  O2-  O339  1  0.90462475  0.42636808  0.72822066  1
  O2-  O340  1  0.90043515  0.76398420  0.23663497  1
  O2-  O341  1  0.90242236  0.76595663  0.73217526  1
  O2-  O342  1  0.26286017  0.26025246  0.02268720  1
  O2-  O343  1  0.26041826  0.25805857  0.52154805  1
  O2-  O344  1  0.26413250  0.59392863  0.02195760  1
  O2-  O345  1  0.26377357  0.59176961  0.51728213  1
  O2-  O346  1  0.25901670  0.92715001  0.02207495  1
  O2-  O347  1  0.26273757  0.92803640  0.52142671  1
  O2-  O348  1  0.59582102  0.26220922  0.01897444  1
  O2-  O349  1  0.59772337  0.26167187  0.52415001  1
  O2-  O350  1  0.59442544  0.59575239  0.01380380  1
  O2-  O351  1  0.59514597  0.59355952  0.52167046  1
  O2-  O352  1  0.59665472  0.92858169  0.01455602  1
  O2-  O353  1  0.59572141  0.93016304  0.52101328  1
  O2-  O354  1  0.92671144  0.26325759  0.02150540  1
  O2-  O355  1  0.92934176  0.26334926  0.51916511  1
  O2-  O356  1  0.92811994  0.59490967  0.00979993  1
  O2-  O357  1  0.92411880  0.59195175  0.51861764  1
  O2-  O358  1  0.92612476  0.92744995  0.02171124  1
  O2-  O359  1  0.92894207  0.93059641  0.51663225  1
