# generated using pymatgen
data_Sr7Ca15Pr50Mn72O216
_symmetry_space_group_name_H-M   'P 1'
_cell_length_a   16.55847366
_cell_length_b   16.60451684
_cell_length_c   15.59280514
_cell_angle_alpha   89.99785846
_cell_angle_beta   90.00271536
_cell_angle_gamma   89.99950851
_symmetry_Int_Tables_number   1
_chemical_formula_structural   Sr7Ca15Pr50Mn72O216
_chemical_formula_sum   'Sr7 Ca15 Pr50 Mn72 O216'
_cell_volume   4287.17089069
_cell_formula_units_Z   1
loop_
 _symmetry_equiv_pos_site_id
 _symmetry_equiv_pos_as_xyz
  1  'x, y, z'
loop_
 _atom_type_symbol
 _atom_type_oxidation_number
  Sr2+  2.0
  Ca2+  2.0
  Pr3+  3.0
  Mn3.30+  3.3
  O2-  -2.0
loop_
 _atom_site_type_symbol
 _atom_site_label
 _atom_site_symmetry_multiplicity
 _atom_site_fract_x
 _atom_site_fract_y
 _atom_site_fract_z
 _atom_site_occupancy
  Sr2+  Sr0  1  0.33112764  0.34601818  0.62520680  1
  Sr2+  Sr1  1  0.66609615  0.67541308  0.12263671  1
  Sr2+  Sr2  1  1.00251629  0.65492431  0.37799473  1
  Sr2+  Sr3  1  0.16356447  0.50605002  0.12608934  1
  Sr2+  Sr4  1  0.66565515  0.65857804  0.87364367  1
  Sr2+  Sr5  1  1.00065769  0.32508797  0.37572188  1
  Sr2+  Sr6  1  0.16671288  0.17821096  0.12366454  1
  Ca2+  Ca7  1  1.00468318  0.98454814  0.87378783  1
  Ca2+  Ca8  1  0.49683533  0.81782250  0.87372252  1
  Ca2+  Ca9  1  0.66044700  0.35129604  0.62443903  1
  Ca2+  Ca10  1  -0.00046984  0.67911192  0.62430733  1
  Ca2+  Ca11  1  0.67267891  0.31850907  0.37885110  1
  Ca2+  Ca12  1  0.49538393  0.14949994  0.87327707  1
  Ca2+  Ca13  1  0.16924724  0.51535629  0.62242424  1
  Ca2+  Ca14  1  0.66670610  0.98409234  0.87417012  1
  Ca2+  Ca15  1  0.33881352  0.98190121  0.87448652  1
  Ca2+  Ca16  1  -0.00397673  0.35088151  0.62397854  1
  Ca2+  Ca17  1  -0.00043204  0.34735365  0.12583091  1
  Ca2+  Ca18  1  0.16964833  0.84389747  0.62671260  1
  Ca2+  Ca19  1  0.83802053  0.51558757  0.62487119  1
  Ca2+  Ca20  1  0.32919649  0.68163050  0.62607055  1
  Ca2+  Ca21  1  0.50208985  0.51355943  0.62616599  1
  Pr3+  Pr22  1  0.66486862  0.34620886  0.12576600  1
  Pr3+  Pr23  1  0.82860233  0.15074562  0.87417559  1
  Pr3+  Pr24  1  0.66858878  0.32194380  0.87187768  1
  Pr3+  Pr25  1  0.83639976  0.84139403  0.62694894  1
  Pr3+  Pr26  1  0.83928718  0.18411740  0.12346498  1
  Pr3+  Pr27  1  0.33475475  0.98809876  0.37546440  1
  Pr3+  Pr28  1  0.16252308  0.81918943  0.37731080  1
  Pr3+  Pr29  1  0.49977199  0.15624566  0.37644741  1
  Pr3+  Pr30  1  0.49922055  0.49054310  0.87195158  1
  Pr3+  Pr31  1  1.00235229  0.32312836  0.87292853  1
  Pr3+  Pr32  1  1.00250163  0.99008186  0.37590193  1
  Pr3+  Pr33  1  0.33445712  0.65291810  0.37813866  1
  Pr3+  Pr34  1  0.67150960  0.65246549  0.37670290  1
  Pr3+  Pr35  1  0.16108372  0.48731469  0.37763883  1
  Pr3+  Pr36  1  0.32982087  0.67766061  0.12445404  1
  Pr3+  Pr37  1  0.50401542  0.18135612  0.62780456  1
  Pr3+  Pr38  1  0.16847850  0.18095293  0.62630570  1
  Pr3+  Pr39  1  0.83140354  0.82067667  0.87345880  1
  Pr3+  Pr40  1  -0.00124568  0.01020098  0.62858789  1
  Pr3+  Pr41  1  0.33745398  0.65516135  0.87127521  1
  Pr3+  Pr42  1  0.16515049  0.48868410  0.87179592  1
  Pr3+  Pr43  1  0.49705709  0.81937236  0.37619274  1
  Pr3+  Pr44  1  0.33792132  0.31994692  0.87324400  1
  Pr3+  Pr45  1  0.50266996  0.17934520  0.12263919  1
  Pr3+  Pr46  1  0.66496641  0.67567260  0.62689724  1
  Pr3+  Pr47  1  1.00355149  0.65374866  0.87101363  1
  Pr3+  Pr48  1  0.82896382  0.48991526  0.87096593  1
  Pr3+  Pr49  1  0.66256024  0.01130640  0.62852557  1
  Pr3+  Pr50  1  0.83195657  0.81913349  0.37651765  1
  Pr3+  Pr51  1  0.33266245  0.32254780  0.37720534  1
  Pr3+  Pr52  1  0.83866423  0.51150879  0.12497820  1
  Pr3+  Pr53  1  0.83118287  0.48386022  0.37930885  1
  Pr3+  Pr54  1  -0.00297694  0.01404251  0.12139081  1
  Pr3+  Pr55  1  0.50487283  0.84434086  0.12122911  1
  Pr3+  Pr56  1  0.67044555  0.98689541  0.37564003  1
  Pr3+  Pr57  1  -0.00269745  0.67866930  0.12504179  1
  Pr3+  Pr58  1  0.16222175  0.15735301  0.37648914  1
  Pr3+  Pr59  1  0.83444306  0.84447458  0.12271046  1
  Pr3+  Pr60  1  0.83512388  0.18194568  0.62690972  1
  Pr3+  Pr61  1  0.50318539  0.51298549  0.12487997  1
  Pr3+  Pr62  1  0.66385191  0.01190256  0.12159162  1
  Pr3+  Pr63  1  0.32950250  0.01333121  0.12211094  1
  Pr3+  Pr64  1  0.50090195  0.84337638  0.62895287  1
  Pr3+  Pr65  1  0.32851640  0.34572711  0.12489098  1
  Pr3+  Pr66  1  0.32934447  0.01032874  0.62858249  1
  Pr3+  Pr67  1  0.49962066  0.48606648  0.37791751  1
  Pr3+  Pr68  1  0.16557036  0.82105723  0.87245235  1
  Pr3+  Pr69  1  0.16951234  0.84473364  0.12459858  1
  Pr3+  Pr70  1  0.83019293  0.15662917  0.37606018  1
  Pr3+  Pr71  1  0.16438040  0.15163814  0.87383719  1
  Mn3.30+  Mn72  1  0.16720192  -0.00029330  -0.00309291  1
  Mn3.30+  Mn73  1  0.16642070  -0.00079353  0.50221992  1
  Mn3.30+  Mn74  1  0.16698424  0.33312715  -0.00076142  1
  Mn3.30+  Mn75  1  0.16449770  0.33597664  0.50382372  1
  Mn3.30+  Mn76  1  0.16708069  0.66555789  -0.00061648  1
  Mn3.30+  Mn77  1  0.16708444  0.66669164  0.50450785  1
  Mn3.30+  Mn78  1  0.49876203  -0.00074408  -0.00423491  1
  Mn3.30+  Mn79  1  0.49937653  -0.00015201  0.50131002  1
  Mn3.30+  Mn80  1  0.49999590  0.33218313  -0.00149284  1
  Mn3.30+  Mn81  1  0.50285876  0.33476642  0.50134553  1
  Mn3.30+  Mn82  1  0.49965311  0.66705979  -0.00194280  1
  Mn3.30+  Mn83  1  0.49926591  0.66489035  0.50289694  1
  Mn3.30+  Mn84  1  0.83222167  -0.00064326  -0.00371658  1
  Mn3.30+  Mn85  1  0.83354820  0.00016677  0.50246990  1
  Mn3.30+  Mn86  1  0.83453746  0.33483207  -0.00218548  1
  Mn3.30+  Mn87  1  0.83150586  0.33465703  0.50464097  1
  Mn3.30+  Mn88  1  0.83315242  0.66650435  -0.00108507  1
  Mn3.30+  Mn89  1  0.83637285  0.66434250  0.50199627  1
  Mn3.30+  Mn90  1  -0.00061837  0.17001592  0.24900222  1
  Mn3.30+  Mn91  1  -0.00075173  0.16724100  0.75069862  1
  Mn3.30+  Mn92  1  -0.00045680  0.49965343  0.25120850  1
  Mn3.30+  Mn93  1  -0.00022112  0.50072363  0.74475379  1
  Mn3.30+  Mn94  1  0.00061015  0.83454333  0.24997468  1
  Mn3.30+  Mn95  1  0.00227226  0.83273479  0.74881820  1
  Mn3.30+  Mn96  1  0.33293232  0.16704620  0.25033554  1
  Mn3.30+  Mn97  1  0.33475305  0.16533877  0.75134770  1
  Mn3.30+  Mn98  1  0.33298537  0.49946189  0.25196276  1
  Mn3.30+  Mn99  1  0.33224625  0.50131364  0.74473907  1
  Mn3.30+  Mn100  1  0.33383119  0.83265899  0.25043701  1
  Mn3.30+  Mn101  1  0.33313424  0.83282431  0.74991720  1
  Mn3.30+  Mn102  1  0.66769048  0.16726540  0.24899565  1
  Mn3.30+  Mn103  1  0.66469335  0.16636374  0.75227633  1
  Mn3.30+  Mn104  1  0.66749715  0.49777819  0.25183305  1
  Mn3.30+  Mn105  1  0.66654163  0.50001420  0.74618421  1
  Mn3.30+  Mn106  1  0.66652023  0.83229807  0.24901733  1
  Mn3.30+  Mn107  1  0.66572491  0.83327721  0.75244755  1
  Mn3.30+  Mn108  1  0.16666118  0.00122979  0.24957918  1
  Mn3.30+  Mn109  1  0.16696749  -0.00234759  0.75179718  1
  Mn3.30+  Mn110  1  0.16492349  0.33313741  0.24884297  1
  Mn3.30+  Mn111  1  0.16646830  0.33573613  0.74777786  1
  Mn3.30+  Mn112  1  0.16581276  0.66503240  0.25021265  1
  Mn3.30+  Mn113  1  0.16846336  0.66673267  0.74552157  1
  Mn3.30+  Mn114  1  0.50023383  0.00010023  0.24953989  1
  Mn3.30+  Mn115  1  0.49799734  -0.00118057  0.75462377  1
  Mn3.30+  Mn116  1  0.50131539  0.33268693  0.25235043  1
  Mn3.30+  Mn117  1  0.50155991  0.33494433  0.74786572  1
  Mn3.30+  Mn118  1  0.50104775  0.66589715  0.25123700  1
  Mn3.30+  Mn119  1  0.49806178  0.66572171  0.74738192  1
  Mn3.30+  Mn120  1  0.83332789  0.00070371  0.24915324  1
  Mn3.30+  Mn121  1  0.83256399  -0.00121584  0.75226401  1
  Mn3.30+  Mn122  1  0.83314321  0.33348578  0.25186259  1
  Mn3.30+  Mn123  1  0.83324059  0.33612507  0.74566641  1
  Mn3.30+  Mn124  1  0.83388865  0.66571965  0.25099454  1
  Mn3.30+  Mn125  1  0.83534028  0.66552360  0.74770939  1
  Mn3.30+  Mn126  1  -0.00043676  0.16804969  -0.00255281  1
  Mn3.30+  Mn127  1  -0.00143818  0.16939337  0.50260505  1
  Mn3.30+  Mn128  1  -0.00040312  0.49912303  -0.00147191  1
  Mn3.30+  Mn129  1  -0.00006387  0.50081241  0.50445334  1
  Mn3.30+  Mn130  1  0.00115353  0.83438145  -0.00214003  1
  Mn3.30+  Mn131  1  0.00203329  0.83223756  0.50317948  1
  Mn3.30+  Mn132  1  0.33481269  0.16502851  -0.00260256  1
  Mn3.30+  Mn133  1  0.33298799  0.16720180  0.50162606  1
  Mn3.30+  Mn134  1  0.33258401  0.49976310  -0.00091709  1
  Mn3.30+  Mn135  1  0.33288386  0.50115606  0.50396817  1
  Mn3.30+  Mn136  1  0.33579952  0.83345485  -0.00148085  1
  Mn3.30+  Mn137  1  0.33115198  0.83228113  0.50192178  1
  Mn3.30+  Mn138  1  0.66530024  0.16535251  -0.00340231  1
  Mn3.30+  Mn139  1  0.66674596  0.16873391  0.50237783  1
  Mn3.30+  Mn140  1  0.66676333  0.50030115  -0.00141126  1
  Mn3.30+  Mn141  1  0.66686441  0.49754371  0.50379404  1
  Mn3.30+  Mn142  1  0.66594537  0.83327667  -0.00307880  1
  Mn3.30+  Mn143  1  0.66628402  0.83252233  0.50161245  1
  O2-  O144  1  0.01774063  0.15933890  0.12004738  1
  O2-  O145  1  0.02502035  0.15662526  0.62773767  1
  O2-  O146  1  0.01318374  0.49435115  0.12251189  1
  O2-  O147  1  0.02834321  0.49176465  0.62588482  1
  O2-  O148  1  0.02522105  0.82792953  0.12231543  1
  O2-  O149  1  0.02673048  0.82863637  0.62523616  1
  O2-  O150  1  0.35910428  0.16169364  0.12357576  1
  O2-  O151  1  0.35876296  0.15885674  0.62693989  1
  O2-  O152  1  0.35958175  0.49376947  0.12781691  1
  O2-  O153  1  0.36190468  0.49622895  0.62358423  1
  O2-  O154  1  0.36066367  0.82645951  0.12505412  1
  O2-  O155  1  0.35805625  0.83145511  0.62398371  1
  O2-  O156  1  0.69426845  0.15913637  0.12054139  1
  O2-  O157  1  0.69158286  0.15577602  0.62799180  1
  O2-  O158  1  0.69251576  0.49324180  0.12698529  1
  O2-  O159  1  0.69504035  0.49658811  0.62429264  1
  O2-  O160  1  0.68980177  0.83329495  0.12349521  1
  O2-  O161  1  0.69098167  0.82870785  0.62621209  1
  O2-  O162  1  0.14342884  0.33179939  0.12143561  1
  O2-  O163  1  0.13886304  0.32562124  0.62686727  1
  O2-  O164  1  0.14163983  0.66515297  0.12307652  1
  O2-  O165  1  0.13969778  0.65958286  0.62561550  1
  O2-  O166  1  0.14148863  0.99363270  0.12244457  1
  O2-  O167  1  0.14208598  0.99188073  0.62608204  1
  O2-  O168  1  0.47286505  0.32695888  0.12549025  1
  O2-  O169  1  0.47839570  0.32567012  0.62505402  1
  O2-  O170  1  0.47428148  0.66106721  0.12503874  1
  O2-  O171  1  0.47281345  0.66204120  0.62314855  1
  O2-  O172  1  0.47331121  0.99253314  0.12371136  1
  O2-  O173  1  0.47390316  0.99268023  0.62692063  1
  O2-  O174  1  0.80831618  0.33190487  0.12318444  1
  O2-  O175  1  0.80080729  0.32558760  0.62622813  1
  O2-  O176  1  0.81607503  0.66187446  0.12496602  1
  O2-  O177  1  0.80907806  0.66762666  0.62409239  1
  O2-  O178  1  0.80767417  0.99324834  0.12069302  1
  O2-  O179  1  0.80677086  0.99198296  0.62680231  1
  O2-  O180  1  0.30758164  0.17181612  0.37641335  1
  O2-  O181  1  0.30808224  0.17364806  0.87375607  1
  O2-  O182  1  0.30648445  0.50469523  0.37724779  1
  O2-  O183  1  0.30925120  0.50653363  0.87093954  1
  O2-  O184  1  0.30684520  0.83949140  0.37628892  1
  O2-  O185  1  0.30884427  0.83456297  0.87511416  1
  O2-  O186  1  0.64372842  0.17233199  0.37652431  1
  O2-  O187  1  0.63738790  0.17740533  0.87485288  1
  O2-  O188  1  0.64321072  0.50652936  0.37712186  1
  O2-  O189  1  0.64418637  0.50059649  0.87150784  1
  O2-  O190  1  0.64180783  0.83885964  0.37635902  1
  O2-  O191  1  0.64054522  0.83758871  0.87359694  1
  O2-  O192  1  0.97401136  0.16792759  0.37882546  1
  O2-  O193  1  0.97160278  0.17671576  0.87378064  1
  O2-  O194  1  0.97599510  0.50165452  0.38008052  1
  O2-  O195  1  0.97346022  0.50590969  0.87120108  1
  O2-  O196  1  0.97528349  0.84228555  0.37706257  1
  O2-  O197  1  0.97550165  0.83817730  0.87496807  1
  O2-  O198  1  0.19067891  0.00829777  0.37676658  1
  O2-  O199  1  0.19538362  0.00319437  0.87482652  1
  O2-  O200  1  0.18811024  0.33677667  0.37782883  1
  O2-  O201  1  0.19271623  0.34058581  0.87282723  1
  O2-  O202  1  0.19082509  0.67203439  0.37756782  1
  O2-  O203  1  0.19283694  0.67172274  0.87351208  1
  O2-  O204  1  0.52714489  0.00703493  0.37524626  1
  O2-  O205  1  0.52761743  0.00824131  0.87523381  1
  O2-  O206  1  0.53058705  0.33760214  0.37696334  1
  O2-  O207  1  0.52561686  0.34354702  0.87255162  1
  O2-  O208  1  0.52705721  0.67232236  0.37834666  1
  O2-  O209  1  0.51576924  0.66896588  0.87284061  1
  O2-  O210  1  0.85833741  0.00725453  0.37810187  1
  O2-  O211  1  0.86273100  0.00379542  0.87456993  1
  O2-  O212  1  0.85160552  0.33398590  0.37984052  1
  O2-  O213  1  0.85819194  0.34130130  0.87133007  1
  O2-  O214  1  0.85273909  0.67129827  0.37705147  1
  O2-  O215  1  0.85871874  0.66986636  0.87348705  1
  O2-  O216  1  0.24025702  0.09351724  0.01709289  1
  O2-  O217  1  0.23645390  0.09274639  0.52287688  1
  O2-  O218  1  0.24194060  0.42639892  0.01664914  1
  O2-  O219  1  0.23683125  0.43183367  0.51749432  1
  O2-  O220  1  0.23980331  0.76181207  0.02061878  1
  O2-  O221  1  0.23592199  0.76488283  0.51939451  1
  O2-  O222  1  0.57004927  0.09235563  0.02326701  1
  O2-  O223  1  0.57162412  0.09535044  0.52131796  1
  O2-  O224  1  0.57249235  0.42615445  0.02157086  1
  O2-  O225  1  0.56852743  0.43215747  0.52047312  1
  O2-  O226  1  0.57023283  0.75978397  0.01654454  1
  O2-  O227  1  0.57100308  0.76005808  0.52211982  1
  O2-  O228  1  0.90097188  0.09520250  0.01786397  1
  O2-  O229  1  0.90506584  0.09435930  0.52369378  1
  O2-  O230  1  0.90094597  0.43160159  0.01280946  1
  O2-  O231  1  0.90024939  0.43015820  0.52045172  1
  O2-  O232  1  0.90812942  0.76155994  0.01935843  1
  O2-  O233  1  0.90432310  0.76318934  0.51684023  1
  O2-  O234  1  0.26403998  0.26240218  0.23390435  1
  O2-  O235  1  0.25810737  0.25980738  0.73269174  1
  O2-  O236  1  0.26470905  0.59565653  0.23425483  1
  O2-  O237  1  0.26456782  0.59979859  0.73031804  1
  O2-  O238  1  0.26192118  0.92661482  0.22935296  1
  O2-  O239  1  0.26332275  0.92700448  0.73215886  1
  O2-  O240  1  0.59494277  0.25814537  0.22569799  1
  O2-  O241  1  0.59778548  0.26317941  0.72846491  1
  O2-  O242  1  0.59376619  0.59060254  0.23329390  1
  O2-  O243  1  0.59355647  0.59299207  0.72891956  1
  O2-  O244  1  0.59484456  0.92901192  0.22989083  1
  O2-  O245  1  0.59273903  0.92644250  0.72843295  1
  O2-  O246  1  0.92796603  0.26294257  0.22727031  1
  O2-  O247  1  0.92683351  0.26528327  0.72700301  1
  O2-  O248  1  0.92778436  0.59408107  0.23025089  1
  O2-  O249  1  0.93296909  0.59760855  0.72940616  1
  O2-  O250  1  0.92858720  0.92946940  0.22859200  1
  O2-  O251  1  0.92787235  0.92400605  0.72777300  1
  O2-  O252  1  0.09521275  0.23765133  0.26865839  1
  O2-  O253  1  0.09400765  0.23812455  0.77166047  1
  O2-  O254  1  0.09523940  0.57271088  0.26832943  1
  O2-  O255  1  0.09547488  0.57415291  0.77195750  1
  O2-  O256  1  0.09503798  0.90748639  0.27030982  1
  O2-  O257  1  0.09531368  0.90572877  0.77093817  1
  O2-  O258  1  0.42940801  0.23966407  0.27262248  1
  O2-  O259  1  0.43060860  0.23796680  0.77045709  1
  O2-  O260  1  0.42779904  0.57054959  0.27235062  1
  O2-  O261  1  0.42636896  0.57204945  0.77021090  1
  O2-  O262  1  0.42770280  0.90609310  0.27294618  1
  O2-  O263  1  0.43140582  0.90130240  0.76976184  1
  O2-  O264  1  0.76509773  0.23546613  0.26435519  1
  O2-  O265  1  0.76244480  0.23719167  0.77176053  1
  O2-  O266  1  0.76120897  0.56914050  0.27095541  1
  O2-  O267  1  0.76204556  0.57342970  0.76450537  1
  O2-  O268  1  0.76167691  0.90495039  0.27051866  1
  O2-  O269  1  0.76246186  0.90521443  0.76987341  1
  O2-  O270  1  0.07178812  0.07207480  0.48171135  1
  O2-  O271  1  0.06948624  0.07223306  0.97640076  1
  O2-  O272  1  0.07342944  0.40795836  0.48226714  1
  O2-  O273  1  0.07216859  0.40846517  0.97631658  1
  O2-  O274  1  0.07534417  0.74292012  0.48062511  1
  O2-  O275  1  0.07252731  0.73927210  0.97806441  1
  O2-  O276  1  0.40627772  0.07208399  0.47875928  1
  O2-  O277  1  0.40240118  0.06642482  0.98111702  1
  O2-  O278  1  0.40702876  0.40623856  0.47610049  1
  O2-  O279  1  0.40608966  0.40500308  0.97950615  1
  O2-  O280  1  0.40575851  0.74150634  0.47745382  1
  O2-  O281  1  0.40213994  0.73572031  0.98352898  1
  O2-  O282  1  0.73697518  0.07210783  0.48062687  1
  O2-  O283  1  0.73542227  0.07061542  0.97421897  1
  O2-  O284  1  0.73646808  0.40425321  0.47853029  1
  O2-  O285  1  0.73818532  0.40376786  0.97928452  1
  O2-  O286  1  0.73871893  0.73897475  0.48133385  1
  O2-  O287  1  0.74515955  0.74246449  0.98066648  1
  O2-  O288  1  0.09468879  0.23535409  0.48510749  1
  O2-  O289  1  0.09533321  0.24039312  0.97427916  1
  O2-  O290  1  0.09838324  0.57159841  0.48311291  1
  O2-  O291  1  0.09192689  0.57289970  0.97642692  1
  O2-  O292  1  0.09362886  0.90903218  0.47679091  1
  O2-  O293  1  0.09670578  0.90320688  0.98080013  1
  O2-  O294  1  0.43033761  0.24065614  0.47969534  1
  O2-  O295  1  0.43091562  0.23537934  0.97740683  1
  O2-  O296  1  0.42774158  0.57315765  0.47531744  1
  O2-  O297  1  0.42685530  0.57063657  0.98088498  1
  O2-  O298  1  0.42733043  0.90564924  0.47885990  1
  O2-  O299  1  0.43180804  0.90062185  0.97947457  1
  O2-  O300  1  0.76398925  0.23408851  0.48513675  1
  O2-  O301  1  0.76394532  0.23942292  0.97842935  1
  O2-  O302  1  0.76118065  0.57245027  0.48041473  1
  O2-  O303  1  0.76304655  0.57043155  0.98401864  1
  O2-  O304  1  0.76210351  0.90582923  0.47963300  1
  O2-  O305  1  0.76375746  0.90510199  0.97934149  1
  O2-  O306  1  0.07043695  0.07389755  0.26880943  1
  O2-  O307  1  0.07216669  0.07002127  0.77241998  1
  O2-  O308  1  0.07487407  0.40979627  0.26661291  1
  O2-  O309  1  0.07173618  0.40730179  0.77241740  1
  O2-  O310  1  0.07448799  0.74302219  0.26734318  1
  O2-  O311  1  0.07426957  0.74031447  0.77251508  1
  O2-  O312  1  0.40665051  0.07320130  0.27084575  1
  O2-  O313  1  0.40289122  0.06613198  0.77021978  1
  O2-  O314  1  0.40620986  0.40593656  0.27390739  1
  O2-  O315  1  0.40606228  0.40663906  0.77152537  1
  O2-  O316  1  0.40503073  0.73901877  0.27271971  1
  O2-  O317  1  0.40355313  0.73953689  0.76536846  1
  O2-  O318  1  0.73739951  0.07149195  0.27029800  1
  O2-  O319  1  0.73507710  0.07141445  0.77375609  1
  O2-  O320  1  0.73531197  0.40160615  0.27161043  1
  O2-  O321  1  0.73909716  0.40614888  0.77113525  1
  O2-  O322  1  0.74023623  0.73939288  0.27083938  1
  O2-  O323  1  0.74274362  0.74265377  0.76698915  1
  O2-  O324  1  0.24106390  0.09105572  0.23158524  1
  O2-  O325  1  0.23609819  0.09313780  0.72948079  1
  O2-  O326  1  0.24298326  0.42458884  0.23453490  1
  O2-  O327  1  0.23567719  0.43413260  0.73061286  1
  O2-  O328  1  0.23952981  0.76020898  0.23017477  1
  O2-  O329  1  0.23588492  0.76396191  0.73100086  1
  O2-  O330  1  0.57257322  0.09484758  0.22842051  1
  O2-  O331  1  0.56999407  0.09315424  0.72839520  1
  O2-  O332  1  0.57099353  0.42685401  0.22890925  1
  O2-  O333  1  0.57049867  0.43071030  0.72924039  1
  O2-  O334  1  0.57031881  0.76393191  0.23338029  1
  O2-  O335  1  0.57395997  0.75733706  0.72779688  1
  O2-  O336  1  0.90444848  0.09629986  0.22940300  1
  O2-  O337  1  0.90303151  0.09415664  0.73042818  1
  O2-  O338  1  0.90011766  0.42989338  0.23822808  1
  O2-  O339  1  0.90209744  0.43224138  0.72873040  1
  O2-  O340  1  0.90639417  0.76331767  0.23100189  1
  O2-  O341  1  0.90664054  0.76141669  0.73296061  1
  O2-  O342  1  0.26683045  0.26255900  0.01506563  1
  O2-  O343  1  0.25738022  0.26043380  0.51781400  1
  O2-  O344  1  0.26328201  0.59561752  0.01714873  1
  O2-  O345  1  0.26567878  0.60015189  0.51900691  1
  O2-  O346  1  0.26297287  0.92414433  0.02274851  1
  O2-  O347  1  0.26366738  0.93064032  0.51660848  1
  O2-  O348  1  0.59578131  0.26136229  0.02155963  1
  O2-  O349  1  0.59624605  0.26030179  0.52421593  1
  O2-  O350  1  0.58893648  0.58991442  0.01749606  1
  O2-  O351  1  0.59826731  0.59544114  0.51862230  1
  O2-  O352  1  0.59285814  0.92836733  0.02085459  1
  O2-  O353  1  0.59401340  0.92777745  0.52089575  1
  O2-  O354  1  0.92904742  0.26562852  0.01970393  1
  O2-  O355  1  0.92557321  0.26198355  0.52698323  1
  O2-  O356  1  0.92912590  0.59604246  0.01735370  1
  O2-  O357  1  0.92976052  0.59542856  0.52389721  1
  O2-  O358  1  0.92752614  0.92633404  0.02197570  1
  O2-  O359  1  0.92907508  0.92720305  0.52279381  1
