# generated using pymatgen
data_Sr7Ca15Pr50Mn72O216
_symmetry_space_group_name_H-M   'P 1'
_cell_length_a   16.55948138
_cell_length_b   16.60274683
_cell_length_c   15.59347337
_cell_angle_alpha   89.99407743
_cell_angle_beta   90.00518988
_cell_angle_gamma   90.00168228
_symmetry_Int_Tables_number   1
_chemical_formula_structural   Sr7Ca15Pr50Mn72O216
_chemical_formula_sum   'Sr7 Ca15 Pr50 Mn72 O216'
_cell_volume   4287.15845315
_cell_formula_units_Z   1
loop_
 _symmetry_equiv_pos_site_id
 _symmetry_equiv_pos_as_xyz
  1  'x, y, z'
loop_
 _atom_type_symbol
 _atom_type_oxidation_number
  Sr2+  2.0
  Ca2+  2.0
  Pr3+  3.0
  Mn3.30+  3.3
  O2-  -2.0
loop_
 _atom_site_type_symbol
 _atom_site_label
 _atom_site_symmetry_multiplicity
 _atom_site_fract_x
 _atom_site_fract_y
 _atom_site_fract_z
 _atom_site_occupancy
  Sr2+  Sr0  1  0.49888701  0.82394100  0.37392737  1
  Sr2+  Sr1  1  0.66578556  0.67782707  0.12224313  1
  Sr2+  Sr2  1  0.83181626  0.84188170  0.12141098  1
  Sr2+  Sr3  1  0.50272272  0.17335350  0.12431210  1
  Sr2+  Sr4  1  0.50158870  0.17818132  0.62572885  1
  Sr2+  Sr5  1  0.50451360  0.84118464  0.12302570  1
  Sr2+  Sr6  1  0.66856278  0.65796228  0.87536127  1
  Ca2+  Ca7  1  0.66312918  0.34617650  0.62594611  1
  Ca2+  Ca8  1  -0.00085471  0.34693252  0.62518067  1
  Ca2+  Ca9  1  0.66177179  0.68004240  0.62828849  1
  Ca2+  Ca10  1  0.16362404  0.48402404  0.87402125  1
  Ca2+  Ca11  1  -0.00407870  0.34816816  0.12434349  1
  Ca2+  Ca12  1  0.82787894  0.48521018  0.87526659  1
  Ca2+  Ca13  1  0.82792690  0.81949749  0.87527461  1
  Ca2+  Ca14  1  0.33921986  0.98551839  0.37785028  1
  Ca2+  Ca15  1  0.49676149  0.15654674  0.87240584  1
  Ca2+  Ca16  1  0.49927448  0.81681620  0.87608137  1
  Ca2+  Ca17  1  0.17115890  0.18301288  0.62517502  1
  Ca2+  Ca18  1  0.32928523  0.01953239  0.62434435  1
  Ca2+  Ca19  1  0.33748481  0.31600468  0.87470547  1
  Ca2+  Ca20  1  1.00398526  0.31849891  0.37650205  1
  Ca2+  Ca21  1  0.83246501  0.15240827  0.37575636  1
  Pr3+  Pr22  1  0.50309214  0.84563920  0.62741642  1
  Pr3+  Pr23  1  0.83320869  0.84566992  0.62870548  1
  Pr3+  Pr24  1  0.66700405  0.98838789  0.37660855  1
  Pr3+  Pr25  1  0.16034671  0.48499181  0.37601439  1
  Pr3+  Pr26  1  0.49846759  0.48841626  0.37453406  1
  Pr3+  Pr27  1  1.00110737  0.98874462  0.37673948  1
  Pr3+  Pr28  1  0.66349087  0.34455279  0.12461898  1
  Pr3+  Pr29  1  0.33848907  0.65294463  0.87481314  1
  Pr3+  Pr30  1  -0.00105098  0.01538417  0.62534480  1
  Pr3+  Pr31  1  0.66970190  0.32211438  0.87284236  1
  Pr3+  Pr32  1  0.16843041  0.18085135  0.12486056  1
  Pr3+  Pr33  1  0.83071199  0.15693939  0.87349042  1
  Pr3+  Pr34  1  0.34072618  0.98899126  0.87322985  1
  Pr3+  Pr35  1  0.33103411  0.34415964  0.12326916  1
  Pr3+  Pr36  1  0.83139956  0.48668627  0.37456943  1
  Pr3+  Pr37  1  0.83667307  0.18327272  0.62309684  1
  Pr3+  Pr38  1  0.66219989  0.00732730  0.12561350  1
  Pr3+  Pr39  1  0.50270426  0.51165316  0.12377809  1
  Pr3+  Pr40  1  0.16607109  0.82178434  0.37612141  1
  Pr3+  Pr41  1  0.49784935  0.48536412  0.87662451  1
  Pr3+  Pr42  1  1.00016461  0.65113694  0.87507019  1
  Pr3+  Pr43  1  0.49561645  0.15154835  0.37624091  1
  Pr3+  Pr44  1  0.66288559  0.01316745  0.62473419  1
  Pr3+  Pr45  1  0.33131242  0.67946168  0.62604500  1
  Pr3+  Pr46  1  0.50511289  0.50928221  0.62663224  1
  Pr3+  Pr47  1  0.17314122  0.85015619  0.62544432  1
  Pr3+  Pr48  1  0.33485834  0.32079414  0.37586307  1
  Pr3+  Pr49  1  0.16690521  0.51220925  0.12246067  1
  Pr3+  Pr50  1  0.83301740  0.50956721  0.62844237  1
  Pr3+  Pr51  1  0.16831645  0.50979053  0.62725148  1
  Pr3+  Pr52  1  0.82852860  0.82204112  0.37576262  1
  Pr3+  Pr53  1  0.16664917  0.15665960  0.87260197  1
  Pr3+  Pr54  1  -0.00288988  0.67761290  0.62578940  1
  Pr3+  Pr55  1  1.00088447  0.32436812  0.87361310  1
  Pr3+  Pr56  1  0.83652384  0.51295213  0.12133531  1
  Pr3+  Pr57  1  0.33451145  0.01184806  0.12702770  1
  Pr3+  Pr58  1  0.33870167  0.65509575  0.37546909  1
  Pr3+  Pr59  1  0.16418282  0.15444191  0.37708285  1
  Pr3+  Pr60  1  0.33245756  0.68154395  0.12357641  1
  Pr3+  Pr61  1  1.00290046  0.98754383  0.87455371  1
  Pr3+  Pr62  1  0.83767568  0.18006968  0.12609817  1
  Pr3+  Pr63  1  1.00175326  0.65425514  0.37520403  1
  Pr3+  Pr64  1  0.66735256  0.65660829  0.37412508  1
  Pr3+  Pr65  1  0.16415726  0.82096757  0.87377897  1
  Pr3+  Pr66  1  0.17022054  0.84719032  0.12381827  1
  Pr3+  Pr67  1  -0.00507384  0.01224848  0.12527052  1
  Pr3+  Pr68  1  -0.00507720  0.68021771  0.12405431  1
  Pr3+  Pr69  1  0.67175877  0.31667223  0.37667656  1
  Pr3+  Pr70  1  0.66476173  0.98846042  0.87308168  1
  Pr3+  Pr71  1  0.33096483  0.34052392  0.62767388  1
  Mn3.30+  Mn72  1  0.16739815  0.00157903  -0.00050755  1
  Mn3.30+  Mn73  1  0.17042814  0.00250726  0.50003038  1
  Mn3.30+  Mn74  1  0.16606235  0.33445938  -0.00187221  1
  Mn3.30+  Mn75  1  0.16405273  0.33240798  0.50210881  1
  Mn3.30+  Mn76  1  0.16628562  0.66539686  -0.00215441  1
  Mn3.30+  Mn77  1  0.16738725  0.66628907  0.50083082  1
  Mn3.30+  Mn78  1  0.50026290  -0.00022786  -0.00210858  1
  Mn3.30+  Mn79  1  0.49607632  -0.00020628  0.50268553  1
  Mn3.30+  Mn80  1  0.49851148  0.32933986  -0.00067732  1
  Mn3.30+  Mn81  1  0.50207855  0.33304925  0.50080670  1
  Mn3.30+  Mn82  1  0.50155886  0.66641089  -0.00196403  1
  Mn3.30+  Mn83  1  0.50119057  0.66603764  0.50195019  1
  Mn3.30+  Mn84  1  0.83220846  -0.00020336  -0.00190001  1
  Mn3.30+  Mn85  1  0.83337921  0.00203029  0.50137496  1
  Mn3.30+  Mn86  1  0.83424212  0.33426733  0.00012479  1
  Mn3.30+  Mn87  1  0.83587988  0.33307419  0.49916401  1
  Mn3.30+  Mn88  1  0.83287486  0.66760185  -0.00336777  1
  Mn3.30+  Mn89  1  0.83106744  0.66595909  0.50318492  1
  Mn3.30+  Mn90  1  -0.00094324  0.16932336  0.25254087  1
  Mn3.30+  Mn91  1  0.00148689  0.16966985  0.74718383  1
  Mn3.30+  Mn92  1  -0.00069777  0.49725059  0.24962189  1
  Mn3.30+  Mn93  1  -0.00040779  0.49831587  0.75110735  1
  Mn3.30+  Mn94  1  -0.00066675  0.83418969  0.25080343  1
  Mn3.30+  Mn95  1  -0.00070338  0.83305846  0.75042305  1
  Mn3.30+  Mn96  1  0.33287007  0.16651731  0.25039198  1
  Mn3.30+  Mn97  1  0.33334767  0.16734153  0.74930918  1
  Mn3.30+  Mn98  1  0.33109387  0.49986287  0.24923873  1
  Mn3.30+  Mn99  1  0.33296004  0.49630868  0.75257807  1
  Mn3.30+  Mn100  1  0.33413734  0.83540396  0.25019159  1
  Mn3.30+  Mn101  1  0.33577997  0.83479658  0.75059981  1
  Mn3.30+  Mn102  1  0.66931796  0.16473381  0.25098234  1
  Mn3.30+  Mn103  1  0.66436886  0.16868490  0.74911733  1
  Mn3.30+  Mn104  1  0.66701771  0.49927415  0.24990873  1
  Mn3.30+  Mn105  1  0.66777579  0.50015194  0.75065324  1
  Mn3.30+  Mn106  1  0.66588011  0.83289664  0.24933574  1
  Mn3.30+  Mn107  1  0.66660861  0.83183678  0.75125553  1
  Mn3.30+  Mn108  1  0.16699608  0.00080211  0.25200808  1
  Mn3.30+  Mn109  1  0.17006137  0.00335419  0.74839766  1
  Mn3.30+  Mn110  1  0.16281602  0.33358473  0.24888161  1
  Mn3.30+  Mn111  1  0.16688384  0.33352250  0.75154498  1
  Mn3.30+  Mn112  1  0.16681374  0.66665692  0.24924774  1
  Mn3.30+  Mn113  1  0.16684825  0.66510866  0.75146513  1
  Mn3.30+  Mn114  1  0.49851989  -0.00153854  0.25099043  1
  Mn3.30+  Mn115  1  0.49812010  0.00155753  0.74926304  1
  Mn3.30+  Mn116  1  0.50062541  0.33108993  0.24970909  1
  Mn3.30+  Mn117  1  0.49986759  0.33161690  0.75081780  1
  Mn3.30+  Mn118  1  0.50099730  0.66680909  0.24990511  1
  Mn3.30+  Mn119  1  0.50150507  0.66543735  0.75063744  1
  Mn3.30+  Mn120  1  0.83277645  0.00066765  0.25026199  1
  Mn3.30+  Mn121  1  0.83315374  0.00087119  0.75073083  1
  Mn3.30+  Mn122  1  0.83686837  0.33173337  0.25199131  1
  Mn3.30+  Mn123  1  0.83353234  0.33514545  0.74715775  1
  Mn3.30+  Mn124  1  0.83415648  0.66717453  0.24970196  1
  Mn3.30+  Mn125  1  0.83026777  0.66618901  0.75012654  1
  Mn3.30+  Mn126  1  0.00009097  0.16873439  -0.00034702  1
  Mn3.30+  Mn127  1  0.00089959  0.17049141  0.50070245  1
  Mn3.30+  Mn128  1  0.00030229  0.49788809  -0.00258059  1
  Mn3.30+  Mn129  1  -0.00126457  0.49749527  0.50141277  1
  Mn3.30+  Mn130  1  -0.00134752  0.83331188  -0.00240402  1
  Mn3.30+  Mn131  1  0.00002978  0.83384246  0.50222069  1
  Mn3.30+  Mn132  1  0.33501038  0.16710690  -0.00051154  1
  Mn3.30+  Mn133  1  0.33148784  0.16607558  0.50162975  1
  Mn3.30+  Mn134  1  0.33121289  0.49758905  -0.00230497  1
  Mn3.30+  Mn135  1  0.33299173  0.49871070  0.50116044  1
  Mn3.30+  Mn136  1  0.33528359  0.83448969  -0.00147551  1
  Mn3.30+  Mn137  1  0.33509995  0.83597390  0.50093769  1
  Mn3.30+  Mn138  1  0.66564835  0.16571634  -0.00121365  1
  Mn3.30+  Mn139  1  0.66766272  0.16722337  0.50090811  1
  Mn3.30+  Mn140  1  0.66809857  0.50002695  -0.00198918  1
  Mn3.30+  Mn141  1  0.66690550  0.49969575  0.50090904  1
  Mn3.30+  Mn142  1  0.66661884  0.83339384  -0.00300785  1
  Mn3.30+  Mn143  1  0.66576085  0.83169934  0.50212115  1
  O2-  O144  1  0.02558000  0.15748789  0.12683133  1
  O2-  O145  1  0.02966140  0.16015344  0.62534765  1
  O2-  O146  1  0.02400949  0.49485550  0.12290192  1
  O2-  O147  1  0.02489223  0.49633780  0.62605406  1
  O2-  O148  1  0.02626316  0.82925065  0.12276390  1
  O2-  O149  1  0.02808998  0.82692734  0.62552269  1
  O2-  O150  1  0.35267303  0.16210115  0.12574007  1
  O2-  O151  1  0.35236379  0.16899188  0.62399535  1
  O2-  O152  1  0.35790012  0.49271347  0.12440976  1
  O2-  O153  1  0.35956170  0.49015218  0.62841301  1
  O2-  O154  1  0.35289768  0.83024787  0.12441251  1
  O2-  O155  1  0.35916493  0.82530017  0.62808694  1
  O2-  O156  1  0.69359746  0.15799052  0.12516856  1
  O2-  O157  1  0.69292414  0.15991236  0.62445361  1
  O2-  O158  1  0.69163338  0.49276497  0.12478400  1
  O2-  O159  1  0.68961897  0.48987898  0.62413587  1
  O2-  O160  1  0.68238808  0.83911505  0.12358558  1
  O2-  O161  1  0.69003769  0.82895087  0.62559055  1
  O2-  O162  1  0.13829696  0.32814085  0.12309658  1
  O2-  O163  1  0.14192979  0.32901562  0.62605572  1
  O2-  O164  1  0.13858901  0.66169297  0.12189159  1
  O2-  O165  1  0.14172944  0.65977647  0.62635303  1
  O2-  O166  1  0.13860877  0.99477749  0.12699007  1
  O2-  O167  1  0.14098841  0.99453235  0.62489616  1
  O2-  O168  1  0.47494179  0.32948915  0.12407446  1
  O2-  O169  1  0.47572041  0.33672739  0.62481429  1
  O2-  O170  1  0.47622013  0.66052495  0.12331736  1
  O2-  O171  1  0.47394774  0.65809866  0.62623386  1
  O2-  O172  1  0.47911490  0.99666674  0.12417835  1
  O2-  O173  1  0.47274095  0.99275325  0.62633382  1
  O2-  O174  1  0.80682880  0.32708902  0.12813049  1
  O2-  O175  1  0.80505449  0.32967362  0.62254908  1
  O2-  O176  1  0.81731944  0.66051772  0.12283728  1
  O2-  O177  1  0.80388123  0.65674207  0.62540758  1
  O2-  O178  1  0.80803807  0.99980832  0.12131221  1
  O2-  O179  1  0.80782308  0.99543727  0.62589887  1
  O2-  O180  1  0.30756728  0.17452214  0.37500298  1
  O2-  O181  1  0.30969292  0.16751642  0.87548108  1
  O2-  O182  1  0.30458002  0.50771527  0.37297973  1
  O2-  O183  1  0.30473205  0.50831416  0.87511108  1
  O2-  O184  1  0.30884555  0.83732313  0.37399633  1
  O2-  O185  1  0.30659813  0.84004575  0.87339679  1
  O2-  O186  1  0.64131006  0.16940066  0.37695502  1
  O2-  O187  1  0.64103103  0.17477242  0.87324857  1
  O2-  O188  1  0.64223549  0.50784780  0.37548508  1
  O2-  O189  1  0.64239471  0.49978326  0.87512535  1
  O2-  O190  1  0.64911933  0.83809747  0.37849933  1
  O2-  O191  1  0.64017576  0.84055902  0.87208744  1
  O2-  O192  1  0.97387849  0.17347691  0.37569124  1
  O2-  O193  1  0.97433229  0.17484593  0.87201837  1
  O2-  O194  1  0.97496290  0.50863035  0.37672230  1
  O2-  O195  1  0.97089347  0.50301807  0.87358293  1
  O2-  O196  1  0.97337028  0.83957031  0.37969440  1
  O2-  O197  1  0.97361550  0.84038093  0.87274979  1
  O2-  O198  1  0.19644547  0.00662106  0.37542207  1
  O2-  O199  1  0.19478302  0.00704613  0.87233905  1
  O2-  O200  1  0.19138063  0.33878725  0.37474198  1
  O2-  O201  1  0.19396939  0.33839011  0.87608660  1
  O2-  O202  1  0.19428559  0.67214983  0.37668113  1
  O2-  O203  1  0.19534400  0.67454691  0.87443549  1
  O2-  O204  1  0.52193106  0.00382011  0.37800454  1
  O2-  O205  1  0.52007274  0.01175742  0.87250985  1
  O2-  O206  1  0.52582935  0.33958365  0.37553498  1
  O2-  O207  1  0.52629991  0.33833819  0.87597501  1
  O2-  O208  1  0.52204365  0.66368268  0.37792999  1
  O2-  O209  1  0.51693788  0.66697391  0.87294555  1
  O2-  O210  1  0.85780801  0.00397482  0.37954584  1
  O2-  O211  1  0.86121953  0.01070653  0.87324779  1
  O2-  O212  1  0.86370632  0.34197633  0.37503092  1
  O2-  O213  1  0.85680657  0.33576446  0.87276046  1
  O2-  O214  1  0.85853739  0.67267689  0.37820701  1
  O2-  O215  1  0.85817459  0.67516681  0.87285541  1
  O2-  O216  1  0.23773088  0.09533532  0.02048529  1
  O2-  O217  1  0.23392424  0.10012517  0.51931763  1
  O2-  O218  1  0.23808848  0.42625220  0.02391731  1
  O2-  O219  1  0.23647890  0.42770565  0.51989124  1
  O2-  O220  1  0.23740725  0.76251009  0.01915089  1
  O2-  O221  1  0.23991451  0.76409681  0.52066826  1
  O2-  O222  1  0.57784509  0.08977560  0.01837064  1
  O2-  O223  1  0.57219385  0.09033923  0.51749672  1
  O2-  O224  1  0.57004872  0.42465457  0.01995045  1
  O2-  O225  1  0.57025968  0.43159722  0.51489859  1
  O2-  O226  1  0.57301101  0.75767865  0.01024668  1
  O2-  O227  1  0.57053340  0.75962596  0.52163274  1
  O2-  O228  1  0.90528469  0.09626225  0.01907016  1
  O2-  O229  1  0.90817982  0.09494372  0.52293693  1
  O2-  O230  1  0.90392953  0.42750835  0.01947409  1
  O2-  O231  1  0.90192185  0.43053994  0.51934474  1
  O2-  O232  1  0.91176044  0.75722602  0.01756232  1
  O2-  O233  1  0.90197754  0.75885201  0.52460564  1
  O2-  O234  1  0.25972205  0.26279955  0.22956532  1
  O2-  O235  1  0.26146485  0.26163447  0.73408221  1
  O2-  O236  1  0.26054604  0.59468186  0.22583498  1
  O2-  O237  1  0.26186926  0.59250209  0.72813630  1
  O2-  O238  1  0.25686442  0.92718244  0.22696693  1
  O2-  O239  1  0.26409310  0.93092884  0.72751154  1
  O2-  O240  1  0.60269076  0.25944255  0.23419310  1
  O2-  O241  1  0.59831928  0.26566020  0.73114047  1
  O2-  O242  1  0.59122386  0.58987930  0.23184568  1
  O2-  O243  1  0.59490398  0.59193647  0.72727554  1
  O2-  O244  1  0.59535309  0.92890361  0.23830460  1
  O2-  O245  1  0.59520346  0.92809232  0.72953706  1
  O2-  O246  1  0.92966409  0.26198736  0.22429023  1
  O2-  O247  1  0.92857504  0.26248125  0.72627816  1
  O2-  O248  1  0.92985739  0.59386228  0.23129849  1
  O2-  O249  1  0.92858111  0.59466178  0.72957389  1
  O2-  O250  1  0.92898125  0.93147033  0.23416850  1
  O2-  O251  1  0.92946649  0.92857612  0.72791208  1
  O2-  O252  1  0.09625096  0.23562551  0.26875974  1
  O2-  O253  1  0.09404909  0.24240642  0.77448565  1
  O2-  O254  1  0.09478785  0.57181227  0.26987370  1
  O2-  O255  1  0.09378899  0.57104685  0.77261184  1
  O2-  O256  1  0.09458406  0.90614022  0.27317313  1
  O2-  O257  1  0.09744008  0.90759922  0.76983070  1
  O2-  O258  1  0.42728174  0.24057095  0.27289407  1
  O2-  O259  1  0.42907909  0.23799393  0.76844248  1
  O2-  O260  1  0.42476340  0.57111732  0.26908040  1
  O2-  O261  1  0.42702298  0.56846293  0.77039042  1
  O2-  O262  1  0.42291345  0.90845251  0.26640066  1
  O2-  O263  1  0.43039339  0.90206284  0.77324554  1
  O2-  O264  1  0.76669560  0.23674312  0.27328275  1
  O2-  O265  1  0.76263301  0.23925207  0.76831993  1
  O2-  O266  1  0.76125165  0.57365953  0.26963817  1
  O2-  O267  1  0.76510034  0.56814266  0.76872576  1
  O2-  O268  1  0.76023384  0.90748035  0.27126636  1
  O2-  O269  1  0.76185259  0.90569175  0.76990221  1
  O2-  O270  1  0.07171270  0.07247081  0.47814312  1
  O2-  O271  1  0.07261707  0.07308501  0.97809865  1
  O2-  O272  1  0.07221534  0.40511568  0.47846170  1
  O2-  O273  1  0.07118823  0.40599409  0.97767308  1
  O2-  O274  1  0.07269319  0.73868071  0.47919201  1
  O2-  O275  1  0.07403885  0.73733874  0.97624730  1
  O2-  O276  1  0.40329206  0.07389700  0.47922281  1
  O2-  O277  1  0.40248537  0.06855664  0.98641964  1
  O2-  O278  1  0.40383681  0.40672635  0.47734540  1
  O2-  O279  1  0.40473220  0.40179511  0.97880157  1
  O2-  O280  1  0.40320496  0.73391855  0.48491097  1
  O2-  O281  1  0.40267550  0.73574256  0.98331191  1
  O2-  O282  1  0.73820569  0.07044340  0.48299139  1
  O2-  O283  1  0.73989891  0.07412479  0.97426636  1
  O2-  O284  1  0.74065763  0.40648149  0.47482633  1
  O2-  O285  1  0.73767155  0.40275364  0.98284134  1
  O2-  O286  1  0.73982383  0.73889062  0.47856381  1
  O2-  O287  1  0.74308678  0.74405816  0.98402598  1
  O2-  O288  1  0.09592981  0.23889149  0.47877643  1
  O2-  O289  1  0.09577617  0.23978442  0.97804869  1
  O2-  O290  1  0.09235411  0.57143032  0.48032377  1
  O2-  O291  1  0.09621604  0.57028987  0.97646520  1
  O2-  O292  1  0.09836112  0.90866300  0.47941703  1
  O2-  O293  1  0.09537797  0.90597209  0.97823897  1
  O2-  O294  1  0.42723230  0.24001947  0.47877046  1
  O2-  O295  1  0.42893234  0.23604607  0.97866779  1
  O2-  O296  1  0.42805422  0.57033141  0.48111535  1
  O2-  O297  1  0.42548258  0.57009951  0.98120698  1
  O2-  O298  1  0.42770867  0.90389337  0.48519808  1
  O2-  O299  1  0.42835885  0.90569883  0.97542207  1
  O2-  O300  1  0.76788571  0.23830073  0.47724575  1
  O2-  O301  1  0.76241700  0.23873304  0.98088290  1
  O2-  O302  1  0.76085921  0.57207280  0.47780141  1
  O2-  O303  1  0.76601666  0.57098714  0.98262200  1
  O2-  O304  1  0.76223985  0.90613729  0.48353581  1
  O2-  O305  1  0.76050815  0.90961505  0.97352048  1
  O2-  O306  1  0.07207904  0.07198056  0.27393233  1
  O2-  O307  1  0.07156287  0.07333782  0.77163330  1
  O2-  O308  1  0.07036114  0.40576058  0.27323495  1
  O2-  O309  1  0.07284226  0.40612981  0.77031603  1
  O2-  O310  1  0.07370938  0.73897927  0.27187154  1
  O2-  O311  1  0.07134491  0.73854574  0.77229465  1
  O2-  O312  1  0.40486249  0.07201753  0.27055375  1
  O2-  O313  1  0.40134097  0.07200394  0.76470710  1
  O2-  O314  1  0.40162513  0.40781509  0.27065182  1
  O2-  O315  1  0.40395681  0.40305131  0.77509981  1
  O2-  O316  1  0.40279807  0.73621203  0.26545587  1
  O2-  O317  1  0.40196215  0.73514959  0.76660183  1
  O2-  O318  1  0.73812052  0.07023058  0.27061876  1
  O2-  O319  1  0.73918967  0.07424211  0.77061300  1
  O2-  O320  1  0.73924842  0.40409799  0.27223411  1
  O2-  O321  1  0.73905931  0.40584224  0.76861521  1
  O2-  O322  1  0.74203066  0.74115173  0.27023848  1
  O2-  O323  1  0.74086712  0.74079510  0.76586774  1
  O2-  O324  1  0.23645839  0.09438729  0.22858933  1
  O2-  O325  1  0.23454684  0.09952588  0.73050782  1
  O2-  O326  1  0.23650806  0.42914115  0.22874398  1
  O2-  O327  1  0.23893988  0.42544863  0.72697372  1
  O2-  O328  1  0.23815118  0.76183090  0.22948055  1
  O2-  O329  1  0.23799803  0.76292591  0.72985724  1
  O2-  O330  1  0.57420502  0.09059633  0.23603428  1
  O2-  O331  1  0.57688626  0.09153669  0.72960373  1
  O2-  O332  1  0.57151850  0.42572818  0.22975465  1
  O2-  O333  1  0.56937338  0.42955371  0.73598407  1
  O2-  O334  1  0.57649761  0.75769932  0.23784293  1
  O2-  O335  1  0.57120143  0.76046790  0.73123384  1
  O2-  O336  1  0.90684600  0.09477749  0.23035665  1
  O2-  O337  1  0.90666379  0.09691062  0.72736706  1
  O2-  O338  1  0.90157366  0.43052203  0.23044358  1
  O2-  O339  1  0.90597951  0.42673185  0.72865903  1
  O2-  O340  1  0.90907700  0.75978573  0.23400946  1
  O2-  O341  1  0.90597265  0.75753120  0.72447748  1
  O2-  O342  1  0.25925056  0.26020496  0.02123237  1
  O2-  O343  1  0.26264860  0.26544423  0.51612266  1
  O2-  O344  1  0.25974969  0.59594002  0.02238261  1
  O2-  O345  1  0.26216777  0.59269480  0.52248831  1
  O2-  O346  1  0.26085033  0.93005342  0.02058984  1
  O2-  O347  1  0.26122277  0.93091002  0.52358758  1
  O2-  O348  1  0.59807876  0.26190247  0.01867065  1
  O2-  O349  1  0.60051284  0.26440092  0.51686401  1
  O2-  O350  1  0.58955164  0.58832052  0.01824794  1
  O2-  O351  1  0.59603822  0.59530624  0.52187139  1
  O2-  O352  1  0.59636059  0.93064477  0.01178158  1
  O2-  O353  1  0.59406151  0.92629889  0.52150926  1
  O2-  O354  1  0.92879798  0.26264637  0.02075919  1
  O2-  O355  1  0.93020118  0.26265919  0.52601219  1
  O2-  O356  1  0.93228563  0.59395120  0.01726049  1
  O2-  O357  1  0.92635631  0.59495366  0.52184508  1
  O2-  O358  1  0.92929779  0.93289930  0.01593933  1
  O2-  O359  1  0.92721718  0.92926679  0.52368550  1
