# generated using pymatgen
data_Sr7Ca15Pr50Mn72O216
_symmetry_space_group_name_H-M   'P 1'
_cell_length_a   16.55881672
_cell_length_b   16.60529839
_cell_length_c   15.59200352
_cell_angle_alpha   89.99456764
_cell_angle_beta   89.99466462
_cell_angle_gamma   90.01304507
_symmetry_Int_Tables_number   1
_chemical_formula_structural   Sr7Ca15Pr50Mn72O216
_chemical_formula_sum   'Sr7 Ca15 Pr50 Mn72 O216'
_cell_volume   4287.24095035
_cell_formula_units_Z   1
loop_
 _symmetry_equiv_pos_site_id
 _symmetry_equiv_pos_as_xyz
  1  'x, y, z'
loop_
 _atom_type_symbol
 _atom_type_oxidation_number
  Sr2+  2.0
  Ca2+  2.0
  Pr3+  3.0
  Mn3.30+  3.3
  O2-  -2.0
loop_
 _atom_site_type_symbol
 _atom_site_label
 _atom_site_symmetry_multiplicity
 _atom_site_fract_x
 _atom_site_fract_y
 _atom_site_fract_z
 _atom_site_occupancy
  Sr2+  Sr0  1  0.50127446  0.49449689  0.87717134  1
  Sr2+  Sr1  1  0.83021741  0.82031388  0.87329394  1
  Sr2+  Sr2  1  0.33763667  0.98945664  0.87409344  1
  Sr2+  Sr3  1  1.00057024  0.65823058  0.87493258  1
  Sr2+  Sr4  1  0.50202354  0.84209284  0.12389253  1
  Sr2+  Sr5  1  0.33395493  0.00645451  0.12565407  1
  Sr2+  Sr6  1  -0.00134074  0.01391265  0.62498129  1
  Ca2+  Ca7  1  0.66901628  0.65594705  0.87734425  1
  Ca2+  Ca8  1  0.49527058  0.15182323  0.87416397  1
  Ca2+  Ca9  1  0.83699271  0.51466457  0.62679453  1
  Ca2+  Ca10  1  0.16834487  0.18274085  0.62577706  1
  Ca2+  Ca11  1  0.65842284  0.68164169  0.11986504  1
  Ca2+  Ca12  1  0.34043745  0.98075798  0.37644723  1
  Ca2+  Ca13  1  0.16981316  0.51579424  0.12404069  1
  Ca2+  Ca14  1  0.33347598  0.68296206  0.62670159  1
  Ca2+  Ca15  1  1.00169846  0.31975148  0.87422930  1
  Ca2+  Ca16  1  0.50119780  0.84602488  0.62723564  1
  Ca2+  Ca17  1  0.83951724  0.18018399  0.62541937  1
  Ca2+  Ca18  1  0.49709278  0.81851686  0.87576902  1
  Ca2+  Ca19  1  1.00266703  0.31796734  0.37549775  1
  Ca2+  Ca20  1  0.49554790  0.81904646  0.37400675  1
  Ca2+  Ca21  1  0.50583160  0.51786806  0.12308532  1
  Pr3+  Pr22  1  1.00413094  0.65404889  0.37526132  1
  Pr3+  Pr23  1  -0.00383185  0.67742589  0.62620816  1
  Pr3+  Pr24  1  0.16232571  0.48522373  0.37312697  1
  Pr3+  Pr25  1  1.00429385  0.98729598  0.87330992  1
  Pr3+  Pr26  1  0.66822088  0.31988383  0.37543351  1
  Pr3+  Pr27  1  0.83134888  0.48651330  0.37650081  1
  Pr3+  Pr28  1  0.66008482  0.00961939  0.12363613  1
  Pr3+  Pr29  1  0.66573281  0.98597887  0.87400874  1
  Pr3+  Pr30  1  0.49570581  0.48746759  0.37369208  1
  Pr3+  Pr31  1  0.82982656  0.49194127  0.87343131  1
  Pr3+  Pr32  1  0.50187785  0.17801712  0.62864441  1
  Pr3+  Pr33  1  0.17356254  0.84452112  0.12359772  1
  Pr3+  Pr34  1  0.66445820  0.67933926  0.62767914  1
  Pr3+  Pr35  1  0.83516574  0.17929620  0.12439461  1
  Pr3+  Pr36  1  0.32952045  0.34943383  0.12388627  1
  Pr3+  Pr37  1  -0.00239085  0.34759559  0.12427821  1
  Pr3+  Pr38  1  0.82966905  0.82108495  0.37698787  1
  Pr3+  Pr39  1  -0.00486479  0.34438598  0.62567138  1
  Pr3+  Pr40  1  0.50008735  0.51286606  0.62684226  1
  Pr3+  Pr41  1  0.83129959  0.84330438  0.12291771  1
  Pr3+  Pr42  1  0.17080721  0.51551871  0.62530048  1
  Pr3+  Pr43  1  0.66837980  0.34588939  0.62563210  1
  Pr3+  Pr44  1  0.32942107  0.01338719  0.62431450  1
  Pr3+  Pr45  1  0.17257295  0.17854040  0.12442487  1
  Pr3+  Pr46  1  0.66746430  0.98432971  0.37592252  1
  Pr3+  Pr47  1  0.33974572  0.65693438  0.37511340  1
  Pr3+  Pr48  1  0.66736058  0.32256493  0.87441237  1
  Pr3+  Pr49  1  0.16515324  0.82100486  0.87520447  1
  Pr3+  Pr50  1  0.83701772  0.84562504  0.62683130  1
  Pr3+  Pr51  1  0.16941714  0.82224892  0.37471671  1
  Pr3+  Pr52  1  0.33749041  0.65719955  0.87461505  1
  Pr3+  Pr53  1  0.33625765  0.67814235  0.12284887  1
  Pr3+  Pr54  1  -0.00135176  0.01189757  0.12485501  1
  Pr3+  Pr55  1  0.50025514  0.17415114  0.12209024  1
  Pr3+  Pr56  1  0.17163381  0.84353220  0.62568512  1
  Pr3+  Pr57  1  1.00251926  0.98796191  0.37679908  1
  Pr3+  Pr58  1  0.66513411  0.01107360  0.62637878  1
  Pr3+  Pr59  1  0.32735591  0.34521192  0.62597511  1
  Pr3+  Pr60  1  0.66617134  0.65609479  0.37347163  1
  Pr3+  Pr61  1  -0.00106276  0.67890499  0.12427175  1
  Pr3+  Pr62  1  0.16340493  0.15428116  0.87307838  1
  Pr3+  Pr63  1  0.83201778  0.15421373  0.37705740  1
  Pr3+  Pr64  1  0.49478302  0.15027938  0.37735298  1
  Pr3+  Pr65  1  0.15945604  0.48712237  0.87679271  1
  Pr3+  Pr66  1  0.83272996  0.15529473  0.87258187  1
  Pr3+  Pr67  1  0.33786753  0.31967165  0.87444859  1
  Pr3+  Pr68  1  0.33514597  0.32008628  0.37527735  1
  Pr3+  Pr69  1  0.66026129  0.34768726  0.12452797  1
  Pr3+  Pr70  1  0.16432038  0.15371937  0.37673225  1
  Pr3+  Pr71  1  0.83254161  0.51540908  0.12538566  1
  Mn3.30+  Mn72  1  0.16838403  0.00016248  -0.00084809  1
  Mn3.30+  Mn73  1  0.16906546  0.00060609  0.50022421  1
  Mn3.30+  Mn74  1  0.16551041  0.33453919  -0.00006489  1
  Mn3.30+  Mn75  1  0.16350254  0.33290416  0.50001485  1
  Mn3.30+  Mn76  1  0.16732470  0.66495908  0.00110659  1
  Mn3.30+  Mn77  1  0.16985506  0.66704437  0.49988003  1
  Mn3.30+  Mn78  1  0.49880527  -0.00085281  -0.00181371  1
  Mn3.30+  Mn79  1  0.49839285  -0.00410751  0.50139231  1
  Mn3.30+  Mn80  1  0.49847372  0.33415000  -0.00103394  1
  Mn3.30+  Mn81  1  0.49931287  0.33304988  0.50174400  1
  Mn3.30+  Mn82  1  0.50292431  0.66693974  -0.00268648  1
  Mn3.30+  Mn83  1  0.49960950  0.66901819  0.50305192  1
  Mn3.30+  Mn84  1  0.83197257  -0.00053034  -0.00067980  1
  Mn3.30+  Mn85  1  0.83409335  0.00114157  0.50100927  1
  Mn3.30+  Mn86  1  0.83331206  0.33482568  -0.00091246  1
  Mn3.30+  Mn87  1  0.83494677  0.33283469  0.49952750  1
  Mn3.30+  Mn88  1  0.82977768  0.66686558  0.00020462  1
  Mn3.30+  Mn89  1  0.83332133  0.66515696  0.50002523  1
  Mn3.30+  Mn90  1  0.00106898  0.16811169  0.25022658  1
  Mn3.30+  Mn91  1  -0.00020724  0.16854365  0.74853504  1
  Mn3.30+  Mn92  1  0.00054021  0.49929985  0.24872819  1
  Mn3.30+  Mn93  1  -0.00118591  0.49938718  0.75050714  1
  Mn3.30+  Mn94  1  0.00047930  0.83354725  0.25010171  1
  Mn3.30+  Mn95  1  0.00093097  0.83269823  0.75029413  1
  Mn3.30+  Mn96  1  0.33355334  0.16418126  0.25081015  1
  Mn3.30+  Mn97  1  0.33308286  0.16666715  0.74951029  1
  Mn3.30+  Mn98  1  0.33287205  0.50142036  0.24741544  1
  Mn3.30+  Mn99  1  0.33236643  0.50163787  0.75149482  1
  Mn3.30+  Mn100  1  0.33639049  0.83344485  0.25057341  1
  Mn3.30+  Mn101  1  0.33785341  0.83353417  0.74939405  1
  Mn3.30+  Mn102  1  0.66582240  0.16583903  0.25045827  1
  Mn3.30+  Mn103  1  0.66744649  0.16672955  0.74979955  1
  Mn3.30+  Mn104  1  0.66427161  0.50119549  0.24981443  1
  Mn3.30+  Mn105  1  0.66757351  0.50148109  0.74877401  1
  Mn3.30+  Mn106  1  0.66387907  0.83121508  0.25082513  1
  Mn3.30+  Mn107  1  0.66402989  0.83176339  0.75060508  1
  Mn3.30+  Mn108  1  0.16927524  -0.00034005  0.25275177  1
  Mn3.30+  Mn109  1  0.16790925  0.00107779  0.74763738  1
  Mn3.30+  Mn110  1  0.16516713  0.33408953  0.24921459  1
  Mn3.30+  Mn111  1  0.16389142  0.33339857  0.75070989  1
  Mn3.30+  Mn112  1  0.16893901  0.66535151  0.24963460  1
  Mn3.30+  Mn113  1  0.16855707  0.66690071  0.74956192  1
  Mn3.30+  Mn114  1  0.49838350  -0.00252272  0.25106360  1
  Mn3.30+  Mn115  1  0.49873606  -0.00223508  0.74961619  1
  Mn3.30+  Mn116  1  0.49853821  0.33298505  0.24868521  1
  Mn3.30+  Mn117  1  0.49927492  0.33434387  0.75124019  1
  Mn3.30+  Mn118  1  0.50281731  0.66675713  0.24931041  1
  Mn3.30+  Mn119  1  0.50009799  0.66887676  0.74959419  1
  Mn3.30+  Mn120  1  0.83211675  -0.00028211  0.24939968  1
  Mn3.30+  Mn121  1  0.83397058  0.00083080  0.74990325  1
  Mn3.30+  Mn122  1  0.83328945  0.33341050  0.25036876  1
  Mn3.30+  Mn123  1  0.83489120  0.33374581  0.75043918  1
  Mn3.30+  Mn124  1  0.83175347  0.66739660  0.24895227  1
  Mn3.30+  Mn125  1  0.83138273  0.66494036  0.75067244  1
  Mn3.30+  Mn126  1  0.00084364  0.16816862  -0.00033474  1
  Mn3.30+  Mn127  1  0.00011923  0.16864131  0.50119728  1
  Mn3.30+  Mn128  1  -0.00060257  0.50061526  0.00086347  1
  Mn3.30+  Mn129  1  -0.00075639  0.49799245  0.50007152  1
  Mn3.30+  Mn130  1  0.00034173  0.83307101  0.00043194  1
  Mn3.30+  Mn131  1  0.00090207  0.83308665  0.49955463  1
  Mn3.30+  Mn132  1  0.33507077  0.16531323  -0.00070417  1
  Mn3.30+  Mn133  1  0.33100468  0.16615355  0.50092832  1
  Mn3.30+  Mn134  1  0.33280021  0.50132036  0.00081337  1
  Mn3.30+  Mn135  1  0.33209076  0.50161834  0.50001962  1
  Mn3.30+  Mn136  1  0.33619537  0.83427668  -0.00216607  1
  Mn3.30+  Mn137  1  0.33822134  0.83302206  0.50172549  1
  Mn3.30+  Mn138  1  0.66568368  0.16660562  -0.00303252  1
  Mn3.30+  Mn139  1  0.66759101  0.16605381  0.50281279  1
  Mn3.30+  Mn140  1  0.66472414  0.50179975  -0.00051189  1
  Mn3.30+  Mn141  1  0.66708920  0.50053895  0.50129471  1
  Mn3.30+  Mn142  1  0.66459330  0.83056137  -0.00264832  1
  Mn3.30+  Mn143  1  0.66320856  0.83228387  0.50137369  1
  O2-  O144  1  0.02757209  0.15932117  0.12614898  1
  O2-  O145  1  0.02582775  0.17040791  0.62456967  1
  O2-  O146  1  0.02728130  0.49417361  0.12636811  1
  O2-  O147  1  0.02745171  0.49209554  0.62332594  1
  O2-  O148  1  0.02740239  0.82966956  0.12727958  1
  O2-  O149  1  0.02513747  0.82615924  0.62357800  1
  O2-  O150  1  0.35589875  0.16392483  0.12739328  1
  O2-  O151  1  0.35757940  0.16596872  0.62452780  1
  O2-  O152  1  0.36222374  0.49582455  0.12479632  1
  O2-  O153  1  0.35556981  0.49083033  0.62465330  1
  O2-  O154  1  0.35166031  0.82834630  0.12467760  1
  O2-  O155  1  0.35976997  0.82762158  0.62504496  1
  O2-  O156  1  0.69187250  0.15866962  0.12265259  1
  O2-  O157  1  0.69681379  0.15964506  0.62526781  1
  O2-  O158  1  0.69043448  0.49237693  0.12677940  1
  O2-  O159  1  0.69468471  0.49423292  0.62253018  1
  O2-  O160  1  0.68840920  0.83044142  0.12551856  1
  O2-  O161  1  0.69405864  0.82877745  0.62505072  1
  O2-  O162  1  0.14046378  0.32405431  0.12486102  1
  O2-  O163  1  0.14041290  0.32983848  0.62457538  1
  O2-  O164  1  0.14247341  0.66276103  0.12706265  1
  O2-  O165  1  0.14049563  0.66374382  0.62382738  1
  O2-  O166  1  0.14254391  0.99363295  0.12835904  1
  O2-  O167  1  0.14780849  0.99001743  0.62345538  1
  O2-  O168  1  0.47314440  0.32150841  0.12411445  1
  O2-  O169  1  0.47236042  0.32781413  0.62612612  1
  O2-  O170  1  0.47947584  0.66150870  0.12363402  1
  O2-  O171  1  0.47262505  0.65736032  0.62542577  1
  O2-  O172  1  0.48408207  1.00073921  0.12618905  1
  O2-  O173  1  0.47362969  0.99208539  0.62388795  1
  O2-  O174  1  0.80495627  0.32670855  0.12541914  1
  O2-  O175  1  0.81040267  0.32318714  0.62420791  1
  O2-  O176  1  0.80330913  0.66427751  0.12692764  1
  O2-  O177  1  0.81008915  0.66235598  0.62279894  1
  O2-  O178  1  0.80538786  0.99459139  0.12479032  1
  O2-  O179  1  0.80970749  0.99312420  0.62458307  1
  O2-  O180  1  0.30833210  0.17431955  0.37592970  1
  O2-  O181  1  0.30749600  0.17143831  0.87263630  1
  O2-  O182  1  0.30737014  0.50734985  0.37471177  1
  O2-  O183  1  0.30403648  0.50791953  0.87583012  1
  O2-  O184  1  0.31251281  0.83169510  0.37560333  1
  O2-  O185  1  0.30878350  0.83110617  0.87409330  1
  O2-  O186  1  0.63922219  0.17254055  0.37835244  1
  O2-  O187  1  0.63788944  0.17474832  0.87362493  1
  O2-  O188  1  0.63929220  0.50585830  0.37581854  1
  O2-  O189  1  0.65129058  0.50438313  0.87373101  1
  O2-  O190  1  0.63907191  0.83670376  0.37811348  1
  O2-  O191  1  0.63906314  0.84005014  0.87183576  1
  O2-  O192  1  0.97500196  0.17214438  0.37287252  1
  O2-  O193  1  0.97644607  0.17171671  0.87592887  1
  O2-  O194  1  0.97456093  0.50801199  0.37355168  1
  O2-  O195  1  0.97434072  0.50541264  0.87741849  1
  O2-  O196  1  0.97394889  0.83749198  0.37365124  1
  O2-  O197  1  0.98195920  0.83851381  0.87577882  1
  O2-  O198  1  0.19568598  0.00650337  0.37729880  1
  O2-  O199  1  0.18598136  0.00625597  0.87094697  1
  O2-  O200  1  0.19244797  0.33938885  0.37317663  1
  O2-  O201  1  0.19348513  0.34056660  0.87708138  1
  O2-  O202  1  0.19465114  0.67199738  0.37405674  1
  O2-  O203  1  0.19179499  0.67140716  0.87528063  1
  O2-  O204  1  0.52593593  0.00661397  0.37795070  1
  O2-  O205  1  0.52347931  0.00971914  0.87214629  1
  O2-  O206  1  0.52398460  0.33910434  0.37593771  1
  O2-  O207  1  0.52398582  0.34022272  0.87382142  1
  O2-  O208  1  0.52308820  0.67210892  0.37834529  1
  O2-  O209  1  0.52594807  0.67212629  0.87202097  1
  O2-  O210  1  0.85795545  0.00431197  0.37450721  1
  O2-  O211  1  0.86011292  0.00630853  0.87583059  1
  O2-  O212  1  0.86027416  0.33989407  0.37359898  1
  O2-  O213  1  0.85997238  0.34278360  0.87643348  1
  O2-  O214  1  0.86042498  0.67332072  0.37479218  1
  O2-  O215  1  0.85130715  0.66140377  0.87619855  1
  O2-  O216  1  0.23617245  0.09607866  0.01559527  1
  O2-  O217  1  0.23754984  0.09801808  0.52338900  1
  O2-  O218  1  0.23519978  0.42937619  0.02339738  1
  O2-  O219  1  0.23453040  0.42869481  0.51820739  1
  O2-  O220  1  0.24030014  0.75864818  0.01889210  1
  O2-  O221  1  0.23846245  0.76440842  0.51713694  1
  O2-  O222  1  0.57499201  0.09344820  0.01974091  1
  O2-  O223  1  0.57004023  0.09328166  0.52330367  1
  O2-  O224  1  0.57155611  0.42668772  0.02265147  1
  O2-  O225  1  0.57123078  0.42728721  0.52134978  1
  O2-  O226  1  0.57354073  0.75982351  0.01557357  1
  O2-  O227  1  0.57300618  0.76009478  0.52734794  1
  O2-  O228  1  0.90546563  0.09451726  0.02161417  1
  O2-  O229  1  0.90406175  0.10046747  0.51575526  1
  O2-  O230  1  0.90394711  0.42863475  0.02506968  1
  O2-  O231  1  0.90210813  0.42989649  0.52131189  1
  O2-  O232  1  0.90667355  0.75883620  0.02263095  1
  O2-  O233  1  0.90564858  0.76011974  0.52012716  1
  O2-  O234  1  0.26125438  0.26380807  0.23044480  1
  O2-  O235  1  0.26135300  0.26448290  0.73306323  1
  O2-  O236  1  0.26442994  0.59640169  0.22948608  1
  O2-  O237  1  0.26203285  0.59644953  0.72756271  1
  O2-  O238  1  0.25725349  0.92233550  0.23486277  1
  O2-  O239  1  0.26386495  0.92539014  0.72842184  1
  O2-  O240  1  0.59551368  0.26090628  0.22995810  1
  O2-  O241  1  0.59752221  0.25895529  0.72651448  1
  O2-  O242  1  0.59866758  0.59737202  0.23274181  1
  O2-  O243  1  0.59147907  0.59282232  0.72643316  1
  O2-  O244  1  0.59823260  0.93148482  0.23614769  1
  O2-  O245  1  0.59655518  0.92978368  0.73081480  1
  O2-  O246  1  0.92794813  0.25914481  0.22554727  1
  O2-  O247  1  0.92874591  0.26301651  0.73357638  1
  O2-  O248  1  0.92749011  0.59588763  0.22859459  1
  O2-  O249  1  0.93011269  0.59200234  0.72861948  1
  O2-  O250  1  0.92508909  0.92892706  0.22836546  1
  O2-  O251  1  0.92594727  0.92539207  0.73293000  1
  O2-  O252  1  0.09742649  0.23650502  0.26865953  1
  O2-  O253  1  0.09527206  0.23952102  0.77098268  1
  O2-  O254  1  0.09499837  0.57389786  0.27250429  1
  O2-  O255  1  0.09780995  0.56921506  0.76509133  1
  O2-  O256  1  0.09436830  0.90911138  0.27475601  1
  O2-  O257  1  0.09586605  0.90669754  0.76867199  1
  O2-  O258  1  0.42856749  0.23768654  0.27210256  1
  O2-  O259  1  0.42729688  0.23696493  0.77061550  1
  O2-  O260  1  0.43010039  0.57431775  0.27164279  1
  O2-  O261  1  0.42581280  0.57419750  0.76811658  1
  O2-  O262  1  0.42899163  0.90424887  0.27058417  1
  O2-  O263  1  0.43184260  0.90190463  0.76983496  1
  O2-  O264  1  0.76096264  0.23812768  0.27128767  1
  O2-  O265  1  0.76047895  0.24163801  0.77459662  1
  O2-  O266  1  0.76372076  0.57190063  0.27235257  1
  O2-  O267  1  0.76223646  0.57009809  0.76375485  1
  O2-  O268  1  0.75978580  0.90325295  0.27092270  1
  O2-  O269  1  0.75711409  0.90706144  0.76674480  1
  O2-  O270  1  0.07085399  0.07475546  0.47719560  1
  O2-  O271  1  0.07087762  0.07128732  0.98146950  1
  O2-  O272  1  0.06877878  0.40438484  0.47633674  1
  O2-  O273  1  0.06936259  0.40246189  0.97951638  1
  O2-  O274  1  0.07441634  0.73828619  0.47758086  1
  O2-  O275  1  0.07694314  0.74116305  0.98501077  1
  O2-  O276  1  0.40441540  0.06843514  0.48189459  1
  O2-  O277  1  0.40875712  0.07474546  0.98426514  1
  O2-  O278  1  0.40349414  0.40612872  0.47925028  1
  O2-  O279  1  0.39849974  0.40440052  0.98290066  1
  O2-  O280  1  0.40498256  0.73702373  0.48202889  1
  O2-  O281  1  0.40579230  0.73836174  0.98296583  1
  O2-  O282  1  0.73813164  0.07168309  0.47810614  1
  O2-  O283  1  0.73859161  0.07400598  0.97578505  1
  O2-  O284  1  0.73871740  0.40382973  0.47810231  1
  O2-  O285  1  0.73699317  0.40513820  0.98089656  1
  O2-  O286  1  0.73710572  0.73982391  0.47969377  1
  O2-  O287  1  0.73713041  0.73722992  0.98155638  1
  O2-  O288  1  0.09520842  0.23882940  0.47823823  1
  O2-  O289  1  0.09820223  0.23700407  0.98159467  1
  O2-  O290  1  0.09678911  0.57084975  0.47950069  1
  O2-  O291  1  0.09588858  0.57217803  0.98324369  1
  O2-  O292  1  0.09491043  0.90583877  0.47743468  1
  O2-  O293  1  0.09435009  0.90771712  0.98100313  1
  O2-  O294  1  0.42780930  0.23777717  0.48086674  1
  O2-  O295  1  0.42884366  0.23867001  0.97746705  1
  O2-  O296  1  0.43003560  0.57181774  0.47954959  1
  O2-  O297  1  0.42420384  0.57830976  0.98037761  1
  O2-  O298  1  0.43152889  0.90197835  0.47816739  1
  O2-  O299  1  0.42936409  0.90502707  0.98038475  1
  O2-  O300  1  0.76108491  0.24134243  0.47561246  1
  O2-  O301  1  0.76057137  0.23876721  0.97778261  1
  O2-  O302  1  0.76008403  0.57429649  0.47518775  1
  O2-  O303  1  0.76433059  0.56766794  0.98704182  1
  O2-  O304  1  0.75912861  0.90395843  0.48034215  1
  O2-  O305  1  0.75800693  0.90557379  0.98215310  1
  O2-  O306  1  0.07135034  0.07193988  0.27195278  1
  O2-  O307  1  0.07041996  0.07492224  0.76994996  1
  O2-  O308  1  0.06962835  0.40217401  0.27142639  1
  O2-  O309  1  0.06882532  0.40466934  0.77283339  1
  O2-  O310  1  0.07565839  0.73811415  0.27098744  1
  O2-  O311  1  0.07745242  0.74046320  0.76695622  1
  O2-  O312  1  0.40675577  0.07017547  0.27472681  1
  O2-  O313  1  0.40620400  0.07152099  0.75968840  1
  O2-  O314  1  0.40162564  0.40504914  0.27041973  1
  O2-  O315  1  0.39918998  0.40654982  0.76763969  1
  O2-  O316  1  0.40571760  0.73627279  0.26467208  1
  O2-  O317  1  0.40542750  0.73791203  0.76978228  1
  O2-  O318  1  0.73885010  0.07194200  0.27206450  1
  O2-  O319  1  0.73815612  0.07391619  0.77313317  1
  O2-  O320  1  0.73541168  0.40607318  0.27169891  1
  O2-  O321  1  0.73962534  0.40376827  0.76843623  1
  O2-  O322  1  0.74154336  0.74101020  0.27573755  1
  O2-  O323  1  0.73305720  0.73629953  0.76616620  1
  O2-  O324  1  0.23541678  0.09642584  0.23358259  1
  O2-  O325  1  0.23793129  0.09648717  0.72717151  1
  O2-  O326  1  0.23464331  0.42951243  0.22799360  1
  O2-  O327  1  0.23464047  0.42904988  0.73038534  1
  O2-  O328  1  0.23944374  0.75960621  0.23057909  1
  O2-  O329  1  0.23933028  0.76296870  0.73219161  1
  O2-  O330  1  0.57139385  0.09571052  0.23240948  1
  O2-  O331  1  0.57461451  0.09179597  0.72547709  1
  O2-  O332  1  0.56738212  0.42801959  0.22918708  1
  O2-  O333  1  0.57647417  0.42704164  0.72622402  1
  O2-  O334  1  0.57465664  0.75901774  0.23468507  1
  O2-  O335  1  0.57168917  0.76063801  0.72334111  1
  O2-  O336  1  0.90609125  0.09530233  0.22886848  1
  O2-  O337  1  0.90372280  0.09970249  0.73302249  1
  O2-  O338  1  0.90283707  0.42831802  0.22778655  1
  O2-  O339  1  0.90374027  0.42849016  0.72688438  1
  O2-  O340  1  0.90439963  0.75988816  0.22754287  1
  O2-  O341  1  0.90660445  0.75752817  0.72972948  1
  O2-  O342  1  0.26241303  0.26253734  0.01961128  1
  O2-  O343  1  0.26087935  0.26570551  0.51679222  1
  O2-  O344  1  0.26218905  0.59523425  0.02086249  1
  O2-  O345  1  0.26317270  0.59694224  0.52262947  1
  O2-  O346  1  0.25680268  0.92317796  0.01653224  1
  O2-  O347  1  0.26520076  0.92479584  0.51927284  1
  O2-  O348  1  0.59591373  0.26016154  0.02084050  1
  O2-  O349  1  0.59537583  0.26036269  0.52353178  1
  O2-  O350  1  0.59582001  0.59390905  0.01737908  1
  O2-  O351  1  0.59352351  0.59541592  0.52160588  1
  O2-  O352  1  0.59698818  0.93075577  0.01359563  1
  O2-  O353  1  0.59801725  0.93035509  0.51957034  1
  O2-  O354  1  0.92660331  0.26021030  0.02318807  1
  O2-  O355  1  0.92999005  0.26374108  0.51661093  1
  O2-  O356  1  0.92536673  0.59433643  0.02637390  1
  O2-  O357  1  0.93277007  0.59466298  0.51720371  1
  O2-  O358  1  0.92706338  0.92705886  0.02182970  1
  O2-  O359  1  0.92541358  0.92602498  0.51656042  1
