# generated using pymatgen
data_Sr7Ca15Pr50Mn72O216
_symmetry_space_group_name_H-M   'P 1'
_cell_length_a   16.55993724
_cell_length_b   16.60553926
_cell_length_c   15.59211374
_cell_angle_alpha   89.99836027
_cell_angle_beta   90.00019135
_cell_angle_gamma   89.98889020
_symmetry_Int_Tables_number   1
_chemical_formula_structural   Sr7Ca15Pr50Mn72O216
_chemical_formula_sum   'Sr7 Ca15 Pr50 Mn72 O216'
_cell_volume   4287.62363317
_cell_formula_units_Z   1
loop_
 _symmetry_equiv_pos_site_id
 _symmetry_equiv_pos_as_xyz
  1  'x, y, z'
loop_
 _atom_type_symbol
 _atom_type_oxidation_number
  Sr2+  2.0
  Ca2+  2.0
  Pr3+  3.0
  Mn3.30+  3.3
  O2-  -2.0
loop_
 _atom_site_type_symbol
 _atom_site_label
 _atom_site_symmetry_multiplicity
 _atom_site_fract_x
 _atom_site_fract_y
 _atom_site_fract_z
 _atom_site_occupancy
  Sr2+  Sr0  1  0.83305377  0.82306496  0.37429307  1
  Sr2+  Sr1  1  0.83235626  0.49257696  0.37462530  1
  Sr2+  Sr2  1  0.50395727  0.18010700  0.12390249  1
  Sr2+  Sr3  1  0.33389963  0.67463589  0.62455339  1
  Sr2+  Sr4  1  0.49666299  0.48890080  0.37729929  1
  Sr2+  Sr5  1  0.16167233  0.82085182  0.37316727  1
  Sr2+  Sr6  1  0.49921529  0.16148641  0.37372156  1
  Ca2+  Ca7  1  1.00088937  0.65281427  0.37529610  1
  Ca2+  Ca8  1  1.00482880  0.31565912  0.87556781  1
  Ca2+  Ca9  1  0.16201509  0.15241070  0.87514671  1
  Ca2+  Ca10  1  0.66912922  0.31835277  0.87773494  1
  Ca2+  Ca11  1  0.67087624  0.65341941  0.87347277  1
  Ca2+  Ca12  1  0.50539094  0.51879150  0.62488618  1
  Ca2+  Ca13  1  0.66296337  0.67958780  0.62392141  1
  Ca2+  Ca14  1  0.82797382  0.81620290  0.87523669  1
  Ca2+  Ca15  1  -0.00388523  0.01436415  0.62388478  1
  Ca2+  Ca16  1  0.82877241  0.15345246  0.37576089  1
  Ca2+  Ca17  1  0.66382814  0.34563317  0.12522331  1
  Ca2+  Ca18  1  -0.00403561  0.34720415  0.12285233  1
  Ca2+  Ca19  1  0.16937630  0.84867110  0.12559991  1
  Ca2+  Ca20  1  0.33924181  0.32102295  0.37400110  1
  Ca2+  Ca21  1  0.49953913  0.15472902  0.87612410  1
  Pr3+  Pr22  1  0.17017786  0.18057809  0.12343690  1
  Pr3+  Pr23  1  0.16225440  0.48441229  0.87360105  1
  Pr3+  Pr24  1  0.33721418  0.31808665  0.87525560  1
  Pr3+  Pr25  1  0.83612041  0.84619663  0.62544201  1
  Pr3+  Pr26  1  0.16313806  0.49058476  0.37639993  1
  Pr3+  Pr27  1  0.83756793  0.18290654  0.12526642  1
  Pr3+  Pr28  1  0.67113657  0.99029946  0.37470687  1
  Pr3+  Pr29  1  0.50323015  0.84778716  0.12429230  1
  Pr3+  Pr30  1  1.00349008  0.98832273  0.87399660  1
  Pr3+  Pr31  1  0.83327213  0.15592133  0.87490860  1
  Pr3+  Pr32  1  0.99992181  0.32250166  0.37392554  1
  Pr3+  Pr33  1  0.50358658  0.17980447  0.62590517  1
  Pr3+  Pr34  1  0.83770932  0.17877360  0.62483858  1
  Pr3+  Pr35  1  0.16839123  0.17804650  0.62595450  1
  Pr3+  Pr36  1  0.50350327  0.84279642  0.62533452  1
  Pr3+  Pr37  1  0.33503266  0.98924949  0.87534954  1
  Pr3+  Pr38  1  0.66445679  0.01434022  0.12442088  1
  Pr3+  Pr39  1  0.49811238  0.81948511  0.87503937  1
  Pr3+  Pr40  1  0.33348513  0.34572958  0.62268734  1
  Pr3+  Pr41  1  0.16862012  0.51326481  0.62575815  1
  Pr3+  Pr42  1  0.83408610  0.50966937  0.12572231  1
  Pr3+  Pr43  1  0.16755330  0.51010260  0.12409572  1
  Pr3+  Pr44  1  0.67178569  0.32017973  0.37362390  1
  Pr3+  Pr45  1  0.33710628  0.65279842  0.87339177  1
  Pr3+  Pr46  1  0.67078961  0.98696745  0.87580596  1
  Pr3+  Pr47  1  -0.00347955  0.67902217  0.12645404  1
  Pr3+  Pr48  1  0.50095998  0.48807093  0.87250927  1
  Pr3+  Pr49  1  0.16352782  0.82092464  0.87622536  1
  Pr3+  Pr50  1  0.83640429  0.84643511  0.12449156  1
  Pr3+  Pr51  1  0.82697404  0.48458092  0.87513708  1
  Pr3+  Pr52  1  0.33369208  0.34421642  0.12698488  1
  Pr3+  Pr53  1  0.33522284  0.65459878  0.37636187  1
  Pr3+  Pr54  1  0.16831978  0.84579209  0.62424031  1
  Pr3+  Pr55  1  0.16666870  0.15552464  0.37444009  1
  Pr3+  Pr56  1  0.32809349  0.68012535  0.12514415  1
  Pr3+  Pr57  1  0.50342267  0.50788386  0.12565265  1
  Pr3+  Pr58  1  0.66949145  0.65189728  0.37646364  1
  Pr3+  Pr59  1  -0.00374283  0.34634590  0.62709373  1
  Pr3+  Pr60  1  0.33095401  0.01462462  0.12466222  1
  Pr3+  Pr61  1  -0.00027528  0.01206406  0.12602210  1
  Pr3+  Pr62  1  0.99889137  0.65405820  0.87535511  1
  Pr3+  Pr63  1  0.66269362  0.34851355  0.62732691  1
  Pr3+  Pr64  1  0.33205528  0.01205443  0.62511021  1
  Pr3+  Pr65  1  0.83354918  0.51525276  0.62455034  1
  Pr3+  Pr66  1  0.33733824  0.98864179  0.37458507  1
  Pr3+  Pr67  1  -0.00460285  0.67880215  0.62335510  1
  Pr3+  Pr68  1  1.00133600  0.98810620  0.37599892  1
  Pr3+  Pr69  1  0.49685469  0.82186562  0.37486862  1
  Pr3+  Pr70  1  0.66464673  0.01262413  0.62590276  1
  Pr3+  Pr71  1  0.66505590  0.67701036  0.12571480  1
  Mn3.30+  Mn72  1  0.16643295  0.00079890  -0.00046045  1
  Mn3.30+  Mn73  1  0.16522571  0.00017276  0.50079560  1
  Mn3.30+  Mn74  1  0.16396440  0.33163286  -0.00082822  1
  Mn3.30+  Mn75  1  0.16773186  0.33322359  0.49869445  1
  Mn3.30+  Mn76  1  0.16579296  0.66671970  0.00010796  1
  Mn3.30+  Mn77  1  0.16458388  0.66717274  0.49947500  1
  Mn3.30+  Mn78  1  0.50103539  0.00222620  -0.00175542  1
  Mn3.30+  Mn79  1  0.50104862  0.00119318  0.49986922  1
  Mn3.30+  Mn80  1  0.50378766  0.33221640  -0.00216763  1
  Mn3.30+  Mn81  1  0.49954423  0.33571782  0.49999496  1
  Mn3.30+  Mn82  1  0.50154634  0.66511095  -0.00081249  1
  Mn3.30+  Mn83  1  0.50124507  0.66667814  0.50165213  1
  Mn3.30+  Mn84  1  0.83461813  -0.00010514  -0.00089239  1
  Mn3.30+  Mn85  1  0.83442965  0.00079436  0.50067528  1
  Mn3.30+  Mn86  1  0.83349037  0.33303939  -0.00074472  1
  Mn3.30+  Mn87  1  0.83251169  0.33367136  0.49964087  1
  Mn3.30+  Mn88  1  0.83127809  0.66635826  -0.00060913  1
  Mn3.30+  Mn89  1  0.83109941  0.66801358  0.49935934  1
  Mn3.30+  Mn90  1  -0.00096864  0.16859905  0.25086916  1
  Mn3.30+  Mn91  1  0.00200098  0.16626381  0.74980279  1
  Mn3.30+  Mn92  1  -0.00010613  0.49888644  0.24941309  1
  Mn3.30+  Mn93  1  -0.00234615  0.49867670  0.75159723  1
  Mn3.30+  Mn94  1  0.00157290  0.83226835  0.24960552  1
  Mn3.30+  Mn95  1  -0.00219933  0.83392491  0.75107169  1
  Mn3.30+  Mn96  1  0.33482079  0.16942820  0.24973258  1
  Mn3.30+  Mn97  1  0.33382212  0.16627840  0.75223795  1
  Mn3.30+  Mn98  1  0.33333631  0.49899981  0.25106305  1
  Mn3.30+  Mn99  1  0.33447560  0.49899936  0.74867279  1
  Mn3.30+  Mn100  1  0.33103399  0.83394184  0.24949258  1
  Mn3.30+  Mn101  1  0.33300768  0.83263007  0.74959190  1
  Mn3.30+  Mn102  1  0.66865732  0.16876333  0.24928758  1
  Mn3.30+  Mn103  1  0.66683807  0.16776155  0.75304547  1
  Mn3.30+  Mn104  1  0.66645486  0.49696670  0.25030214  1
  Mn3.30+  Mn105  1  0.66508466  0.50233688  0.75028485  1
  Mn3.30+  Mn106  1  0.66714600  0.83351793  0.24974373  1
  Mn3.30+  Mn107  1  0.66914262  0.83062709  0.75157112  1
  Mn3.30+  Mn108  1  0.16666592  -0.00041475  0.24980288  1
  Mn3.30+  Mn109  1  0.16509279  0.00158373  0.74903583  1
  Mn3.30+  Mn110  1  0.16638786  0.33417196  0.25047576  1
  Mn3.30+  Mn111  1  0.16562982  0.33052567  0.75065888  1
  Mn3.30+  Mn112  1  0.16412296  0.66681388  0.24963220  1
  Mn3.30+  Mn113  1  0.16602547  0.66683408  0.75076864  1
  Mn3.30+  Mn114  1  0.50136047  0.00267598  0.25007599  1
  Mn3.30+  Mn115  1  0.50096255  0.00065628  0.75171335  1
  Mn3.30+  Mn116  1  0.50104012  0.33400700  0.25038128  1
  Mn3.30+  Mn117  1  0.50154836  0.33360577  0.75167029  1
  Mn3.30+  Mn118  1  0.49865765  0.66594395  0.24911910  1
  Mn3.30+  Mn119  1  0.50441655  0.66641746  0.74992794  1
  Mn3.30+  Mn120  1  0.83348438  0.00192282  0.24999552  1
  Mn3.30+  Mn121  1  0.83549069  -0.00101333  0.75060034  1
  Mn3.30+  Mn122  1  0.83390826  0.33381859  0.24900571  1
  Mn3.30+  Mn123  1  0.83239983  0.33267351  0.75256454  1
  Mn3.30+  Mn124  1  0.83346588  0.66645681  0.25176633  1
  Mn3.30+  Mn125  1  0.82928233  0.66808597  0.75026616  1
  Mn3.30+  Mn126  1  0.00200153  0.16898387  0.00028405  1
  Mn3.30+  Mn127  1  -0.00121780  0.16631405  0.49841269  1
  Mn3.30+  Mn128  1  -0.00154016  0.49664932  -0.00083382  1
  Mn3.30+  Mn129  1  -0.00118534  0.50059813  0.49925911  1
  Mn3.30+  Mn130  1  -0.00080589  0.83345528  -0.00027362  1
  Mn3.30+  Mn131  1  0.00017163  0.83257958  0.49913340  1
  Mn3.30+  Mn132  1  0.33369847  0.16734085  -0.00208422  1
  Mn3.30+  Mn133  1  0.33504142  0.16832018  0.50009276  1
  Mn3.30+  Mn134  1  0.33362462  0.49836207  -0.00123371  1
  Mn3.30+  Mn135  1  0.33417412  0.49976935  0.50132728  1
  Mn3.30+  Mn136  1  0.33187400  0.83384748  0.00051315  1
  Mn3.30+  Mn137  1  0.33219446  0.83266267  0.49997094  1
  Mn3.30+  Mn138  1  0.66667961  0.16953474  -0.00142329  1
  Mn3.30+  Mn139  1  0.66861648  0.16740999  0.50012043  1
  Mn3.30+  Mn140  1  0.66691323  0.49806103  -0.00125926  1
  Mn3.30+  Mn141  1  0.66470557  0.50018222  0.50125212  1
  Mn3.30+  Mn142  1  0.66882700  0.83111228  -0.00116023  1
  Mn3.30+  Mn143  1  0.66769578  0.83287437  0.50025381  1
  O2-  O144  1  0.02756324  0.15938531  0.12661335  1
  O2-  O145  1  0.02501828  0.16119112  0.62351277  1
  O2-  O146  1  0.02435582  0.49234040  0.12268306  1
  O2-  O147  1  0.02381487  0.49502480  0.62726079  1
  O2-  O148  1  0.02674308  0.82732810  0.12501650  1
  O2-  O149  1  0.02514834  0.82441476  0.62675567  1
  O2-  O150  1  0.35276098  0.16297084  0.12377376  1
  O2-  O151  1  0.35943729  0.16067223  0.62783677  1
  O2-  O152  1  0.35830878  0.49345798  0.12314026  1
  O2-  O153  1  0.36009553  0.49326681  0.62704048  1
  O2-  O154  1  0.35968831  0.82846611  0.12440893  1
  O2-  O155  1  0.35825267  0.83268512  0.62576962  1
  O2-  O156  1  0.69380867  0.16051207  0.12302908  1
  O2-  O157  1  0.69301984  0.16138023  0.62793882  1
  O2-  O158  1  0.68956737  0.49207659  0.12323876  1
  O2-  O159  1  0.69172514  0.49343854  0.62614058  1
  O2-  O160  1  0.69252303  0.82577844  0.12425365  1
  O2-  O161  1  0.69169573  0.82695904  0.62817122  1
  O2-  O162  1  0.13871900  0.32781559  0.12296760  1
  O2-  O163  1  0.13931824  0.32588597  0.62482203  1
  O2-  O164  1  0.14036726  0.65713288  0.12245371  1
  O2-  O165  1  0.13992021  0.66213282  0.62758385  1
  O2-  O166  1  0.14352644  0.99615376  0.12393563  1
  O2-  O167  1  0.13911072  0.99496368  0.62476520  1
  O2-  O168  1  0.47757106  0.33725017  0.12119215  1
  O2-  O169  1  0.47687279  0.32579196  0.62816270  1
  O2-  O170  1  0.47259417  0.65939154  0.12289125  1
  O2-  O171  1  0.48221853  0.67021042  0.62585899  1
  O2-  O172  1  0.47606336  0.99539381  0.12199849  1
  O2-  O173  1  0.47669536  0.99318714  0.62625657  1
  O2-  O174  1  0.80638205  0.32944419  0.12296617  1
  O2-  O175  1  0.80821652  0.32667453  0.62673431  1
  O2-  O176  1  0.80902869  0.66061383  0.12480997  1
  O2-  O177  1  0.80627783  0.66402136  0.62616291  1
  O2-  O178  1  0.80883752  0.99503564  0.12177375  1
  O2-  O179  1  0.80812266  0.99506312  0.62647127  1
  O2-  O180  1  0.31074757  0.17286106  0.37435900  1
  O2-  O181  1  0.30390691  0.17137936  0.87399823  1
  O2-  O182  1  0.30720759  0.50792211  0.37560930  1
  O2-  O183  1  0.30768210  0.50425913  0.87399019  1
  O2-  O184  1  0.31230779  0.84063801  0.37429315  1
  O2-  O185  1  0.30767585  0.83923475  0.87532022  1
  O2-  O186  1  0.64886529  0.17117480  0.37511149  1
  O2-  O187  1  0.64183159  0.17237483  0.87470323  1
  O2-  O188  1  0.64661505  0.50392899  0.37753547  1
  O2-  O189  1  0.64289546  0.51173809  0.87421152  1
  O2-  O190  1  0.64078248  0.84243547  0.37243185  1
  O2-  O191  1  0.64083331  0.84086941  0.87580527  1
  O2-  O192  1  0.97086919  0.17444518  0.37387598  1
  O2-  O193  1  0.97673591  0.17096010  0.87544746  1
  O2-  O194  1  0.98278996  0.50471933  0.37509355  1
  O2-  O195  1  0.97168024  0.50727056  0.87466757  1
  O2-  O196  1  0.98133556  0.84137781  0.37300728  1
  O2-  O197  1  0.97111116  0.84077685  0.87447959  1
  O2-  O198  1  0.19303162  0.00645138  0.37632936  1
  O2-  O199  1  0.19103858  0.00537137  0.87424052  1
  O2-  O200  1  0.19594089  0.34159148  0.37704130  1
  O2-  O201  1  0.19381821  0.33904911  0.87460461  1
  O2-  O202  1  0.19052013  0.66378561  0.37334111  1
  O2-  O203  1  0.19225814  0.67291637  0.87646925  1
  O2-  O204  1  0.52599617  0.00238669  0.37689039  1
  O2-  O205  1  0.52578228  0.00546597  0.87493023  1
  O2-  O206  1  0.52619086  0.33416291  0.37825891  1
  O2-  O207  1  0.52812710  0.34212285  0.87302204  1
  O2-  O208  1  0.52458486  0.67355670  0.37445652  1
  O2-  O209  1  0.52830624  0.67221606  0.87678249  1
  O2-  O210  1  0.85678752  0.00660216  0.37582835  1
  O2-  O211  1  0.86062773  0.00792905  0.87583896  1
  O2-  O212  1  0.85714264  0.33893520  0.37611378  1
  O2-  O213  1  0.86213541  0.33699020  0.87483282  1
  O2-  O214  1  0.85743213  0.66745564  0.37380594  1
  O2-  O215  1  0.85668464  0.67065546  0.87565002  1
  O2-  O216  1  0.23795644  0.09323639  0.02111865  1
  O2-  O217  1  0.23871566  0.09371247  0.52043190  1
  O2-  O218  1  0.23687365  0.42547452  0.01951077  1
  O2-  O219  1  0.23688133  0.42674583  0.52427138  1
  O2-  O220  1  0.23694722  0.76262218  0.02200027  1
  O2-  O221  1  0.23527157  0.76045954  0.51820446  1
  O2-  O222  1  0.57785578  0.09205334  0.01798290  1
  O2-  O223  1  0.57332474  0.09341745  0.52357956  1
  O2-  O224  1  0.56890226  0.43190340  0.01377025  1
  O2-  O225  1  0.57055672  0.42898713  0.52514083  1
  O2-  O226  1  0.57024371  0.76113228  0.02184568  1
  O2-  O227  1  0.57003352  0.76534114  0.51492236  1
  O2-  O228  1  0.90795331  0.09669750  0.02107826  1
  O2-  O229  1  0.90474809  0.09344915  0.52054058  1
  O2-  O230  1  0.90097946  0.42893994  0.01828758  1
  O2-  O231  1  0.90586929  0.42613673  0.52322547  1
  O2-  O232  1  0.90395701  0.75943443  0.02166819  1
  O2-  O233  1  0.90381208  0.76081342  0.52212901  1
  O2-  O234  1  0.25786752  0.26026926  0.22772500  1
  O2-  O235  1  0.26374764  0.26123135  0.72795934  1
  O2-  O236  1  0.26030856  0.59424882  0.22794840  1
  O2-  O237  1  0.25795131  0.59105650  0.73307392  1
  O2-  O238  1  0.26409656  0.92909575  0.23063840  1
  O2-  O239  1  0.25890798  0.92889329  0.72944969  1
  O2-  O240  1  0.60113567  0.26283166  0.23378746  1
  O2-  O241  1  0.59437639  0.26054282  0.72800856  1
  O2-  O242  1  0.59257011  0.59245838  0.23001886  1
  O2-  O243  1  0.59743688  0.59782832  0.72851026  1
  O2-  O244  1  0.59474810  0.92669385  0.22675957  1
  O2-  O245  1  0.59711854  0.92674382  0.73103903  1
  O2-  O246  1  0.93043945  0.26353005  0.22696409  1
  O2-  O247  1  0.93009329  0.25863350  0.72853309  1
  O2-  O248  1  0.92749516  0.59037207  0.22705662  1
  O2-  O249  1  0.92534317  0.59650268  0.73009465  1
  O2-  O250  1  0.92607020  0.92781169  0.22965593  1
  O2-  O251  1  0.93025295  0.92883575  0.72644701  1
  O2-  O252  1  0.09424691  0.23935886  0.27365703  1
  O2-  O253  1  0.09922741  0.23425066  0.76785361  1
  O2-  O254  1  0.09742867  0.56814668  0.26369044  1
  O2-  O255  1  0.09198050  0.57131526  0.77185742  1
  O2-  O256  1  0.09103719  0.91043847  0.26661745  1
  O2-  O257  1  0.09425423  0.90401065  0.77155295  1
  O2-  O258  1  0.42556789  0.24342322  0.26315044  1
  O2-  O259  1  0.42861133  0.23645098  0.77301646  1
  O2-  O260  1  0.42291637  0.57480120  0.26827370  1
  O2-  O261  1  0.42921667  0.57534757  0.77117778  1
  O2-  O262  1  0.42947585  0.90742465  0.26823833  1
  O2-  O263  1  0.42724613  0.90591526  0.77203412  1
  O2-  O264  1  0.76655642  0.23710584  0.26942307  1
  O2-  O265  1  0.76388845  0.23675343  0.76954900  1
  O2-  O266  1  0.75595555  0.57346319  0.26460770  1
  O2-  O267  1  0.76444584  0.56841493  0.76665972  1
  O2-  O268  1  0.75817706  0.90775226  0.26570375  1
  O2-  O269  1  0.76259533  0.90315911  0.77212956  1
  O2-  O270  1  0.07369485  0.07504573  0.47521232  1
  O2-  O271  1  0.06968355  0.06962166  0.98268680  1
  O2-  O272  1  0.07288957  0.40399273  0.48097165  1
  O2-  O273  1  0.07285001  0.40326463  0.97426371  1
  O2-  O274  1  0.06753618  0.73353107  0.48279688  1
  O2-  O275  1  0.06922439  0.73910064  0.97770870  1
  O2-  O276  1  0.40410767  0.06947812  0.48449747  1
  O2-  O277  1  0.40192327  0.07292933  0.98055112  1
  O2-  O278  1  0.40146649  0.40196914  0.48263443  1
  O2-  O279  1  0.40562239  0.40458543  0.97794309  1
  O2-  O280  1  0.40687033  0.74161751  0.47765776  1
  O2-  O281  1  0.40473357  0.73798909  0.97896786  1
  O2-  O282  1  0.73739417  0.07020542  0.48437385  1
  O2-  O283  1  0.74071897  0.07232676  0.97833291  1
  O2-  O284  1  0.73527825  0.40172415  0.48617355  1
  O2-  O285  1  0.73821620  0.40509293  0.97435251  1
  O2-  O286  1  0.73680938  0.73819191  0.47930333  1
  O2-  O287  1  0.73399110  0.73355490  0.98267992  1
  O2-  O288  1  0.09520676  0.24049280  0.47694958  1
  O2-  O289  1  0.09952060  0.23407426  0.98049367  1
  O2-  O290  1  0.09520520  0.57034229  0.48611690  1
  O2-  O291  1  0.09359565  0.57058032  0.97775538  1
  O2-  O292  1  0.09384867  0.90807081  0.48300265  1
  O2-  O293  1  0.09458969  0.90762028  0.97754885  1
  O2-  O294  1  0.42840419  0.23982812  0.48894204  1
  O2-  O295  1  0.42983563  0.24067630  0.97586046  1
  O2-  O296  1  0.42411257  0.57849534  0.48361067  1
  O2-  O297  1  0.42902099  0.57290119  0.97633746  1
  O2-  O298  1  0.42890233  0.90753035  0.48022677  1
  O2-  O299  1  0.42838411  0.90580555  0.97924480  1
  O2-  O300  1  0.76458686  0.23825005  0.48088242  1
  O2-  O301  1  0.76616763  0.23660252  0.98095379  1
  O2-  O302  1  0.75892396  0.57351137  0.48474279  1
  O2-  O303  1  0.76345966  0.56848914  0.98438250  1
  O2-  O304  1  0.75950480  0.90817527  0.48354263  1
  O2-  O305  1  0.76244190  0.90213515  0.97875863  1
  O2-  O306  1  0.07165223  0.07457274  0.27241562  1
  O2-  O307  1  0.07136024  0.07142093  0.76953577  1
  O2-  O308  1  0.07408305  0.40649537  0.27274526  1
  O2-  O309  1  0.07063575  0.40204286  0.77099336  1
  O2-  O310  1  0.06764526  0.73153221  0.26712253  1
  O2-  O311  1  0.06963768  0.73934834  0.77298835  1
  O2-  O312  1  0.40267765  0.07168062  0.26616351  1
  O2-  O313  1  0.40269940  0.07100235  0.76867718  1
  O2-  O314  1  0.40092587  0.40532367  0.26712701  1
  O2-  O315  1  0.40478594  0.40353937  0.77156893  1
  O2-  O316  1  0.40325119  0.74014108  0.26916679  1
  O2-  O317  1  0.40824102  0.73920032  0.77353215  1
  O2-  O318  1  0.73849746  0.07148483  0.26644688  1
  O2-  O319  1  0.73923330  0.07127475  0.77142361  1
  O2-  O320  1  0.73827456  0.40350312  0.26749869  1
  O2-  O321  1  0.73422959  0.40481927  0.77181674  1
  O2-  O322  1  0.73372208  0.73771567  0.26738641  1
  O2-  O323  1  0.73732150  0.73727247  0.77361430  1
  O2-  O324  1  0.23807795  0.09535650  0.23151356  1
  O2-  O325  1  0.24065493  0.09344824  0.72601006  1
  O2-  O326  1  0.23850649  0.42852333  0.22745415  1
  O2-  O327  1  0.23596557  0.42473220  0.72905215  1
  O2-  O328  1  0.23653777  0.75950338  0.22634541  1
  O2-  O329  1  0.23617647  0.76382970  0.73355092  1
  O2-  O330  1  0.57675350  0.09157071  0.23074777  1
  O2-  O331  1  0.57455835  0.09343743  0.72877166  1
  O2-  O332  1  0.57143318  0.42821009  0.23264556  1
  O2-  O333  1  0.56991569  0.43337758  0.72936270  1
  O2-  O334  1  0.57073115  0.76169831  0.22846984  1
  O2-  O335  1  0.56978749  0.76590763  0.73505022  1
  O2-  O336  1  0.90835992  0.09426953  0.22651004  1
  O2-  O337  1  0.90558418  0.09682553  0.73227422  1
  O2-  O338  1  0.90585777  0.42664583  0.22999761  1
  O2-  O339  1  0.90263362  0.42829651  0.72896542  1
  O2-  O340  1  0.90608222  0.76098207  0.22659253  1
  O2-  O341  1  0.90468378  0.76041027  0.72910526  1
  O2-  O342  1  0.26293667  0.26243596  0.02022136  1
  O2-  O343  1  0.25819814  0.25913954  0.52382627  1
  O2-  O344  1  0.26202920  0.59359996  0.01931361  1
  O2-  O345  1  0.25639733  0.59139403  0.51927550  1
  O2-  O346  1  0.26268250  0.93082873  0.01749699  1
  O2-  O347  1  0.26032429  0.92810389  0.52133064  1
  O2-  O348  1  0.59892957  0.26531609  0.01843876  1
  O2-  O349  1  0.59617357  0.26183430  0.52106301  1
  O2-  O350  1  0.59331862  0.59230247  0.02466849  1
  O2-  O351  1  0.59579105  0.59779327  0.51757557  1
  O2-  O352  1  0.59740134  0.92539171  0.02004873  1
  O2-  O353  1  0.59435685  0.92804409  0.52161426  1
  O2-  O354  1  0.92968871  0.26111252  0.02278034  1
  O2-  O355  1  0.92866369  0.26226238  0.52160528  1
  O2-  O356  1  0.92708779  0.59528169  0.01984258  1
  O2-  O357  1  0.92363162  0.59422701  0.52224271  1
  O2-  O358  1  0.92957340  0.92804817  0.02261021  1
  O2-  O359  1  0.92753799  0.92838887  0.52033187  1
