# generated using pymatgen
data_Sr7Ca15Pr50Mn72O216
_symmetry_space_group_name_H-M   'P 1'
_cell_length_a   16.55973373
_cell_length_b   16.60627517
_cell_length_c   15.59151398
_cell_angle_alpha   89.99770226
_cell_angle_beta   89.99686048
_cell_angle_gamma   89.98686517
_symmetry_Int_Tables_number   1
_chemical_formula_structural   Sr7Ca15Pr50Mn72O216
_chemical_formula_sum   'Sr7 Ca15 Pr50 Mn72 O216'
_cell_volume   4287.59598598
_cell_formula_units_Z   1
loop_
 _symmetry_equiv_pos_site_id
 _symmetry_equiv_pos_as_xyz
  1  'x, y, z'
loop_
 _atom_type_symbol
 _atom_type_oxidation_number
  Sr2+  2.0
  Ca2+  2.0
  Pr3+  3.0
  Mn3.30+  3.3
  O2-  -2.0
loop_
 _atom_site_type_symbol
 _atom_site_label
 _atom_site_symmetry_multiplicity
 _atom_site_fract_x
 _atom_site_fract_y
 _atom_site_fract_z
 _atom_site_occupancy
  Sr2+  Sr0  1  0.50136972  0.84294913  0.62523809  1
  Sr2+  Sr1  1  0.16904932  0.17444575  0.62475931  1
  Sr2+  Sr2  1  0.33226434  0.67259789  0.62621503  1
  Sr2+  Sr3  1  0.82984065  0.48781727  0.37753467  1
  Sr2+  Sr4  1  -0.00252539  0.67642457  0.12628668  1
  Sr2+  Sr5  1  0.66760244  0.65571533  0.87234998  1
  Sr2+  Sr6  1  0.17412342  0.84088195  0.62648415  1
  Ca2+  Ca7  1  0.50087129  0.51310194  0.12512112  1
  Ca2+  Ca8  1  0.50274037  0.51347796  0.62490040  1
  Ca2+  Ca9  1  0.50537624  0.18119683  0.62523406  1
  Ca2+  Ca10  1  0.33185519  0.01307881  0.62464802  1
  Ca2+  Ca11  1  0.83041826  0.81704814  0.37587996  1
  Ca2+  Ca12  1  0.16452797  0.81629628  0.87233305  1
  Ca2+  Ca13  1  0.16779041  0.51270320  0.62478768  1
  Ca2+  Ca14  1  -0.00599480  0.34977869  0.62225146  1
  Ca2+  Ca15  1  0.83262643  0.51188220  0.62364557  1
  Ca2+  Ca16  1  0.66111518  0.34962385  0.62354638  1
  Ca2+  Ca17  1  0.66731755  0.32170209  0.87036779  1
  Ca2+  Ca18  1  1.00124513  0.32034449  0.37967440  1
  Ca2+  Ca19  1  0.33157665  0.34883243  0.12497597  1
  Ca2+  Ca20  1  0.66880819  0.32051798  0.37932383  1
  Ca2+  Ca21  1  0.66083608  0.01723862  0.62540842  1
  Pr3+  Pr22  1  0.50472318  0.84633401  0.12472008  1
  Pr3+  Pr23  1  0.33766231  0.98849881  0.37906032  1
  Pr3+  Pr24  1  0.83170866  0.15945374  0.37740428  1
  Pr3+  Pr25  1  0.33109477  0.34550434  0.62418365  1
  Pr3+  Pr26  1  0.33033920  0.67789733  0.12497750  1
  Pr3+  Pr27  1  0.99972059  0.65279470  0.37617731  1
  Pr3+  Pr28  1  0.83886924  0.84335068  0.12574781  1
  Pr3+  Pr29  1  0.16795060  0.51113651  0.12526307  1
  Pr3+  Pr30  1  0.83604652  0.18267207  0.62443698  1
  Pr3+  Pr31  1  0.49804449  0.48848463  0.87152766  1
  Pr3+  Pr32  1  0.83604738  0.84399654  0.62391539  1
  Pr3+  Pr33  1  0.83126424  0.81763106  0.87336997  1
  Pr3+  Pr34  1  0.66962812  0.98760287  0.87185772  1
  Pr3+  Pr35  1  0.49965946  0.15557211  0.87183858  1
  Pr3+  Pr36  1  0.82936446  0.15516870  0.87312157  1
  Pr3+  Pr37  1  0.49714107  0.48657535  0.37822893  1
  Pr3+  Pr38  1  0.16535018  0.15411236  0.87224959  1
  Pr3+  Pr39  1  0.33556903  0.32068542  0.37652371  1
  Pr3+  Pr40  1  -0.00075562  0.67579364  0.62377450  1
  Pr3+  Pr41  1  0.15968156  0.48568838  0.37901988  1
  Pr3+  Pr42  1  0.17220756  0.18434412  0.12528303  1
  Pr3+  Pr43  1  0.66268089  0.67546844  0.62450864  1
  Pr3+  Pr44  1  -0.00461188  0.34604676  0.12680181  1
  Pr3+  Pr45  1  0.50315948  0.18210866  0.12466599  1
  Pr3+  Pr46  1  0.33644553  0.98709663  0.87146196  1
  Pr3+  Pr47  1  0.33493093  0.65278839  0.37790496  1
  Pr3+  Pr48  1  1.00610373  0.98450800  0.87233825  1
  Pr3+  Pr49  1  1.00258818  0.98801248  0.37761439  1
  Pr3+  Pr50  1  0.16820465  0.84494339  0.12393994  1
  Pr3+  Pr51  1  0.33633690  0.32143165  0.87332207  1
  Pr3+  Pr52  1  0.66210463  0.34887443  0.12596182  1
  Pr3+  Pr53  1  0.33163246  0.01403985  0.12548250  1
  Pr3+  Pr54  1  0.83565847  0.18093382  0.12564960  1
  Pr3+  Pr55  1  0.16517624  0.81927099  0.37698528  1
  Pr3+  Pr56  1  0.16361384  0.48901647  0.87113081  1
  Pr3+  Pr57  1  0.50030219  0.15619517  0.37840624  1
  Pr3+  Pr58  1  1.00130583  0.32194108  0.87197120  1
  Pr3+  Pr59  1  0.00012292  0.01266666  0.62460665  1
  Pr3+  Pr60  1  0.49806875  0.81966046  0.37683838  1
  Pr3+  Pr61  1  0.82476577  0.48667993  0.87242387  1
  Pr3+  Pr62  1  0.66990223  0.65322627  0.37734562  1
  Pr3+  Pr63  1  0.66403444  0.67665330  0.12568272  1
  Pr3+  Pr64  1  -0.00249801  0.01276228  0.12504851  1
  Pr3+  Pr65  1  0.83505441  0.51368866  0.12683082  1
  Pr3+  Pr66  1  0.66527128  0.01501344  0.12434715  1
  Pr3+  Pr67  1  0.67260214  0.98685991  0.37781823  1
  Pr3+  Pr68  1  0.16442898  0.15498060  0.37787097  1
  Pr3+  Pr69  1  0.49855725  0.81886670  0.87328238  1
  Pr3+  Pr70  1  1.00234433  0.65339173  0.87406437  1
  Pr3+  Pr71  1  0.33481528  0.65421042  0.87232529  1
  Mn3.30+  Mn72  1  0.16724877  -0.00073293  -0.00065198  1
  Mn3.30+  Mn73  1  0.17030959  -0.00127351  0.50179995  1
  Mn3.30+  Mn74  1  0.16762915  0.33487487  -0.00077803  1
  Mn3.30+  Mn75  1  0.16325668  0.33305845  0.50384168  1
  Mn3.30+  Mn76  1  0.16612844  0.66681820  0.00012534  1
  Mn3.30+  Mn77  1  0.16722067  0.66440182  0.50092615  1
  Mn3.30+  Mn78  1  0.50070309  0.00081584  -0.00128651  1
  Mn3.30+  Mn79  1  0.50291589  0.00116676  0.50408090  1
  Mn3.30+  Mn80  1  0.49993197  0.33606053  0.00003174  1
  Mn3.30+  Mn81  1  0.50286452  0.33309269  0.50231605  1
  Mn3.30+  Mn82  1  0.49948468  0.66412297  0.00033203  1
  Mn3.30+  Mn83  1  0.50043080  0.66533753  0.50148896  1
  Mn3.30+  Mn84  1  0.83455327  -0.00042281  -0.00125675  1
  Mn3.30+  Mn85  1  0.83199418  0.00009089  0.50156761  1
  Mn3.30+  Mn86  1  0.83042032  0.33385783  -0.00123386  1
  Mn3.30+  Mn87  1  0.83125096  0.33592689  0.50152544  1
  Mn3.30+  Mn88  1  0.83308468  0.66554210  -0.00040000  1
  Mn3.30+  Mn89  1  0.83203563  0.66531977  0.50082516  1
  Mn3.30+  Mn90  1  0.00113190  0.16805910  0.25121414  1
  Mn3.30+  Mn91  1  -0.00069184  0.16872401  0.74766286  1
  Mn3.30+  Mn92  1  -0.00177958  0.49743031  0.25298859  1
  Mn3.30+  Mn93  1  -0.00337099  0.49856263  0.74624785  1
  Mn3.30+  Mn94  1  -0.00101607  0.83276074  0.25265904  1
  Mn3.30+  Mn95  1  0.00314037  0.83231753  0.74779399  1
  Mn3.30+  Mn96  1  0.33429025  0.16925433  0.25018976  1
  Mn3.30+  Mn97  1  0.33536131  0.16603662  0.74681899  1
  Mn3.30+  Mn98  1  0.33325817  0.49813117  0.24948730  1
  Mn3.30+  Mn99  1  0.33165748  0.49885947  0.74715266  1
  Mn3.30+  Mn100  1  0.33456891  0.83374387  0.25005582  1
  Mn3.30+  Mn101  1  0.33265272  0.83272672  0.74943910  1
  Mn3.30+  Mn102  1  0.66713037  0.16913186  0.25162955  1
  Mn3.30+  Mn103  1  0.66595600  0.16959132  0.74726028  1
  Mn3.30+  Mn104  1  0.66433537  0.49859951  0.25133919  1
  Mn3.30+  Mn105  1  0.66516356  0.49765440  0.74734906  1
  Mn3.30+  Mn106  1  0.66916705  0.83333859  0.25089775  1
  Mn3.30+  Mn107  1  0.66708482  0.83403323  0.74778611  1
  Mn3.30+  Mn108  1  0.16691946  0.00034544  0.25046924  1
  Mn3.30+  Mn109  1  0.17049927  -0.00240259  0.74883982  1
  Mn3.30+  Mn110  1  0.16637211  0.33430047  0.25156233  1
  Mn3.30+  Mn111  1  0.16516504  0.33345750  0.74581261  1
  Mn3.30+  Mn112  1  0.16591623  0.66568463  0.24977440  1
  Mn3.30+  Mn113  1  0.16700198  0.66572203  0.74988711  1
  Mn3.30+  Mn114  1  0.50191972  0.00106665  0.25143450  1
  Mn3.30+  Mn115  1  0.50152825  0.00116316  0.74600502  1
  Mn3.30+  Mn116  1  0.49931660  0.33570032  0.24976765  1
  Mn3.30+  Mn117  1  0.50311831  0.33337007  0.74767983  1
  Mn3.30+  Mn118  1  0.49934394  0.66465501  0.24957422  1
  Mn3.30+  Mn119  1  0.50053385  0.66493177  0.74871576  1
  Mn3.30+  Mn120  1  0.83400562  -0.00076397  0.25180316  1
  Mn3.30+  Mn121  1  0.83244361  0.00034343  0.74744173  1
  Mn3.30+  Mn122  1  0.83105065  0.33376734  0.25424512  1
  Mn3.30+  Mn123  1  0.83074096  0.33583960  0.74597174  1
  Mn3.30+  Mn124  1  0.83258590  0.66688759  0.25246392  1
  Mn3.30+  Mn125  1  0.83269743  0.66401746  0.74743809  1
  Mn3.30+  Mn126  1  0.00052920  0.16709593  -0.00079889  1
  Mn3.30+  Mn127  1  -0.00013978  0.17017480  0.50147041  1
  Mn3.30+  Mn128  1  -0.00272167  0.49907375  -0.00145345  1
  Mn3.30+  Mn129  1  -0.00279575  0.49693841  0.50288266  1
  Mn3.30+  Mn130  1  0.00216160  0.83205340  -0.00085564  1
  Mn3.30+  Mn131  1  -0.00024249  0.83292207  0.50000698  1
  Mn3.30+  Mn132  1  0.33424103  0.16874691  -0.00040183  1
  Mn3.30+  Mn133  1  0.33536880  0.16614891  0.50307100  1
  Mn3.30+  Mn134  1  0.33394722  0.49844686  0.00119906  1
  Mn3.30+  Mn135  1  0.33097624  0.49875004  0.50169197  1
  Mn3.30+  Mn136  1  0.33325166  0.83350423  -0.00116846  1
  Mn3.30+  Mn137  1  0.33419144  0.83293973  0.50276966  1
  Mn3.30+  Mn138  1  0.66715291  0.16968469  -0.00188632  1
  Mn3.30+  Mn139  1  0.66600683  0.16884272  0.50303697  1
  Mn3.30+  Mn140  1  0.66383026  0.49947565  -0.00084646  1
  Mn3.30+  Mn141  1  0.66613086  0.49663867  0.50202725  1
  Mn3.30+  Mn142  1  0.66875011  0.83290682  0.00000966  1
  Mn3.30+  Mn143  1  0.66796198  0.83464199  0.50040564  1
  O2-  O144  1  0.02734519  0.16082577  0.12588045  1
  O2-  O145  1  0.01972430  0.15933741  0.62550789  1
  O2-  O146  1  0.02291363  0.49249022  0.12701193  1
  O2-  O147  1  0.02611842  0.49567632  0.62525238  1
  O2-  O148  1  0.02428988  0.83297010  0.12744236  1
  O2-  O149  1  0.02369989  0.82608743  0.62359389  1
  O2-  O150  1  0.35985109  0.16004234  0.12445486  1
  O2-  O151  1  0.36164548  0.16066720  0.62474595  1
  O2-  O152  1  0.35840816  0.49323024  0.12544164  1
  O2-  O153  1  0.35955871  0.49336109  0.62412761  1
  O2-  O154  1  0.36125922  0.82741876  0.12512426  1
  O2-  O155  1  0.35218424  0.82624010  0.62434064  1
  O2-  O156  1  0.69140835  0.16249860  0.12364346  1
  O2-  O157  1  0.69355942  0.15762968  0.62529235  1
  O2-  O158  1  0.69168504  0.49493039  0.12616322  1
  O2-  O159  1  0.69139517  0.49438250  0.62422211  1
  O2-  O160  1  0.69402021  0.82726136  0.12537282  1
  O2-  O161  1  0.69243167  0.82451040  0.62369754  1
  O2-  O162  1  0.13930724  0.33140665  0.12627359  1
  O2-  O163  1  0.13692435  0.32630798  0.62497334  1
  O2-  O164  1  0.14655464  0.66082188  0.12509795  1
  O2-  O165  1  0.14350622  0.66150833  0.62458729  1
  O2-  O166  1  0.14113373  0.99317735  0.12442034  1
  O2-  O167  1  0.14355330  0.99578020  0.62468309  1
  O2-  O168  1  0.47148047  0.32650054  0.12483454  1
  O2-  O169  1  0.47339688  0.32445087  0.62502426  1
  O2-  O170  1  0.47324636  0.66111830  0.12559848  1
  O2-  O171  1  0.48282665  0.66211662  0.62421130  1
  O2-  O172  1  0.47630664  0.99502476  0.12521809  1
  O2-  O173  1  0.47322938  0.99549522  0.62522341  1
  O2-  O174  1  0.80737125  0.32836783  0.12662871  1
  O2-  O175  1  0.80225847  0.32742694  0.62515386  1
  O2-  O176  1  0.80964351  0.66345764  0.12693925  1
  O2-  O177  1  0.80785867  0.66198718  0.62426431  1
  O2-  O178  1  0.80843076  0.99105585  0.12541011  1
  O2-  O179  1  0.80433056  0.99118345  0.62465049  1
  O2-  O180  1  0.30874855  0.17255358  0.37498052  1
  O2-  O181  1  0.30902726  0.17360189  0.87580592  1
  O2-  O182  1  0.30537186  0.50253907  0.37586884  1
  O2-  O183  1  0.30784650  0.50270610  0.87454316  1
  O2-  O184  1  0.31017715  0.84028071  0.37436194  1
  O2-  O185  1  0.30704981  0.84030278  0.87730899  1
  O2-  O186  1  0.64403723  0.17299784  0.37698818  1
  O2-  O187  1  0.64381299  0.17438206  0.87409069  1
  O2-  O188  1  0.63983249  0.50676725  0.37511979  1
  O2-  O189  1  0.64165400  0.50314434  0.87433800  1
  O2-  O190  1  0.64116753  0.83979675  0.37507687  1
  O2-  O191  1  0.64364179  0.83974078  0.87519663  1
  O2-  O192  1  0.97645277  0.17145882  0.37573246  1
  O2-  O193  1  0.97398554  0.17299819  0.87199830  1
  O2-  O194  1  0.97969763  0.50569547  0.37703300  1
  O2-  O195  1  0.97029109  0.50440197  0.87170873  1
  O2-  O196  1  0.97226410  0.84082100  0.37669250  1
  O2-  O197  1  0.97450942  0.83791218  0.87194848  1
  O2-  O198  1  0.19267435  0.00546689  0.37454135  1
  O2-  O199  1  0.19247661  0.00740504  0.87644596  1
  O2-  O200  1  0.19212069  0.33877973  0.37680122  1
  O2-  O201  1  0.19191613  0.34085139  0.87181799  1
  O2-  O202  1  0.19028575  0.66875274  0.37255029  1
  O2-  O203  1  0.18962779  0.66729752  0.87826686  1
  O2-  O204  1  0.52830717  0.00685922  0.37584263  1
  O2-  O205  1  0.52631984  0.00620920  0.87385858  1
  O2-  O206  1  0.52592121  0.33954283  0.37619997  1
  O2-  O207  1  0.52605130  0.34141606  0.87364889  1
  O2-  O208  1  0.52490287  0.67050148  0.37399793  1
  O2-  O209  1  0.51828262  0.66894448  0.87586080  1
  O2-  O210  1  0.85983526  0.01094881  0.37599796  1
  O2-  O211  1  0.86095514  0.00641748  0.87295614  1
  O2-  O212  1  0.85828069  0.33047156  0.37576280  1
  O2-  O213  1  0.85775982  0.33916097  0.87182826  1
  O2-  O214  1  0.85565244  0.67128292  0.37667782  1
  O2-  O215  1  0.85768178  0.66899425  0.87244469  1
  O2-  O216  1  0.23801793  0.09521312  0.02134419  1
  O2-  O217  1  0.24205808  0.09311588  0.51388570  1
  O2-  O218  1  0.23589545  0.43011259  0.01802243  1
  O2-  O219  1  0.23510651  0.42652981  0.52261289  1
  O2-  O220  1  0.24187542  0.76175382  0.02310558  1
  O2-  O221  1  0.23911398  0.75907049  0.50871150  1
  O2-  O222  1  0.57348751  0.09669899  0.01939427  1
  O2-  O223  1  0.57062571  0.09901042  0.51909207  1
  O2-  O224  1  0.56866040  0.43023327  0.02309219  1
  O2-  O225  1  0.56594629  0.43148884  0.51953523  1
  O2-  O226  1  0.57237334  0.76071274  0.02060879  1
  O2-  O227  1  0.57650701  0.76063176  0.51465175  1
  O2-  O228  1  0.90446201  0.09356938  0.02175668  1
  O2-  O229  1  0.90523167  0.09342718  0.52081712  1
  O2-  O230  1  0.90234959  0.42696289  0.02013343  1
  O2-  O231  1  0.90142619  0.42878015  0.52276003  1
  O2-  O232  1  0.90490428  0.76401000  0.01525873  1
  O2-  O233  1  0.90650697  0.75806949  0.52180269  1
  O2-  O234  1  0.26295282  0.26508584  0.22832619  1
  O2-  O235  1  0.26517028  0.26195937  0.73198382  1
  O2-  O236  1  0.26326167  0.59248370  0.22951344  1
  O2-  O237  1  0.25731073  0.59097000  0.73639428  1
  O2-  O238  1  0.26199621  0.92802500  0.22856691  1
  O2-  O239  1  0.26725739  0.93164052  0.73301099  1
  O2-  O240  1  0.59100889  0.26311348  0.22746104  1
  O2-  O241  1  0.59839877  0.26463035  0.72931526  1
  O2-  O242  1  0.59425551  0.59585461  0.23116593  1
  O2-  O243  1  0.59494902  0.59136897  0.73029078  1
  O2-  O244  1  0.59848446  0.92800695  0.22862280  1
  O2-  O245  1  0.59833547  0.93346796  0.73281570  1
  O2-  O246  1  0.92730903  0.25880625  0.22747822  1
  O2-  O247  1  0.92590764  0.26695789  0.72784217  1
  O2-  O248  1  0.92488516  0.59072492  0.23497485  1
  O2-  O249  1  0.92967730  0.59613062  0.72949886  1
  O2-  O250  1  0.92970119  0.92941070  0.23006478  1
  O2-  O251  1  0.93068742  0.92687439  0.72809727  1
  O2-  O252  1  0.10085997  0.23708694  0.26705894  1
  O2-  O253  1  0.09441554  0.24122899  0.77411493  1
  O2-  O254  1  0.09346914  0.57049814  0.26920501  1
  O2-  O255  1  0.08966973  0.57312974  0.77161124  1
  O2-  O256  1  0.09355501  0.90443180  0.27200995  1
  O2-  O257  1  0.09628690  0.90456879  0.77269779  1
  O2-  O258  1  0.42974222  0.23937801  0.27189325  1
  O2-  O259  1  0.42909976  0.24099397  0.77257671  1
  O2-  O260  1  0.42401816  0.57192652  0.27433137  1
  O2-  O261  1  0.42282159  0.57266539  0.76976122  1
  O2-  O262  1  0.43073892  0.90611020  0.27039788  1
  O2-  O263  1  0.42923264  0.90607716  0.77367275  1
  O2-  O264  1  0.76418159  0.23612745  0.26685100  1
  O2-  O265  1  0.76566804  0.23635203  0.76653302  1
  O2-  O266  1  0.75616213  0.57271866  0.26710308  1
  O2-  O267  1  0.76072693  0.56982228  0.76583778  1
  O2-  O268  1  0.76592058  0.90466725  0.27317975  1
  O2-  O269  1  0.76380766  0.90577018  0.77083346  1
  O2-  O270  1  0.07416419  0.07191717  0.48136999  1
  O2-  O271  1  0.07069875  0.07212131  0.97796104  1
  O2-  O272  1  0.06998252  0.40497731  0.47856098  1
  O2-  O273  1  0.06961843  0.40524453  0.97868892  1
  O2-  O274  1  0.07306278  0.73774332  0.47780626  1
  O2-  O275  1  0.07135716  0.73907744  0.97990741  1
  O2-  O276  1  0.40941114  0.07396076  0.47615829  1
  O2-  O277  1  0.40488650  0.07275192  0.97923558  1
  O2-  O278  1  0.40296232  0.40454034  0.48039736  1
  O2-  O279  1  0.40554343  0.40672232  0.97585749  1
  O2-  O280  1  0.40848646  0.74087346  0.47704726  1
  O2-  O281  1  0.40383156  0.73942057  0.97960756  1
  O2-  O282  1  0.74038153  0.07388873  0.47787445  1
  O2-  O283  1  0.73940301  0.07098523  0.97975843  1
  O2-  O284  1  0.73385109  0.40281672  0.47961836  1
  O2-  O285  1  0.73387530  0.40328931  0.97987710  1
  O2-  O286  1  0.73840677  0.73876322  0.48159551  1
  O2-  O287  1  0.74200368  0.73961041  0.98200161  1
  O2-  O288  1  0.09568526  0.23907216  0.47840450  1
  O2-  O289  1  0.09771774  0.23977525  0.97966269  1
  O2-  O290  1  0.09116542  0.57323289  0.48089964  1
  O2-  O291  1  0.09153541  0.56971354  0.97951867  1
  O2-  O292  1  0.09453891  0.90732057  0.47688702  1
  O2-  O293  1  0.09711135  0.90360188  0.97861593  1
  O2-  O294  1  0.42806915  0.24095510  0.47758138  1
  O2-  O295  1  0.43057842  0.24022207  0.97755449  1
  O2-  O296  1  0.42383578  0.57287065  0.47790891  1
  O2-  O297  1  0.42395632  0.57210684  0.97756617  1
  O2-  O298  1  0.43055733  0.90729074  0.47734557  1
  O2-  O299  1  0.42883031  0.90384314  0.97938762  1
  O2-  O300  1  0.76415060  0.23634701  0.48441428  1
  O2-  O301  1  0.76526437  0.23655476  0.98246021  1
  O2-  O302  1  0.75613052  0.57485386  0.48232364  1
  O2-  O303  1  0.76094836  0.56785684  0.98528666  1
  O2-  O304  1  0.76487634  0.90406225  0.47663774  1
  O2-  O305  1  0.76422924  0.90589338  0.97786841  1
  O2-  O306  1  0.07169555  0.07187207  0.27153055  1
  O2-  O307  1  0.07486696  0.07001757  0.76882159  1
  O2-  O308  1  0.06948205  0.40223248  0.27249936  1
  O2-  O309  1  0.07008379  0.40842379  0.77256948  1
  O2-  O310  1  0.07141911  0.74111344  0.27423773  1
  O2-  O311  1  0.07074504  0.73632600  0.76823248  1
  O2-  O312  1  0.40614585  0.07284438  0.27103243  1
  O2-  O313  1  0.40819513  0.07382230  0.77386209  1
  O2-  O314  1  0.40480066  0.40607539  0.27423645  1
  O2-  O315  1  0.40400869  0.40464142  0.76916876  1
  O2-  O316  1  0.40527129  0.73805615  0.27113289  1
  O2-  O317  1  0.40755734  0.74196958  0.77231627  1
  O2-  O318  1  0.73998795  0.06963292  0.26823289  1
  O2-  O319  1  0.73851983  0.07464571  0.77281233  1
  O2-  O320  1  0.73222529  0.40099335  0.26806522  1
  O2-  O321  1  0.73622121  0.40479112  0.77292569  1
  O2-  O322  1  0.73545196  0.73822609  0.26934867  1
  O2-  O323  1  0.74452771  0.74131544  0.76638233  1
  O2-  O324  1  0.23991771  0.09649216  0.22843516  1
  O2-  O325  1  0.24145625  0.09411850  0.73694475  1
  O2-  O326  1  0.23443814  0.43037905  0.23258600  1
  O2-  O327  1  0.23695290  0.42702209  0.72627759  1
  O2-  O328  1  0.23902964  0.76164219  0.23010068  1
  O2-  O329  1  0.24071800  0.75824824  0.74061229  1
  O2-  O330  1  0.57305124  0.09569809  0.22945873  1
  O2-  O331  1  0.56991591  0.09982456  0.73250059  1
  O2-  O332  1  0.56774936  0.43063481  0.22771262  1
  O2-  O333  1  0.56653766  0.43095492  0.72944410  1
  O2-  O334  1  0.57139231  0.76168364  0.22864666  1
  O2-  O335  1  0.57739697  0.75947101  0.73534951  1
  O2-  O336  1  0.90518103  0.09293840  0.22765308  1
  O2-  O337  1  0.90388469  0.09286895  0.72822532  1
  O2-  O338  1  0.90331803  0.42495454  0.22873181  1
  O2-  O339  1  0.89919944  0.43163255  0.72925745  1
  O2-  O340  1  0.90512258  0.76348127  0.23350444  1
  O2-  O341  1  0.90709095  0.76051272  0.72918764  1
  O2-  O342  1  0.26290822  0.26359739  0.02154806  1
  O2-  O343  1  0.26396111  0.26244676  0.51743035  1
  O2-  O344  1  0.26203057  0.59259996  0.02037059  1
  O2-  O345  1  0.25913969  0.59174133  0.51460509  1
  O2-  O346  1  0.26429952  0.92799814  0.02340400  1
  O2-  O347  1  0.26609054  0.93028018  0.51592326  1
  O2-  O348  1  0.59245478  0.26324235  0.02237189  1
  O2-  O349  1  0.59676841  0.26340246  0.52097386  1
  O2-  O350  1  0.59429379  0.59358608  0.02156303  1
  O2-  O351  1  0.59531406  0.59399751  0.51672288  1
  O2-  O352  1  0.59682943  0.92791875  0.02065374  1
  O2-  O353  1  0.60038309  0.93341425  0.51751798  1
  O2-  O354  1  0.92920826  0.26148798  0.01962432  1
  O2-  O355  1  0.92516729  0.26299094  0.52265982  1
  O2-  O356  1  0.92469020  0.59238374  0.01812006  1
  O2-  O357  1  0.92877993  0.59472770  0.51759763  1
  O2-  O358  1  0.93083250  0.92804496  0.01873227  1
  O2-  O359  1  0.92771661  0.92932467  0.52246874  1
