# generated using pymatgen
data_Sr7Ca15Pr50Mn72O216
_symmetry_space_group_name_H-M   'P 1'
_cell_length_a   16.56025995
_cell_length_b   16.60316477
_cell_length_c   15.59334551
_cell_angle_alpha   89.99632200
_cell_angle_beta   90.00338238
_cell_angle_gamma   89.99964593
_symmetry_Int_Tables_number   1
_chemical_formula_structural   Sr7Ca15Pr50Mn72O216
_chemical_formula_sum   'Sr7 Ca15 Pr50 Mn72 O216'
_cell_volume   4287.43281666
_cell_formula_units_Z   1
loop_
 _symmetry_equiv_pos_site_id
 _symmetry_equiv_pos_as_xyz
  1  'x, y, z'
loop_
 _atom_type_symbol
 _atom_type_oxidation_number
  Sr2+  2.0
  Ca2+  2.0
  Pr3+  3.0
  Mn3.30+  3.3
  O2-  -2.0
loop_
 _atom_site_type_symbol
 _atom_site_label
 _atom_site_symmetry_multiplicity
 _atom_site_fract_x
 _atom_site_fract_y
 _atom_site_fract_z
 _atom_site_occupancy
  Sr2+  Sr0  1  -0.00277161  0.01169821  0.62592823  1
  Sr2+  Sr1  1  0.66723535  0.99060834  0.87533462  1
  Sr2+  Sr2  1  0.83282883  0.50523754  0.62398301  1
  Sr2+  Sr3  1  0.67138155  0.32014108  0.37608736  1
  Sr2+  Sr4  1  0.49845642  0.48846060  0.87375611  1
  Sr2+  Sr5  1  0.50206728  0.50581891  0.62662020  1
  Sr2+  Sr6  1  0.16545833  0.48788510  0.87529870  1
  Ca2+  Ca7  1  0.33787420  0.98616736  0.87559712  1
  Ca2+  Ca8  1  0.50636511  0.85273228  0.12462780  1
  Ca2+  Ca9  1  0.17086675  0.18308025  0.62563380  1
  Ca2+  Ca10  1  0.83268909  0.18136726  0.12611537  1
  Ca2+  Ca11  1  0.33752697  0.98575466  0.37418606  1
  Ca2+  Ca12  1  0.66513906  0.34284930  0.12514573  1
  Ca2+  Ca13  1  0.33127790  0.34614719  0.62629532  1
  Ca2+  Ca14  1  -0.00384624  0.34565670  0.12357282  1
  Ca2+  Ca15  1  0.83454790  0.17791139  0.62253527  1
  Ca2+  Ca16  1  0.82871426  0.15440927  0.37581898  1
  Ca2+  Ca17  1  0.83701912  0.84938042  0.62626672  1
  Ca2+  Ca18  1  0.66128831  0.01832171  0.12353808  1
  Ca2+  Ca19  1  0.66592565  0.34578931  0.62457857  1
  Ca2+  Ca20  1  0.50795335  0.18088373  0.12415606  1
  Ca2+  Ca21  1  1.00086739  0.98803168  0.87388249  1
  Pr3+  Pr22  1  0.66427143  0.67583049  0.62533960  1
  Pr3+  Pr23  1  1.00210001  0.65284013  0.37490535  1
  Pr3+  Pr24  1  0.49958345  0.48301883  0.37625568  1
  Pr3+  Pr25  1  1.00250137  0.65280662  0.87530564  1
  Pr3+  Pr26  1  0.66097405  0.68199426  0.12470646  1
  Pr3+  Pr27  1  0.50582524  0.50946991  0.12436505  1
  Pr3+  Pr28  1  0.82995164  0.48599717  0.87431404  1
  Pr3+  Pr29  1  0.16838900  0.84700543  0.62558368  1
  Pr3+  Pr30  1  0.50191954  0.84579069  0.62561610  1
  Pr3+  Pr31  1  0.32566903  0.01488584  0.62549369  1
  Pr3+  Pr32  1  0.66881269  0.65308489  0.37475122  1
  Pr3+  Pr33  1  0.99733145  0.99092055  0.37537530  1
  Pr3+  Pr34  1  0.83111634  0.15367031  0.87399724  1
  Pr3+  Pr35  1  0.33312146  0.01294902  0.12417934  1
  Pr3+  Pr36  1  0.83359658  0.84948172  0.12470096  1
  Pr3+  Pr37  1  0.83019590  0.82404958  0.87299747  1
  Pr3+  Pr38  1  -0.00106801  0.34119746  0.62527313  1
  Pr3+  Pr39  1  0.33236097  0.67958912  0.12367207  1
  Pr3+  Pr40  1  0.16489158  0.15350929  0.37590861  1
  Pr3+  Pr41  1  0.33572251  0.65213686  0.87512407  1
  Pr3+  Pr42  1  0.16901287  0.84788723  0.12457169  1
  Pr3+  Pr43  1  0.17141812  0.50974914  0.62626403  1
  Pr3+  Pr44  1  0.33497007  0.34335227  0.12535059  1
  Pr3+  Pr45  1  0.16295390  0.15297839  0.87407748  1
  Pr3+  Pr46  1  0.16536968  0.82300887  0.37484986  1
  Pr3+  Pr47  1  0.99926286  0.31855006  0.37476003  1
  Pr3+  Pr48  1  0.66794693  0.65385237  0.87520320  1
  Pr3+  Pr49  1  0.33695430  0.65276053  0.37511309  1
  Pr3+  Pr50  1  -0.00406023  0.67962899  0.12470776  1
  Pr3+  Pr51  1  -0.00732878  0.68047675  0.62564369  1
  Pr3+  Pr52  1  0.49693397  0.82359535  0.37318624  1
  Pr3+  Pr53  1  0.33959392  0.31867812  0.37689148  1
  Pr3+  Pr54  1  0.49664155  0.15211716  0.87684942  1
  Pr3+  Pr55  1  0.33132307  0.67712321  0.62651538  1
  Pr3+  Pr56  1  0.16420912  0.48444546  0.37493449  1
  Pr3+  Pr57  1  -0.00545371  0.01592274  0.12322574  1
  Pr3+  Pr58  1  0.50385057  0.17988446  0.62599064  1
  Pr3+  Pr59  1  0.66882391  0.32247940  0.87394974  1
  Pr3+  Pr60  1  0.33840177  0.32228240  0.87290585  1
  Pr3+  Pr61  1  0.16380553  0.82379828  0.87512626  1
  Pr3+  Pr62  1  0.83399684  0.50870249  0.12635672  1
  Pr3+  Pr63  1  0.82929962  0.48371564  0.37625763  1
  Pr3+  Pr64  1  0.66776908  0.01235402  0.62730142  1
  Pr3+  Pr65  1  0.82858343  0.82320644  0.37694973  1
  Pr3+  Pr66  1  0.67030562  0.99241121  0.37347270  1
  Pr3+  Pr67  1  1.00401135  0.32123114  0.87518636  1
  Pr3+  Pr68  1  0.49759511  0.82369852  0.87687042  1
  Pr3+  Pr69  1  0.16799568  0.17983324  0.12550356  1
  Pr3+  Pr70  1  0.16806841  0.51049666  0.12389318  1
  Pr3+  Pr71  1  0.49839641  0.15148585  0.37343100  1
  Mn3.30+  Mn72  1  0.16608530  0.00106066  -0.00163470  1
  Mn3.30+  Mn73  1  0.16694235  0.00169898  0.49946943  1
  Mn3.30+  Mn74  1  0.16662520  0.33281545  0.00142139  1
  Mn3.30+  Mn75  1  0.16910408  0.33066500  0.50028737  1
  Mn3.30+  Mn76  1  0.16585085  0.66714947  0.00079178  1
  Mn3.30+  Mn77  1  0.16555202  0.66666136  0.49973869  1
  Mn3.30+  Mn78  1  0.50031410  0.00060695  0.00108033  1
  Mn3.30+  Mn79  1  0.49812398  0.00008771  0.50060795  1
  Mn3.30+  Mn80  1  0.50296091  0.33098984  0.00049355  1
  Mn3.30+  Mn81  1  0.50234867  0.33111045  0.50195722  1
  Mn3.30+  Mn82  1  0.49946215  0.66826155  0.00096222  1
  Mn3.30+  Mn83  1  0.50014009  0.66631211  0.50010629  1
  Mn3.30+  Mn84  1  0.83077763  0.00303586  0.00030910  1
  Mn3.30+  Mn85  1  0.83354305  0.00240948  0.50131687  1
  Mn3.30+  Mn86  1  0.83434078  0.33115857  0.00220870  1
  Mn3.30+  Mn87  1  0.83249354  0.32904460  0.50160360  1
  Mn3.30+  Mn88  1  0.83211106  0.66708113  0.00063394  1
  Mn3.30+  Mn89  1  0.83300889  0.66685231  0.50094986  1
  Mn3.30+  Mn90  1  -0.00404309  0.16833829  0.24949641  1
  Mn3.30+  Mn91  1  -0.00004363  0.16486028  0.74764434  1
  Mn3.30+  Mn92  1  -0.00064752  0.49733150  0.24960930  1
  Mn3.30+  Mn93  1  0.00037249  0.49854640  0.74933509  1
  Mn3.30+  Mn94  1  -0.00116865  0.83490458  0.24985865  1
  Mn3.30+  Mn95  1  -0.00211950  0.83615752  0.75049713  1
  Mn3.30+  Mn96  1  0.33596735  0.16463300  0.24892019  1
  Mn3.30+  Mn97  1  0.33146076  0.16683339  0.74995297  1
  Mn3.30+  Mn98  1  0.33455991  0.49871270  0.24975068  1
  Mn3.30+  Mn99  1  0.33410322  0.49778921  0.74939955  1
  Mn3.30+  Mn100  1  0.33556646  0.83523054  0.24788004  1
  Mn3.30+  Mn101  1  0.33269136  0.83477881  0.75147979  1
  Mn3.30+  Mn102  1  0.66785884  0.16759611  0.24733118  1
  Mn3.30+  Mn103  1  0.66793902  0.16757479  0.74892853  1
  Mn3.30+  Mn104  1  0.66762794  0.49705931  0.24949070  1
  Mn3.30+  Mn105  1  0.66641681  0.49846871  0.74924194  1
  Mn3.30+  Mn106  1  0.66433348  0.83694266  0.24877586  1
  Mn3.30+  Mn107  1  0.66810528  0.83419949  0.74894748  1
  Mn3.30+  Mn108  1  0.16708957  0.00094212  0.25083672  1
  Mn3.30+  Mn109  1  0.16562079  0.00183942  0.75112460  1
  Mn3.30+  Mn110  1  0.16625813  0.33195056  0.24902483  1
  Mn3.30+  Mn111  1  0.16921294  0.33151463  0.74990964  1
  Mn3.30+  Mn112  1  0.16708135  0.66675765  0.24965280  1
  Mn3.30+  Mn113  1  0.16412408  0.66672340  0.74995553  1
  Mn3.30+  Mn114  1  0.50135322  0.00115643  0.24760814  1
  Mn3.30+  Mn115  1  0.49695946  -0.00008688  0.75078393  1
  Mn3.30+  Mn116  1  0.50401769  0.32942471  0.24953676  1
  Mn3.30+  Mn117  1  0.50163396  0.33260147  0.74840029  1
  Mn3.30+  Mn118  1  0.50006977  0.66776623  0.24959122  1
  Mn3.30+  Mn119  1  0.49946284  0.66654834  0.74968034  1
  Mn3.30+  Mn120  1  0.83022786  0.00509833  0.24696863  1
  Mn3.30+  Mn121  1  0.83507058  0.00064248  0.75042970  1
  Mn3.30+  Mn122  1  0.83271923  0.32932397  0.24773096  1
  Mn3.30+  Mn123  1  0.83459821  0.33104900  0.74816010  1
  Mn3.30+  Mn124  1  0.83213331  0.66715070  0.25016009  1
  Mn3.30+  Mn125  1  0.83310480  0.66701357  0.74868176  1
  Mn3.30+  Mn126  1  -0.00242509  0.16760309  0.00066863  1
  Mn3.30+  Mn127  1  -0.00153413  0.16549408  0.50120677  1
  Mn3.30+  Mn128  1  -0.00054199  0.49787314  0.00146319  1
  Mn3.30+  Mn129  1  0.00027879  0.49808222  0.49999672  1
  Mn3.30+  Mn130  1  -0.00115846  0.83604929  -0.00042293  1
  Mn3.30+  Mn131  1  -0.00236178  0.83468288  0.49980957  1
  Mn3.30+  Mn132  1  0.33450176  0.16558394  0.00085846  1
  Mn3.30+  Mn133  1  0.33279536  0.16601979  0.50053763  1
  Mn3.30+  Mn134  1  0.33509727  0.49835346  0.00019672  1
  Mn3.30+  Mn135  1  0.33375158  0.49796186  0.50106577  1
  Mn3.30+  Mn136  1  0.33498202  0.83550814  0.00138431  1
  Mn3.30+  Mn137  1  0.33326481  0.83429317  0.49923714  1
  Mn3.30+  Mn138  1  0.66683619  0.16724920  0.00193715  1
  Mn3.30+  Mn139  1  0.66896740  0.16748330  0.50113133  1
  Mn3.30+  Mn140  1  0.66716300  0.49756370  0.00016407  1
  Mn3.30+  Mn141  1  0.66662572  0.49812749  0.50178067  1
  Mn3.30+  Mn142  1  0.66490898  0.83672884  0.00029234  1
  Mn3.30+  Mn143  1  0.66707510  0.83460508  0.50164019  1
  O2-  O144  1  0.02626094  0.16043093  0.12499026  1
  O2-  O145  1  0.02844468  0.16763274  0.62435828  1
  O2-  O146  1  0.02499282  0.49348685  0.12611829  1
  O2-  O147  1  0.02770266  0.49274439  0.62078300  1
  O2-  O148  1  0.02407535  0.82947854  0.12544684  1
  O2-  O149  1  0.02477874  0.82813036  0.62376089  1
  O2-  O150  1  0.36291952  0.15914615  0.12558230  1
  O2-  O151  1  0.35985371  0.15811255  0.62407732  1
  O2-  O152  1  0.36090560  0.49445046  0.12597595  1
  O2-  O153  1  0.35089088  0.49772450  0.62357151  1
  O2-  O154  1  0.36309806  0.82592413  0.12500568  1
  O2-  O155  1  0.35719059  0.82540486  0.62666393  1
  O2-  O156  1  0.69178614  0.15990413  0.12307601  1
  O2-  O157  1  0.69146527  0.15806883  0.62591415  1
  O2-  O158  1  0.68974829  0.49470574  0.12405411  1
  O2-  O159  1  0.68361084  0.50156357  0.62463745  1
  O2-  O160  1  0.69199823  0.82617366  0.12462743  1
  O2-  O161  1  0.69444266  0.82440164  0.62494529  1
  O2-  O162  1  0.13942643  0.32779628  0.12663132  1
  O2-  O163  1  0.14293707  0.32900992  0.62241147  1
  O2-  O164  1  0.14029809  0.66166736  0.12566683  1
  O2-  O165  1  0.13833856  0.66026268  0.62325404  1
  O2-  O166  1  0.13946542  0.99561963  0.12586412  1
  O2-  O167  1  0.14739874  0.99257919  0.62488184  1
  O2-  O168  1  0.47771189  0.32797918  0.12597814  1
  O2-  O169  1  0.47365287  0.32664380  0.62445702  1
  O2-  O170  1  0.47564058  0.65699173  0.12726584  1
  O2-  O171  1  0.47537938  0.66605350  0.62526633  1
  O2-  O172  1  0.47433481  0.99468636  0.12453506  1
  O2-  O173  1  0.47030471  0.99441427  0.62651658  1
  O2-  O174  1  0.80693545  0.32903105  0.12446049  1
  O2-  O175  1  0.80981150  0.32445928  0.62550428  1
  O2-  O176  1  0.80563189  0.65885573  0.12651980  1
  O2-  O177  1  0.80787280  0.66000781  0.62439250  1
  O2-  O178  1  0.80412956  0.99360132  0.12353947  1
  O2-  O179  1  0.81047961  0.99179803  0.62585934  1
  O2-  O180  1  0.30880921  0.17389853  0.37435706  1
  O2-  O181  1  0.30684514  0.17657928  0.87676740  1
  O2-  O182  1  0.30839094  0.50387821  0.37412594  1
  O2-  O183  1  0.31477206  0.50207434  0.87620206  1
  O2-  O184  1  0.30898373  0.83901182  0.37221452  1
  O2-  O185  1  0.30749989  0.83942318  0.87635613  1
  O2-  O186  1  0.64234109  0.16345569  0.37626726  1
  O2-  O187  1  0.64098487  0.17408906  0.87397892  1
  O2-  O188  1  0.64421850  0.50450294  0.37514206  1
  O2-  O189  1  0.64864233  0.50346061  0.87627816  1
  O2-  O190  1  0.64002863  0.84254437  0.37495539  1
  O2-  O191  1  0.64155960  0.83431712  0.87514705  1
  O2-  O192  1  0.97192126  0.17104532  0.37312282  1
  O2-  O193  1  0.97510802  0.17514840  0.87632279  1
  O2-  O194  1  0.97386075  0.50546655  0.37514671  1
  O2-  O195  1  0.97399460  0.50469252  0.87821077  1
  O2-  O196  1  0.97357560  0.83901458  0.37334780  1
  O2-  O197  1  0.97500229  0.83855127  0.87744473  1
  O2-  O198  1  0.19476360  0.00593563  0.37421055  1
  O2-  O199  1  0.19535995  0.00567712  0.87510831  1
  O2-  O200  1  0.19510277  0.33665699  0.37336100  1
  O2-  O201  1  0.19325512  0.33267791  0.87785755  1
  O2-  O202  1  0.19299913  0.67326574  0.37396451  1
  O2-  O203  1  0.19082165  0.67424444  0.87719718  1
  O2-  O204  1  0.52595076  0.00313902  0.37358326  1
  O2-  O205  1  0.51833336  0.00315152  0.87568716  1
  O2-  O206  1  0.52038382  0.33420069  0.37511002  1
  O2-  O207  1  0.52344194  0.33110692  0.87443115  1
  O2-  O208  1  0.52458728  0.67541940  0.37298786  1
  O2-  O209  1  0.52328510  0.67526727  0.87494399  1
  O2-  O210  1  0.85351502  0.00785170  0.37279199  1
  O2-  O211  1  0.85911498  0.00615707  0.87642834  1
  O2-  O212  1  0.85622562  0.33781558  0.37410642  1
  O2-  O213  1  0.86026180  0.33875806  0.87582693  1
  O2-  O214  1  0.85864524  0.67528265  0.37468207  1
  O2-  O215  1  0.85890226  0.67455104  0.87496361  1
  O2-  O216  1  0.23689760  0.09483938  0.02197944  1
  O2-  O217  1  0.23675622  0.09805182  0.52119306  1
  O2-  O218  1  0.24133585  0.42525709  0.02469546  1
  O2-  O219  1  0.23553089  0.42965375  0.51565780  1
  O2-  O220  1  0.24011733  0.76228824  0.02265173  1
  O2-  O221  1  0.23730340  0.76099004  0.52014819  1
  O2-  O222  1  0.56782076  0.09812655  0.01623220  1
  O2-  O223  1  0.56954812  0.09314208  0.52089392  1
  O2-  O224  1  0.57295957  0.42757264  0.01860415  1
  O2-  O225  1  0.57345514  0.42682286  0.51280345  1
  O2-  O226  1  0.57049765  0.76326637  0.02184582  1
  O2-  O227  1  0.57275791  0.76251029  0.52004349  1
  O2-  O228  1  0.90358142  0.09813793  0.02262627  1
  O2-  O229  1  0.90365093  0.09597651  0.51904318  1
  O2-  O230  1  0.90288121  0.42981916  0.01988324  1
  O2-  O231  1  0.91041305  0.42320378  0.51615773  1
  O2-  O232  1  0.90406559  0.76057182  0.02239500  1
  O2-  O233  1  0.90305855  0.76135553  0.52140809  1
  O2-  O234  1  0.26349833  0.25840411  0.22815375  1
  O2-  O235  1  0.26490711  0.26345146  0.73048988  1
  O2-  O236  1  0.26080737  0.59512479  0.22850552  1
  O2-  O237  1  0.25762862  0.59486007  0.73146442  1
  O2-  O238  1  0.26167015  0.92546278  0.22539728  1
  O2-  O239  1  0.26140523  0.92657405  0.72932623  1
  O2-  O240  1  0.59916867  0.26168067  0.22975364  1
  O2-  O241  1  0.59554496  0.26075071  0.72691064  1
  O2-  O242  1  0.59569546  0.59514600  0.23087348  1
  O2-  O243  1  0.59462415  0.59764066  0.73633265  1
  O2-  O244  1  0.59786161  0.93332380  0.22938155  1
  O2-  O245  1  0.59381270  0.92426692  0.72640803  1
  O2-  O246  1  0.93329234  0.26637860  0.23053042  1
  O2-  O247  1  0.93111127  0.26182641  0.73304483  1
  O2-  O248  1  0.92982974  0.59370914  0.22977408  1
  O2-  O249  1  0.92809061  0.59779289  0.73374872  1
  O2-  O250  1  0.92435656  0.93256328  0.22974896  1
  O2-  O251  1  0.92738983  0.92706744  0.73542914  1
  O2-  O252  1  0.09523371  0.23703133  0.27173571  1
  O2-  O253  1  0.09494609  0.23853962  0.77101180  1
  O2-  O254  1  0.09376854  0.57037836  0.27038955  1
  O2-  O255  1  0.09111543  0.57382163  0.76853083  1
  O2-  O256  1  0.09505211  0.90713468  0.27169115  1
  O2-  O257  1  0.09827729  0.90470082  0.76811856  1
  O2-  O258  1  0.42837244  0.23800159  0.27080553  1
  O2-  O259  1  0.42912977  0.23590646  0.76967997  1
  O2-  O260  1  0.42803259  0.57051223  0.27236922  1
  O2-  O261  1  0.42281973  0.57788902  0.76783896  1
  O2-  O262  1  0.43000148  0.90483713  0.26854567  1
  O2-  O263  1  0.42936177  0.90264910  0.76793937  1
  O2-  O264  1  0.76617384  0.23448609  0.26738834  1
  O2-  O265  1  0.76110628  0.24184888  0.77428615  1
  O2-  O266  1  0.76251638  0.57294940  0.27188173  1
  O2-  O267  1  0.76023966  0.57489328  0.77230734  1
  O2-  O268  1  0.76168333  0.90475903  0.26993708  1
  O2-  O269  1  0.76185877  0.90543565  0.76815862  1
  O2-  O270  1  0.07115755  0.07410836  0.47493711  1
  O2-  O271  1  0.06858605  0.07245019  0.97894953  1
  O2-  O272  1  0.07425120  0.40455424  0.47614930  1
  O2-  O273  1  0.07053041  0.40556541  0.98224506  1
  O2-  O274  1  0.07130547  0.73878939  0.47796088  1
  O2-  O275  1  0.07197084  0.74001569  0.98068541  1
  O2-  O276  1  0.40233849  0.06974479  0.47788195  1
  O2-  O277  1  0.40140042  0.07034298  0.97904365  1
  O2-  O278  1  0.40804538  0.40494817  0.47930989  1
  O2-  O279  1  0.40632578  0.40051913  0.98543713  1
  O2-  O280  1  0.40395343  0.73879137  0.47971563  1
  O2-  O281  1  0.40228409  0.73931394  0.97893352  1
  O2-  O282  1  0.73469459  0.06882587  0.48634639  1
  O2-  O283  1  0.74048817  0.07650009  0.97787746  1
  O2-  O284  1  0.74515314  0.40834569  0.48504940  1
  O2-  O285  1  0.74275856  0.40545536  0.97819356  1
  O2-  O286  1  0.73625883  0.74041737  0.47684619  1
  O2-  O287  1  0.73682908  0.73890855  0.98081964  1
  O2-  O288  1  0.09482253  0.23986961  0.47600439  1
  O2-  O289  1  0.09541022  0.23705628  0.98064631  1
  O2-  O290  1  0.09571642  0.57149134  0.47608222  1
  O2-  O291  1  0.08981270  0.57337162  0.98372251  1
  O2-  O292  1  0.09480094  0.90612157  0.47821464  1
  O2-  O293  1  0.09772935  0.90538100  0.98197928  1
  O2-  O294  1  0.42950508  0.23454993  0.48030847  1
  O2-  O295  1  0.42735668  0.23828224  0.97939179  1
  O2-  O296  1  0.42633904  0.57287796  0.47652833  1
  O2-  O297  1  0.42509523  0.57558577  0.98343941  1
  O2-  O298  1  0.43135544  0.90324608  0.48261603  1
  O2-  O299  1  0.42867344  0.90479252  0.98162894  1
  O2-  O300  1  0.76429946  0.23465650  0.48127198  1
  O2-  O301  1  0.76186832  0.24081855  0.97638020  1
  O2-  O302  1  0.76069413  0.57503347  0.47675556  1
  O2-  O303  1  0.76212263  0.57255836  0.98017332  1
  O2-  O304  1  0.75889965  0.90750566  0.47826161  1
  O2-  O305  1  0.76370882  0.90223580  0.98192250  1
  O2-  O306  1  0.06966985  0.07382422  0.27064183  1
  O2-  O307  1  0.07098108  0.07204761  0.77483012  1
  O2-  O308  1  0.07249040  0.40718677  0.27433094  1
  O2-  O309  1  0.07446329  0.40160605  0.76658943  1
  O2-  O310  1  0.07405213  0.73791169  0.27034889  1
  O2-  O311  1  0.07046421  0.73987056  0.77067154  1
  O2-  O312  1  0.40364673  0.06939770  0.27216659  1
  O2-  O313  1  0.39931235  0.07212599  0.77114764  1
  O2-  O314  1  0.40644162  0.40265879  0.26907504  1
  O2-  O315  1  0.40739163  0.40288766  0.76591151  1
  O2-  O316  1  0.40310362  0.73789352  0.27071924  1
  O2-  O317  1  0.40360731  0.74003668  0.77164187  1
  O2-  O318  1  0.73512789  0.07155203  0.26701293  1
  O2-  O319  1  0.74065524  0.07383814  0.76715272  1
  O2-  O320  1  0.74353412  0.40748636  0.26780223  1
  O2-  O321  1  0.74457477  0.40685064  0.76914450  1
  O2-  O322  1  0.73536378  0.74100777  0.27064734  1
  O2-  O323  1  0.73816065  0.73841546  0.77165464  1
  O2-  O324  1  0.23862268  0.09475055  0.22816666  1
  O2-  O325  1  0.23481689  0.09760339  0.72919448  1
  O2-  O326  1  0.23937279  0.42765349  0.22842809  1
  O2-  O327  1  0.23886005  0.42652501  0.73129335  1
  O2-  O328  1  0.24041616  0.76260874  0.22783497  1
  O2-  O329  1  0.23769390  0.76082504  0.72968502  1
  O2-  O330  1  0.56750017  0.09885044  0.23192734  1
  O2-  O331  1  0.57045590  0.09292716  0.73127335  1
  O2-  O332  1  0.56914006  0.42891909  0.23433903  1
  O2-  O333  1  0.57724737  0.42352040  0.73502422  1
  O2-  O334  1  0.57120050  0.76500570  0.22834277  1
  O2-  O335  1  0.57247618  0.76053204  0.72921563  1
  O2-  O336  1  0.90480281  0.09608883  0.22428113  1
  O2-  O337  1  0.90279993  0.09899533  0.73191756  1
  O2-  O338  1  0.90391874  0.42936406  0.23269710  1
  O2-  O339  1  0.90984389  0.42440366  0.73166310  1
  O2-  O340  1  0.90389784  0.76066829  0.22785197  1
  O2-  O341  1  0.90319717  0.76122930  0.72829728  1
  O2-  O342  1  0.26249736  0.25848454  0.02543713  1
  O2-  O343  1  0.26613746  0.26444262  0.51821371  1
  O2-  O344  1  0.25882916  0.59390663  0.02097879  1
  O2-  O345  1  0.25990888  0.59610437  0.51963148  1
  O2-  O346  1  0.26196783  0.92576037  0.02451187  1
  O2-  O347  1  0.26146638  0.92559662  0.52050277  1
  O2-  O348  1  0.59900182  0.26390927  0.01823678  1
  O2-  O349  1  0.59585617  0.25858310  0.52428942  1
  O2-  O350  1  0.59494266  0.59520990  0.01917758  1
  O2-  O351  1  0.59565009  0.59834668  0.51386028  1
  O2-  O352  1  0.59555589  0.93021982  0.02053223  1
  O2-  O353  1  0.59445239  0.92729002  0.52453534  1
  O2-  O354  1  0.93127913  0.26489813  0.01903883  1
  O2-  O355  1  0.93206760  0.26204564  0.51689581  1
  O2-  O356  1  0.92737049  0.59416118  0.02219971  1
  O2-  O357  1  0.93249126  0.59609488  0.51592470  1
  O2-  O358  1  0.92540348  0.92919261  0.02248044  1
  O2-  O359  1  0.92634771  0.92911192  0.51135850  1
