# generated using pymatgen
data_Sr7Ca15Pr50Mn72O216
_symmetry_space_group_name_H-M   'P 1'
_cell_length_a   16.55834400
_cell_length_b   16.60449157
_cell_length_c   15.59385610
_cell_angle_alpha   90.00138629
_cell_angle_beta   89.99705090
_cell_angle_gamma   90.00138903
_symmetry_Int_Tables_number   1
_chemical_formula_structural   Sr7Ca15Pr50Mn72O216
_chemical_formula_sum   'Sr7 Ca15 Pr50 Mn72 O216'
_cell_volume   4287.41975118
_cell_formula_units_Z   1
loop_
 _symmetry_equiv_pos_site_id
 _symmetry_equiv_pos_as_xyz
  1  'x, y, z'
loop_
 _atom_type_symbol
 _atom_type_oxidation_number
  Sr2+  2.0
  Ca2+  2.0
  Pr3+  3.0
  Mn3.30+  3.3
  O2-  -2.0
loop_
 _atom_site_type_symbol
 _atom_site_label
 _atom_site_symmetry_multiplicity
 _atom_site_fract_x
 _atom_site_fract_y
 _atom_site_fract_z
 _atom_site_occupancy
  Sr2+  Sr0  1  0.50235810  0.17617747  0.62497249  1
  Sr2+  Sr1  1  0.66554599  0.01124418  0.12573832  1
  Sr2+  Sr2  1  0.66764138  0.65737009  0.87494994  1
  Sr2+  Sr3  1  -0.00331707  0.67798266  0.62197000  1
  Sr2+  Sr4  1  0.33212836  0.67846396  0.62404826  1
  Sr2+  Sr5  1  -0.00120729  0.34277424  0.12526236  1
  Sr2+  Sr6  1  0.50131130  0.17386151  0.12466745  1
  Ca2+  Ca7  1  0.67349957  0.65008596  0.37508802  1
  Ca2+  Ca8  1  0.66384907  0.68107001  0.12877716  1
  Ca2+  Ca9  1  0.99794297  0.65298213  0.37637159  1
  Ca2+  Ca10  1  0.50507398  0.84575645  0.62438115  1
  Ca2+  Ca11  1  0.82980737  0.81726680  0.37525399  1
  Ca2+  Ca12  1  0.83010257  0.15148383  0.87525725  1
  Ca2+  Ca13  1  0.66200240  0.68327868  0.62191416  1
  Ca2+  Ca14  1  0.83248496  0.48882101  0.37484413  1
  Ca2+  Ca15  1  1.00028978  0.98705355  0.37404954  1
  Ca2+  Ca16  1  0.83181821  0.15200290  0.37469412  1
  Ca2+  Ca17  1  0.83781384  0.17957043  0.62465720  1
  Ca2+  Ca18  1  0.33812546  0.31614428  0.87492304  1
  Ca2+  Ca19  1  0.16420406  0.15126482  0.87632933  1
  Ca2+  Ca20  1  -0.00583720  0.01578399  0.12672420  1
  Ca2+  Ca21  1  0.33005458  0.01644440  0.12438228  1
  Pr3+  Pr22  1  0.16055325  0.15157025  0.37472780  1
  Pr3+  Pr23  1  0.16853966  0.51501806  0.62430126  1
  Pr3+  Pr24  1  0.83499179  0.51647367  0.62309000  1
  Pr3+  Pr25  1  1.00152374  0.98982384  0.87669452  1
  Pr3+  Pr26  1  0.16748382  0.84471750  0.62333424  1
  Pr3+  Pr27  1  0.33179512  0.34549578  0.62673225  1
  Pr3+  Pr28  1  0.33655907  0.32031984  0.37572151  1
  Pr3+  Pr29  1  0.99958358  0.65438909  0.87424677  1
  Pr3+  Pr30  1  0.49656548  0.48528585  0.87365477  1
  Pr3+  Pr31  1  0.16996183  0.17760133  0.62612798  1
  Pr3+  Pr32  1  0.33892674  0.65530657  0.87416681  1
  Pr3+  Pr33  1  0.33120080  0.34383957  0.12370582  1
  Pr3+  Pr34  1  0.83461603  0.51268575  0.12713193  1
  Pr3+  Pr35  1  0.82934183  0.48825208  0.87473411  1
  Pr3+  Pr36  1  0.67214906  0.98676063  0.37338508  1
  Pr3+  Pr37  1  0.66520980  0.01162157  0.62358423  1
  Pr3+  Pr38  1  0.33682779  0.65382961  0.37616489  1
  Pr3+  Pr39  1  0.83738447  0.17769859  0.12516786  1
  Pr3+  Pr40  1  0.66989243  0.98951815  0.87631525  1
  Pr3+  Pr41  1  0.16748502  0.51177588  0.12562715  1
  Pr3+  Pr42  1  0.16184485  0.48906779  0.37605589  1
  Pr3+  Pr43  1  -0.00500573  0.01370428  0.62353810  1
  Pr3+  Pr44  1  0.49794169  0.15401309  0.87443166  1
  Pr3+  Pr45  1  0.16856253  0.85150901  0.12621372  1
  Pr3+  Pr46  1  0.50360104  0.84664969  0.12574269  1
  Pr3+  Pr47  1  0.67379474  0.31939618  0.37544750  1
  Pr3+  Pr48  1  0.67077213  0.31800819  0.87379583  1
  Pr3+  Pr49  1  0.49904625  0.82165986  0.87450521  1
  Pr3+  Pr50  1  0.83489082  0.84881588  0.12778720  1
  Pr3+  Pr51  1  0.50659382  0.51310717  0.12559157  1
  Pr3+  Pr52  1  1.00344922  0.31599486  0.87651579  1
  Pr3+  Pr53  1  0.82896935  0.82187913  0.87574324  1
  Pr3+  Pr54  1  0.16000260  0.81959160  0.37483258  1
  Pr3+  Pr55  1  0.50003482  0.15350138  0.37543955  1
  Pr3+  Pr56  1  0.33448102  0.98972087  0.87640300  1
  Pr3+  Pr57  1  0.16494291  0.48735734  0.87398896  1
  Pr3+  Pr58  1  0.49964094  0.82044426  0.37513017  1
  Pr3+  Pr59  1  0.16366371  0.82198735  0.87520234  1
  Pr3+  Pr60  1  0.50072438  0.48843332  0.37616178  1
  Pr3+  Pr61  1  -0.00364988  0.34533639  0.62517589  1
  Pr3+  Pr62  1  0.16863697  0.17757008  0.12336589  1
  Pr3+  Pr63  1  0.66584294  0.34501967  0.62471979  1
  Pr3+  Pr64  1  -0.00518835  0.67908009  0.12774625  1
  Pr3+  Pr65  1  0.33016962  0.68063220  0.12616693  1
  Pr3+  Pr66  1  0.83565839  0.84307943  0.62310712  1
  Pr3+  Pr67  1  0.99885105  0.32232764  0.37378824  1
  Pr3+  Pr68  1  0.33278270  0.00980670  0.62469161  1
  Pr3+  Pr69  1  0.66412823  0.34171050  0.12517886  1
  Pr3+  Pr70  1  0.50543039  0.51531660  0.62426641  1
  Pr3+  Pr71  1  0.33595832  0.98833853  0.37317654  1
  Mn3.30+  Mn72  1  0.16589184  0.00213702  0.00160047  1
  Mn3.30+  Mn73  1  0.16388236  -0.00109827  0.49862584  1
  Mn3.30+  Mn74  1  0.16847198  0.33166647  -0.00285809  1
  Mn3.30+  Mn75  1  0.16547550  0.33267755  0.50057427  1
  Mn3.30+  Mn76  1  0.16607188  0.66742793  0.00041132  1
  Mn3.30+  Mn77  1  0.16481527  0.66746207  0.49909027  1
  Mn3.30+  Mn78  1  0.49988541  0.00038895  0.00140097  1
  Mn3.30+  Mn79  1  0.50216533  -0.00168584  0.50020476  1
  Mn3.30+  Mn80  1  0.49915517  0.33153138  -0.00100330  1
  Mn3.30+  Mn81  1  0.50230547  0.33276329  0.50071416  1
  Mn3.30+  Mn82  1  0.50159116  0.66637330  0.00102206  1
  Mn3.30+  Mn83  1  0.50441746  0.66882109  0.50018356  1
  Mn3.30+  Mn84  1  0.83504744  0.00210722  0.00162401  1
  Mn3.30+  Mn85  1  0.83467317  -0.00014788  0.49706358  1
  Mn3.30+  Mn86  1  0.83407651  0.33197873  -0.00097739  1
  Mn3.30+  Mn87  1  0.83348292  0.33234512  0.50021854  1
  Mn3.30+  Mn88  1  0.83008764  0.66772828  0.00305224  1
  Mn3.30+  Mn89  1  0.83049221  0.66753168  0.49654154  1
  Mn3.30+  Mn90  1  -0.00168734  0.16463694  0.25134916  1
  Mn3.30+  Mn91  1  -0.00083423  0.16554539  0.75111837  1
  Mn3.30+  Mn92  1  -0.00213030  0.50037797  0.25111504  1
  Mn3.30+  Mn93  1  -0.00162470  0.49971429  0.75002116  1
  Mn3.30+  Mn94  1  -0.00247703  0.83474201  0.25248049  1
  Mn3.30+  Mn95  1  -0.00110012  0.83344813  0.74939209  1
  Mn3.30+  Mn96  1  0.33283589  0.16589440  0.24910379  1
  Mn3.30+  Mn97  1  0.33246182  0.16669476  0.75152383  1
  Mn3.30+  Mn98  1  0.33435413  0.49990910  0.24977618  1
  Mn3.30+  Mn99  1  0.33314191  0.49922018  0.75054366  1
  Mn3.30+  Mn100  1  0.33211900  0.83522693  0.25009313  1
  Mn3.30+  Mn101  1  0.33428637  0.83404965  0.74787095  1
  Mn3.30+  Mn102  1  0.66923228  0.16554571  0.25074881  1
  Mn3.30+  Mn103  1  0.67031978  0.16590498  0.74826394  1
  Mn3.30+  Mn104  1  0.66935196  0.50084139  0.25088918  1
  Mn3.30+  Mn105  1  0.66656449  0.50223296  0.74964167  1
  Mn3.30+  Mn106  1  0.66845658  0.83059362  0.25160389  1
  Mn3.30+  Mn107  1  0.66636714  0.83287814  0.74772769  1
  Mn3.30+  Mn108  1  0.16400087  0.00097489  0.24880820  1
  Mn3.30+  Mn109  1  0.16558407  0.00047111  0.75070908  1
  Mn3.30+  Mn110  1  0.16667944  0.33322868  0.24946020  1
  Mn3.30+  Mn111  1  0.16746592  0.33093116  0.75268869  1
  Mn3.30+  Mn112  1  0.16349185  0.66701425  0.25091357  1
  Mn3.30+  Mn113  1  0.16728712  0.66785357  0.74975117  1
  Mn3.30+  Mn114  1  0.50084101  0.00022022  0.24903097  1
  Mn3.30+  Mn115  1  0.50127536  -0.00128888  0.74873074  1
  Mn3.30+  Mn116  1  0.50128680  0.33240851  0.25053820  1
  Mn3.30+  Mn117  1  0.49957214  0.33211377  0.74950362  1
  Mn3.30+  Mn118  1  0.50332598  0.66642940  0.25135264  1
  Mn3.30+  Mn119  1  0.50218280  0.66874640  0.74750731  1
  Mn3.30+  Mn120  1  0.83667016  0.00034052  0.25238133  1
  Mn3.30+  Mn121  1  0.83362607  0.00186321  0.74921521  1
  Mn3.30+  Mn122  1  0.83371370  0.33336163  0.25108243  1
  Mn3.30+  Mn123  1  0.83401260  0.33048491  0.74998922  1
  Mn3.30+  Mn124  1  0.83042612  0.66728726  0.25298833  1
  Mn3.30+  Mn125  1  0.83062554  0.66803521  0.74826972  1
  Mn3.30+  Mn126  1  0.00045335  0.16453446  -0.00085839  1
  Mn3.30+  Mn127  1  -0.00335661  0.16588918  0.49889213  1
  Mn3.30+  Mn128  1  -0.00107198  0.49912506  0.00075070  1
  Mn3.30+  Mn129  1  -0.00299061  0.50142086  0.49831307  1
  Mn3.30+  Mn130  1  -0.00086642  0.83488299  0.00239405  1
  Mn3.30+  Mn131  1  -0.00310648  0.83301478  0.49609746  1
  Mn3.30+  Mn132  1  0.33235000  0.16657895  -0.00134286  1
  Mn3.30+  Mn133  1  0.33321341  0.16626234  0.50044167  1
  Mn3.30+  Mn134  1  0.33447318  0.49903867  0.00016068  1
  Mn3.30+  Mn135  1  0.33340755  0.50022550  0.50015485  1
  Mn3.30+  Mn136  1  0.33240251  0.83541736  0.00139291  1
  Mn3.30+  Mn137  1  0.33414115  0.83363782  0.50033910  1
  Mn3.30+  Mn138  1  0.66785349  0.16584581  -0.00041227  1
  Mn3.30+  Mn139  1  0.67129425  0.16596428  0.50079695  1
  Mn3.30+  Mn140  1  0.66624766  0.50069294  -0.00022884  1
  Mn3.30+  Mn141  1  0.66967052  0.50193745  0.49900699  1
  Mn3.30+  Mn142  1  0.66662163  0.83247172  0.00208658  1
  Mn3.30+  Mn143  1  0.66815376  0.83078538  0.49833620  1
  O2-  O144  1  0.02485202  0.16190913  0.12514606  1
  O2-  O145  1  0.02669649  0.16295910  0.62505512  1
  O2-  O146  1  0.02385225  0.49973377  0.12355829  1
  O2-  O147  1  0.02463418  0.49419620  0.62455582  1
  O2-  O148  1  0.02605199  0.82407816  0.12625293  1
  O2-  O149  1  0.02342410  0.83170866  0.62251130  1
  O2-  O150  1  0.35099541  0.16311945  0.12511330  1
  O2-  O151  1  0.35226591  0.15907604  0.62508861  1
  O2-  O152  1  0.36188633  0.49267284  0.12600877  1
  O2-  O153  1  0.35938508  0.49299628  0.62619159  1
  O2-  O154  1  0.35874172  0.82636377  0.12695408  1
  O2-  O155  1  0.36029502  0.83507539  0.62408222  1
  O2-  O156  1  0.69175541  0.17020241  0.12661898  1
  O2-  O157  1  0.69673671  0.15951022  0.62482407  1
  O2-  O158  1  0.69091741  0.48910486  0.12474474  1
  O2-  O159  1  0.69200754  0.49150868  0.62426128  1
  O2-  O160  1  0.69038986  0.82681625  0.12861325  1
  O2-  O161  1  0.69246382  0.82901167  0.62226101  1
  O2-  O162  1  0.14837188  0.32727677  0.12347669  1
  O2-  O163  1  0.14005503  0.32534439  0.62751170  1
  O2-  O164  1  0.14000220  0.66012216  0.12508641  1
  O2-  O165  1  0.14658808  0.66413831  0.62314980  1
  O2-  O166  1  0.13663252  0.99814228  0.12550755  1
  O2-  O167  1  0.14046488  0.99381228  0.62400388  1
  O2-  O168  1  0.47593089  0.33064321  0.12708062  1
  O2-  O169  1  0.47625445  0.33197494  0.62606908  1
  O2-  O170  1  0.47284282  0.66049013  0.12687130  1
  O2-  O171  1  0.47945021  0.66101974  0.62312667  1
  O2-  O172  1  0.47365314  0.99464583  0.12637492  1
  O2-  O173  1  0.47692064  0.99320887  0.62454216  1
  O2-  O174  1  0.80846367  0.32547612  0.12346316  1
  O2-  O175  1  0.80949252  0.32389498  0.62607112  1
  O2-  O176  1  0.80550249  0.66003982  0.12671674  1
  O2-  O177  1  0.80617575  0.66389940  0.62120244  1
  O2-  O178  1  0.81324353  0.99703149  0.12697197  1
  O2-  O179  1  0.80798901  0.98948345  0.62268539  1
  O2-  O180  1  0.30643172  0.17144800  0.37625537  1
  O2-  O181  1  0.30660943  0.16900209  0.87357873  1
  O2-  O182  1  0.30732529  0.50489365  0.37301293  1
  O2-  O183  1  0.30841940  0.50979017  0.87544577  1
  O2-  O184  1  0.30516128  0.84077835  0.37269916  1
  O2-  O185  1  0.30734296  0.84008256  0.87604535  1
  O2-  O186  1  0.64357379  0.17106470  0.37576978  1
  O2-  O187  1  0.64244899  0.16942745  0.87241723  1
  O2-  O188  1  0.64294095  0.50363065  0.37496084  1
  O2-  O189  1  0.64086004  0.50266192  0.87562309  1
  O2-  O190  1  0.64152952  0.84087108  0.37442882  1
  O2-  O191  1  0.64401356  0.84046983  0.87450466  1
  O2-  O192  1  0.97358720  0.17588535  0.37630484  1
  O2-  O193  1  0.97223691  0.16852791  0.87390828  1
  O2-  O194  1  0.97570848  0.50311732  0.37573315  1
  O2-  O195  1  0.97437727  0.50551510  0.87604525  1
  O2-  O196  1  0.97243184  0.84492985  0.37327126  1
  O2-  O197  1  0.97394937  0.84113369  0.87814931  1
  O2-  O198  1  0.19224359  0.00396549  0.37383291  1
  O2-  O199  1  0.19026014  0.00219970  0.87591553  1
  O2-  O200  1  0.19255194  0.34028786  0.37475147  1
  O2-  O201  1  0.19752011  0.34222478  0.87430082  1
  O2-  O202  1  0.19248615  0.67052495  0.37447602  1
  O2-  O203  1  0.19403390  0.67349442  0.87713131  1
  O2-  O204  1  0.52501689  0.00434564  0.37476528  1
  O2-  O205  1  0.52399466  0.00357155  0.87381469  1
  O2-  O206  1  0.52711746  0.34010855  0.37537531  1
  O2-  O207  1  0.52605813  0.33748683  0.87186440  1
  O2-  O208  1  0.52893724  0.67171061  0.37523136  1
  O2-  O209  1  0.51809220  0.67272924  0.87465813  1
  O2-  O210  1  0.86091845  0.00965047  0.37546483  1
  O2-  O211  1  0.85817777  0.00436504  0.87546704  1
  O2-  O212  1  0.85634522  0.34408469  0.37681222  1
  O2-  O213  1  0.85973309  0.34277805  0.87391509  1
  O2-  O214  1  0.85894629  0.67381785  0.37389108  1
  O2-  O215  1  0.85595868  0.67260250  0.87790688  1
  O2-  O216  1  0.23661350  0.09460654  0.01872282  1
  O2-  O217  1  0.23552022  0.09252088  0.51886545  1
  O2-  O218  1  0.24006283  0.42930022  0.02155515  1
  O2-  O219  1  0.23700408  0.42581935  0.52230077  1
  O2-  O220  1  0.23705435  0.76300701  0.02222826  1
  O2-  O221  1  0.23734344  0.76460106  0.51556137  1
  O2-  O222  1  0.57341490  0.09398406  0.01220563  1
  O2-  O223  1  0.57611560  0.09298579  0.51671942  1
  O2-  O224  1  0.57104566  0.42788569  0.01866219  1
  O2-  O225  1  0.57270420  0.42979973  0.51915443  1
  O2-  O226  1  0.56754374  0.76100649  0.01792289  1
  O2-  O227  1  0.56852872  0.76598390  0.51836991  1
  O2-  O228  1  0.90602015  0.09414097  0.02012911  1
  O2-  O229  1  0.90521585  0.09511459  0.52517778  1
  O2-  O230  1  0.90170613  0.42859852  0.01793758  1
  O2-  O231  1  0.90580030  0.42599847  0.52422298  1
  O2-  O232  1  0.90466891  0.76298928  0.02253819  1
  O2-  O233  1  0.90119429  0.76309879  0.51602377  1
  O2-  O234  1  0.26227434  0.26206084  0.23195906  1
  O2-  O235  1  0.26058785  0.26014713  0.72641439  1
  O2-  O236  1  0.26255933  0.59403863  0.22898315  1
  O2-  O237  1  0.25931843  0.59133922  0.73250771  1
  O2-  O238  1  0.26062969  0.93253086  0.22663536  1
  O2-  O239  1  0.26137611  0.92748309  0.72921395  1
  O2-  O240  1  0.59672376  0.26363102  0.23566019  1
  O2-  O241  1  0.60119892  0.26073639  0.73189362  1
  O2-  O242  1  0.59553736  0.59305787  0.22727107  1
  O2-  O243  1  0.59575019  0.59452006  0.72687637  1
  O2-  O244  1  0.59193171  0.92419085  0.23253115  1
  O2-  O245  1  0.59788299  0.92743024  0.73090243  1
  O2-  O246  1  0.92628341  0.25974315  0.23319439  1
  O2-  O247  1  0.93398617  0.26318140  0.73357527  1
  O2-  O248  1  0.92601730  0.59496982  0.22910571  1
  O2-  O249  1  0.92288629  0.59525635  0.73332842  1
  O2-  O250  1  0.92933145  0.92794871  0.22577646  1
  O2-  O251  1  0.92750438  0.92944032  0.73055025  1
  O2-  O252  1  0.09267757  0.23792468  0.27032603  1
  O2-  O253  1  0.09732590  0.23589446  0.77425359  1
  O2-  O254  1  0.09658969  0.57046462  0.26782377  1
  O2-  O255  1  0.09299221  0.57235913  0.77034835  1
  O2-  O256  1  0.09834251  0.90258332  0.26647263  1
  O2-  O257  1  0.09382322  0.90538482  0.77029991  1
  O2-  O258  1  0.42790014  0.24147772  0.27450619  1
  O2-  O259  1  0.42596756  0.23711111  0.76975840  1
  O2-  O260  1  0.42941196  0.57228799  0.27224248  1
  O2-  O261  1  0.42834284  0.57200858  0.76882543  1
  O2-  O262  1  0.42751136  0.90610662  0.27169652  1
  O2-  O263  1  0.42483269  0.90759527  0.77359060  1
  O2-  O264  1  0.76326045  0.23837814  0.27236307  1
  O2-  O265  1  0.76373918  0.23820530  0.77435037  1
  O2-  O266  1  0.76497104  0.56704476  0.26889218  1
  O2-  O267  1  0.76232091  0.56918324  0.76659023  1
  O2-  O268  1  0.76447610  0.90530720  0.27061368  1
  O2-  O269  1  0.76172527  0.90698157  0.77050984  1
  O2-  O270  1  0.06856969  0.07205416  0.47871373  1
  O2-  O271  1  0.07176601  0.07201134  0.97842817  1
  O2-  O272  1  0.07115017  0.40543159  0.47978321  1
  O2-  O273  1  0.07759908  0.40429148  0.97660774  1
  O2-  O274  1  0.06937327  0.74079367  0.47496483  1
  O2-  O275  1  0.06972059  0.73968449  0.97831305  1
  O2-  O276  1  0.40545388  0.07290478  0.47983410  1
  O2-  O277  1  0.40536111  0.07436940  0.97809246  1
  O2-  O278  1  0.40455639  0.40753698  0.47925733  1
  O2-  O279  1  0.40525225  0.40374253  0.97780979  1
  O2-  O280  1  0.40515211  0.74124561  0.47505330  1
  O2-  O281  1  0.40368830  0.73783983  0.98228801  1
  O2-  O282  1  0.73817930  0.06805203  0.48108632  1
  O2-  O283  1  0.73990645  0.07355575  0.98114897  1
  O2-  O284  1  0.73693116  0.40207631  0.48524786  1
  O2-  O285  1  0.73739322  0.40449268  0.97884367  1
  O2-  O286  1  0.73434410  0.73537552  0.47793385  1
  O2-  O287  1  0.74142743  0.74312772  0.98181425  1
  O2-  O288  1  0.09519992  0.23842723  0.47954204  1
  O2-  O289  1  0.09563799  0.23717710  0.97734167  1
  O2-  O290  1  0.09426778  0.57024002  0.48291855  1
  O2-  O291  1  0.09515087  0.57319989  0.97817224  1
  O2-  O292  1  0.09605994  0.90393006  0.48104080  1
  O2-  O293  1  0.09599461  0.90503439  0.98134662  1
  O2-  O294  1  0.42769459  0.24103839  0.47810653  1
  O2-  O295  1  0.42880392  0.23867271  0.97892998  1
  O2-  O296  1  0.43003877  0.57434069  0.47898380  1
  O2-  O297  1  0.42938149  0.57111923  0.98006052  1
  O2-  O298  1  0.42526250  0.90724387  0.47531397  1
  O2-  O299  1  0.42653622  0.90556927  0.97949265  1
  O2-  O300  1  0.76419966  0.23786608  0.47659258  1
  O2-  O301  1  0.76286157  0.23872201  0.97698059  1
  O2-  O302  1  0.76478678  0.56753716  0.47981702  1
  O2-  O303  1  0.76280549  0.56818125  0.98363937  1
  O2-  O304  1  0.76247220  0.90317853  0.47640511  1
  O2-  O305  1  0.76259133  0.90906725  0.98226092  1
  O2-  O306  1  0.07098856  0.07190237  0.27527949  1
  O2-  O307  1  0.06826986  0.07049878  0.76743659  1
  O2-  O308  1  0.07456152  0.40737335  0.27107131  1
  O2-  O309  1  0.07369320  0.40249030  0.77208730  1
  O2-  O310  1  0.06698526  0.73832574  0.27320602  1
  O2-  O311  1  0.07233413  0.74086888  0.77364062  1
  O2-  O312  1  0.40638129  0.07429385  0.27201233  1
  O2-  O313  1  0.40488930  0.07275839  0.76972840  1
  O2-  O314  1  0.40649222  0.40571270  0.27227701  1
  O2-  O315  1  0.40172930  0.40623207  0.77246400  1
  O2-  O316  1  0.40485061  0.73762451  0.27170343  1
  O2-  O317  1  0.40465518  0.74177144  0.77167333  1
  O2-  O318  1  0.74107263  0.07159936  0.26976398  1
  O2-  O319  1  0.73807161  0.06943239  0.76870523  1
  O2-  O320  1  0.73586071  0.40190145  0.26544397  1
  O2-  O321  1  0.73830816  0.40507050  0.76929919  1
  O2-  O322  1  0.73584444  0.73476395  0.27131091  1
  O2-  O323  1  0.74098420  0.74331211  0.76838448  1
  O2-  O324  1  0.23282464  0.09666005  0.23350823  1
  O2-  O325  1  0.23932142  0.09183537  0.72896892  1
  O2-  O326  1  0.24095538  0.42877928  0.22843955  1
  O2-  O327  1  0.23697771  0.42764944  0.72730346  1
  O2-  O328  1  0.23592829  0.76178744  0.22929701  1
  O2-  O329  1  0.23777742  0.76557548  0.73296682  1
  O2-  O330  1  0.57325375  0.09438717  0.23777610  1
  O2-  O331  1  0.57633125  0.09202145  0.73176699  1
  O2-  O332  1  0.57181165  0.42866923  0.23134774  1
  O2-  O333  1  0.57285070  0.43050921  0.73017077  1
  O2-  O334  1  0.56760312  0.76190242  0.23131106  1
  O2-  O335  1  0.57003854  0.76567336  0.73236791  1
  O2-  O336  1  0.90546510  0.09558139  0.22948406  1
  O2-  O337  1  0.90470165  0.09381267  0.72546587  1
  O2-  O338  1  0.90388730  0.42740492  0.23122639  1
  O2-  O339  1  0.90418414  0.42701094  0.72798277  1
  O2-  O340  1  0.90335611  0.76094302  0.22704792  1
  O2-  O341  1  0.90370438  0.76437672  0.73486388  1
  O2-  O342  1  0.26166145  0.26052324  0.02009352  1
  O2-  O343  1  0.26200409  0.26085768  0.52073703  1
  O2-  O344  1  0.26229313  0.59458430  0.02287045  1
  O2-  O345  1  0.26016138  0.59064787  0.51641880  1
  O2-  O346  1  0.26031958  0.93120701  0.02291824  1
  O2-  O347  1  0.26178464  0.92773109  0.52003410  1
  O2-  O348  1  0.59737898  0.26310191  0.01352774  1
  O2-  O349  1  0.60069673  0.26154052  0.51741885  1
  O2-  O350  1  0.59443746  0.59402646  0.02455713  1
  O2-  O351  1  0.59680532  0.59347130  0.52161338  1
  O2-  O352  1  0.59182869  0.92361580  0.01859854  1
  O2-  O353  1  0.59841637  0.92784081  0.51669748  1
  O2-  O354  1  0.92850778  0.25874221  0.01618747  1
  O2-  O355  1  0.93176070  0.26446511  0.51753360  1
  O2-  O356  1  0.92495126  0.59829201  0.02011609  1
  O2-  O357  1  0.92382039  0.59243172  0.51835635  1
  O2-  O358  1  0.92995336  0.92865932  0.02206450  1
  O2-  O359  1  0.92699232  0.92771607  0.52191287  1
