# generated using pymatgen
data_Sr7Ca15Pr50Mn72O216
_symmetry_space_group_name_H-M   'P 1'
_cell_length_a   16.55360072
_cell_length_b   16.59792110
_cell_length_c   15.58936810
_cell_angle_alpha   89.99640344
_cell_angle_beta   89.99920563
_cell_angle_gamma   89.99849597
_symmetry_Int_Tables_number   1
_chemical_formula_structural   Sr7Ca15Pr50Mn72O216
_chemical_formula_sum   'Sr7 Ca15 Pr50 Mn72 O216'
_cell_volume   4283.26241577
_cell_formula_units_Z   1
loop_
 _symmetry_equiv_pos_site_id
 _symmetry_equiv_pos_as_xyz
  1  'x, y, z'
loop_
 _atom_type_symbol
 _atom_type_oxidation_number
  Sr2+  2.0
  Ca2+  2.0
  Pr3+  3.0
  Mn3.30+  3.3
  O2-  -2.0
loop_
 _atom_site_type_symbol
 _atom_site_label
 _atom_site_symmetry_multiplicity
 _atom_site_fract_x
 _atom_site_fract_y
 _atom_site_fract_z
 _atom_site_occupancy
  Sr2+  Sr0  1  0.33283757  0.32500414  0.37531262  1
  Sr2+  Sr1  1  0.66679325  0.01174014  0.62510559  1
  Sr2+  Sr2  1  0.83244398  0.82338422  0.87469702  1
  Sr2+  Sr3  1  0.16754917  0.16018285  0.37576695  1
  Sr2+  Sr4  1  0.83399786  0.17694436  0.12430113  1
  Sr2+  Sr5  1  -0.00276463  0.34168894  0.62632075  1
  Sr2+  Sr6  1  0.83332472  0.17863811  0.62563231  1
  Ca2+  Ca7  1  0.66934379  0.98720527  0.37626844  1
  Ca2+  Ca8  1  0.16105341  0.81758884  0.87616947  1
  Ca2+  Ca9  1  0.50119491  0.51740803  0.12576909  1
  Ca2+  Ca10  1  -0.00179645  0.68131618  0.12563722  1
  Ca2+  Ca11  1  0.16455264  0.81676733  0.37388263  1
  Ca2+  Ca12  1  0.49541094  0.81604170  0.37511571  1
  Ca2+  Ca13  1  0.32800962  0.34818519  0.62289079  1
  Ca2+  Ca14  1  0.66376344  0.68091361  0.12538976  1
  Ca2+  Ca15  1  0.16855342  0.48635821  0.37459568  1
  Ca2+  Ca16  1  0.67039466  0.32001261  0.87393702  1
  Ca2+  Ca17  1  1.00095413  0.32056927  0.87403590  1
  Ca2+  Ca18  1  0.16153532  0.48172462  0.87550675  1
  Ca2+  Ca19  1  0.66490048  0.34681224  0.62665899  1
  Ca2+  Ca20  1  0.32912219  0.34903146  0.12666987  1
  Ca2+  Ca21  1  0.33501566  0.65264637  0.37300570  1
  Pr3+  Pr22  1  0.33193573  0.01173085  0.12634453  1
  Pr3+  Pr23  1  0.17058635  0.84523286  0.62360508  1
  Pr3+  Pr24  1  0.50229051  0.84583189  0.62271722  1
  Pr3+  Pr25  1  0.49914788  0.50835397  0.62379140  1
  Pr3+  Pr26  1  0.67304936  0.65628616  0.87729018  1
  Pr3+  Pr27  1  0.67085390  0.98825591  0.87367505  1
  Pr3+  Pr28  1  0.33161340  0.01369355  0.62402317  1
  Pr3+  Pr29  1  0.49346244  0.48960918  0.37209012  1
  Pr3+  Pr30  1  0.83076641  0.48677631  0.37386533  1
  Pr3+  Pr31  1  1.00444616  0.65381480  0.87703668  1
  Pr3+  Pr32  1  0.50636004  0.18502591  0.62500622  1
  Pr3+  Pr33  1  0.66628653  0.32340528  0.37606845  1
  Pr3+  Pr34  1  0.83622974  0.50695633  0.62523409  1
  Pr3+  Pr35  1  0.66710317  0.65470092  0.37262820  1
  Pr3+  Pr36  1  1.00679741  0.98580508  0.37490409  1
  Pr3+  Pr37  1  0.66449401  0.01344038  0.12533648  1
  Pr3+  Pr38  1  0.83341624  0.15902173  0.87420417  1
  Pr3+  Pr39  1  0.33651170  0.98633495  0.37510612  1
  Pr3+  Pr40  1  1.00627885  0.65103178  0.37231720  1
  Pr3+  Pr41  1  -0.00472528  0.01350511  0.62469668  1
  Pr3+  Pr42  1  -0.00390479  0.34453547  0.12323435  1
  Pr3+  Pr43  1  0.49860406  0.82057435  0.87373959  1
  Pr3+  Pr44  1  0.49554600  0.15471766  0.37587786  1
  Pr3+  Pr45  1  0.16197881  0.15674745  0.87466139  1
  Pr3+  Pr46  1  0.17009282  0.50805127  0.62510012  1
  Pr3+  Pr47  1  0.32949356  0.67746684  0.62294250  1
  Pr3+  Pr48  1  1.00424774  0.32123477  0.37530402  1
  Pr3+  Pr49  1  -0.00094890  0.67540006  0.62409725  1
  Pr3+  Pr50  1  0.82932617  0.48534424  0.87588839  1
  Pr3+  Pr51  1  0.33300508  0.67729272  0.12701045  1
  Pr3+  Pr52  1  0.33433106  0.32201229  0.87520353  1
  Pr3+  Pr53  1  0.33250484  0.65382573  0.87653369  1
  Pr3+  Pr54  1  0.83587818  0.84613852  0.62466069  1
  Pr3+  Pr55  1  0.66366142  0.67784811  0.62392336  1
  Pr3+  Pr56  1  0.33493900  0.98597910  0.87490576  1
  Pr3+  Pr57  1  0.16972905  0.84431005  0.12660322  1
  Pr3+  Pr58  1  -0.00279219  0.01184256  0.12555144  1
  Pr3+  Pr59  1  0.66252066  0.34883565  0.12338267  1
  Pr3+  Pr60  1  0.17008505  0.18426436  0.62353824  1
  Pr3+  Pr61  1  0.49839235  0.15441944  0.87470458  1
  Pr3+  Pr62  1  0.16973013  0.51009835  0.12432602  1
  Pr3+  Pr63  1  0.17132308  0.18244520  0.12662993  1
  Pr3+  Pr64  1  1.00369321  0.98403693  0.87525735  1
  Pr3+  Pr65  1  0.49905095  0.48841538  0.87762385  1
  Pr3+  Pr66  1  0.50288933  0.18087619  0.12540773  1
  Pr3+  Pr67  1  0.83458366  0.84347511  0.12542479  1
  Pr3+  Pr68  1  0.83029923  0.15458405  0.37581900  1
  Pr3+  Pr69  1  0.50434830  0.84236498  0.12750453  1
  Pr3+  Pr70  1  0.83053915  0.82195923  0.37551697  1
  Pr3+  Pr71  1  0.83845146  0.51670771  0.12490655  1
  Mn3.30+  Mn72  1  0.16684795  -0.00115202  0.00002987  1
  Mn3.30+  Mn73  1  0.16726423  -0.00027459  0.49898710  1
  Mn3.30+  Mn74  1  0.16568456  0.33414212  -0.00057522  1
  Mn3.30+  Mn75  1  0.16696891  0.33573406  0.49948552  1
  Mn3.30+  Mn76  1  0.16547895  0.66533754  0.00185687  1
  Mn3.30+  Mn77  1  0.16801873  0.66455600  0.49603104  1
  Mn3.30+  Mn78  1  0.49977501  -0.00077875  0.00026544  1
  Mn3.30+  Mn79  1  0.50210914  -0.00123112  0.49819529  1
  Mn3.30+  Mn80  1  0.49927680  0.33582353  0.00046346  1
  Mn3.30+  Mn81  1  0.49886445  0.33564981  0.50151207  1
  Mn3.30+  Mn82  1  0.50259028  0.66663988  0.00075798  1
  Mn3.30+  Mn83  1  0.49709816  0.66641497  0.49854628  1
  Mn3.30+  Mn84  1  0.83374841  0.00041682  -0.00010899  1
  Mn3.30+  Mn85  1  0.83304185  0.00052544  0.49856534  1
  Mn3.30+  Mn86  1  0.83197174  0.33343287  -0.00075572  1
  Mn3.30+  Mn87  1  0.83264078  0.33303821  0.50123389  1
  Mn3.30+  Mn88  1  0.83538333  0.66806301  0.00210037  1
  Mn3.30+  Mn89  1  0.83338098  0.66552701  0.49875895  1
  Mn3.30+  Mn90  1  0.00008431  0.16643698  0.24954934  1
  Mn3.30+  Mn91  1  -0.00040702  0.16826631  0.75018225  1
  Mn3.30+  Mn92  1  0.00245664  0.50020369  0.24887511  1
  Mn3.30+  Mn93  1  0.00161093  0.49742762  0.75239272  1
  Mn3.30+  Mn94  1  0.00187261  0.83114602  0.25015649  1
  Mn3.30+  Mn95  1  0.00255433  0.83068179  0.75033708  1
  Mn3.30+  Mn96  1  0.33423804  0.16814756  0.25043779  1
  Mn3.30+  Mn97  1  0.33346358  0.16865260  0.74897447  1
  Mn3.30+  Mn98  1  0.33372580  0.50014289  0.24796437  1
  Mn3.30+  Mn99  1  0.33165991  0.49870947  0.75287741  1
  Mn3.30+  Mn100  1  0.33430008  0.83073753  0.25302320  1
  Mn3.30+  Mn101  1  0.33112372  0.83202337  0.75066040  1
  Mn3.30+  Mn102  1  0.66563812  0.16737545  0.25094023  1
  Mn3.30+  Mn103  1  0.66631531  0.17056323  0.74944163  1
  Mn3.30+  Mn104  1  0.66412303  0.50248633  0.24719124  1
  Mn3.30+  Mn105  1  0.66661277  0.49825186  0.75058546  1
  Mn3.30+  Mn106  1  0.66529551  0.83395734  0.25336910  1
  Mn3.30+  Mn107  1  0.66690528  0.83329446  0.74851998  1
  Mn3.30+  Mn108  1  0.16752264  -0.00053693  0.25186847  1
  Mn3.30+  Mn109  1  0.16656755  -0.00070334  0.74965403  1
  Mn3.30+  Mn110  1  0.16711319  0.33508283  0.25037284  1
  Mn3.30+  Mn111  1  0.16590622  0.33468408  0.75091793  1
  Mn3.30+  Mn112  1  0.16721098  0.66484853  0.25051586  1
  Mn3.30+  Mn113  1  0.16617453  0.66479499  0.75158432  1
  Mn3.30+  Mn114  1  0.50175690  -0.00243457  0.25306346  1
  Mn3.30+  Mn115  1  0.50017459  0.00061948  0.74916527  1
  Mn3.30+  Mn116  1  0.49706877  0.33629267  0.24649941  1
  Mn3.30+  Mn117  1  0.50107728  0.33534042  0.75167792  1
  Mn3.30+  Mn118  1  0.50006873  0.66741258  0.24999455  1
  Mn3.30+  Mn119  1  0.49986906  0.66511625  0.75008361  1
  Mn3.30+  Mn120  1  0.83271175  0.00000011  0.25164147  1
  Mn3.30+  Mn121  1  0.83395516  0.00135790  0.74983258  1
  Mn3.30+  Mn122  1  0.83238361  0.33330603  0.24840883  1
  Mn3.30+  Mn123  1  0.83206673  0.33351009  0.75071642  1
  Mn3.30+  Mn124  1  0.83435962  0.66772721  0.24910630  1
  Mn3.30+  Mn125  1  0.83429760  0.66574300  0.74985161  1
  Mn3.30+  Mn126  1  0.00021187  0.16739401  0.00019298  1
  Mn3.30+  Mn127  1  -0.00045905  0.16681825  0.49976505  1
  Mn3.30+  Mn128  1  0.00166383  0.49949534  -0.00124297  1
  Mn3.30+  Mn129  1  0.00206174  0.49854074  0.49947297  1
  Mn3.30+  Mn130  1  0.00166666  0.83062699  0.00089034  1
  Mn3.30+  Mn131  1  0.00272360  0.83125231  0.49889115  1
  Mn3.30+  Mn132  1  0.33282383  0.16821472  0.00052625  1
  Mn3.30+  Mn133  1  0.33443602  0.16852711  0.50018714  1
  Mn3.30+  Mn134  1  0.33282691  0.49905759  0.00071449  1
  Mn3.30+  Mn135  1  0.33247745  0.50001174  0.49790966  1
  Mn3.30+  Mn136  1  0.33212683  0.83188515  -0.00059426  1
  Mn3.30+  Mn137  1  0.33337952  0.83096352  0.49639531  1
  Mn3.30+  Mn138  1  0.66645599  0.16976747  -0.00103023  1
  Mn3.30+  Mn139  1  0.66563050  0.16765480  0.50080147  1
  Mn3.30+  Mn140  1  0.66559005  0.50206180  0.00205101  1
  Mn3.30+  Mn141  1  0.66569117  0.49926602  0.50007741  1
  Mn3.30+  Mn142  1  0.66755463  0.83278620  0.00118464  1
  Mn3.30+  Mn143  1  0.66424358  0.83475134  0.49707949  1
  O2-  O144  1  0.02541377  0.15992848  0.12471858  1
  O2-  O145  1  0.02428425  0.16051348  0.62601717  1
  O2-  O146  1  0.02581702  0.49069623  0.12267791  1
  O2-  O147  1  0.02498221  0.49933399  0.62644908  1
  O2-  O148  1  0.02594012  0.82981300  0.12583467  1
  O2-  O149  1  0.02731285  0.82532649  0.62329924  1
  O2-  O150  1  0.35960981  0.15823145  0.12422265  1
  O2-  O151  1  0.36148713  0.15978930  0.62561555  1
  O2-  O152  1  0.35808244  0.49473630  0.12210976  1
  O2-  O153  1  0.35454368  0.49569330  0.62815542  1
  O2-  O154  1  0.36028775  0.82759480  0.12560025  1
  O2-  O155  1  0.35854886  0.82673303  0.62287830  1
  O2-  O156  1  0.68484649  0.16140239  0.12523318  1
  O2-  O157  1  0.68465116  0.16466094  0.62439790  1
  O2-  O158  1  0.69494035  0.49429732  0.12529047  1
  O2-  O159  1  0.69185545  0.49433910  0.62679204  1
  O2-  O160  1  0.68986506  0.82785164  0.12902258  1
  O2-  O161  1  0.69069365  0.82620504  0.62216470  1
  O2-  O162  1  0.14051863  0.33140189  0.12355367  1
  O2-  O163  1  0.14743209  0.33512751  0.62573854  1
  O2-  O164  1  0.13873800  0.65673566  0.12581673  1
  O2-  O165  1  0.14266428  0.65676781  0.62282623  1
  O2-  O166  1  0.14165115  0.99199626  0.12670999  1
  O2-  O167  1  0.13965272  0.99148991  0.62494334  1
  O2-  O168  1  0.47074040  0.32579411  0.12260702  1
  O2-  O169  1  0.47171742  0.33354213  0.62852690  1
  O2-  O170  1  0.47707367  0.66977280  0.12480390  1
  O2-  O171  1  0.47365482  0.65903714  0.62493882  1
  O2-  O172  1  0.47564772  0.99172589  0.12628426  1
  O2-  O173  1  0.47474949  0.99371144  0.62445845  1
  O2-  O174  1  0.80714666  0.33131884  0.12436474  1
  O2-  O175  1  0.80795015  0.33757765  0.62541362  1
  O2-  O176  1  0.80653820  0.66388322  0.12662407  1
  O2-  O177  1  0.80760265  0.65670921  0.62213712  1
  O2-  O178  1  0.80917473  0.99385113  0.12620405  1
  O2-  O179  1  0.81746814  0.99426079  0.62372244  1
  O2-  O180  1  0.31784820  0.16697780  0.37545295  1
  O2-  O181  1  0.30659815  0.17274502  0.87485893  1
  O2-  O182  1  0.31176746  0.50777931  0.37242006  1
  O2-  O183  1  0.30544594  0.50693750  0.87700398  1
  O2-  O184  1  0.30421811  0.84117798  0.37553327  1
  O2-  O185  1  0.30373613  0.83850236  0.87581783  1
  O2-  O186  1  0.63845121  0.17691306  0.37524720  1
  O2-  O187  1  0.64038693  0.17431900  0.87516572  1
  O2-  O188  1  0.63904980  0.50559533  0.37096745  1
  O2-  O189  1  0.64224983  0.51134163  0.87635814  1
  O2-  O190  1  0.63867507  0.84158059  0.37610702  1
  O2-  O191  1  0.64328622  0.83779967  0.87331757  1
  O2-  O192  1  0.97677858  0.17183061  0.37349011  1
  O2-  O193  1  0.98016315  0.17140584  0.87585936  1
  O2-  O194  1  0.97413147  0.50411373  0.37301508  1
  O2-  O195  1  0.97235982  0.50886245  0.87726530  1
  O2-  O196  1  0.97479615  0.83717801  0.37525337  1
  O2-  O197  1  0.98137376  0.83460644  0.87633784  1
  O2-  O198  1  0.19293492  0.00650370  0.37536760  1
  O2-  O199  1  0.19328709  0.00963319  0.87356699  1
  O2-  O200  1  0.18302097  0.33749481  0.37416001  1
  O2-  O201  1  0.19057470  0.33019560  0.87600769  1
  O2-  O202  1  0.19380097  0.67401642  0.37404617  1
  O2-  O203  1  0.19041613  0.67618185  0.87781066  1
  O2-  O204  1  0.52825505  0.00921032  0.37504624  1
  O2-  O205  1  0.52551626  0.00427158  0.87455028  1
  O2-  O206  1  0.52283465  0.34108276  0.37228322  1
  O2-  O207  1  0.52867309  0.34084843  0.87687614  1
  O2-  O208  1  0.52384778  0.66716675  0.37513710  1
  O2-  O209  1  0.52808676  0.67222689  0.87463467  1
  O2-  O210  1  0.86168929  0.00310446  0.37476840  1
  O2-  O211  1  0.85797357  0.00579301  0.87525074  1
  O2-  O212  1  0.85815078  0.33942959  0.37266154  1
  O2-  O213  1  0.85861438  0.33850784  0.87694001  1
  O2-  O214  1  0.86097073  0.67246370  0.37467021  1
  O2-  O215  1  0.85882571  0.66885509  0.87704851  1
  O2-  O216  1  0.23830346  0.09452936  0.02140858  1
  O2-  O217  1  0.24024651  0.09322082  0.52401574  1
  O2-  O218  1  0.23626037  0.42682036  0.01736443  1
  O2-  O219  1  0.23902460  0.42932066  0.51586689  1
  O2-  O220  1  0.23964109  0.75772629  0.02573754  1
  O2-  O221  1  0.23849970  0.75930439  0.52268098  1
  O2-  O222  1  0.57072274  0.09423547  0.01858531  1
  O2-  O223  1  0.56891230  0.09961576  0.51733046  1
  O2-  O224  1  0.56911427  0.43241843  0.02343949  1
  O2-  O225  1  0.57035079  0.42988973  0.51732198  1
  O2-  O226  1  0.57033944  0.76541838  0.01560635  1
  O2-  O227  1  0.57003429  0.75752316  0.52110764  1
  O2-  O228  1  0.90954507  0.09193222  0.01730241  1
  O2-  O229  1  0.90702325  0.09216091  0.51608239  1
  O2-  O230  1  0.90266653  0.42930672  0.02034281  1
  O2-  O231  1  0.90294110  0.42974750  0.51491419  1
  O2-  O232  1  0.90554569  0.76150384  0.02224454  1
  O2-  O233  1  0.90389521  0.75952831  0.52145518  1
  O2-  O234  1  0.25860294  0.26133323  0.22794337  1
  O2-  O235  1  0.26469558  0.26183950  0.72829806  1
  O2-  O236  1  0.26114129  0.59255415  0.22538883  1
  O2-  O237  1  0.26172832  0.59506561  0.73151134  1
  O2-  O238  1  0.26429777  0.92569543  0.22923585  1
  O2-  O239  1  0.26144920  0.92937542  0.72790003  1
  O2-  O240  1  0.59261228  0.26528236  0.22891596  1
  O2-  O241  1  0.59384312  0.26448280  0.72736291  1
  O2-  O242  1  0.59845983  0.59920943  0.23045306  1
  O2-  O243  1  0.59502963  0.59321791  0.72808089  1
  O2-  O244  1  0.59561759  0.92804271  0.22681007  1
  O2-  O245  1  0.59023943  0.92500934  0.73248990  1
  O2-  O246  1  0.92977918  0.26162738  0.23233054  1
  O2-  O247  1  0.92538393  0.25918505  0.73744128  1
  O2-  O248  1  0.93269304  0.59423237  0.22853478  1
  O2-  O249  1  0.92847574  0.59296146  0.73004337  1
  O2-  O250  1  0.92790819  0.92710150  0.22981320  1
  O2-  O251  1  0.93151661  0.92356166  0.73172557  1
  O2-  O252  1  0.09271138  0.23994741  0.26449776  1
  O2-  O253  1  0.09767809  0.23556993  0.76353718  1
  O2-  O254  1  0.09845975  0.56926560  0.27297557  1
  O2-  O255  1  0.09514397  0.56964687  0.77297816  1
  O2-  O256  1  0.09612626  0.90342956  0.27208344  1
  O2-  O257  1  0.09813554  0.90409304  0.77163207  1
  O2-  O258  1  0.43128942  0.23625231  0.26531377  1
  O2-  O259  1  0.43081357  0.24074199  0.77325016  1
  O2-  O260  1  0.42961130  0.57305020  0.26320531  1
  O2-  O261  1  0.42692863  0.57201136  0.77267023  1
  O2-  O262  1  0.43066263  0.90356915  0.27339660  1
  O2-  O263  1  0.42464894  0.90446438  0.77045831  1
  O2-  O264  1  0.75843447  0.24058658  0.27271622  1
  O2-  O265  1  0.76078851  0.24082862  0.77157290  1
  O2-  O266  1  0.76331803  0.57357296  0.27076699  1
  O2-  O267  1  0.76142682  0.57214213  0.77060960  1
  O2-  O268  1  0.76270534  0.90467843  0.26962136  1
  O2-  O269  1  0.75812795  0.90986332  0.76526007  1
  O2-  O270  1  0.07127290  0.06789901  0.48414657  1
  O2-  O271  1  0.07252139  0.06952859  0.97997592  1
  O2-  O272  1  0.07095868  0.40656346  0.48078344  1
  O2-  O273  1  0.06807085  0.40105613  0.97949899  1
  O2-  O274  1  0.07000967  0.73419040  0.48142805  1
  O2-  O275  1  0.07157155  0.73618877  0.98382864  1
  O2-  O276  1  0.40684858  0.06814571  0.48104862  1
  O2-  O277  1  0.40489753  0.07138137  0.97911544  1
  O2-  O278  1  0.40785322  0.40986278  0.48173617  1
  O2-  O279  1  0.40644515  0.40699983  0.97464979  1
  O2-  O280  1  0.40153939  0.73459825  0.48000443  1
  O2-  O281  1  0.40572629  0.73968776  0.97706933  1
  O2-  O282  1  0.74007034  0.07427416  0.47571068  1
  O2-  O283  1  0.73859468  0.07483969  0.97921028  1
  O2-  O284  1  0.73936533  0.40811715  0.47636975  1
  O2-  O285  1  0.73490146  0.40622681  0.97940829  1
  O2-  O286  1  0.73683948  0.74027759  0.47795829  1
  O2-  O287  1  0.73911156  0.73888725  0.98318429  1
  O2-  O288  1  0.09186098  0.24128727  0.48623296  1
  O2-  O289  1  0.09833185  0.23467884  0.98614768  1
  O2-  O290  1  0.09671318  0.57083229  0.47651501  1
  O2-  O291  1  0.09678272  0.56909066  0.97703763  1
  O2-  O292  1  0.09856990  0.90307954  0.47776309  1
  O2-  O293  1  0.09618339  0.90358471  0.97963102  1
  O2-  O294  1  0.43264081  0.23775612  0.48517516  1
  O2-  O295  1  0.42811521  0.23943942  0.97683702  1
  O2-  O296  1  0.42915232  0.57061639  0.48357144  1
  O2-  O297  1  0.42774707  0.57562390  0.97967294  1
  O2-  O298  1  0.42800138  0.90240992  0.47796404  1
  O2-  O299  1  0.42787694  0.90544736  0.97763657  1
  O2-  O300  1  0.75844700  0.24117409  0.47651806  1
  O2-  O301  1  0.76161904  0.24041711  0.97923500  1
  O2-  O302  1  0.75949516  0.57318061  0.47631902  1
  O2-  O303  1  0.76439308  0.57237347  0.98150207  1
  O2-  O304  1  0.76450217  0.90545389  0.48222029  1
  O2-  O305  1  0.75757995  0.90862829  0.98294199  1
  O2-  O306  1  0.06968523  0.06987870  0.26651677  1
  O2-  O307  1  0.07248781  0.06975063  0.77047020  1
  O2-  O308  1  0.06831646  0.40380488  0.26565341  1
  O2-  O309  1  0.06896795  0.40483043  0.77351706  1
  O2-  O310  1  0.07273279  0.73574614  0.26908553  1
  O2-  O311  1  0.07025486  0.73407378  0.76577117  1
  O2-  O312  1  0.40765793  0.06810602  0.26889737  1
  O2-  O313  1  0.40381320  0.07194556  0.77143943  1
  O2-  O314  1  0.40664556  0.40910453  0.26862582  1
  O2-  O315  1  0.40649954  0.40777267  0.77609696  1
  O2-  O316  1  0.40185521  0.73627451  0.27020839  1
  O2-  O317  1  0.40504845  0.73804301  0.77194561  1
  O2-  O318  1  0.73926056  0.07130670  0.27239363  1
  O2-  O319  1  0.73908111  0.07816102  0.77291388  1
  O2-  O320  1  0.73581696  0.40771413  0.26989227  1
  O2-  O321  1  0.73713839  0.40746053  0.77494144  1
  O2-  O322  1  0.73796294  0.74315738  0.27551995  1
  O2-  O323  1  0.73750102  0.73643917  0.76437814  1
  O2-  O324  1  0.24197252  0.09236410  0.22725028  1
  O2-  O325  1  0.23680359  0.09460609  0.72688377  1
  O2-  O326  1  0.23827887  0.42838449  0.23068275  1
  O2-  O327  1  0.23773460  0.42905255  0.73570616  1
  O2-  O328  1  0.23845942  0.75801747  0.22599843  1
  O2-  O329  1  0.23972410  0.75948092  0.72647829  1
  O2-  O330  1  0.57121650  0.09463209  0.22938489  1
  O2-  O331  1  0.56970657  0.09898882  0.73501938  1
  O2-  O332  1  0.57000337  0.43052113  0.22517294  1
  O2-  O333  1  0.56832784  0.43166979  0.73325597  1
  O2-  O334  1  0.57012469  0.76274434  0.23545607  1
  O2-  O335  1  0.57077606  0.75993503  0.72822561  1
  O2-  O336  1  0.90680219  0.09226082  0.23266245  1
  O2-  O337  1  0.90960698  0.09215829  0.73376996  1
  O2-  O338  1  0.90408602  0.42901272  0.22888361  1
  O2-  O339  1  0.90170940  0.43065748  0.73510369  1
  O2-  O340  1  0.90340727  0.76289092  0.23152322  1
  O2-  O341  1  0.90580746  0.75751497  0.72546390  1
  O2-  O342  1  0.26236569  0.26280887  0.02292867  1
  O2-  O343  1  0.25900940  0.26123456  0.52093089  1
  O2-  O344  1  0.26150953  0.59495142  0.02165321  1
  O2-  O345  1  0.26062984  0.59250176  0.52178560  1
  O2-  O346  1  0.26233669  0.92802531  0.02166071  1
  O2-  O347  1  0.26250120  0.92839661  0.52151020  1
  O2-  O348  1  0.59162140  0.26252105  0.02281308  1
  O2-  O349  1  0.59427645  0.26696164  0.52046932  1
  O2-  O350  1  0.59913593  0.59877922  0.01999827  1
  O2-  O351  1  0.59442433  0.59359681  0.51993327  1
  O2-  O352  1  0.59510243  0.92860691  0.01986181  1
  O2-  O353  1  0.59139113  0.92586814  0.52174059  1
  O2-  O354  1  0.92852360  0.26122988  0.01729193  1
  O2-  O355  1  0.92389499  0.26151510  0.51225398  1
  O2-  O356  1  0.93020086  0.59606017  0.02377643  1
  O2-  O357  1  0.92981155  0.59153088  0.51853676  1
  O2-  O358  1  0.92914181  0.92532883  0.01933991  1
  O2-  O359  1  0.93081654  0.92524058  0.51925280  1
