# generated using pymatgen
data_Sr7Ca15Pr50Mn72O216
_symmetry_space_group_name_H-M   'P 1'
_cell_length_a   16.55973237
_cell_length_b   16.60445270
_cell_length_c   15.59378357
_cell_angle_alpha   90.00407838
_cell_angle_beta   90.00268649
_cell_angle_gamma   90.01661012
_symmetry_Int_Tables_number   1
_chemical_formula_structural   Sr7Ca15Pr50Mn72O216
_chemical_formula_sum   'Sr7 Ca15 Pr50 Mn72 O216'
_cell_volume   4287.74906870
_cell_formula_units_Z   1
loop_
 _symmetry_equiv_pos_site_id
 _symmetry_equiv_pos_as_xyz
  1  'x, y, z'
loop_
 _atom_type_symbol
 _atom_type_oxidation_number
  Sr2+  2.0
  Ca2+  2.0
  Pr3+  3.0
  Mn3.30+  3.3
  O2-  -2.0
loop_
 _atom_site_type_symbol
 _atom_site_label
 _atom_site_symmetry_multiplicity
 _atom_site_fract_x
 _atom_site_fract_y
 _atom_site_fract_z
 _atom_site_occupancy
  Sr2+  Sr0  1  0.50065192  0.15892173  0.37575296  1
  Sr2+  Sr1  1  0.83245395  0.17474136  0.12536821  1
  Sr2+  Sr2  1  0.16533250  0.50912283  0.62219458  1
  Sr2+  Sr3  1  0.83198785  0.48996568  0.37559696  1
  Sr2+  Sr4  1  0.33535557  0.98850838  0.87543463  1
  Sr2+  Sr5  1  0.67064948  0.32496754  0.37542315  1
  Sr2+  Sr6  1  0.66568440  0.67388850  0.62226985  1
  Ca2+  Ca7  1  0.50486987  0.85190348  0.12699084  1
  Ca2+  Ca8  1  1.00296580  0.98463914  0.37490668  1
  Ca2+  Ca9  1  0.50311274  0.51601422  0.62278187  1
  Ca2+  Ca10  1  1.00355064  0.64828017  0.37500298  1
  Ca2+  Ca11  1  0.33721979  0.31966640  0.37646492  1
  Ca2+  Ca12  1  0.66422505  0.01288229  0.62129987  1
  Ca2+  Ca13  1  0.16268375  0.48404112  0.37647208  1
  Ca2+  Ca14  1  0.66947788  0.98969289  0.37295266  1
  Ca2+  Ca15  1  0.16094641  0.81710911  0.37479749  1
  Ca2+  Ca16  1  1.00277885  0.65142454  0.87439401  1
  Ca2+  Ca17  1  0.32984073  0.34611724  0.12969674  1
  Ca2+  Ca18  1  0.17099977  0.18168567  0.62342519  1
  Ca2+  Ca19  1  0.66387780  0.01525108  0.12856947  1
  Ca2+  Ca20  1  0.66173702  0.68438506  0.12801664  1
  Ca2+  Ca21  1  0.00020118  0.34914055  0.62292732  1
  Pr3+  Pr22  1  0.33767221  0.98865405  0.37480577  1
  Pr3+  Pr23  1  0.33528130  0.32146289  0.87380656  1
  Pr3+  Pr24  1  0.82785057  0.15478434  0.37457389  1
  Pr3+  Pr25  1  0.32887997  0.01379264  0.62391509  1
  Pr3+  Pr26  1  -0.00241713  0.34441616  0.12603695  1
  Pr3+  Pr27  1  0.83760289  0.51112985  0.62115018  1
  Pr3+  Pr28  1  -0.00522901  0.67669447  0.62174242  1
  Pr3+  Pr29  1  0.17217184  0.18048928  0.12611675  1
  Pr3+  Pr30  1  0.16360728  0.15372582  0.37729232  1
  Pr3+  Pr31  1  0.83675169  0.18180843  0.62475646  1
  Pr3+  Pr32  1  0.33417198  0.01198161  0.12629606  1
  Pr3+  Pr33  1  0.33042528  0.67637000  0.62279000  1
  Pr3+  Pr34  1  0.66967287  0.98639928  0.87561833  1
  Pr3+  Pr35  1  0.50484972  0.84624625  0.62367029  1
  Pr3+  Pr36  1  0.16480772  0.15135341  0.87259910  1
  Pr3+  Pr37  1  1.00198771  0.32554942  0.37794990  1
  Pr3+  Pr38  1  0.66537848  0.34337400  0.12741043  1
  Pr3+  Pr39  1  1.00369910  0.98689044  0.87539482  1
  Pr3+  Pr40  1  0.33559027  0.65397258  0.87514892  1
  Pr3+  Pr41  1  -0.00443753  0.67813042  0.12754034  1
  Pr3+  Pr42  1  0.83014418  0.82297416  0.37411509  1
  Pr3+  Pr43  1  0.49994523  0.82336842  0.37281933  1
  Pr3+  Pr44  1  0.66927065  0.65465212  0.37346155  1
  Pr3+  Pr45  1  0.67005338  0.32022470  0.87464312  1
  Pr3+  Pr46  1  -0.00424771  0.01411425  0.12840132  1
  Pr3+  Pr47  1  0.50331278  0.17890774  0.12589131  1
  Pr3+  Pr48  1  0.16842182  0.84132080  0.62182743  1
  Pr3+  Pr49  1  0.83286130  0.15329995  0.87527314  1
  Pr3+  Pr50  1  0.66742740  0.65579824  0.87677425  1
  Pr3+  Pr51  1  1.00496211  0.31956710  0.87247436  1
  Pr3+  Pr52  1  0.17079774  0.51098310  0.12755330  1
  Pr3+  Pr53  1  0.16335745  0.81782407  0.87561228  1
  Pr3+  Pr54  1  0.50362721  0.17783161  0.62428069  1
  Pr3+  Pr55  1  0.49627986  0.82221609  0.87748039  1
  Pr3+  Pr56  1  0.83063836  0.81923318  0.87599572  1
  Pr3+  Pr57  1  0.49700778  0.15110498  0.87436507  1
  Pr3+  Pr58  1  0.49593527  0.48954326  0.87299512  1
  Pr3+  Pr59  1  0.16348527  0.48729866  0.87343024  1
  Pr3+  Pr60  1  0.83341000  0.84775531  0.12670725  1
  Pr3+  Pr61  1  0.66220069  0.34959448  0.62329612  1
  Pr3+  Pr62  1  0.50221682  0.51363125  0.12671055  1
  Pr3+  Pr63  1  0.49619947  0.48669122  0.37726861  1
  Pr3+  Pr64  1  0.33151442  0.34619686  0.62197350  1
  Pr3+  Pr65  1  0.83216513  0.48890574  0.87476113  1
  Pr3+  Pr66  1  0.16873454  0.84582802  0.12861033  1
  Pr3+  Pr67  1  0.32916020  0.68047974  0.12630153  1
  Pr3+  Pr68  1  0.83442361  0.84630387  0.62338806  1
  Pr3+  Pr69  1  -0.00218271  0.01215652  0.62165170  1
  Pr3+  Pr70  1  0.33224330  0.65387460  0.37441510  1
  Pr3+  Pr71  1  0.83474133  0.51087443  0.12820279  1
  Mn3.30+  Mn72  1  0.16693161  -0.00118277  0.00112754  1
  Mn3.30+  Mn73  1  0.16484469  -0.00174603  0.49833802  1
  Mn3.30+  Mn74  1  0.16877041  0.33285367  0.00041888  1
  Mn3.30+  Mn75  1  0.16839531  0.33264996  0.50004305  1
  Mn3.30+  Mn76  1  0.16432401  0.66539954  0.00049209  1
  Mn3.30+  Mn77  1  0.16308455  0.66524152  0.49722154  1
  Mn3.30+  Mn78  1  0.50217283  -0.00064853  0.00212167  1
  Mn3.30+  Mn79  1  0.50251120  0.00096019  0.49852466  1
  Mn3.30+  Mn80  1  0.49860576  0.33482311  0.00096785  1
  Mn3.30+  Mn81  1  0.49893936  0.33335430  0.49927356  1
  Mn3.30+  Mn82  1  0.50082288  0.66963230  0.00387236  1
  Mn3.30+  Mn83  1  0.49950217  0.66654452  0.49842902  1
  Mn3.30+  Mn84  1  0.83336255  -0.00015787  0.00116099  1
  Mn3.30+  Mn85  1  0.83231616  0.00073825  0.49906045  1
  Mn3.30+  Mn86  1  0.83439690  0.33266952  -0.00044712  1
  Mn3.30+  Mn87  1  0.83484301  0.33395811  0.50107054  1
  Mn3.30+  Mn88  1  0.83202414  0.66647605  0.00189889  1
  Mn3.30+  Mn89  1  0.83345935  0.66756668  0.49706198  1
  Mn3.30+  Mn90  1  -0.00005497  0.16663477  0.25319598  1
  Mn3.30+  Mn91  1  0.00252200  0.16741622  0.74541899  1
  Mn3.30+  Mn92  1  0.00254061  0.49936653  0.25221324  1
  Mn3.30+  Mn93  1  -0.00025080  0.50071936  0.74908059  1
  Mn3.30+  Mn94  1  0.00088236  0.83244832  0.25287144  1
  Mn3.30+  Mn95  1  -0.00027636  0.83123634  0.74979905  1
  Mn3.30+  Mn96  1  0.33429890  0.16873771  0.25145206  1
  Mn3.30+  Mn97  1  0.33284273  0.16619482  0.74862934  1
  Mn3.30+  Mn98  1  0.33206361  0.49723048  0.25228684  1
  Mn3.30+  Mn99  1  0.33306962  0.50055465  0.74669121  1
  Mn3.30+  Mn100  1  0.33302893  0.83371810  0.25084919  1
  Mn3.30+  Mn101  1  0.33348252  0.83282111  0.74928386  1
  Mn3.30+  Mn102  1  0.66624663  0.16630912  0.25106956  1
  Mn3.30+  Mn103  1  0.66787665  0.16494864  0.74856764  1
  Mn3.30+  Mn104  1  0.66669535  0.50088197  0.24914601  1
  Mn3.30+  Mn105  1  0.66452874  0.50177930  0.75026581  1
  Mn3.30+  Mn106  1  0.66460015  0.83687386  0.24899189  1
  Mn3.30+  Mn107  1  0.66618939  0.83311298  0.74858557  1
  Mn3.30+  Mn108  1  0.16530110  -0.00104716  0.25271453  1
  Mn3.30+  Mn109  1  0.16648298  -0.00169432  0.74816026  1
  Mn3.30+  Mn110  1  0.16966777  0.33306656  0.25332776  1
  Mn3.30+  Mn111  1  0.16708424  0.33211729  0.74595913  1
  Mn3.30+  Mn112  1  0.16318595  0.66565534  0.25270735  1
  Mn3.30+  Mn113  1  0.16419760  0.66517193  0.74887651  1
  Mn3.30+  Mn114  1  0.50348248  0.00103997  0.25157188  1
  Mn3.30+  Mn115  1  0.50106102  -0.00104639  0.74820917  1
  Mn3.30+  Mn116  1  0.49643057  0.33326892  0.25066075  1
  Mn3.30+  Mn117  1  0.50096021  0.33477457  0.74920110  1
  Mn3.30+  Mn118  1  0.50008939  0.66897746  0.24888208  1
  Mn3.30+  Mn119  1  0.50026022  0.66718201  0.74892865  1
  Mn3.30+  Mn120  1  0.83282676  0.00087182  0.25182929  1
  Mn3.30+  Mn121  1  0.83298023  -0.00008666  0.74802133  1
  Mn3.30+  Mn122  1  0.83365421  0.33253345  0.25007863  1
  Mn3.30+  Mn123  1  0.83554348  0.33440558  0.74909648  1
  Mn3.30+  Mn124  1  0.83183612  0.66744707  0.24988410  1
  Mn3.30+  Mn125  1  0.83362376  0.66652077  0.75134235  1
  Mn3.30+  Mn126  1  0.00128217  0.16646212  0.00025245  1
  Mn3.30+  Mn127  1  0.00082049  0.16758662  0.50098333  1
  Mn3.30+  Mn128  1  0.00033249  0.50033596  0.00018492  1
  Mn3.30+  Mn129  1  0.00227892  0.49940139  0.49839313  1
  Mn3.30+  Mn130  1  -0.00093803  0.83133189  0.00091593  1
  Mn3.30+  Mn131  1  0.00132874  0.83249860  0.49636524  1
  Mn3.30+  Mn132  1  0.33453143  0.16757866  0.00051022  1
  Mn3.30+  Mn133  1  0.33256064  0.16753667  0.49951173  1
  Mn3.30+  Mn134  1  0.33346539  0.49866365  0.00168375  1
  Mn3.30+  Mn135  1  0.33118450  0.49913673  0.49835744  1
  Mn3.30+  Mn136  1  0.33422236  0.83396702  0.00231920  1
  Mn3.30+  Mn137  1  0.33248889  0.83277214  0.49737369  1
  Mn3.30+  Mn138  1  0.66653526  0.16565410  0.00053047  1
  Mn3.30+  Mn139  1  0.66765657  0.16514131  0.49969519  1
  Mn3.30+  Mn140  1  0.66559856  0.50152526  0.00104150  1
  Mn3.30+  Mn141  1  0.66556788  0.50091769  0.49968914  1
  Mn3.30+  Mn142  1  0.66425437  0.83445046  0.00358699  1
  Mn3.30+  Mn143  1  0.66650941  0.83584320  0.49935417  1
  O2-  O144  1  0.02733761  0.16168721  0.12759478  1
  O2-  O145  1  0.03003927  0.15651728  0.62326830  1
  O2-  O146  1  0.02682051  0.49288603  0.12528917  1
  O2-  O147  1  0.01629941  0.49996246  0.62464125  1
  O2-  O148  1  0.02538027  0.82586111  0.12638259  1
  O2-  O149  1  0.02442825  0.82516313  0.62213605  1
  O2-  O150  1  0.35829925  0.15960124  0.12530148  1
  O2-  O151  1  0.35902381  0.16118469  0.62552686  1
  O2-  O152  1  0.35871115  0.49244374  0.12767271  1
  O2-  O153  1  0.36115327  0.49600815  0.62367193  1
  O2-  O154  1  0.35927537  0.82748792  0.12691886  1
  O2-  O155  1  0.35933878  0.82452193  0.62156309  1
  O2-  O156  1  0.68317009  0.16413936  0.12345862  1
  O2-  O157  1  0.69291067  0.15844399  0.62724186  1
  O2-  O158  1  0.69012958  0.49213252  0.12362250  1
  O2-  O159  1  0.69162382  0.49875989  0.62801575  1
  O2-  O160  1  0.69192119  0.82638638  0.12492457  1
  O2-  O161  1  0.69158182  0.82636850  0.62423540  1
  O2-  O162  1  0.14091905  0.32739133  0.12654515  1
  O2-  O163  1  0.14162912  0.32570246  0.62557001  1
  O2-  O164  1  0.13979408  0.65944531  0.12671681  1
  O2-  O165  1  0.13942563  0.66783444  0.62205944  1
  O2-  O166  1  0.13941139  0.99476971  0.12807867  1
  O2-  O167  1  0.14048326  0.98843133  0.62303416  1
  O2-  O168  1  0.47191872  0.32796213  0.12312567  1
  O2-  O169  1  0.47590859  0.32587393  0.62577462  1
  O2-  O170  1  0.47149712  0.65968013  0.12599746  1
  O2-  O171  1  0.47482128  0.66306999  0.61994504  1
  O2-  O172  1  0.47712643  0.99850758  0.12671650  1
  O2-  O173  1  0.47349865  0.99427751  0.62269095  1
  O2-  O174  1  0.81077801  0.33139544  0.12134104  1
  O2-  O175  1  0.80726683  0.33073168  0.62754057  1
  O2-  O176  1  0.80489193  0.65976820  0.12494176  1
  O2-  O177  1  0.81618019  0.66092361  0.62371054  1
  O2-  O178  1  0.80827777  0.99588783  0.12451202  1
  O2-  O179  1  0.80708530  0.99434116  0.62502608  1
  O2-  O180  1  0.30783979  0.17113218  0.37568925  1
  O2-  O181  1  0.30848122  0.17262689  0.87383194  1
  O2-  O182  1  0.30391972  0.50776371  0.37443091  1
  O2-  O183  1  0.30778045  0.50592433  0.87323906  1
  O2-  O184  1  0.30536373  0.84078027  0.37442771  1
  O2-  O185  1  0.30850347  0.83384915  0.87713638  1
  O2-  O186  1  0.65014802  0.17229169  0.37686664  1
  O2-  O187  1  0.64178171  0.17227096  0.87315888  1
  O2-  O188  1  0.64212156  0.50442904  0.37171344  1
  O2-  O189  1  0.63947693  0.50677194  0.87727858  1
  O2-  O190  1  0.64285744  0.84369239  0.37416659  1
  O2-  O191  1  0.64056075  0.83918772  0.87732793  1
  O2-  O192  1  0.97283727  0.17748711  0.37862384  1
  O2-  O193  1  0.97733558  0.17138424  0.87042875  1
  O2-  O194  1  0.98089169  0.49687415  0.37380822  1
  O2-  O195  1  0.97593309  0.50487599  0.87607374  1
  O2-  O196  1  0.97289095  0.84202745  0.37419153  1
  O2-  O197  1  0.97358102  0.84168594  0.87686623  1
  O2-  O198  1  0.19417439  0.00705933  0.37536833  1
  O2-  O199  1  0.18542882  0.00320095  0.87384979  1
  O2-  O200  1  0.19458554  0.33781379  0.37563354  1
  O2-  O201  1  0.19120563  0.33817049  0.87190044  1
  O2-  O202  1  0.19045737  0.67475623  0.37407536  1
  O2-  O203  1  0.19207324  0.67045817  0.87608649  1
  O2-  O204  1  0.52649353  0.00137094  0.37577517  1
  O2-  O205  1  0.52484440  0.00215885  0.87527454  1
  O2-  O206  1  0.52161673  0.33920280  0.37715611  1
  O2-  O207  1  0.52710025  0.34248683  0.87390311  1
  O2-  O208  1  0.52496302  0.67333639  0.37273392  1
  O2-  O209  1  0.52336143  0.67400745  0.88105637  1
  O2-  O210  1  0.86093283  0.00593611  0.37681318  1
  O2-  O211  1  0.86030063  0.00377019  0.87344446  1
  O2-  O212  1  0.85616243  0.33244946  0.37737832  1
  O2-  O213  1  0.86016877  0.33937816  0.87395271  1
  O2-  O214  1  0.85926749  0.67470244  0.37337890  1
  O2-  O215  1  0.86035773  0.67189368  0.87824882  1
  O2-  O216  1  0.23887012  0.09352221  0.01999418  1
  O2-  O217  1  0.23638988  0.09362558  0.52153292  1
  O2-  O218  1  0.23702533  0.42931499  0.01677459  1
  O2-  O219  1  0.24258268  0.42333884  0.52179903  1
  O2-  O220  1  0.23560787  0.75978171  0.02170889  1
  O2-  O221  1  0.23937132  0.75832886  0.51967473  1
  O2-  O222  1  0.56955452  0.09734333  0.01447785  1
  O2-  O223  1  0.57240510  0.09426695  0.52204117  1
  O2-  O224  1  0.57007293  0.42860703  0.02167996  1
  O2-  O225  1  0.57082663  0.42822276  0.52141945  1
  O2-  O226  1  0.56715335  0.76724725  0.02108322  1
  O2-  O227  1  0.56970960  0.76448090  0.51332109  1
  O2-  O228  1  0.90888398  0.09192059  0.01597294  1
  O2-  O229  1  0.90406513  0.09535935  0.52262654  1
  O2-  O230  1  0.90580635  0.42865883  0.02016587  1
  O2-  O231  1  0.90753496  0.42630994  0.51878273  1
  O2-  O232  1  0.90281849  0.76083358  0.02363734  1
  O2-  O233  1  0.90463589  0.76225589  0.51973378  1
  O2-  O234  1  0.25982714  0.25976201  0.22705281  1
  O2-  O235  1  0.26589441  0.26180208  0.73099484  1
  O2-  O236  1  0.26227721  0.59374838  0.22883346  1
  O2-  O237  1  0.26278281  0.59599597  0.73096555  1
  O2-  O238  1  0.26244146  0.92776630  0.22854110  1
  O2-  O239  1  0.26106315  0.92413333  0.72661091  1
  O2-  O240  1  0.59087766  0.26159077  0.22844428  1
  O2-  O241  1  0.59830613  0.26115220  0.72980230  1
  O2-  O242  1  0.59328243  0.59708883  0.22838472  1
  O2-  O243  1  0.59326528  0.59612368  0.73781512  1
  O2-  O244  1  0.59751852  0.93136916  0.22846356  1
  O2-  O245  1  0.59849949  0.92919774  0.72860109  1
  O2-  O246  1  0.93142210  0.26201170  0.23281037  1
  O2-  O247  1  0.93379372  0.26214442  0.72690039  1
  O2-  O248  1  0.92713485  0.59111264  0.22888773  1
  O2-  O249  1  0.92662136  0.59334631  0.73113723  1
  O2-  O250  1  0.92806055  0.92602484  0.22792176  1
  O2-  O251  1  0.92886166  0.92753168  0.72817933  1
  O2-  O252  1  0.09716471  0.23816082  0.27210487  1
  O2-  O253  1  0.09621879  0.23760635  0.77225635  1
  O2-  O254  1  0.09838645  0.56715468  0.26866430  1
  O2-  O255  1  0.09421573  0.57193236  0.76991287  1
  O2-  O256  1  0.09681618  0.89948411  0.26884178  1
  O2-  O257  1  0.09375676  0.90177730  0.76970358  1
  O2-  O258  1  0.42660670  0.23914317  0.26575534  1
  O2-  O259  1  0.42957354  0.23986236  0.77126718  1
  O2-  O260  1  0.42628800  0.57046391  0.27102896  1
  O2-  O261  1  0.42537951  0.57408670  0.77159710  1
  O2-  O262  1  0.42836826  0.90898894  0.27102862  1
  O2-  O263  1  0.43116002  0.90283925  0.76550237  1
  O2-  O264  1  0.76115538  0.23813909  0.26474293  1
  O2-  O265  1  0.76425887  0.23868511  0.77040689  1
  O2-  O266  1  0.75902364  0.57613241  0.26858667  1
  O2-  O267  1  0.75940810  0.57291859  0.77292776  1
  O2-  O268  1  0.76460827  0.90481685  0.26715144  1
  O2-  O269  1  0.76083578  0.90307057  0.77164654  1
  O2-  O270  1  0.06941497  0.06943523  0.47717308  1
  O2-  O271  1  0.07246545  0.07154304  0.98073414  1
  O2-  O272  1  0.07505616  0.40435494  0.48383449  1
  O2-  O273  1  0.07286938  0.40310141  0.97876959  1
  O2-  O274  1  0.06706590  0.73468782  0.47880337  1
  O2-  O275  1  0.06904959  0.73651255  0.97875897  1
  O2-  O276  1  0.40212558  0.07066968  0.48352284  1
  O2-  O277  1  0.40863684  0.07411771  0.98270654  1
  O2-  O278  1  0.40384671  0.40661343  0.47878887  1
  O2-  O279  1  0.40707432  0.40747310  0.97499259  1
  O2-  O280  1  0.40472889  0.73962555  0.47583800  1
  O2-  O281  1  0.40321800  0.73739059  0.98107428  1
  O2-  O282  1  0.73988713  0.07152209  0.47737974  1
  O2-  O283  1  0.74311847  0.07244793  0.97665411  1
  O2-  O284  1  0.74018579  0.40665705  0.48981555  1
  O2-  O285  1  0.73974062  0.40575693  0.97783792  1
  O2-  O286  1  0.73898101  0.74240956  0.47554074  1
  O2-  O287  1  0.73850630  0.74061594  0.97862731  1
  O2-  O288  1  0.09494835  0.24050511  0.47655274  1
  O2-  O289  1  0.09819095  0.23673595  0.97914398  1
  O2-  O290  1  0.09509086  0.57104928  0.47787932  1
  O2-  O291  1  0.09654792  0.56939321  0.98171934  1
  O2-  O292  1  0.09793778  0.90021144  0.48010057  1
  O2-  O293  1  0.09468183  0.90342466  0.98122910  1
  O2-  O294  1  0.42655957  0.24002099  0.48697590  1
  O2-  O295  1  0.42978315  0.24082200  0.97574118  1
  O2-  O296  1  0.42338728  0.57385565  0.47552315  1
  O2-  O297  1  0.42797778  0.57200144  0.98100402  1
  O2-  O298  1  0.42814381  0.90570671  0.47851511  1
  O2-  O299  1  0.43114100  0.90611218  0.98465366  1
  O2-  O300  1  0.76590958  0.23587954  0.48818788  1
  O2-  O301  1  0.76036988  0.23993114  0.97651404  1
  O2-  O302  1  0.75726735  0.57754627  0.48174221  1
  O2-  O303  1  0.76132360  0.57322258  0.97805384  1
  O2-  O304  1  0.76455648  0.90430354  0.48236729  1
  O2-  O305  1  0.76336755  0.90493990  0.97920032  1
  O2-  O306  1  0.07090712  0.07141112  0.27380475  1
  O2-  O307  1  0.07034328  0.07028571  0.76903674  1
  O2-  O308  1  0.07323334  0.40085335  0.26808591  1
  O2-  O309  1  0.07269520  0.40751366  0.76974346  1
  O2-  O310  1  0.06533543  0.73309428  0.26861856  1
  O2-  O311  1  0.07018994  0.73755239  0.77258752  1
  O2-  O312  1  0.40352145  0.07053112  0.26689779  1
  O2-  O313  1  0.40623038  0.07460737  0.76703770  1
  O2-  O314  1  0.40494483  0.40673446  0.27533416  1
  O2-  O315  1  0.40442053  0.40715969  0.77069228  1
  O2-  O316  1  0.40307676  0.73925408  0.27177934  1
  O2-  O317  1  0.40451046  0.73850167  0.76983451  1
  O2-  O318  1  0.74043504  0.07282124  0.27101107  1
  O2-  O319  1  0.74122844  0.07400322  0.77460976  1
  O2-  O320  1  0.74092307  0.40667029  0.26078364  1
  O2-  O321  1  0.73542483  0.40760960  0.77136766  1
  O2-  O322  1  0.73644854  0.74307259  0.27177591  1
  O2-  O323  1  0.73918986  0.74016479  0.77380746  1
  O2-  O324  1  0.23944973  0.09479529  0.23020059  1
  O2-  O325  1  0.23795940  0.09457868  0.72861678  1
  O2-  O326  1  0.23880206  0.42644430  0.22854721  1
  O2-  O327  1  0.24192500  0.42523799  0.73034246  1
  O2-  O328  1  0.23701425  0.75812939  0.22837433  1
  O2-  O329  1  0.23740003  0.75955903  0.73060596  1
  O2-  O330  1  0.57133725  0.09647267  0.23140398  1
  O2-  O331  1  0.57042918  0.09572066  0.73329347  1
  O2-  O332  1  0.57057933  0.42790071  0.22943052  1
  O2-  O333  1  0.57092601  0.43064074  0.72741991  1
  O2-  O334  1  0.56926305  0.76792860  0.23237105  1
  O2-  O335  1  0.56966096  0.76575730  0.73449709  1
  O2-  O336  1  0.90729331  0.09219460  0.23266134  1
  O2-  O337  1  0.90732432  0.09651252  0.72828212  1
  O2-  O338  1  0.90952416  0.42558769  0.22844906  1
  O2-  O339  1  0.90239854  0.43153978  0.73326737  1
  O2-  O340  1  0.90301513  0.76156737  0.22760517  1
  O2-  O341  1  0.90505861  0.76263698  0.72992782  1
  O2-  O342  1  0.26342553  0.26300966  0.02084113  1
  O2-  O343  1  0.26042554  0.25961856  0.52157770  1
  O2-  O344  1  0.26209875  0.59411829  0.02160336  1
  O2-  O345  1  0.26215580  0.59627404  0.51730180  1
  O2-  O346  1  0.25964418  0.92595603  0.02460066  1
  O2-  O347  1  0.26308158  0.92693227  0.52104823  1
  O2-  O348  1  0.59285451  0.26466476  0.01840762  1
  O2-  O349  1  0.59491413  0.25898967  0.52392574  1
  O2-  O350  1  0.59387516  0.59943668  0.02339363  1
  O2-  O351  1  0.58979234  0.59395700  0.51169771  1
  O2-  O352  1  0.60071977  0.93404438  0.01920542  1
  O2-  O353  1  0.59451769  0.92670612  0.52437536  1
  O2-  O354  1  0.93315771  0.26261413  0.01429682  1
  O2-  O355  1  0.92996189  0.26258717  0.52568952  1
  O2-  O356  1  0.92447783  0.59291095  0.02499436  1
  O2-  O357  1  0.92628979  0.59240463  0.51549271  1
  O2-  O358  1  0.92802141  0.92777216  0.02243318  1
  O2-  O359  1  0.92741885  0.92681563  0.52180653  1
