# generated using pymatgen
data_Sr7Ca15Pr50Mn72O216
_symmetry_space_group_name_H-M   'P 1'
_cell_length_a   16.55962081
_cell_length_b   16.60591586
_cell_length_c   15.59155215
_cell_angle_alpha   89.99304590
_cell_angle_beta   89.99879188
_cell_angle_gamma   90.02095922
_symmetry_Int_Tables_number   1
_chemical_formula_structural   Sr7Ca15Pr50Mn72O216
_chemical_formula_sum   'Sr7 Ca15 Pr50 Mn72 O216'
_cell_volume   4287.48427545
_cell_formula_units_Z   1
loop_
 _symmetry_equiv_pos_site_id
 _symmetry_equiv_pos_as_xyz
  1  'x, y, z'
loop_
 _atom_type_symbol
 _atom_type_oxidation_number
  Sr2+  2.0
  Ca2+  2.0
  Pr3+  3.0
  Mn3.30+  3.3
  O2-  -2.0
loop_
 _atom_site_type_symbol
 _atom_site_label
 _atom_site_symmetry_multiplicity
 _atom_site_fract_x
 _atom_site_fract_y
 _atom_site_fract_z
 _atom_site_occupancy
  Sr2+  Sr0  1  0.83553619  0.17752254  0.62370317  1
  Sr2+  Sr1  1  0.49896506  0.82301318  0.37444291  1
  Sr2+  Sr2  1  1.00459251  0.32391610  0.87501685  1
  Sr2+  Sr3  1  0.66943634  0.65810668  0.87420160  1
  Sr2+  Sr4  1  0.49806280  0.15653965  0.37550486  1
  Sr2+  Sr5  1  0.32967145  0.67926554  0.12500420  1
  Sr2+  Sr6  1  0.99937375  0.65649554  0.87494683  1
  Ca2+  Ca7  1  0.16321111  0.15526471  0.87450206  1
  Ca2+  Ca8  1  0.16322448  0.48744016  0.87606550  1
  Ca2+  Ca9  1  0.82805191  0.15000476  0.37566642  1
  Ca2+  Ca10  1  0.33099822  0.01513977  0.62497390  1
  Ca2+  Ca11  1  0.66948401  0.32071953  0.87437738  1
  Ca2+  Ca12  1  0.16407255  0.81951012  0.37333261  1
  Ca2+  Ca13  1  0.66410540  0.68228162  0.12313214  1
  Ca2+  Ca14  1  0.17040567  0.84547721  0.12438925  1
  Ca2+  Ca15  1  0.49670593  0.48461401  0.87377975  1
  Ca2+  Ca16  1  0.83526611  0.84431527  0.12156036  1
  Ca2+  Ca17  1  0.66311566  0.67977681  0.62583099  1
  Ca2+  Ca18  1  0.33353316  0.32113051  0.87440440  1
  Ca2+  Ca19  1  0.50702002  0.51765106  0.62745970  1
  Ca2+  Ca20  1  0.82914124  0.81648172  0.87674015  1
  Ca2+  Ca21  1  0.82917850  0.48669416  0.37508922  1
  Pr3+  Pr22  1  0.67262603  0.98477738  0.87440364  1
  Pr3+  Pr23  1  0.16941488  0.17884514  0.12312706  1
  Pr3+  Pr24  1  0.50264556  0.18011274  0.12462454  1
  Pr3+  Pr25  1  0.49765739  0.49042899  0.37584555  1
  Pr3+  Pr26  1  0.50180468  0.84330944  0.12458636  1
  Pr3+  Pr27  1  0.33654604  0.65753869  0.37434876  1
  Pr3+  Pr28  1  0.33844881  0.31955529  0.37535686  1
  Pr3+  Pr29  1  0.33201337  0.34580909  0.12342960  1
  Pr3+  Pr30  1  0.16303489  0.82119788  0.87657758  1
  Pr3+  Pr31  1  0.50259166  0.17983543  0.62547189  1
  Pr3+  Pr32  1  0.83410380  0.51167097  0.62617938  1
  Pr3+  Pr33  1  -0.00387551  0.01371220  0.62487202  1
  Pr3+  Pr34  1  0.83675559  0.17989898  0.12639618  1
  Pr3+  Pr35  1  0.66785511  0.98764600  0.37553368  1
  Pr3+  Pr36  1  0.16948032  0.17947796  0.62690476  1
  Pr3+  Pr37  1  0.17051506  0.84760079  0.62554722  1
  Pr3+  Pr38  1  -0.00248534  0.34788428  0.12316817  1
  Pr3+  Pr39  1  -0.00307559  0.67855031  0.62690452  1
  Pr3+  Pr40  1  0.32986995  0.00853251  0.12461934  1
  Pr3+  Pr41  1  0.67043814  0.65156072  0.37472330  1
  Pr3+  Pr42  1  0.16556350  0.48956881  0.37446962  1
  Pr3+  Pr43  1  0.50402741  0.51648635  0.12293759  1
  Pr3+  Pr44  1  0.66197639  0.34792105  0.62766027  1
  Pr3+  Pr45  1  -0.00251417  0.68315119  0.12268325  1
  Pr3+  Pr46  1  0.83154337  0.15634364  0.87436356  1
  Pr3+  Pr47  1  -0.00168824  0.00994570  0.12529114  1
  Pr3+  Pr48  1  0.82855486  0.48589539  0.87485316  1
  Pr3+  Pr49  1  0.66485008  0.01020210  0.12534226  1
  Pr3+  Pr50  1  0.67196958  0.31869769  0.37476801  1
  Pr3+  Pr51  1  0.33356856  0.67788407  0.62563425  1
  Pr3+  Pr52  1  0.83443557  0.51408668  0.12386811  1
  Pr3+  Pr53  1  0.33372315  0.98845229  0.87299766  1
  Pr3+  Pr54  1  0.49868042  0.81923440  0.87493542  1
  Pr3+  Pr55  1  0.66470370  0.01312375  0.62479744  1
  Pr3+  Pr56  1  0.99831127  0.32093857  0.37502451  1
  Pr3+  Pr57  1  0.33925507  0.65098897  0.87625259  1
  Pr3+  Pr58  1  0.33346204  0.34617948  0.62657982  1
  Pr3+  Pr59  1  0.33863725  0.98597957  0.37650055  1
  Pr3+  Pr60  1  0.66282204  0.34667943  0.12214228  1
  Pr3+  Pr61  1  0.83395065  0.84243366  0.62793328  1
  Pr3+  Pr62  1  0.16949756  0.51323692  0.12210184  1
  Pr3+  Pr63  1  0.16782246  0.51138338  0.62832449  1
  Pr3+  Pr64  1  1.00233376  0.98478341  0.37617791  1
  Pr3+  Pr65  1  0.50346199  0.84549418  0.62485485  1
  Pr3+  Pr66  1  0.82892708  0.82067962  0.37357788  1
  Pr3+  Pr67  1  0.16532650  0.15278197  0.37525021  1
  Pr3+  Pr68  1  -0.00448189  0.34528539  0.62710002  1
  Pr3+  Pr69  1  1.00142508  0.65557194  0.37481502  1
  Pr3+  Pr70  1  0.49855405  0.15751639  0.87476372  1
  Pr3+  Pr71  1  1.00257638  0.99082460  0.87435516  1
  Mn3.30+  Mn72  1  0.16598232  0.00025923  -0.00030509  1
  Mn3.30+  Mn73  1  0.16841928  -0.00121863  0.50005671  1
  Mn3.30+  Mn74  1  0.16754277  0.33356706  -0.00266947  1
  Mn3.30+  Mn75  1  0.16674630  0.33359245  0.49979874  1
  Mn3.30+  Mn76  1  0.16709773  0.66700075  -0.00086437  1
  Mn3.30+  Mn77  1  0.16678760  0.66790226  0.50036034  1
  Mn3.30+  Mn78  1  0.50026788  -0.00017976  -0.00169480  1
  Mn3.30+  Mn79  1  0.49832823  0.00093840  0.50163931  1
  Mn3.30+  Mn80  1  0.49903301  0.33513625  -0.00421421  1
  Mn3.30+  Mn81  1  0.50097797  0.33639656  0.50136983  1
  Mn3.30+  Mn82  1  0.50212263  0.66588740  -0.00024711  1
  Mn3.30+  Mn83  1  0.50230230  0.66666470  0.50093616  1
  Mn3.30+  Mn84  1  0.83382389  -0.00231237  0.00065571  1
  Mn3.30+  Mn85  1  0.83373172  -0.00075282  0.49932424  1
  Mn3.30+  Mn86  1  0.83173815  0.33309763  -0.00145421  1
  Mn3.30+  Mn87  1  0.83173469  0.33352209  0.49971735  1
  Mn3.30+  Mn88  1  0.83128290  0.66824962  0.00032491  1
  Mn3.30+  Mn89  1  0.83159651  0.66484466  0.50069451  1
  Mn3.30+  Mn90  1  -0.00140160  0.16571410  0.25195130  1
  Mn3.30+  Mn91  1  0.00143795  0.16811779  0.75066687  1
  Mn3.30+  Mn92  1  -0.00189006  0.50158753  0.25097593  1
  Mn3.30+  Mn93  1  0.00108514  0.50004412  0.75210776  1
  Mn3.30+  Mn94  1  0.00086608  0.83349237  0.24833333  1
  Mn3.30+  Mn95  1  -0.00044537  0.83321912  0.75203120  1
  Mn3.30+  Mn96  1  0.33381886  0.16560180  0.24882051  1
  Mn3.30+  Mn97  1  0.33244551  0.16782662  0.75210055  1
  Mn3.30+  Mn98  1  0.33334848  0.50124545  0.24944164  1
  Mn3.30+  Mn99  1  0.33596614  0.49826691  0.75145413  1
  Mn3.30+  Mn100  1  0.33049621  0.83294913  0.25051313  1
  Mn3.30+  Mn101  1  0.33351595  0.83337434  0.74918978  1
  Mn3.30+  Mn102  1  0.66839443  0.16550954  0.25078738  1
  Mn3.30+  Mn103  1  0.66681912  0.16847369  0.75041014  1
  Mn3.30+  Mn104  1  0.66816004  0.50071657  0.24886396  1
  Mn3.30+  Mn105  1  0.66303054  0.50099935  0.75246271  1
  Mn3.30+  Mn106  1  0.66778865  0.83184194  0.24815454  1
  Mn3.30+  Mn107  1  0.66813588  0.83128144  0.74989688  1
  Mn3.30+  Mn108  1  0.16640941  -0.00388590  0.25146311  1
  Mn3.30+  Mn109  1  0.16793219  0.00259051  0.74912703  1
  Mn3.30+  Mn110  1  0.16660180  0.33317633  0.25064438  1
  Mn3.30+  Mn111  1  0.16768455  0.33408269  0.75246843  1
  Mn3.30+  Mn112  1  0.16671120  0.66961819  0.24995140  1
  Mn3.30+  Mn113  1  0.16711312  0.66545760  0.75152168  1
  Mn3.30+  Mn114  1  0.49900487  -0.00005773  0.24990976  1
  Mn3.30+  Mn115  1  0.49960646  0.00067654  0.75003805  1
  Mn3.30+  Mn116  1  0.50076791  0.33496318  0.24949110  1
  Mn3.30+  Mn117  1  0.49935964  0.33626129  0.75320914  1
  Mn3.30+  Mn118  1  0.50197547  0.66840924  0.24864141  1
  Mn3.30+  Mn119  1  0.50242853  0.66346206  0.75042715  1
  Mn3.30+  Mn120  1  0.83356370  -0.00158683  0.24928968  1
  Mn3.30+  Mn121  1  0.83417485  -0.00117804  0.75087942  1
  Mn3.30+  Mn122  1  0.83248557  0.33450656  0.25050368  1
  Mn3.30+  Mn123  1  0.83107651  0.33227695  0.75080612  1
  Mn3.30+  Mn124  1  0.83253299  0.66740362  0.24755412  1
  Mn3.30+  Mn125  1  0.83075293  0.66592355  0.75085943  1
  Mn3.30+  Mn126  1  0.00164141  0.16728925  -0.00010986  1
  Mn3.30+  Mn127  1  -0.00191080  0.16639388  0.49757529  1
  Mn3.30+  Mn128  1  0.00151793  0.50155096  -0.00148707  1
  Mn3.30+  Mn129  1  -0.00205694  0.49996457  0.49838476  1
  Mn3.30+  Mn130  1  -0.00124232  0.83429033  -0.00023539  1
  Mn3.30+  Mn131  1  0.00083738  0.83205544  0.50014294  1
  Mn3.30+  Mn132  1  0.33214460  0.16733742  -0.00315544  1
  Mn3.30+  Mn133  1  0.33394921  0.16588022  0.50215274  1
  Mn3.30+  Mn134  1  0.33379358  0.49801645  -0.00354419  1
  Mn3.30+  Mn135  1  0.33537390  0.50123077  0.50307834  1
  Mn3.30+  Mn136  1  0.33146087  0.83266243  -0.00015926  1
  Mn3.30+  Mn137  1  0.33263805  0.83382459  0.50043697  1
  Mn3.30+  Mn138  1  0.66712011  0.16704710  -0.00059086  1
  Mn3.30+  Mn139  1  0.66822640  0.16683522  0.49965891  1
  Mn3.30+  Mn140  1  0.66469169  0.50119420  -0.00332277  1
  Mn3.30+  Mn141  1  0.66645729  0.50084824  0.50131739  1
  Mn3.30+  Mn142  1  0.66996116  0.83200303  0.00156428  1
  Mn3.30+  Mn143  1  0.66616244  0.83143246  0.50006364  1
  O2-  O144  1  0.02527144  0.16037462  0.12767166  1
  O2-  O145  1  0.02458507  0.16305837  0.62224566  1
  O2-  O146  1  0.02439776  0.49668468  0.12630646  1
  O2-  O147  1  0.02303569  0.49531202  0.62413594  1
  O2-  O148  1  0.02854420  0.83189311  0.12580599  1
  O2-  O149  1  0.02596364  0.82797017  0.62583575  1
  O2-  O150  1  0.35873766  0.15891404  0.12189226  1
  O2-  O151  1  0.35862706  0.16261423  0.62770612  1
  O2-  O152  1  0.35916556  0.49326496  0.12203558  1
  O2-  O153  1  0.36389671  0.49409085  0.62608574  1
  O2-  O154  1  0.35689755  0.83714624  0.12228188  1
  O2-  O155  1  0.35969228  0.82578328  0.62623665  1
  O2-  O156  1  0.69230361  0.16063081  0.12542291  1
  O2-  O157  1  0.68623617  0.16253083  0.62428853  1
  O2-  O158  1  0.69125423  0.49107374  0.12375151  1
  O2-  O159  1  0.69174818  0.49257929  0.62603003  1
  O2-  O160  1  0.69270899  0.83133039  0.12567206  1
  O2-  O161  1  0.69000149  0.83026032  0.62376952  1
  O2-  O162  1  0.14155130  0.32670185  0.12700088  1
  O2-  O163  1  0.14016524  0.32800629  0.62251180  1
  O2-  O164  1  0.14185999  0.65926757  0.12572055  1
  O2-  O165  1  0.14125421  0.65967243  0.62633641  1
  O2-  O166  1  0.14217266  0.99174345  0.12795965  1
  O2-  O167  1  0.13930949  0.99499147  0.62413304  1
  O2-  O168  1  0.47626988  0.32901088  0.12224240  1
  O2-  O169  1  0.47670398  0.32660999  0.62706823  1
  O2-  O170  1  0.47885959  0.66436179  0.12426966  1
  O2-  O171  1  0.47631843  0.66217337  0.62664647  1
  O2-  O172  1  0.47490973  0.99344055  0.12154725  1
  O2-  O173  1  0.47431933  0.99433523  0.62704336  1
  O2-  O174  1  0.80724456  0.32783540  0.12341583  1
  O2-  O175  1  0.80747956  0.33212027  0.62523869  1
  O2-  O176  1  0.80538283  0.65905266  0.12603300  1
  O2-  O177  1  0.80638978  0.65924717  0.62430816  1
  O2-  O178  1  0.80819469  0.99113529  0.12451446  1
  O2-  O179  1  0.80923687  0.99153676  0.62448333  1
  O2-  O180  1  0.30953996  0.17230667  0.37553256  1
  O2-  O181  1  0.30504873  0.17431767  0.87509119  1
  O2-  O182  1  0.30960673  0.50760553  0.37809258  1
  O2-  O183  1  0.30480275  0.50648360  0.87380249  1
  O2-  O184  1  0.30607970  0.83897555  0.37862447  1
  O2-  O185  1  0.30801335  0.83897757  0.87290001  1
  O2-  O186  1  0.64656871  0.16950403  0.37489083  1
  O2-  O187  1  0.64326603  0.17079285  0.87560822  1
  O2-  O188  1  0.64106380  0.50415223  0.37479116  1
  O2-  O189  1  0.63817855  0.50678554  0.87483851  1
  O2-  O190  1  0.64851401  0.83892132  0.37473617  1
  O2-  O191  1  0.64233207  0.83865417  0.87506319  1
  O2-  O192  1  0.97100063  0.17172784  0.37344337  1
  O2-  O193  1  0.97586244  0.16574162  0.87699232  1
  O2-  O194  1  0.97135924  0.50753209  0.37406482  1
  O2-  O195  1  0.97441438  0.50076484  0.87533733  1
  O2-  O196  1  0.97285451  0.83547819  0.37476887  1
  O2-  O197  1  0.97264694  0.84205407  0.87393141  1
  O2-  O198  1  0.19557379  0.00722819  0.37612247  1
  O2-  O199  1  0.19023375  0.00834244  0.87227071  1
  O2-  O200  1  0.19476424  0.34059580  0.37583322  1
  O2-  O201  1  0.19250988  0.34341176  0.87504788  1
  O2-  O202  1  0.19173475  0.67267020  0.37614333  1
  O2-  O203  1  0.19432123  0.67535504  0.87314596  1
  O2-  O204  1  0.52318954  0.00214965  0.37644835  1
  O2-  O205  1  0.52778259  0.00667089  0.87512958  1
  O2-  O206  1  0.52616487  0.34196277  0.37593607  1
  O2-  O207  1  0.52844970  0.33779344  0.87508721  1
  O2-  O208  1  0.52525640  0.66634949  0.37354931  1
  O2-  O209  1  0.51997572  0.67365658  0.87507440  1
  O2-  O210  1  0.85711853  0.00267449  0.37477046  1
  O2-  O211  1  0.85847549  0.00928132  0.87667060  1
  O2-  O212  1  0.85573857  0.34446332  0.37428679  1
  O2-  O213  1  0.85424934  0.33671575  0.87649272  1
  O2-  O214  1  0.85855650  0.67454697  0.37355009  1
  O2-  O215  1  0.85061873  0.67103957  0.87522558  1
  O2-  O216  1  0.23868535  0.09186944  0.02286552  1
  O2-  O217  1  0.23559852  0.09589919  0.51897488  1
  O2-  O218  1  0.24037535  0.42569292  0.02438150  1
  O2-  O219  1  0.24068020  0.42915740  0.52196931  1
  O2-  O220  1  0.23587527  0.76525929  0.01665526  1
  O2-  O221  1  0.23920458  0.76047274  0.52451613  1
  O2-  O222  1  0.57232390  0.09424528  0.02101875  1
  O2-  O223  1  0.57235131  0.09292937  0.52199238  1
  O2-  O224  1  0.57086894  0.42850306  0.02182017  1
  O2-  O225  1  0.56929859  0.43194008  0.52197981  1
  O2-  O226  1  0.57211687  0.76518337  0.01709720  1
  O2-  O227  1  0.57096324  0.76100839  0.52029939  1
  O2-  O228  1  0.90399882  0.09345737  0.02251185  1
  O2-  O229  1  0.90882404  0.08920828  0.51831806  1
  O2-  O230  1  0.90475289  0.42763103  0.02053680  1
  O2-  O231  1  0.90488883  0.42641443  0.52184024  1
  O2-  O232  1  0.90729058  0.76159533  0.02283165  1
  O2-  O233  1  0.90339597  0.75946791  0.52232810  1
  O2-  O234  1  0.26198492  0.25953901  0.22960200  1
  O2-  O235  1  0.26109726  0.26129082  0.72656707  1
  O2-  O236  1  0.25738896  0.59249561  0.23393508  1
  O2-  O237  1  0.26412533  0.59334344  0.72845571  1
  O2-  O238  1  0.26239669  0.92989548  0.23305940  1
  O2-  O239  1  0.26065893  0.93003990  0.72871169  1
  O2-  O240  1  0.59537148  0.26186672  0.23006539  1
  O2-  O241  1  0.59157816  0.26146716  0.73033050  1
  O2-  O242  1  0.59891828  0.59441863  0.22911654  1
  O2-  O243  1  0.59632771  0.59673301  0.72711255  1
  O2-  O244  1  0.59346844  0.92657935  0.22969034  1
  O2-  O245  1  0.59673847  0.92768076  0.73014576  1
  O2-  O246  1  0.92683466  0.26466876  0.22937729  1
  O2-  O247  1  0.93042980  0.26002059  0.73218576  1
  O2-  O248  1  0.92762909  0.59792620  0.22760664  1
  O2-  O249  1  0.92573842  0.59260057  0.72883968  1
  O2-  O250  1  0.93101289  0.92951058  0.23394426  1
  O2-  O251  1  0.92886617  0.92634791  0.72791164  1
  O2-  O252  1  0.09500798  0.23962836  0.27285830  1
  O2-  O253  1  0.09926423  0.23647307  0.76702651  1
  O2-  O254  1  0.09436414  0.57396723  0.27263719  1
  O2-  O255  1  0.09904939  0.57103421  0.76771127  1
  O2-  O256  1  0.09360000  0.90511763  0.27718593  1
  O2-  O257  1  0.09517490  0.90770608  0.77028633  1
  O2-  O258  1  0.42684998  0.24234608  0.26553388  1
  O2-  O259  1  0.42934447  0.23818830  0.76893895  1
  O2-  O260  1  0.42850066  0.57326056  0.26815545  1
  O2-  O261  1  0.42770816  0.57062840  0.77368957  1
  O2-  O262  1  0.42429874  0.90767865  0.26699700  1
  O2-  O263  1  0.42881678  0.90603002  0.77186211  1
  O2-  O264  1  0.76481807  0.23708361  0.27020858  1
  O2-  O265  1  0.76096206  0.23854443  0.77009727  1
  O2-  O266  1  0.76288119  0.56833087  0.27152602  1
  O2-  O267  1  0.76318043  0.56692392  0.76696007  1
  O2-  O268  1  0.76045078  0.90696783  0.27130143  1
  O2-  O269  1  0.76269929  0.90441528  0.77116044  1
  O2-  O270  1  0.07354451  0.07046325  0.47824471  1
  O2-  O271  1  0.06989642  0.07075501  0.98485567  1
  O2-  O272  1  0.07202324  0.40660055  0.47692639  1
  O2-  O273  1  0.07409508  0.40505560  0.98859232  1
  O2-  O274  1  0.06851923  0.73702476  0.48314218  1
  O2-  O275  1  0.07201437  0.74234826  0.98155277  1
  O2-  O276  1  0.40411689  0.07201385  0.48316729  1
  O2-  O277  1  0.40407804  0.07392651  0.97618160  1
  O2-  O278  1  0.40483785  0.40691202  0.47829288  1
  O2-  O279  1  0.40157861  0.40089217  0.97921414  1
  O2-  O280  1  0.40211010  0.73741758  0.48348522  1
  O2-  O281  1  0.40563756  0.74085306  0.97945792  1
  O2-  O282  1  0.73832979  0.06783498  0.48318754  1
  O2-  O283  1  0.73913603  0.07025194  0.98065400  1
  O2-  O284  1  0.73363680  0.40261503  0.48326381  1
  O2-  O285  1  0.73448962  0.40454228  0.97881017  1
  O2-  O286  1  0.74075882  0.73694505  0.47832207  1
  O2-  O287  1  0.73974944  0.74039159  0.98466134  1
  O2-  O288  1  0.09333018  0.23832388  0.47615834  1
  O2-  O289  1  0.10040901  0.23646630  0.98326141  1
  O2-  O290  1  0.09491282  0.57207304  0.47936192  1
  O2-  O291  1  0.09679340  0.57061482  0.98227339  1
  O2-  O292  1  0.09732954  0.90467910  0.47864882  1
  O2-  O293  1  0.09313016  0.90893084  0.97561692  1
  O2-  O294  1  0.42658095  0.24377955  0.48408398  1
  O2-  O295  1  0.43067959  0.23741886  0.98176010  1
  O2-  O296  1  0.42752967  0.57476521  0.47915816  1
  O2-  O297  1  0.42823533  0.56825415  0.97921101  1
  O2-  O298  1  0.42575121  0.90690903  0.48307780  1
  O2-  O299  1  0.42741044  0.90622204  0.97687432  1
  O2-  O300  1  0.76277546  0.23949046  0.47634959  1
  O2-  O301  1  0.76370485  0.23551960  0.98345471  1
  O2-  O302  1  0.76365409  0.56863630  0.47778737  1
  O2-  O303  1  0.76342841  0.56645975  0.98322582  1
  O2-  O304  1  0.76248324  0.90479189  0.48117826  1
  O2-  O305  1  0.76205140  0.90564253  0.97580516  1
  O2-  O306  1  0.07467453  0.06920362  0.27340165  1
  O2-  O307  1  0.07121640  0.07163907  0.76511949  1
  O2-  O308  1  0.07159486  0.40674256  0.27178756  1
  O2-  O309  1  0.07488556  0.40582859  0.76231790  1
  O2-  O310  1  0.06750363  0.73604405  0.26740437  1
  O2-  O311  1  0.07470385  0.74287588  0.76883347  1
  O2-  O312  1  0.40241010  0.07086497  0.26639052  1
  O2-  O313  1  0.40578060  0.07608858  0.77440385  1
  O2-  O314  1  0.40506860  0.40656933  0.27073444  1
  O2-  O315  1  0.40194940  0.40136345  0.77144050  1
  O2-  O316  1  0.40181158  0.74045070  0.26812517  1
  O2-  O317  1  0.40601961  0.73653322  0.76894753  1
  O2-  O318  1  0.73773716  0.06796538  0.26728215  1
  O2-  O319  1  0.73942950  0.07135118  0.76886997  1
  O2-  O320  1  0.73452934  0.40142236  0.26582641  1
  O2-  O321  1  0.73395437  0.40572124  0.77109586  1
  O2-  O322  1  0.73992929  0.73801822  0.27192547  1
  O2-  O323  1  0.74070820  0.74118122  0.76275882  1
  O2-  O324  1  0.23704627  0.09348994  0.22942438  1
  O2-  O325  1  0.23935517  0.09530231  0.72873845  1
  O2-  O326  1  0.23867796  0.42721910  0.22980636  1
  O2-  O327  1  0.24175583  0.42635104  0.72438388  1
  O2-  O328  1  0.23394220  0.76409134  0.23161239  1
  O2-  O329  1  0.23885985  0.76057616  0.72811351  1
  O2-  O330  1  0.57278951  0.09260718  0.22713555  1
  O2-  O331  1  0.57229216  0.09453771  0.73000092  1
  O2-  O332  1  0.57066421  0.43017635  0.22883293  1
  O2-  O333  1  0.57018513  0.42946727  0.72731409  1
  O2-  O334  1  0.57291167  0.76201193  0.22909333  1
  O2-  O335  1  0.56981546  0.76415346  0.73325456  1
  O2-  O336  1  0.90469092  0.09101481  0.22709351  1
  O2-  O337  1  0.90869220  0.09145285  0.73214479  1
  O2-  O338  1  0.90489012  0.42702221  0.22646143  1
  O2-  O339  1  0.90401605  0.42613405  0.73084445  1
  O2-  O340  1  0.90503126  0.76426983  0.22632125  1
  O2-  O341  1  0.90783635  0.75752869  0.72766048  1
  O2-  O342  1  0.26172166  0.25989292  0.02384576  1
  O2-  O343  1  0.26112132  0.26069131  0.52080718  1
  O2-  O344  1  0.26128676  0.59203272  0.01685177  1
  O2-  O345  1  0.26209119  0.59316433  0.52246476  1
  O2-  O346  1  0.26225092  0.93018418  0.01318926  1
  O2-  O347  1  0.26218722  0.92941210  0.52475006  1
  O2-  O348  1  0.59264887  0.26014603  0.02127800  1
  O2-  O349  1  0.59432917  0.26387132  0.51908580  1
  O2-  O350  1  0.59598721  0.59447707  0.02438742  1
  O2-  O351  1  0.60099085  0.59700364  0.51736037  1
  O2-  O352  1  0.59682033  0.92657718  0.01959835  1
  O2-  O353  1  0.59304865  0.92887298  0.52053706  1
  O2-  O354  1  0.92897563  0.25876955  0.02306186  1
  O2-  O355  1  0.92943214  0.26590879  0.51544150  1
  O2-  O356  1  0.92532620  0.59534209  0.02178552  1
  O2-  O357  1  0.92776948  0.59581114  0.52114977  1
  O2-  O358  1  0.93073216  0.93015869  0.01934463  1
  O2-  O359  1  0.92876586  0.92560245  0.51994151  1
