# generated using pymatgen
data_Sr7Ca15Pr50Mn72O216
_symmetry_space_group_name_H-M   'P 1'
_cell_length_a   16.55991434
_cell_length_b   16.60382729
_cell_length_c   15.59398892
_cell_angle_alpha   89.99678456
_cell_angle_beta   89.99916474
_cell_angle_gamma   90.00688560
_symmetry_Int_Tables_number   1
_chemical_formula_structural   Sr7Ca15Pr50Mn72O216
_chemical_formula_sum   'Sr7 Ca15 Pr50 Mn72 O216'
_cell_volume   4287.69130813
_cell_formula_units_Z   1
loop_
 _symmetry_equiv_pos_site_id
 _symmetry_equiv_pos_as_xyz
  1  'x, y, z'
loop_
 _atom_type_symbol
 _atom_type_oxidation_number
  Sr2+  2.0
  Ca2+  2.0
  Pr3+  3.0
  Mn3.30+  3.3
  O2-  -2.0
loop_
 _atom_site_type_symbol
 _atom_site_label
 _atom_site_symmetry_multiplicity
 _atom_site_fract_x
 _atom_site_fract_y
 _atom_site_fract_z
 _atom_site_occupancy
  Sr2+  Sr0  1  0.83536951  0.17653264  0.62278238  1
  Sr2+  Sr1  1  0.16886070  0.84539900  0.62234178  1
  Sr2+  Sr2  1  0.33088811  0.01429169  0.12726915  1
  Sr2+  Sr3  1  0.83345355  0.50675358  0.12477444  1
  Sr2+  Sr4  1  0.49887136  0.15749629  0.37317170  1
  Sr2+  Sr5  1  0.50065781  0.17670595  0.12794648  1
  Sr2+  Sr6  1  0.49672854  0.49100182  0.37197193  1
  Ca2+  Ca7  1  0.83023922  0.15429657  0.37489566  1
  Ca2+  Ca8  1  0.33699909  0.32020619  0.87853116  1
  Ca2+  Ca9  1  0.17599033  0.18505835  0.12796683  1
  Ca2+  Ca10  1  0.16690882  0.82202402  0.37396132  1
  Ca2+  Ca11  1  0.33282563  0.34557041  0.62330482  1
  Ca2+  Ca12  1  0.83704579  0.84735177  0.12599250  1
  Ca2+  Ca13  1  0.33429308  0.99030347  0.37300217  1
  Ca2+  Ca14  1  0.33622326  0.65265615  0.37438745  1
  Ca2+  Ca15  1  0.49277074  0.47906442  0.87767853  1
  Ca2+  Ca16  1  0.66842540  0.31697246  0.37330146  1
  Ca2+  Ca17  1  0.33794731  0.34240545  0.12692298  1
  Ca2+  Ca18  1  -0.00238672  0.34759459  0.12589552  1
  Ca2+  Ca19  1  0.16631387  0.15325186  0.37091956  1
  Ca2+  Ca20  1  0.50138927  0.50982895  0.12516860  1
  Ca2+  Ca21  1  0.66547925  0.32007456  0.87644127  1
  Pr3+  Pr22  1  0.82962297  0.82069966  0.37310076  1
  Pr3+  Pr23  1  1.00435884  0.98845848  0.37464487  1
  Pr3+  Pr24  1  0.32930910  0.67910081  0.62204260  1
  Pr3+  Pr25  1  0.33609833  0.98890335  0.87719151  1
  Pr3+  Pr26  1  -0.00428325  0.34388772  0.62400416  1
  Pr3+  Pr27  1  0.66229739  0.67978440  0.62429476  1
  Pr3+  Pr28  1  1.00331938  0.98947684  0.87541699  1
  Pr3+  Pr29  1  0.17105539  0.18118884  0.62179078  1
  Pr3+  Pr30  1  0.16454734  0.82129309  0.87581068  1
  Pr3+  Pr31  1  1.00302825  0.65225227  0.87597208  1
  Pr3+  Pr32  1  0.82757465  0.48200708  0.87668286  1
  Pr3+  Pr33  1  0.50113718  0.84750843  0.62432289  1
  Pr3+  Pr34  1  0.16802728  0.50812837  0.12546569  1
  Pr3+  Pr35  1  1.00301390  0.65500637  0.37432552  1
  Pr3+  Pr36  1  0.17124865  0.84674583  0.12738806  1
  Pr3+  Pr37  1  0.49500596  0.82290775  0.37422630  1
  Pr3+  Pr38  1  0.66301813  0.67623047  0.12621385  1
  Pr3+  Pr39  1  0.83702660  0.18161101  0.12761316  1
  Pr3+  Pr40  1  1.00365170  0.31849885  0.37142958  1
  Pr3+  Pr41  1  0.66713533  0.65091606  0.87513366  1
  Pr3+  Pr42  1  0.50182794  0.18119725  0.62262466  1
  Pr3+  Pr43  1  -0.00076110  0.01508412  0.62361638  1
  Pr3+  Pr44  1  0.33677893  0.32140172  0.37355613  1
  Pr3+  Pr45  1  0.16678368  0.48849735  0.37356719  1
  Pr3+  Pr46  1  1.00293067  0.32095490  0.87862970  1
  Pr3+  Pr47  1  0.65823555  0.34674785  0.12539553  1
  Pr3+  Pr48  1  0.66779672  0.65252016  0.37478526  1
  Pr3+  Pr49  1  -0.00594749  0.68074509  0.12534640  1
  Pr3+  Pr50  1  0.66309044  0.34335846  0.62445863  1
  Pr3+  Pr51  1  0.17150603  0.51072834  0.62443887  1
  Pr3+  Pr52  1  0.49709295  0.15899158  0.87695749  1
  Pr3+  Pr53  1  0.82614481  0.48414817  0.37285467  1
  Pr3+  Pr54  1  0.16607421  0.48390895  0.87645282  1
  Pr3+  Pr55  1  0.66410003  0.01593215  0.62396407  1
  Pr3+  Pr56  1  0.32946249  0.01334626  0.62262401  1
  Pr3+  Pr57  1  0.66860911  0.98980484  0.87662370  1
  Pr3+  Pr58  1  0.50134670  0.84689324  0.12632069  1
  Pr3+  Pr59  1  0.66380247  0.01452058  0.12604210  1
  Pr3+  Pr60  1  0.82978713  0.81971998  0.87723503  1
  Pr3+  Pr61  1  0.83832330  0.84738262  0.62436468  1
  Pr3+  Pr62  1  0.49642194  0.82055796  0.87639772  1
  Pr3+  Pr63  1  0.33880624  0.64941551  0.87541575  1
  Pr3+  Pr64  1  0.00025492  0.01274243  0.12632628  1
  Pr3+  Pr65  1  0.83149901  0.15644306  0.87574106  1
  Pr3+  Pr66  1  0.33300377  0.67493431  0.12843660  1
  Pr3+  Pr67  1  0.66958098  0.99294653  0.37304057  1
  Pr3+  Pr68  1  -0.00036708  0.67985270  0.62459369  1
  Pr3+  Pr69  1  0.16671621  0.15698795  0.87719980  1
  Pr3+  Pr70  1  0.83500515  0.51054232  0.62539697  1
  Pr3+  Pr71  1  0.49914667  0.51057362  0.62456411  1
  Mn3.30+  Mn72  1  0.16828288  0.00305979  0.00219511  1
  Mn3.30+  Mn73  1  0.16865250  0.00037511  0.49591115  1
  Mn3.30+  Mn74  1  0.16972939  0.33238728  0.00326437  1
  Mn3.30+  Mn75  1  0.16772097  0.33261860  0.49817513  1
  Mn3.30+  Mn76  1  0.16707577  0.66524406  0.00144470  1
  Mn3.30+  Mn77  1  0.16841392  0.66793580  0.49669430  1
  Mn3.30+  Mn78  1  0.50013673  0.00221976  0.00152080  1
  Mn3.30+  Mn79  1  0.49761791  0.00106081  0.49758285  1
  Mn3.30+  Mn80  1  0.49826590  0.33383261  0.00007035  1
  Mn3.30+  Mn81  1  0.49916033  0.33445652  0.49779624  1
  Mn3.30+  Mn82  1  0.50014006  0.66300843  0.00049624  1
  Mn3.30+  Mn83  1  0.49714647  0.66677491  0.49916390  1
  Mn3.30+  Mn84  1  0.83438568  -0.00031582  0.00211041  1
  Mn3.30+  Mn85  1  0.83495954  0.00207532  0.49818742  1
  Mn3.30+  Mn86  1  0.83230127  0.33249622  0.00167496  1
  Mn3.30+  Mn87  1  0.83161589  0.33054806  0.49797041  1
  Mn3.30+  Mn88  1  0.83211258  0.66520142  0.00084169  1
  Mn3.30+  Mn89  1  0.83302854  0.66607185  0.50036136  1
  Mn3.30+  Mn90  1  0.00371195  0.16761878  0.24861296  1
  Mn3.30+  Mn91  1  0.00094454  0.16810583  0.75011810  1
  Mn3.30+  Mn92  1  -0.00205596  0.49864470  0.24998926  1
  Mn3.30+  Mn93  1  0.00031472  0.49856714  0.75040473  1
  Mn3.30+  Mn94  1  0.00046063  0.83409011  0.25045073  1
  Mn3.30+  Mn95  1  0.00023249  0.83396032  0.75021452  1
  Mn3.30+  Mn96  1  0.33154243  0.16735583  0.25002942  1
  Mn3.30+  Mn97  1  0.33319925  0.17022390  0.74963368  1
  Mn3.30+  Mn98  1  0.33444153  0.49903028  0.24799262  1
  Mn3.30+  Mn99  1  0.33507477  0.49517924  0.75157816  1
  Mn3.30+  Mn100  1  0.33182163  0.83419819  0.25272151  1
  Mn3.30+  Mn101  1  0.33250918  0.83304512  0.74966277  1
  Mn3.30+  Mn102  1  0.66886099  0.16830612  0.25196157  1
  Mn3.30+  Mn103  1  0.66627102  0.16904570  0.75027547  1
  Mn3.30+  Mn104  1  0.66387057  0.49794300  0.24960067  1
  Mn3.30+  Mn105  1  0.66325070  0.49690765  0.75211790  1
  Mn3.30+  Mn106  1  0.66773074  0.83357544  0.24862816  1
  Mn3.30+  Mn107  1  0.66653338  0.83409373  0.75040824  1
  Mn3.30+  Mn108  1  0.16922036  0.00229862  0.25233024  1
  Mn3.30+  Mn109  1  0.16780999  0.00129061  0.74920490  1
  Mn3.30+  Mn110  1  0.16760974  0.33216405  0.24750890  1
  Mn3.30+  Mn111  1  0.16965539  0.33273947  0.75045437  1
  Mn3.30+  Mn112  1  0.16657853  0.66690313  0.25101092  1
  Mn3.30+  Mn113  1  0.16865675  0.66600011  0.75085197  1
  Mn3.30+  Mn114  1  0.49840718  0.00169065  0.25123863  1
  Mn3.30+  Mn115  1  0.49927390  0.00175185  0.75032393  1
  Mn3.30+  Mn116  1  0.49971747  0.33387586  0.25077464  1
  Mn3.30+  Mn117  1  0.49739481  0.33390348  0.75087690  1
  Mn3.30+  Mn118  1  0.49774732  0.66542575  0.25029868  1
  Mn3.30+  Mn119  1  0.49940252  0.66462757  0.75054583  1
  Mn3.30+  Mn120  1  0.83527780  0.00062434  0.24894907  1
  Mn3.30+  Mn121  1  0.83411020  0.00091377  0.75079048  1
  Mn3.30+  Mn122  1  0.83305224  0.33197033  0.25028363  1
  Mn3.30+  Mn123  1  0.83113218  0.33120158  0.75027600  1
  Mn3.30+  Mn124  1  0.83282647  0.66619879  0.24812718  1
  Mn3.30+  Mn125  1  0.83258349  0.66532409  0.75075789  1
  Mn3.30+  Mn126  1  0.00290154  0.16885964  0.00546074  1
  Mn3.30+  Mn127  1  0.00113449  0.16691822  0.49548274  1
  Mn3.30+  Mn128  1  -0.00118637  0.49832499  0.00113165  1
  Mn3.30+  Mn129  1  -0.00044903  0.49928020  0.49900230  1
  Mn3.30+  Mn130  1  -0.00120398  0.83424930  0.00075327  1
  Mn3.30+  Mn131  1  0.00218343  0.83403822  0.49874294  1
  Mn3.30+  Mn132  1  0.33204735  0.17073338  0.00327606  1
  Mn3.30+  Mn133  1  0.33309814  0.16698481  0.49691305  1
  Mn3.30+  Mn134  1  0.33626586  0.49560246  0.00196929  1
  Mn3.30+  Mn135  1  0.33370863  0.49924905  0.49903672  1
  Mn3.30+  Mn136  1  0.33271280  0.83220315  0.00147203  1
  Mn3.30+  Mn137  1  0.33144162  0.83421806  0.49632007  1
  Mn3.30+  Mn138  1  0.66676310  0.16932518  0.00019224  1
  Mn3.30+  Mn139  1  0.66818330  0.16830025  0.49780751  1
  Mn3.30+  Mn140  1  0.66188137  0.49743043  -0.00192615  1
  Mn3.30+  Mn141  1  0.66579288  0.49725000  0.49973291  1
  Mn3.30+  Mn142  1  0.66762123  0.83269639  0.00187619  1
  Mn3.30+  Mn143  1  0.66641950  0.83485272  0.49929161  1
  O2-  O144  1  0.03326261  0.15800284  0.12614577  1
  O2-  O145  1  0.02600959  0.16412397  0.62129518  1
  O2-  O146  1  0.02284851  0.49496847  0.12462931  1
  O2-  O147  1  0.02581545  0.49227429  0.62499463  1
  O2-  O148  1  0.02713902  0.82890928  0.12437971  1
  O2-  O149  1  0.01939353  0.82785392  0.62519315  1
  O2-  O150  1  0.35312011  0.16549731  0.12641013  1
  O2-  O151  1  0.35858200  0.15867244  0.62332395  1
  O2-  O152  1  0.35938926  0.49287056  0.12383399  1
  O2-  O153  1  0.35544976  0.49250272  0.62741129  1
  O2-  O154  1  0.35727827  0.82464024  0.12605038  1
  O2-  O155  1  0.35768279  0.82745877  0.62392783  1
  O2-  O156  1  0.69149447  0.16321075  0.12535542  1
  O2-  O157  1  0.68561618  0.16419982  0.62409308  1
  O2-  O158  1  0.68488664  0.49526240  0.12334059  1
  O2-  O159  1  0.69227869  0.49240962  0.62525425  1
  O2-  O160  1  0.69547990  0.82412138  0.12366043  1
  O2-  O161  1  0.69415627  0.82776826  0.62333460  1
  O2-  O162  1  0.13864226  0.33225726  0.12591831  1
  O2-  O163  1  0.13891082  0.32982589  0.62219581  1
  O2-  O164  1  0.13823375  0.65888530  0.12521566  1
  O2-  O165  1  0.14314239  0.65899943  0.62577772  1
  O2-  O166  1  0.14282831  0.99202573  0.12563173  1
  O2-  O167  1  0.14284553  0.99966944  0.62297257  1
  O2-  O168  1  0.47987833  0.32891396  0.12493433  1
  O2-  O169  1  0.47469426  0.32821944  0.62470303  1
  O2-  O170  1  0.47737933  0.66182371  0.12510754  1
  O2-  O171  1  0.47421315  0.66173547  0.62644799  1
  O2-  O172  1  0.48178175  0.99554447  0.12620695  1
  O2-  O173  1  0.47449253  0.99570877  0.62523895  1
  O2-  O174  1  0.80481933  0.32910264  0.12594082  1
  O2-  O175  1  0.80840478  0.33192414  0.62364025  1
  O2-  O176  1  0.80702826  0.66086490  0.12228985  1
  O2-  O177  1  0.80613146  0.65948220  0.62643214  1
  O2-  O178  1  0.80807995  0.99252924  0.12437617  1
  O2-  O179  1  0.80904537  0.99401022  0.62635472  1
  O2-  O180  1  0.30661227  0.17603414  0.37515601  1
  O2-  O181  1  0.30900398  0.17571701  0.87480467  1
  O2-  O182  1  0.30999769  0.50629508  0.37289623  1
  O2-  O183  1  0.30761969  0.50561010  0.87598219  1
  O2-  O184  1  0.30785098  0.84479225  0.37479208  1
  O2-  O185  1  0.30919069  0.83849312  0.87597350  1
  O2-  O186  1  0.64891035  0.16505654  0.37536924  1
  O2-  O187  1  0.64328628  0.17019707  0.87498862  1
  O2-  O188  1  0.64687037  0.50721066  0.37694439  1
  O2-  O189  1  0.63461176  0.50613606  0.87393046  1
  O2-  O190  1  0.64096140  0.84091721  0.37579453  1
  O2-  O191  1  0.63944825  0.84068879  0.87708878  1
  O2-  O192  1  0.97255575  0.17138704  0.37185512  1
  O2-  O193  1  0.97600313  0.17272992  0.87997142  1
  O2-  O194  1  0.97157518  0.50757624  0.37618062  1
  O2-  O195  1  0.97375549  0.50450549  0.87420670  1
  O2-  O196  1  0.97248097  0.83804093  0.37526215  1
  O2-  O197  1  0.97351761  0.83990344  0.87535018  1
  O2-  O198  1  0.19370330  0.01026633  0.37423318  1
  O2-  O199  1  0.19228893  0.00778461  0.87689187  1
  O2-  O200  1  0.19265409  0.34174389  0.37442584  1
  O2-  O201  1  0.19348400  0.33620460  0.87730330  1
  O2-  O202  1  0.19281157  0.67221123  0.37207439  1
  O2-  O203  1  0.19358342  0.67283656  0.87640610  1
  O2-  O204  1  0.52531489  -0.00477087  0.37494476  1
  O2-  O205  1  0.52400627  0.00607615  0.87483479  1
  O2-  O206  1  0.52482038  0.33747757  0.37647152  1
  O2-  O207  1  0.52455912  0.33425398  0.87357371  1
  O2-  O208  1  0.52496912  0.67377240  0.37486557  1
  O2-  O209  1  0.52462982  0.67528053  0.87413966  1
  O2-  O210  1  0.85909104  0.00686675  0.37222340  1
  O2-  O211  1  0.85897493  0.00694149  0.87679522  1
  O2-  O212  1  0.85945983  0.33943736  0.37465654  1
  O2-  O213  1  0.85830034  0.33345604  0.87623970  1
  O2-  O214  1  0.85807416  0.67246887  0.37534247  1
  O2-  O215  1  0.85873219  0.67215543  0.87547440  1
  O2-  O216  1  0.23544745  0.10061784  0.01612694  1
  O2-  O217  1  0.23974160  0.09494762  0.52165904  1
  O2-  O218  1  0.23514347  0.43114886  0.01753227  1
  O2-  O219  1  0.23527740  0.43023074  0.51566517  1
  O2-  O220  1  0.23724268  0.75933371  0.02178892  1
  O2-  O221  1  0.24158695  0.75834568  0.51859739  1
  O2-  O222  1  0.57790563  0.09370853  0.01670289  1
  O2-  O223  1  0.57229446  0.09265315  0.51975640  1
  O2-  O224  1  0.56801550  0.42826935  0.02109245  1
  O2-  O225  1  0.57275282  0.42639658  0.52493370  1
  O2-  O226  1  0.57278867  0.76207966  0.02109942  1
  O2-  O227  1  0.57048183  0.76094991  0.52132049  1
  O2-  O228  1  0.90830674  0.09622291  0.02324556  1
  O2-  O229  1  0.91054394  0.09093909  0.51859165  1
  O2-  O230  1  0.90405177  0.42589426  0.01221152  1
  O2-  O231  1  0.90276887  0.42767588  0.52006679  1
  O2-  O232  1  0.90556065  0.76561280  0.02088695  1
  O2-  O233  1  0.90304391  0.76012620  0.52047763  1
  O2-  O234  1  0.26231795  0.26659658  0.23089911  1
  O2-  O235  1  0.26172297  0.26110393  0.72366708  1
  O2-  O236  1  0.25734016  0.59073000  0.22561753  1
  O2-  O237  1  0.26469971  0.59312089  0.73058284  1
  O2-  O238  1  0.25793254  0.92493231  0.23000946  1
  O2-  O239  1  0.26376332  0.93172227  0.73444924  1
  O2-  O240  1  0.59833471  0.26209731  0.23577868  1
  O2-  O241  1  0.59186792  0.26166922  0.72870839  1
  O2-  O242  1  0.59567815  0.59673571  0.23523970  1
  O2-  O243  1  0.59493559  0.59501386  0.72738542  1
  O2-  O244  1  0.59686300  0.92574655  0.22809298  1
  O2-  O245  1  0.59627158  0.92850413  0.72930773  1
  O2-  O246  1  0.93233627  0.26132948  0.22632340  1
  O2-  O247  1  0.93147681  0.26277619  0.73379883  1
  O2-  O248  1  0.92910398  0.59788712  0.23261295  1
  O2-  O249  1  0.92966190  0.59331204  0.72875445  1
  O2-  O250  1  0.93007223  0.92945799  0.23139330  1
  O2-  O251  1  0.92829160  0.92803308  0.72970963  1
  O2-  O252  1  0.09574355  0.23943043  0.27397155  1
  O2-  O253  1  0.09657368  0.23974842  0.77010309  1
  O2-  O254  1  0.09338703  0.57361050  0.27187281  1
  O2-  O255  1  0.09593018  0.57254532  0.77171763  1
  O2-  O256  1  0.09568838  0.90547816  0.27201057  1
  O2-  O257  1  0.09441147  0.90835930  0.77368594  1
  O2-  O258  1  0.42425738  0.24326856  0.26971554  1
  O2-  O259  1  0.43146270  0.23536355  0.76567372  1
  O2-  O260  1  0.42330059  0.57702965  0.26470278  1
  O2-  O261  1  0.42848593  0.56699100  0.77117902  1
  O2-  O262  1  0.43052424  0.90355824  0.26487935  1
  O2-  O263  1  0.42877829  0.90482034  0.77007752  1
  O2-  O264  1  0.76769359  0.23481675  0.26785859  1
  O2-  O265  1  0.76230412  0.23820520  0.76966461  1
  O2-  O266  1  0.75920550  0.57263377  0.27000201  1
  O2-  O267  1  0.76102416  0.57049217  0.77159898  1
  O2-  O268  1  0.76168975  0.90756492  0.27239128  1
  O2-  O269  1  0.76160056  0.90505516  0.77195338  1
  O2-  O270  1  0.07187424  0.07108417  0.48071967  1
  O2-  O271  1  0.07198286  0.07180788  0.97946383  1
  O2-  O272  1  0.07052933  0.40526025  0.47723459  1
  O2-  O273  1  0.07490656  0.40673249  0.97854239  1
  O2-  O274  1  0.06946548  0.73784604  0.48280780  1
  O2-  O275  1  0.07009264  0.74017255  0.97850803  1
  O2-  O276  1  0.40288952  0.06739676  0.48114743  1
  O2-  O277  1  0.40435091  0.07714876  0.97816757  1
  O2-  O278  1  0.40317812  0.40583079  0.48226559  1
  O2-  O279  1  0.40288395  0.40235272  0.97867940  1
  O2-  O280  1  0.40263188  0.74000743  0.47757118  1
  O2-  O281  1  0.40623773  0.73665182  0.98056352  1
  O2-  O282  1  0.73742289  0.07015270  0.48500065  1
  O2-  O283  1  0.74072891  0.07274872  0.98035036  1
  O2-  O284  1  0.73752909  0.40284141  0.47802504  1
  O2-  O285  1  0.73368104  0.40463868  0.97774834  1
  O2-  O286  1  0.73719433  0.73914879  0.47903099  1
  O2-  O287  1  0.73692014  0.73843458  0.97615573  1
  O2-  O288  1  0.09629980  0.23778395  0.47600329  1
  O2-  O289  1  0.09528010  0.24116760  0.97778838  1
  O2-  O290  1  0.09477195  0.57354869  0.47854860  1
  O2-  O291  1  0.09537982  0.57270930  0.97804361  1
  O2-  O292  1  0.09628222  0.90788715  0.47505375  1
  O2-  O293  1  0.09403755  0.90565828  0.97883811  1
  O2-  O294  1  0.42598358  0.23954600  0.48253690  1
  O2-  O295  1  0.42937932  0.23933597  0.98062683  1
  O2-  O296  1  0.42717457  0.57299218  0.48754140  1
  O2-  O297  1  0.42714595  0.56979409  0.97741983  1
  O2-  O298  1  0.43125515  0.90133006  0.48526516  1
  O2-  O299  1  0.42754302  0.90535763  0.98118731  1
  O2-  O300  1  0.76336921  0.23772649  0.47875581  1
  O2-  O301  1  0.76505076  0.23535825  0.98380818  1
  O2-  O302  1  0.76258788  0.57118088  0.48180311  1
  O2-  O303  1  0.75614951  0.56907382  0.97496767  1
  O2-  O304  1  0.76345196  0.90701578  0.47865642  1
  O2-  O305  1  0.75892150  0.90557080  0.97652798  1
  O2-  O306  1  0.06980019  0.06912469  0.26926187  1
  O2-  O307  1  0.07320315  0.07396666  0.76996876  1
  O2-  O308  1  0.07407446  0.40750782  0.27212175  1
  O2-  O309  1  0.07134044  0.40466286  0.77190777  1
  O2-  O310  1  0.06933050  0.73775534  0.26760110  1
  O2-  O311  1  0.07173506  0.73968409  0.77138387  1
  O2-  O312  1  0.40446843  0.07214711  0.26987219  1
  O2-  O313  1  0.40275903  0.07389295  0.77183116  1
  O2-  O314  1  0.40268375  0.40565999  0.26838234  1
  O2-  O315  1  0.40224845  0.40138991  0.77162289  1
  O2-  O316  1  0.40435907  0.74001236  0.27200942  1
  O2-  O317  1  0.40595657  0.73733355  0.77055955  1
  O2-  O318  1  0.74060177  0.07026821  0.26468081  1
  O2-  O319  1  0.73914855  0.07210461  0.77017745  1
  O2-  O320  1  0.73617555  0.40378841  0.27048786  1
  O2-  O321  1  0.73614697  0.40395284  0.77288882  1
  O2-  O322  1  0.73754823  0.73836483  0.27202691  1
  O2-  O323  1  0.73675478  0.73896286  0.77145406  1
  O2-  O324  1  0.23452194  0.09817472  0.23140992  1
  O2-  O325  1  0.23892186  0.09758239  0.73030297  1
  O2-  O326  1  0.23545196  0.42999625  0.23330449  1
  O2-  O327  1  0.23451966  0.43041722  0.73343610  1
  O2-  O328  1  0.23862310  0.75768416  0.22658696  1
  O2-  O329  1  0.24057369  0.75947066  0.73199799  1
  O2-  O330  1  0.57872117  0.08994462  0.23438078  1
  O2-  O331  1  0.57184222  0.09491980  0.72966180  1
  O2-  O332  1  0.57082466  0.42862088  0.22804118  1
  O2-  O333  1  0.56972275  0.42561950  0.72601445  1
  O2-  O334  1  0.57109999  0.76079286  0.22937430  1
  O2-  O335  1  0.57276733  0.76278910  0.72895565  1
  O2-  O336  1  0.90881889  0.09338146  0.22429854  1
  O2-  O337  1  0.90969854  0.09258992  0.73326986  1
  O2-  O338  1  0.90411195  0.42641710  0.23648270  1
  O2-  O339  1  0.90261458  0.42639577  0.73124413  1
  O2-  O340  1  0.90303347  0.76263742  0.22874529  1
  O2-  O341  1  0.90371679  0.76001828  0.73019951  1
  O2-  O342  1  0.26290229  0.26515057  0.02340647  1
  O2-  O343  1  0.26095351  0.26328978  0.52192544  1
  O2-  O344  1  0.26385956  0.59264705  0.02160313  1
  O2-  O345  1  0.26056106  0.59143210  0.52108843  1
  O2-  O346  1  0.25802303  0.92688381  0.01691803  1
  O2-  O347  1  0.26360316  0.92971520  0.51887239  1
  O2-  O348  1  0.59677388  0.26361988  0.01535586  1
  O2-  O349  1  0.59302625  0.26012188  0.51916889  1
  O2-  O350  1  0.59702621  0.59746290  0.01712835  1
  O2-  O351  1  0.59556929  0.59408790  0.52088122  1
  O2-  O352  1  0.59741472  0.92557351  0.02144099  1
  O2-  O353  1  0.59479205  0.92867960  0.52269841  1
  O2-  O354  1  0.93156356  0.26051872  0.02513630  1
  O2-  O355  1  0.93178700  0.26435270  0.51534706  1
  O2-  O356  1  0.93077612  0.59732013  0.01595996  1
  O2-  O357  1  0.92905374  0.59433893  0.52318849  1
  O2-  O358  1  0.93110333  0.93038315  0.01799152  1
  O2-  O359  1  0.92912591  0.92749292  0.52031371  1
