# generated using pymatgen
data_Sr7Ca15Pr50Mn72O216
_symmetry_space_group_name_H-M   'P 1'
_cell_length_a   16.55907582
_cell_length_b   16.60511000
_cell_length_c   15.59338017
_cell_angle_alpha   90.00210032
_cell_angle_beta   90.00517471
_cell_angle_gamma   90.00468921
_symmetry_Int_Tables_number   1
_chemical_formula_structural   Sr7Ca15Pr50Mn72O216
_chemical_formula_sum   'Sr7 Ca15 Pr50 Mn72 O216'
_cell_volume   4287.63803805
_cell_formula_units_Z   1
loop_
 _symmetry_equiv_pos_site_id
 _symmetry_equiv_pos_as_xyz
  1  'x, y, z'
loop_
 _atom_type_symbol
 _atom_type_oxidation_number
  Sr2+  2.0
  Ca2+  2.0
  Pr3+  3.0
  Mn3.30+  3.3
  O2-  -2.0
loop_
 _atom_site_type_symbol
 _atom_site_label
 _atom_site_symmetry_multiplicity
 _atom_site_fract_x
 _atom_site_fract_y
 _atom_site_fract_z
 _atom_site_occupancy
  Sr2+  Sr0  1  0.49764062  0.49188282  0.37337572  1
  Sr2+  Sr1  1  0.83453868  0.51152447  0.12627578  1
  Sr2+  Sr2  1  0.17141990  0.17592754  0.12318306  1
  Sr2+  Sr3  1  0.50091281  0.50945145  0.62458007  1
  Sr2+  Sr4  1  0.49785353  0.82473255  0.87465126  1
  Sr2+  Sr5  1  0.16960852  0.51043943  0.62437965  1
  Sr2+  Sr6  1  0.66337252  0.67827591  0.12649415  1
  Ca2+  Ca7  1  0.82800291  0.48534954  0.37226760  1
  Ca2+  Ca8  1  0.66092310  0.01317139  0.62395213  1
  Ca2+  Ca9  1  0.33290908  0.01330627  0.12275566  1
  Ca2+  Ca10  1  0.82758196  0.81977078  0.87609024  1
  Ca2+  Ca11  1  1.00828213  0.31509379  0.87679764  1
  Ca2+  Ca12  1  0.17037395  0.51290694  0.12501642  1
  Ca2+  Ca13  1  0.66778804  0.98536721  0.37562135  1
  Ca2+  Ca14  1  1.00322576  0.98570219  0.37443173  1
  Ca2+  Ca15  1  0.33738721  0.64994708  0.37438701  1
  Ca2+  Ca16  1  0.32872801  0.34804135  0.12460472  1
  Ca2+  Ca17  1  0.33598768  0.31799659  0.87906845  1
  Ca2+  Ca18  1  0.50393951  0.84610629  0.12509004  1
  Ca2+  Ca19  1  0.49821513  0.18013319  0.12409172  1
  Ca2+  Ca20  1  0.16664056  0.15413003  0.87798357  1
  Ca2+  Ca21  1  0.50492305  0.85017297  0.62496775  1
  Pr3+  Pr22  1  0.83148830  0.15342443  0.87656002  1
  Pr3+  Pr23  1  0.83390888  0.84263759  0.12475528  1
  Pr3+  Pr24  1  0.66345283  0.34664557  0.62677062  1
  Pr3+  Pr25  1  1.00153283  0.32415851  0.37357340  1
  Pr3+  Pr26  1  -0.00284745  0.01295855  0.12682649  1
  Pr3+  Pr27  1  1.00257503  0.98792954  0.87520586  1
  Pr3+  Pr28  1  1.00058994  0.65230256  0.37433324  1
  Pr3+  Pr29  1  0.66985282  0.65076397  0.37342464  1
  Pr3+  Pr30  1  0.33678414  0.98944746  0.37254109  1
  Pr3+  Pr31  1  0.16266620  0.48359951  0.87659296  1
  Pr3+  Pr32  1  0.33223931  0.67722942  0.12786760  1
  Pr3+  Pr33  1  0.33340572  0.67781994  0.62190306  1
  Pr3+  Pr34  1  0.65807900  0.68112830  0.62422068  1
  Pr3+  Pr35  1  0.16603146  0.82147822  0.87523044  1
  Pr3+  Pr36  1  0.17026293  0.17957756  0.62650794  1
  Pr3+  Pr37  1  0.33539492  0.98885496  0.87740850  1
  Pr3+  Pr38  1  0.83455643  0.17860263  0.62561316  1
  Pr3+  Pr39  1  0.33091618  0.34847010  0.62656024  1
  Pr3+  Pr40  1  0.66860994  0.98393487  0.87457804  1
  Pr3+  Pr41  1  0.16938914  0.84514764  0.62434485  1
  Pr3+  Pr42  1  0.16768490  0.48812530  0.37286954  1
  Pr3+  Pr43  1  0.83667401  0.51309140  0.62411384  1
  Pr3+  Pr44  1  0.33696763  0.65499166  0.87602734  1
  Pr3+  Pr45  1  0.16377977  0.15312227  0.37296821  1
  Pr3+  Pr46  1  0.83364541  0.84761301  0.62566350  1
  Pr3+  Pr47  1  0.66872699  0.32498176  0.37405829  1
  Pr3+  Pr48  1  0.82971459  0.82289169  0.37538393  1
  Pr3+  Pr49  1  0.33325223  0.01111820  0.62563803  1
  Pr3+  Pr50  1  0.83845537  0.17897497  0.12451915  1
  Pr3+  Pr51  1  0.49472646  0.48667247  0.87656223  1
  Pr3+  Pr52  1  0.16491736  0.82024132  0.37430579  1
  Pr3+  Pr53  1  0.50203770  0.51226662  0.12578460  1
  Pr3+  Pr54  1  -0.00067290  0.34608874  0.62745015  1
  Pr3+  Pr55  1  0.49891906  0.15512027  0.37325615  1
  Pr3+  Pr56  1  0.83240316  0.48747281  0.87732840  1
  Pr3+  Pr57  1  0.50303849  0.17849238  0.62598531  1
  Pr3+  Pr58  1  0.82752279  0.15096329  0.37380278  1
  Pr3+  Pr59  1  -0.00345076  0.67698590  0.12509689  1
  Pr3+  Pr60  1  0.49705198  0.81986881  0.37491289  1
  Pr3+  Pr61  1  0.66747182  0.65764751  0.87647384  1
  Pr3+  Pr62  1  -0.00178173  0.67894186  0.62444397  1
  Pr3+  Pr63  1  -0.00360910  0.01425974  0.62316657  1
  Pr3+  Pr64  1  0.66403827  0.34525652  0.12348438  1
  Pr3+  Pr65  1  0.66733762  0.32027491  0.87589540  1
  Pr3+  Pr66  1  0.17170616  0.84795064  0.12513913  1
  Pr3+  Pr67  1  0.49557805  0.15361566  0.87710507  1
  Pr3+  Pr68  1  1.00180885  0.65521049  0.87488939  1
  Pr3+  Pr69  1  0.66127393  0.01124445  0.12652096  1
  Pr3+  Pr70  1  0.33822432  0.32318447  0.37300673  1
  Pr3+  Pr71  1  -0.00019621  0.34684218  0.12258476  1
  Mn3.30+  Mn72  1  0.16847875  0.00190535  0.00018636  1
  Mn3.30+  Mn73  1  0.16552724  -0.00045231  0.49917743  1
  Mn3.30+  Mn74  1  0.16946557  0.33121311  0.00005500  1
  Mn3.30+  Mn75  1  0.16817318  0.33339732  0.49911388  1
  Mn3.30+  Mn76  1  0.16755430  0.66551909  0.00182534  1
  Mn3.30+  Mn77  1  0.16779265  0.66583383  0.49797428  1
  Mn3.30+  Mn78  1  0.49849316  -0.00025343  0.00365628  1
  Mn3.30+  Mn79  1  0.50310405  -0.00033691  0.49867772  1
  Mn3.30+  Mn80  1  0.49543968  0.33154531  0.00215182  1
  Mn3.30+  Mn81  1  0.50125136  0.33421184  0.49929359  1
  Mn3.30+  Mn82  1  0.49999396  0.66937252  0.00063294  1
  Mn3.30+  Mn83  1  0.49833297  0.66679851  0.49944994  1
  Mn3.30+  Mn84  1  0.83241409  -0.00193521  0.00016701  1
  Mn3.30+  Mn85  1  0.83042237  -0.00005967  0.49948644  1
  Mn3.30+  Mn86  1  0.83639319  0.33291386  -0.00199056  1
  Mn3.30+  Mn87  1  0.83370232  0.33343721  0.50021684  1
  Mn3.30+  Mn88  1  0.83332606  0.66823164  -0.00023042  1
  Mn3.30+  Mn89  1  0.83118033  0.66642481  0.49986266  1
  Mn3.30+  Mn90  1  0.00029680  0.16633338  0.25088803  1
  Mn3.30+  Mn91  1  0.00212801  0.16700870  0.75185428  1
  Mn3.30+  Mn92  1  -0.00005618  0.49928392  0.25011595  1
  Mn3.30+  Mn93  1  0.00064987  0.49912867  0.75050782  1
  Mn3.30+  Mn94  1  0.00080949  0.83403777  0.25044431  1
  Mn3.30+  Mn95  1  -0.00196671  0.83352926  0.75075054  1
  Mn3.30+  Mn96  1  0.33391050  0.16716824  0.24626166  1
  Mn3.30+  Mn97  1  0.33236465  0.16776220  0.75288243  1
  Mn3.30+  Mn98  1  0.33253097  0.49923867  0.24769994  1
  Mn3.30+  Mn99  1  0.33192049  0.50001117  0.75161260  1
  Mn3.30+  Mn100  1  0.33538358  0.83412996  0.24901569  1
  Mn3.30+  Mn101  1  0.33567066  0.83338902  0.74806936  1
  Mn3.30+  Mn102  1  0.66478680  0.16629407  0.24840463  1
  Mn3.30+  Mn103  1  0.66661937  0.16437547  0.75064308  1
  Mn3.30+  Mn104  1  0.66713820  0.49935037  0.24910072  1
  Mn3.30+  Mn105  1  0.66650117  0.50105980  0.75165090  1
  Mn3.30+  Mn106  1  0.66380515  0.83435825  0.25062556  1
  Mn3.30+  Mn107  1  0.66580912  0.83422875  0.74908398  1
  Mn3.30+  Mn108  1  0.16787079  0.00034637  0.24974109  1
  Mn3.30+  Mn109  1  0.16613701  0.00083932  0.75022469  1
  Mn3.30+  Mn110  1  0.16985807  0.33308264  0.24679544  1
  Mn3.30+  Mn111  1  0.16801684  0.33095169  0.75447770  1
  Mn3.30+  Mn112  1  0.16756403  0.66523140  0.25038198  1
  Mn3.30+  Mn113  1  0.16790739  0.66601750  0.74942619  1
  Mn3.30+  Mn114  1  0.50010638  0.00035800  0.24867295  1
  Mn3.30+  Mn115  1  0.50085104  -0.00070834  0.74924102  1
  Mn3.30+  Mn116  1  0.49854162  0.33246054  0.24668643  1
  Mn3.30+  Mn117  1  0.49809774  0.33300074  0.75243662  1
  Mn3.30+  Mn118  1  0.49824035  0.66772840  0.25068163  1
  Mn3.30+  Mn119  1  0.49963790  0.66834817  0.74959631  1
  Mn3.30+  Mn120  1  0.83154221  -0.00133918  0.25205278  1
  Mn3.30+  Mn121  1  0.83139347  -0.00072672  0.74903407  1
  Mn3.30+  Mn122  1  0.83454338  0.33379706  0.24928199  1
  Mn3.30+  Mn123  1  0.83546494  0.33264081  0.75294306  1
  Mn3.30+  Mn124  1  0.83279951  0.66632242  0.24977040  1
  Mn3.30+  Mn125  1  0.83152046  0.66842632  0.75001600  1
  Mn3.30+  Mn126  1  0.00347356  0.16702730  -0.00086542  1
  Mn3.30+  Mn127  1  -0.00068992  0.16691515  0.49846233  1
  Mn3.30+  Mn128  1  0.00172676  0.49914831  0.00040858  1
  Mn3.30+  Mn129  1  -0.00101581  0.49964944  0.49893132  1
  Mn3.30+  Mn130  1  -0.00022159  0.83315917  -0.00103006  1
  Mn3.30+  Mn131  1  -0.00078223  0.83448890  0.49929689  1
  Mn3.30+  Mn132  1  0.33227390  0.16821195  0.00140994  1
  Mn3.30+  Mn133  1  0.33405903  0.16690574  0.49968017  1
  Mn3.30+  Mn134  1  0.33032735  0.49774320  0.00107273  1
  Mn3.30+  Mn135  1  0.33418015  0.50141115  0.49923776  1
  Mn3.30+  Mn136  1  0.33595102  0.83435375  0.00325420  1
  Mn3.30+  Mn137  1  0.33542559  0.83338340  0.49899472  1
  Mn3.30+  Mn138  1  0.66432714  0.16552325  0.00158916  1
  Mn3.30+  Mn139  1  0.66668309  0.16483968  0.49960082  1
  Mn3.30+  Mn140  1  0.66549478  0.50104469  0.00003155  1
  Mn3.30+  Mn141  1  0.66814790  0.49927168  0.49922898  1
  Mn3.30+  Mn142  1  0.66568538  0.83279237  0.00094956  1
  Mn3.30+  Mn143  1  0.66392986  0.83585841  0.50003777  1
  O2-  O144  1  0.01931659  0.15997147  0.12510360  1
  O2-  O145  1  0.02530614  0.16184806  0.62404694  1
  O2-  O146  1  0.02724775  0.49598164  0.12435135  1
  O2-  O147  1  0.02006582  0.49545287  0.62570428  1
  O2-  O148  1  0.02721298  0.82561029  0.12322627  1
  O2-  O149  1  0.02514285  0.82783693  0.62368134  1
  O2-  O150  1  0.35812106  0.15594949  0.12515841  1
  O2-  O151  1  0.35875674  0.15977186  0.62490507  1
  O2-  O152  1  0.35829702  0.49462833  0.12343787  1
  O2-  O153  1  0.35120591  0.49601398  0.62756291  1
  O2-  O154  1  0.36200482  0.82348817  0.12732483  1
  O2-  O155  1  0.36139019  0.82670433  0.62137304  1
  O2-  O156  1  0.69514200  0.15983375  0.12451122  1
  O2-  O157  1  0.69145225  0.15992802  0.62717673  1
  O2-  O158  1  0.68484740  0.49420300  0.12298695  1
  O2-  O159  1  0.69263297  0.49563166  0.62755136  1
  O2-  O160  1  0.69051763  0.83538216  0.12596873  1
  O2-  O161  1  0.69175223  0.82616672  0.62370052  1
  O2-  O162  1  0.14102293  0.32802619  0.12381024  1
  O2-  O163  1  0.14290375  0.32717154  0.62732646  1
  O2-  O164  1  0.13998219  0.66183166  0.12577723  1
  O2-  O165  1  0.14167559  0.66634084  0.62232666  1
  O2-  O166  1  0.14083332  0.99588871  0.12589756  1
  O2-  O167  1  0.14026484  0.99447590  0.62449834  1
  O2-  O168  1  0.47163926  0.32596031  0.12331286  1
  O2-  O169  1  0.47609128  0.32718174  0.62787649  1
  O2-  O170  1  0.47623570  0.66041253  0.12539957  1
  O2-  O171  1  0.47753448  0.66206265  0.62423251  1
  O2-  O172  1  0.47437122  0.98962164  0.12589124  1
  O2-  O173  1  0.47597418  0.99739523  0.62237935  1
  O2-  O174  1  0.80954543  0.32619434  0.12319720  1
  O2-  O175  1  0.80726241  0.32639226  0.62941091  1
  O2-  O176  1  0.81521045  0.66925604  0.12612635  1
  O2-  O177  1  0.80396772  0.65983289  0.62486833  1
  O2-  O178  1  0.80678323  0.99338829  0.12670203  1
  O2-  O179  1  0.80367636  0.99610413  0.62498884  1
  O2-  O180  1  0.30872688  0.17422532  0.37562175  1
  O2-  O181  1  0.30777398  0.17285279  0.87451987  1
  O2-  O182  1  0.31103461  0.50156232  0.37184789  1
  O2-  O183  1  0.30598638  0.50967618  0.87658351  1
  O2-  O184  1  0.30704412  0.84367800  0.37408326  1
  O2-  O185  1  0.30930708  0.83853721  0.87657551  1
  O2-  O186  1  0.64212797  0.17808761  0.37227953  1
  O2-  O187  1  0.64068435  0.17154255  0.87674340  1
  O2-  O188  1  0.64864760  0.49872091  0.37333426  1
  O2-  O189  1  0.64093556  0.50604803  0.87596906  1
  O2-  O190  1  0.64150903  0.83980485  0.37647197  1
  O2-  O191  1  0.64704525  0.83618451  0.87458821  1
  O2-  O192  1  0.97180896  0.17741567  0.37545903  1
  O2-  O193  1  0.97480285  0.16880230  0.87514918  1
  O2-  O194  1  0.97085781  0.50260932  0.37605355  1
  O2-  O195  1  0.97540076  0.50790750  0.87398813  1
  O2-  O196  1  0.97468101  0.83977043  0.37756874  1
  O2-  O197  1  0.97168985  0.84009884  0.87511565  1
  O2-  O198  1  0.19209283  0.00346773  0.37517443  1
  O2-  O199  1  0.19014560  0.00227361  0.87347488  1
  O2-  O200  1  0.19354247  0.33909403  0.37198965  1
  O2-  O201  1  0.19571896  0.33908239  0.87689697  1
  O2-  O202  1  0.19443422  0.67315477  0.37418706  1
  O2-  O203  1  0.19262461  0.67426185  0.87664947  1
  O2-  O204  1  0.52712799  0.00854814  0.37421959  1
  O2-  O205  1  0.52425867  0.00621506  0.87751752  1
  O2-  O206  1  0.52426981  0.33382425  0.37223935  1
  O2-  O207  1  0.52395149  0.33671596  0.87650066  1
  O2-  O208  1  0.52529918  0.67207809  0.37549575  1
  O2-  O209  1  0.52246114  0.67004351  0.87507724  1
  O2-  O210  1  0.86081183  0.00371013  0.37555379  1
  O2-  O211  1  0.85925189  0.00653950  0.87362611  1
  O2-  O212  1  0.85722319  0.33903148  0.37321831  1
  O2-  O213  1  0.86432118  0.33872450  0.87464388  1
  O2-  O214  1  0.85734244  0.67598548  0.37529643  1
  O2-  O215  1  0.85797200  0.67501679  0.87317702  1
  O2-  O216  1  0.24179744  0.09284994  0.01352776  1
  O2-  O217  1  0.23697747  0.09340305  0.51936464  1
  O2-  O218  1  0.23341833  0.43260886  0.01834916  1
  O2-  O219  1  0.24069439  0.42484601  0.51536389  1
  O2-  O220  1  0.23959679  0.76205254  0.02182668  1
  O2-  O221  1  0.23822003  0.76235957  0.51994447  1
  O2-  O222  1  0.57001198  0.09533252  0.02387123  1
  O2-  O223  1  0.56955037  0.09768189  0.51754386  1
  O2-  O224  1  0.56783758  0.42414468  0.01887389  1
  O2-  O225  1  0.57812951  0.42372949  0.51954199  1
  O2-  O226  1  0.57170910  0.76412805  0.01926151  1
  O2-  O227  1  0.56916643  0.76445655  0.51979830  1
  O2-  O228  1  0.90346905  0.09280844  0.01931486  1
  O2-  O229  1  0.90191527  0.09479827  0.52112606  1
  O2-  O230  1  0.90904476  0.42786903  0.01861442  1
  O2-  O231  1  0.90637493  0.42522993  0.52350751  1
  O2-  O232  1  0.90803879  0.76076021  0.02090022  1
  O2-  O233  1  0.90335729  0.76016308  0.52191715  1
  O2-  O234  1  0.26632948  0.26473745  0.23186082  1
  O2-  O235  1  0.26207651  0.25994342  0.72606077  1
  O2-  O236  1  0.25930421  0.59367118  0.23022520  1
  O2-  O237  1  0.26336181  0.59860604  0.73250018  1
  O2-  O238  1  0.26440276  0.92807075  0.22664803  1
  O2-  O239  1  0.25969409  0.92658014  0.72805254  1
  O2-  O240  1  0.59666550  0.26210270  0.22787816  1
  O2-  O241  1  0.59626367  0.25957658  0.73147142  1
  O2-  O242  1  0.59050240  0.59302708  0.23592592  1
  O2-  O243  1  0.59540349  0.59949310  0.73473250  1
  O2-  O244  1  0.59530812  0.93031822  0.23248181  1
  O2-  O245  1  0.60028494  0.93045444  0.73309582  1
  O2-  O246  1  0.92840819  0.26103003  0.22846141  1
  O2-  O247  1  0.92810167  0.25982383  0.72799239  1
  O2-  O248  1  0.93190426  0.59656180  0.23408847  1
  O2-  O249  1  0.92484665  0.59695630  0.72918234  1
  O2-  O250  1  0.92743453  0.92539526  0.22714763  1
  O2-  O251  1  0.92713806  0.92995788  0.72664936  1
  O2-  O252  1  0.09487827  0.24148570  0.27295744  1
  O2-  O253  1  0.10039559  0.23422308  0.76938857  1
  O2-  O254  1  0.09196246  0.57247421  0.27516637  1
  O2-  O255  1  0.09408781  0.57368915  0.77195389  1
  O2-  O256  1  0.09711372  0.90338622  0.26722260  1
  O2-  O257  1  0.09357795  0.90448151  0.77058504  1
  O2-  O258  1  0.42818047  0.23910185  0.27126230  1
  O2-  O259  1  0.42904044  0.23594950  0.76843423  1
  O2-  O260  1  0.42507083  0.57297417  0.26203635  1
  O2-  O261  1  0.42656016  0.57207122  0.77247195  1
  O2-  O262  1  0.42844118  0.90762827  0.27489352  1
  O2-  O263  1  0.42427598  0.91109965  0.76695132  1
  O2-  O264  1  0.76269304  0.23827464  0.26889286  1
  O2-  O265  1  0.76290063  0.23933855  0.77325496  1
  O2-  O266  1  0.76193836  0.57482414  0.27100089  1
  O2-  O267  1  0.76259652  0.57208714  0.77273950  1
  O2-  O268  1  0.76304189  0.90431914  0.26955746  1
  O2-  O269  1  0.76436362  0.90274494  0.76987494  1
  O2-  O270  1  0.06882913  0.07235718  0.47744625  1
  O2-  O271  1  0.06861728  0.06995815  0.98257757  1
  O2-  O272  1  0.07317693  0.40517942  0.47981604  1
  O2-  O273  1  0.07219112  0.40185437  0.97829521  1
  O2-  O274  1  0.07261278  0.73796622  0.47802773  1
  O2-  O275  1  0.07241556  0.74009646  0.97765142  1
  O2-  O276  1  0.40517668  0.07262315  0.47931009  1
  O2-  O277  1  0.40586890  0.07437694  0.97743829  1
  O2-  O278  1  0.40565359  0.40372763  0.48528195  1
  O2-  O279  1  0.40359285  0.40657583  0.97631579  1
  O2-  O280  1  0.40282493  0.73921880  0.47575858  1
  O2-  O281  1  0.40266602  0.73637649  0.98376052  1
  O2-  O282  1  0.73830587  0.07186169  0.47498842  1
  O2-  O283  1  0.73590926  0.07249341  0.97931581  1
  O2-  O284  1  0.73931377  0.40194872  0.48483836  1
  O2-  O285  1  0.74050027  0.40547659  0.97801008  1
  O2-  O286  1  0.73597140  0.73796231  0.47909338  1
  O2-  O287  1  0.73955111  0.74022499  0.98187901  1
  O2-  O288  1  0.09639933  0.23982521  0.47908892  1
  O2-  O289  1  0.09757475  0.23671696  0.97831390  1
  O2-  O290  1  0.09243108  0.57347242  0.47540683  1
  O2-  O291  1  0.09271066  0.57234386  0.97719456  1
  O2-  O292  1  0.09751955  0.90440028  0.48174388  1
  O2-  O293  1  0.09429666  0.90470027  0.97923664  1
  O2-  O294  1  0.42953216  0.23900076  0.48073085  1
  O2-  O295  1  0.42917173  0.23678277  0.98022922  1
  O2-  O296  1  0.42540144  0.57550771  0.48342337  1
  O2-  O297  1  0.42605142  0.57132820  0.98131430  1
  O2-  O298  1  0.42855042  0.90883298  0.47647331  1
  O2-  O299  1  0.42368185  0.90969559  0.98028701  1
  O2-  O300  1  0.76206027  0.23750362  0.48084886  1
  O2-  O301  1  0.76180124  0.23835960  0.97891808  1
  O2-  O302  1  0.76427156  0.56972674  0.47843214  1
  O2-  O303  1  0.76199562  0.57662518  0.97715406  1
  O2-  O304  1  0.76345048  0.90250088  0.48235978  1
  O2-  O305  1  0.76303287  0.90501694  0.97980338  1
  O2-  O306  1  0.06948594  0.07205194  0.27264190  1
  O2-  O307  1  0.06860640  0.06867162  0.76654997  1
  O2-  O308  1  0.07285721  0.40581667  0.27095932  1
  O2-  O309  1  0.07307305  0.40027542  0.77198457  1
  O2-  O310  1  0.07242747  0.73846177  0.27191948  1
  O2-  O311  1  0.07329772  0.73858850  0.77010937  1
  O2-  O312  1  0.40735745  0.07423858  0.27303660  1
  O2-  O313  1  0.40286467  0.07382001  0.77105958  1
  O2-  O314  1  0.40426019  0.40450462  0.26613143  1
  O2-  O315  1  0.40383811  0.40576238  0.77194183  1
  O2-  O316  1  0.40317755  0.73796234  0.27381316  1
  O2-  O317  1  0.40270194  0.73571871  0.76585496  1
  O2-  O318  1  0.73534749  0.07162586  0.27244766  1
  O2-  O319  1  0.74014324  0.07272400  0.77499294  1
  O2-  O320  1  0.73955983  0.40248031  0.26426796  1
  O2-  O321  1  0.74200178  0.40442405  0.77355988  1
  O2-  O322  1  0.73828478  0.74175040  0.27210208  1
  O2-  O323  1  0.73558975  0.73647699  0.76643898  1
  O2-  O324  1  0.23917476  0.09538385  0.23872401  1
  O2-  O325  1  0.24064893  0.09333757  0.72751356  1
  O2-  O326  1  0.23529582  0.43108302  0.23046975  1
  O2-  O327  1  0.23888405  0.42617357  0.73439644  1
  O2-  O328  1  0.23877230  0.76285566  0.22867884  1
  O2-  O329  1  0.23892342  0.76211077  0.72944419  1
  O2-  O330  1  0.56936232  0.09623291  0.22614906  1
  O2-  O331  1  0.56876556  0.09476836  0.73229572  1
  O2-  O332  1  0.57161855  0.42312379  0.22630234  1
  O2-  O333  1  0.57607184  0.42484386  0.73507096  1
  O2-  O334  1  0.56783541  0.76560248  0.23489127  1
  O2-  O335  1  0.57178325  0.76382548  0.72708830  1
  O2-  O336  1  0.90148941  0.09323013  0.23103038  1
  O2-  O337  1  0.90381726  0.09405158  0.72859726  1
  O2-  O338  1  0.91070651  0.42356186  0.22894136  1
  O2-  O339  1  0.90403724  0.42762523  0.72932619  1
  O2-  O340  1  0.90670106  0.76153455  0.23147898  1
  O2-  O341  1  0.90558265  0.75960669  0.72541828  1
  O2-  O342  1  0.26639908  0.26484646  0.02083983  1
  O2-  O343  1  0.26248510  0.26053338  0.52174233  1
  O2-  O344  1  0.26292352  0.59624694  0.02059785  1
  O2-  O345  1  0.26034663  0.59588870  0.51596730  1
  O2-  O346  1  0.26121169  0.92626241  0.02199321  1
  O2-  O347  1  0.26318698  0.92706405  0.52197049  1
  O2-  O348  1  0.59771985  0.26163250  0.01755613  1
  O2-  O349  1  0.59579318  0.26044948  0.52186858  1
  O2-  O350  1  0.58927063  0.59391308  0.01722048  1
  O2-  O351  1  0.59858781  0.59676560  0.51328769  1
  O2-  O352  1  0.59748495  0.93079722  0.01559694  1
  O2-  O353  1  0.59654722  0.93062040  0.52062626  1
  O2-  O354  1  0.92936632  0.25846785  0.02072978  1
  O2-  O355  1  0.92835102  0.26206918  0.52211175  1
  O2-  O356  1  0.92992029  0.59736098  0.01478026  1
  O2-  O357  1  0.92735577  0.59628286  0.52095062  1
  O2-  O358  1  0.93025097  0.92664885  0.02300532  1
  O2-  O359  1  0.92437865  0.92830207  0.52394217  1
