# generated using pymatgen
data_Sr7Ca15Pr50Mn72O216
_symmetry_space_group_name_H-M   'P 1'
_cell_length_a   16.55637109
_cell_length_b   16.60286094
_cell_length_c   15.58896414
_cell_angle_alpha   90.00524768
_cell_angle_beta   89.99884276
_cell_angle_gamma   89.99095703
_symmetry_Int_Tables_number   1
_chemical_formula_structural   Sr7Ca15Pr50Mn72O216
_chemical_formula_sum   'Sr7 Ca15 Pr50 Mn72 O216'
_cell_volume   4285.14313466
_cell_formula_units_Z   1
loop_
 _symmetry_equiv_pos_site_id
 _symmetry_equiv_pos_as_xyz
  1  'x, y, z'
loop_
 _atom_type_symbol
 _atom_type_oxidation_number
  Sr2+  2.0
  Ca2+  2.0
  Pr3+  3.0
  Mn3.30+  3.3
  O2-  -2.0
loop_
 _atom_site_type_symbol
 _atom_site_label
 _atom_site_symmetry_multiplicity
 _atom_site_fract_x
 _atom_site_fract_y
 _atom_site_fract_z
 _atom_site_occupancy
  Sr2+  Sr0  1  0.50263756  0.84539068  0.62625896  1
  Sr2+  Sr1  1  0.83139612  0.82362150  0.87485059  1
  Sr2+  Sr2  1  0.83191097  0.82217516  0.37513013  1
  Sr2+  Sr3  1  0.49971014  0.84067343  0.12359239  1
  Sr2+  Sr4  1  0.33734103  0.32212312  0.87506264  1
  Sr2+  Sr5  1  0.83416005  0.49067606  0.87387612  1
  Sr2+  Sr6  1  0.83757893  0.51183206  0.62573669  1
  Ca2+  Ca7  1  1.00141770  0.31941958  0.87388013  1
  Ca2+  Ca8  1  0.33064207  0.68134447  0.12400099  1
  Ca2+  Ca9  1  0.66819872  0.98558450  0.87236105  1
  Ca2+  Ca10  1  0.16217184  0.81689255  0.87237030  1
  Ca2+  Ca11  1  0.17423371  0.51920371  0.12295394  1
  Ca2+  Ca12  1  0.83377028  0.17945580  0.62623888  1
  Ca2+  Ca13  1  -0.00423329  0.68041464  0.62649327  1
  Ca2+  Ca14  1  0.49803981  0.15046159  0.37582060  1
  Ca2+  Ca15  1  0.66217681  0.34913885  0.12414243  1
  Ca2+  Ca16  1  0.17037918  0.84627543  0.62791182  1
  Ca2+  Ca17  1  0.66319437  0.01301718  0.62823956  1
  Ca2+  Ca18  1  0.49635709  0.48636659  0.37452943  1
  Ca2+  Ca19  1  0.49824700  0.15167425  0.87389623  1
  Ca2+  Ca20  1  0.32847262  0.68483778  0.62556014  1
  Ca2+  Ca21  1  0.66256904  0.68247209  0.12346095  1
  Pr3+  Pr22  1  0.17266037  0.84428671  0.12269712  1
  Pr3+  Pr23  1  0.66655162  0.32092250  0.37370245  1
  Pr3+  Pr24  1  0.33762320  0.98662876  0.37633871  1
  Pr3+  Pr25  1  0.49803185  0.48828530  0.87525257  1
  Pr3+  Pr26  1  -0.00536663  0.01217185  0.62573974  1
  Pr3+  Pr27  1  0.50396398  0.17654705  0.62569735  1
  Pr3+  Pr28  1  0.66641164  0.67811783  0.62692129  1
  Pr3+  Pr29  1  0.16105928  0.48489009  0.87701748  1
  Pr3+  Pr30  1  0.33970051  0.65241449  0.37524895  1
  Pr3+  Pr31  1  -0.00191623  0.34694156  0.12374271  1
  Pr3+  Pr32  1  0.16981866  0.17979438  0.62571081  1
  Pr3+  Pr33  1  0.83284921  0.84389651  0.12438056  1
  Pr3+  Pr34  1  0.50014886  0.82331729  0.87432138  1
  Pr3+  Pr35  1  0.33395150  0.65728987  0.87455890  1
  Pr3+  Pr36  1  1.00156395  0.98470327  0.37641663  1
  Pr3+  Pr37  1  0.66685425  0.98674327  0.37684220  1
  Pr3+  Pr38  1  0.34142431  0.31913102  0.37448009  1
  Pr3+  Pr39  1  -0.00471464  0.34454713  0.62652681  1
  Pr3+  Pr40  1  0.83268271  0.17981390  0.12485704  1
  Pr3+  Pr41  1  0.33140966  0.34636340  0.62649004  1
  Pr3+  Pr42  1  0.83149689  0.51272137  0.12408168  1
  Pr3+  Pr43  1  0.83083860  0.48967183  0.37554414  1
  Pr3+  Pr44  1  0.67154564  0.65676608  0.87659459  1
  Pr3+  Pr45  1  1.00116320  0.32083868  0.37583492  1
  Pr3+  Pr46  1  0.67084382  0.32238425  0.87618668  1
  Pr3+  Pr47  1  0.83596656  0.84296490  0.62585434  1
  Pr3+  Pr48  1  0.33502053  0.98773221  0.87326249  1
  Pr3+  Pr49  1  0.49628016  0.82115658  0.37597467  1
  Pr3+  Pr50  1  0.50438992  0.51467078  0.12481381  1
  Pr3+  Pr51  1  0.82931052  0.15410863  0.87345523  1
  Pr3+  Pr52  1  1.00269763  0.65546215  0.87341421  1
  Pr3+  Pr53  1  0.17054148  0.51522842  0.62614393  1
  Pr3+  Pr54  1  0.66728113  0.34589206  0.62546167  1
  Pr3+  Pr55  1  0.50496313  0.18099283  0.12420116  1
  Pr3+  Pr56  1  0.32944987  0.35003986  0.12304124  1
  Pr3+  Pr57  1  0.16444532  0.81931224  0.37702604  1
  Pr3+  Pr58  1  1.00370922  0.98237830  0.87387308  1
  Pr3+  Pr59  1  -0.00475099  0.01085886  0.12419378  1
  Pr3+  Pr60  1  0.00065512  0.67746512  0.12479420  1
  Pr3+  Pr61  1  0.16261532  0.15586770  0.87461369  1
  Pr3+  Pr62  1  1.00235692  0.65428263  0.37645562  1
  Pr3+  Pr63  1  0.17053584  0.17916487  0.12419379  1
  Pr3+  Pr64  1  0.50209628  0.51205625  0.62551244  1
  Pr3+  Pr65  1  0.33326550  0.01165772  0.12351942  1
  Pr3+  Pr66  1  0.16480375  0.48782300  0.37268619  1
  Pr3+  Pr67  1  0.16394322  0.15282705  0.37555043  1
  Pr3+  Pr68  1  0.66682793  0.65721429  0.37425521  1
  Pr3+  Pr69  1  0.33249583  0.01163239  0.62613246  1
  Pr3+  Pr70  1  0.82897635  0.15375509  0.37708403  1
  Pr3+  Pr71  1  0.66150825  0.00828853  0.12210172  1
  Mn3.30+  Mn72  1  0.16587053  -0.00094426  -0.00123022  1
  Mn3.30+  Mn73  1  0.16654300  -0.00157856  0.50211278  1
  Mn3.30+  Mn74  1  0.16569446  0.33346838  -0.00038090  1
  Mn3.30+  Mn75  1  0.16796627  0.33426668  0.49931676  1
  Mn3.30+  Mn76  1  0.16893857  0.66674898  -0.00063409  1
  Mn3.30+  Mn77  1  0.16814418  0.66797277  0.50346629  1
  Mn3.30+  Mn78  1  0.50041057  0.00025541  -0.00292222  1
  Mn3.30+  Mn79  1  0.50184003  0.00028730  0.50198238  1
  Mn3.30+  Mn80  1  0.50106772  0.33273176  -0.00014659  1
  Mn3.30+  Mn81  1  0.50034535  0.33273615  0.49941841  1
  Mn3.30+  Mn82  1  0.50073052  0.66763134  0.00044039  1
  Mn3.30+  Mn83  1  0.49833782  0.66651567  0.50238538  1
  Mn3.30+  Mn84  1  0.83035998  -0.00019875  -0.00206103  1
  Mn3.30+  Mn85  1  0.83050654  0.00003151  0.50281010  1
  Mn3.30+  Mn86  1  0.83301411  0.33426164  0.00036413  1
  Mn3.30+  Mn87  1  0.83315658  0.33268823  0.50000787  1
  Mn3.30+  Mn88  1  0.83256143  0.66707493  0.00158086  1
  Mn3.30+  Mn89  1  0.83486947  0.66661252  0.49981205  1
  Mn3.30+  Mn90  1  -0.00044644  0.16614942  0.24980537  1
  Mn3.30+  Mn91  1  -0.00260886  0.16636311  0.75026508  1
  Mn3.30+  Mn92  1  0.00165135  0.50011423  0.24742183  1
  Mn3.30+  Mn93  1  0.00060681  0.49970498  0.75060954  1
  Mn3.30+  Mn94  1  0.00111421  0.83183990  0.25001625  1
  Mn3.30+  Mn95  1  0.00301914  0.83096495  0.74805068  1
  Mn3.30+  Mn96  1  0.33612806  0.16660921  0.24977247  1
  Mn3.30+  Mn97  1  0.33511880  0.16699130  0.75199587  1
  Mn3.30+  Mn98  1  0.33394953  0.50172897  0.24872437  1
  Mn3.30+  Mn99  1  0.33290089  0.50215064  0.75024136  1
  Mn3.30+  Mn100  1  0.33316602  0.83198854  0.24900200  1
  Mn3.30+  Mn101  1  0.33069195  0.83333934  0.74943132  1
  Mn3.30+  Mn102  1  0.66449447  0.16696389  0.25027111  1
  Mn3.30+  Mn103  1  0.66652937  0.16481783  0.75071358  1
  Mn3.30+  Mn104  1  0.66347419  0.50050667  0.25075189  1
  Mn3.30+  Mn105  1  0.66814607  0.50074248  0.74940481  1
  Mn3.30+  Mn106  1  0.66492971  0.83212386  0.24971632  1
  Mn3.30+  Mn107  1  0.66751499  0.83564439  0.74977217  1
  Mn3.30+  Mn108  1  0.16672037  -0.00058275  0.24978636  1
  Mn3.30+  Mn109  1  0.16567034  -0.00201929  0.74921215  1
  Mn3.30+  Mn110  1  0.16832770  0.33484803  0.24899905  1
  Mn3.30+  Mn111  1  0.16502730  0.33272409  0.75167051  1
  Mn3.30+  Mn112  1  0.17051681  0.66580577  0.24993803  1
  Mn3.30+  Mn113  1  0.16694361  0.66888310  0.74708688  1
  Mn3.30+  Mn114  1  0.49966605  -0.00022613  0.24953659  1
  Mn3.30+  Mn115  1  0.50280128  0.00068737  0.75142576  1
  Mn3.30+  Mn116  1  0.50084463  0.33418511  0.24980621  1
  Mn3.30+  Mn117  1  0.50059759  0.33142194  0.75107170  1
  Mn3.30+  Mn118  1  0.50001715  0.66614052  0.24844879  1
  Mn3.30+  Mn119  1  0.49886881  0.66810623  0.74898647  1
  Mn3.30+  Mn120  1  0.83110093  -0.00022469  0.25058460  1
  Mn3.30+  Mn121  1  0.82985519  0.00018645  0.74908748  1
  Mn3.30+  Mn122  1  0.83086704  0.33408055  0.24813457  1
  Mn3.30+  Mn123  1  0.83508648  0.33232611  0.75167890  1
  Mn3.30+  Mn124  1  0.83172263  0.66687965  0.24895438  1
  Mn3.30+  Mn125  1  0.83556632  0.66709290  0.74989417  1
  Mn3.30+  Mn126  1  -0.00141378  0.16675685  -0.00041227  1
  Mn3.30+  Mn127  1  -0.00169618  0.16580200  0.50096182  1
  Mn3.30+  Mn128  1  0.00185823  0.49932768  0.00152667  1
  Mn3.30+  Mn129  1  0.00091117  0.50096461  0.50084694  1
  Mn3.30+  Mn130  1  0.00207992  0.83133148  -0.00091403  1
  Mn3.30+  Mn131  1  0.00177843  0.83090276  0.50254594  1
  Mn3.30+  Mn132  1  0.33592231  0.16719441  -0.00193202  1
  Mn3.30+  Mn133  1  0.33534294  0.16641230  0.49965926  1
  Mn3.30+  Mn134  1  0.33261943  0.50283886  0.00018638  1
  Mn3.30+  Mn135  1  0.33451023  0.50124454  0.50026282  1
  Mn3.30+  Mn136  1  0.33216030  0.83236814  -0.00275212  1
  Mn3.30+  Mn137  1  0.33147430  0.83286502  0.50408513  1
  Mn3.30+  Mn138  1  0.66471518  0.16639239  -0.00206622  1
  Mn3.30+  Mn139  1  0.66601692  0.16560593  0.50141667  1
  Mn3.30+  Mn140  1  0.66686092  0.50008275  0.00134466  1
  Mn3.30+  Mn141  1  0.66469849  0.50068181  0.49891204  1
  Mn3.30+  Mn142  1  0.66631129  0.83352757  -0.00078750  1
  Mn3.30+  Mn143  1  0.66639994  0.83393494  0.50149914  1
  O2-  O144  1  0.02589851  0.15814227  0.12594148  1
  O2-  O145  1  0.02629932  0.16066437  0.62458712  1
  O2-  O146  1  0.03082281  0.49419467  0.12583285  1
  O2-  O147  1  0.02732378  0.48972431  0.62571293  1
  O2-  O148  1  0.02815248  0.82900260  0.12536296  1
  O2-  O149  1  0.02805193  0.82833110  0.62464538  1
  O2-  O150  1  0.35953587  0.16043464  0.12425646  1
  O2-  O151  1  0.35793649  0.16228890  0.62588084  1
  O2-  O152  1  0.36026876  0.49580857  0.12540787  1
  O2-  O153  1  0.35802635  0.49275218  0.62661709  1
  O2-  O154  1  0.34962251  0.82946326  0.12141767  1
  O2-  O155  1  0.35393286  0.83091897  0.62644808  1
  O2-  O156  1  0.69129317  0.15488085  0.12434491  1
  O2-  O157  1  0.69252193  0.15985744  0.62559635  1
  O2-  O158  1  0.68915211  0.49177450  0.12626672  1
  O2-  O159  1  0.68748959  0.49525908  0.62351567  1
  O2-  O160  1  0.68829946  0.83062971  0.12500031  1
  O2-  O161  1  0.69175642  0.82518259  0.62527121  1
  O2-  O162  1  0.14188408  0.32495220  0.12625582  1
  O2-  O163  1  0.14113478  0.32852394  0.62657516  1
  O2-  O164  1  0.14493995  0.66404109  0.12580315  1
  O2-  O165  1  0.13656278  0.65809092  0.62410703  1
  O2-  O166  1  0.13929292  0.99322564  0.12354489  1
  O2-  O167  1  0.13922309  0.99498593  0.62550352  1
  O2-  O168  1  0.47333804  0.32780910  0.12450801  1
  O2-  O169  1  0.47461346  0.32547746  0.62437792  1
  O2-  O170  1  0.47219282  0.66139628  0.12446807  1
  O2-  O171  1  0.47103160  0.65941487  0.62603696  1
  O2-  O172  1  0.47647391  0.99694280  0.12203772  1
  O2-  O173  1  0.47602932  1.00257426  0.62639184  1
  O2-  O174  1  0.80415105  0.32719464  0.12650502  1
  O2-  O175  1  0.81138858  0.32692695  0.62332197  1
  O2-  O176  1  0.80579612  0.66150552  0.12602026  1
  O2-  O177  1  0.81108226  0.66725185  0.62294066  1
  O2-  O178  1  0.80786176  0.99574085  0.12352147  1
  O2-  O179  1  0.80635722  0.99069239  0.62424625  1
  O2-  O180  1  0.30728169  0.17131737  0.37434899  1
  O2-  O181  1  0.30673168  0.16728064  0.87487279  1
  O2-  O182  1  0.30754111  0.50497013  0.37365836  1
  O2-  O183  1  0.30629045  0.50814342  0.87331891  1
  O2-  O184  1  0.30850277  0.83904173  0.37832644  1
  O2-  O185  1  0.30448967  0.83894337  0.87312997  1
  O2-  O186  1  0.63880133  0.17396406  0.37406877  1
  O2-  O187  1  0.63847587  0.17862963  0.87574374  1
  O2-  O188  1  0.63716812  0.50934604  0.37528681  1
  O2-  O189  1  0.64244608  0.50650052  0.87530375  1
  O2-  O190  1  0.64102851  0.83797043  0.37621133  1
  O2-  O191  1  0.64480869  0.83696256  0.87380898  1
  O2-  O192  1  0.97408621  0.17178553  0.37465791  1
  O2-  O193  1  0.97440870  0.17195845  0.87571131  1
  O2-  O194  1  0.97631182  0.50540883  0.37196487  1
  O2-  O195  1  0.98364761  0.50876893  0.87682987  1
  O2-  O196  1  0.98153060  0.83610282  0.37527528  1
  O2-  O197  1  0.98082053  0.83410028  0.87440237  1
  O2-  O198  1  0.19249657  0.00565885  0.37639182  1
  O2-  O199  1  0.19028912  0.00989752  0.87420056  1
  O2-  O200  1  0.19592890  0.33989045  0.37172236  1
  O2-  O201  1  0.18795932  0.33575182  0.87486099  1
  O2-  O202  1  0.19513214  0.67109818  0.37660230  1
  O2-  O203  1  0.19018930  0.67109713  0.87306614  1
  O2-  O204  1  0.52216623  0.00357408  0.37683874  1
  O2-  O205  1  0.52567600  0.00545257  0.87438262  1
  O2-  O206  1  0.52367710  0.34260388  0.37565167  1
  O2-  O207  1  0.52725229  0.34230844  0.87565981  1
  O2-  O208  1  0.52206946  0.67333124  0.37581277  1
  O2-  O209  1  0.52668620  0.67111530  0.87363585  1
  O2-  O210  1  0.85827848  0.00582155  0.37732441  1
  O2-  O211  1  0.86015435  0.00558540  0.87517354  1
  O2-  O212  1  0.85752930  0.33896490  0.37256483  1
  O2-  O213  1  0.85872783  0.33252948  0.87851458  1
  O2-  O214  1  0.85798923  0.66490752  0.37397285  1
  O2-  O215  1  0.85761784  0.66823950  0.87767886  1
  O2-  O216  1  0.23711762  0.09372355  0.02114534  1
  O2-  O217  1  0.23723426  0.09516126  0.52059391  1
  O2-  O218  1  0.23766476  0.43086790  0.01973627  1
  O2-  O219  1  0.23907453  0.42986050  0.52022156  1
  O2-  O220  1  0.23661672  0.76206031  0.01551092  1
  O2-  O221  1  0.23352576  0.76500486  0.52008393  1
  O2-  O222  1  0.57216071  0.09477982  0.02135146  1
  O2-  O223  1  0.57177620  0.09587958  0.51796177  1
  O2-  O224  1  0.57035177  0.43029087  0.01750887  1
  O2-  O225  1  0.57219573  0.42564918  0.52279796  1
  O2-  O226  1  0.57231994  0.76024252  0.01304555  1
  O2-  O227  1  0.57464028  0.75932533  0.51813586  1
  O2-  O228  1  0.90343833  0.09392436  0.02110847  1
  O2-  O229  1  0.90231694  0.09395208  0.52256562  1
  O2-  O230  1  0.90589904  0.42632864  0.02601433  1
  O2-  O231  1  0.90938477  0.42593194  0.51499267  1
  O2-  O232  1  0.90736306  0.75831783  0.02529155  1
  O2-  O233  1  0.90802203  0.76148107  0.51876525  1
  O2-  O234  1  0.26381189  0.26170271  0.22862785  1
  O2-  O235  1  0.25959381  0.26031923  0.72853666  1
  O2-  O236  1  0.26714320  0.59980351  0.23194377  1
  O2-  O237  1  0.26103434  0.59919015  0.72662760  1
  O2-  O238  1  0.26076050  0.92906860  0.22980880  1
  O2-  O239  1  0.26233152  0.93133254  0.73146842  1
  O2-  O240  1  0.59807906  0.26263780  0.22768234  1
  O2-  O241  1  0.59695687  0.26159301  0.72720057  1
  O2-  O242  1  0.59515763  0.59688088  0.22673070  1
  O2-  O243  1  0.59020612  0.59357924  0.72874468  1
  O2-  O244  1  0.59509752  0.93024298  0.23456935  1
  O2-  O245  1  0.59627610  0.92970863  0.73249532  1
  O2-  O246  1  0.92834810  0.26120189  0.22888103  1
  O2-  O247  1  0.92808692  0.25923393  0.73013558  1
  O2-  O248  1  0.92787088  0.59223403  0.22736518  1
  O2-  O249  1  0.93267477  0.59517544  0.73366384  1
  O2-  O250  1  0.92636241  0.92706507  0.23001839  1
  O2-  O251  1  0.93054466  0.92592173  0.73015305  1
  O2-  O252  1  0.09492852  0.23784598  0.27148625  1
  O2-  O253  1  0.09528454  0.23546846  0.76678985  1
  O2-  O254  1  0.09689002  0.57487188  0.27174446  1
  O2-  O255  1  0.09900123  0.56975623  0.76883023  1
  O2-  O256  1  0.09501527  0.90564364  0.27078146  1
  O2-  O257  1  0.09519929  0.90518321  0.77236703  1
  O2-  O258  1  0.43176617  0.23731607  0.27168109  1
  O2-  O259  1  0.43330913  0.23695978  0.76880207  1
  O2-  O260  1  0.43037080  0.56964294  0.27201354  1
  O2-  O261  1  0.42709392  0.57379317  0.77258784  1
  O2-  O262  1  0.42510126  0.90533633  0.27112692  1
  O2-  O263  1  0.42725116  0.90890849  0.77160133  1
  O2-  O264  1  0.76143107  0.23761016  0.27081980  1
  O2-  O265  1  0.75962692  0.23898441  0.77106540  1
  O2-  O266  1  0.75940419  0.57061045  0.27032058  1
  O2-  O267  1  0.75629173  0.57704526  0.76716083  1
  O2-  O268  1  0.75764286  0.90741437  0.26672466  1
  O2-  O269  1  0.76223285  0.90607736  0.76519595  1
  O2-  O270  1  0.07020711  0.07226368  0.47909866  1
  O2-  O271  1  0.07035445  0.06925168  0.97945266  1
  O2-  O272  1  0.07365815  0.40535850  0.47738201  1
  O2-  O273  1  0.06944712  0.40168323  0.97998275  1
  O2-  O274  1  0.07491257  0.73724697  0.47614786  1
  O2-  O275  1  0.07138483  0.73389778  0.98430558  1
  O2-  O276  1  0.40330232  0.07028001  0.48274635  1
  O2-  O277  1  0.40289592  0.06988882  0.98122775  1
  O2-  O278  1  0.40358146  0.40110551  0.48412537  1
  O2-  O279  1  0.40722015  0.40787959  0.98303011  1
  O2-  O280  1  0.40467349  0.74060691  0.47985256  1
  O2-  O281  1  0.40780869  0.74128220  0.97537807  1
  O2-  O282  1  0.73821152  0.07473336  0.47547656  1
  O2-  O283  1  0.73679638  0.07203186  0.97593401  1
  O2-  O284  1  0.73702969  0.40754277  0.47781362  1
  O2-  O285  1  0.73866565  0.40486358  0.98210326  1
  O2-  O286  1  0.73690407  0.73773339  0.48236905  1
  O2-  O287  1  0.73838499  0.73930412  0.98351438  1
  O2-  O288  1  0.09685505  0.23920617  0.47882884  1
  O2-  O289  1  0.09517662  0.23467707  0.98406570  1
  O2-  O290  1  0.09777154  0.57052189  0.47845811  1
  O2-  O291  1  0.09805499  0.57325280  0.98144910  1
  O2-  O292  1  0.09313242  0.90688134  0.47805319  1
  O2-  O293  1  0.09679948  0.90425076  0.97811474  1
  O2-  O294  1  0.43072477  0.23734416  0.47746283  1
  O2-  O295  1  0.43435345  0.23592257  0.98178330  1
  O2-  O296  1  0.42786253  0.56882243  0.47875720  1
  O2-  O297  1  0.42915141  0.57352804  0.97757551  1
  O2-  O298  1  0.42705219  0.90727432  0.48100570  1
  O2-  O299  1  0.42445082  0.90735274  0.97535076  1
  O2-  O300  1  0.75816567  0.24015795  0.47738083  1
  O2-  O301  1  0.76132362  0.23666447  0.98094696  1
  O2-  O302  1  0.75826413  0.57346543  0.47776651  1
  O2-  O303  1  0.75970076  0.57313167  0.98418985  1
  O2-  O304  1  0.75915428  0.90711578  0.48089407  1
  O2-  O305  1  0.76148536  0.90633003  0.98728325  1
  O2-  O306  1  0.07159102  0.07053161  0.27168004  1
  O2-  O307  1  0.06878174  0.07109093  0.77002974  1
  O2-  O308  1  0.07119263  0.40444595  0.27155724  1
  O2-  O309  1  0.07206529  0.40342490  0.77219124  1
  O2-  O310  1  0.07475455  0.73625620  0.27008890  1
  O2-  O311  1  0.07139245  0.73563636  0.76916962  1
  O2-  O312  1  0.40327771  0.06945801  0.26719595  1
  O2-  O313  1  0.40384598  0.07065999  0.76821166  1
  O2-  O314  1  0.39997845  0.40323682  0.26593140  1
  O2-  O315  1  0.40988383  0.40749248  0.76666173  1
  O2-  O316  1  0.40615940  0.73893658  0.27118384  1
  O2-  O317  1  0.40733195  0.74201149  0.77323793  1
  O2-  O318  1  0.73777972  0.07401441  0.27325501  1
  O2-  O319  1  0.73621446  0.07464464  0.77618162  1
  O2-  O320  1  0.73778970  0.40855961  0.27481589  1
  O2-  O321  1  0.73947239  0.40248825  0.76636368  1
  O2-  O322  1  0.73742855  0.73919528  0.26822793  1
  O2-  O323  1  0.73809158  0.73867107  0.76641036  1
  O2-  O324  1  0.23783686  0.09444052  0.22924049  1
  O2-  O325  1  0.23629718  0.09355471  0.72863285  1
  O2-  O326  1  0.23775542  0.43294452  0.22608514  1
  O2-  O327  1  0.23878282  0.42846780  0.73070055  1
  O2-  O328  1  0.23572766  0.76461906  0.23503801  1
  O2-  O329  1  0.23508324  0.76166511  0.72899840  1
  O2-  O330  1  0.57270041  0.09407290  0.22891768  1
  O2-  O331  1  0.57144456  0.09647254  0.73110380  1
  O2-  O332  1  0.56970308  0.42958794  0.23051350  1
  O2-  O333  1  0.57304061  0.42650086  0.72974958  1
  O2-  O334  1  0.57132117  0.76115663  0.23671680  1
  O2-  O335  1  0.57501941  0.75885457  0.73272450  1
  O2-  O336  1  0.90420677  0.09427878  0.22964384  1
  O2-  O337  1  0.90250474  0.09392089  0.72795113  1
  O2-  O338  1  0.90394890  0.42703856  0.22750707  1
  O2-  O339  1  0.91013024  0.42381645  0.73153340  1
  O2-  O340  1  0.90901037  0.75869004  0.22663587  1
  O2-  O341  1  0.90786781  0.76147660  0.73005353  1
  O2-  O342  1  0.26100662  0.26030435  0.02155224  1
  O2-  O343  1  0.26257030  0.26225999  0.52012412  1
  O2-  O344  1  0.26535069  0.60047116  0.01795568  1
  O2-  O345  1  0.26206516  0.59854013  0.52233336  1
  O2-  O346  1  0.26020308  0.93011884  0.01955270  1
  O2-  O347  1  0.26320155  0.93003862  0.51901212  1
  O2-  O348  1  0.59709760  0.26339543  0.02380266  1
  O2-  O349  1  0.59602039  0.26162620  0.52163762  1
  O2-  O350  1  0.59444264  0.59493660  0.02112227  1
  O2-  O351  1  0.59357958  0.59406441  0.52260312  1
  O2-  O352  1  0.59404881  0.92785648  0.01497228  1
  O2-  O353  1  0.59734093  0.93170793  0.51801421  1
  O2-  O354  1  0.92513431  0.25979077  0.02600179  1
  O2-  O355  1  0.93145862  0.26104772  0.51618850  1
  O2-  O356  1  0.92798093  0.59283446  0.02335912  1
  O2-  O357  1  0.93358264  0.59552432  0.51663689  1
  O2-  O358  1  0.92787862  0.92678932  0.01948376  1
  O2-  O359  1  0.92765802  0.92738033  0.52022881  1
