# generated using pymatgen
data_Sr7Ca15Pr50Mn72O216
_symmetry_space_group_name_H-M   'P 1'
_cell_length_a   16.55918205
_cell_length_b   16.60509376
_cell_length_c   15.59352797
_cell_angle_alpha   90.00065225
_cell_angle_beta   90.00392287
_cell_angle_gamma   89.99738174
_symmetry_Int_Tables_number   1
_chemical_formula_structural   Sr7Ca15Pr50Mn72O216
_chemical_formula_sum   'Sr7 Ca15 Pr50 Mn72 O216'
_cell_volume   4287.70201219
_cell_formula_units_Z   1
loop_
 _symmetry_equiv_pos_site_id
 _symmetry_equiv_pos_as_xyz
  1  'x, y, z'
loop_
 _atom_type_symbol
 _atom_type_oxidation_number
  Sr2+  2.0
  Ca2+  2.0
  Pr3+  3.0
  Mn3.30+  3.3
  O2-  -2.0
loop_
 _atom_site_type_symbol
 _atom_site_label
 _atom_site_symmetry_multiplicity
 _atom_site_fract_x
 _atom_site_fract_y
 _atom_site_fract_z
 _atom_site_occupancy
  Sr2+  Sr0  1  0.33628870  0.65836803  0.37479209  1
  Sr2+  Sr1  1  0.66214354  0.34264789  0.62601280  1
  Sr2+  Sr2  1  0.17195758  0.84571147  0.62417406  1
  Sr2+  Sr3  1  0.50277820  0.17787448  0.12580686  1
  Sr2+  Sr4  1  0.66472085  0.98848799  0.37409165  1
  Sr2+  Sr5  1  0.16894421  0.17451001  0.62431820  1
  Sr2+  Sr6  1  0.66816000  0.32343652  0.87652234  1
  Ca2+  Ca7  1  -0.00144386  0.35010042  0.12526971  1
  Ca2+  Ca8  1  0.50510179  0.51488719  0.62415757  1
  Ca2+  Ca9  1  0.16251985  0.48381347  0.87860529  1
  Ca2+  Ca10  1  0.17233419  0.51569517  0.12427775  1
  Ca2+  Ca11  1  0.50044843  0.17945789  0.62467356  1
  Ca2+  Ca12  1  0.83412179  0.51129117  0.12373379  1
  Ca2+  Ca13  1  0.17151160  0.18156477  0.12566320  1
  Ca2+  Ca14  1  0.50144875  0.84487354  0.12763881  1
  Ca2+  Ca15  1  0.49525385  0.81715470  0.37395692  1
  Ca2+  Ca16  1  0.16624280  0.15163000  0.37495987  1
  Ca2+  Ca17  1  1.00499586  0.98559669  0.87434117  1
  Ca2+  Ca18  1  0.33107730  0.68010157  0.12737516  1
  Ca2+  Ca19  1  0.66172025  0.67950357  0.62463638  1
  Ca2+  Ca20  1  0.32810442  0.01580628  0.62366697  1
  Ca2+  Ca21  1  0.66266821  0.34773632  0.12387606  1
  Pr3+  Pr22  1  0.49505029  0.48871193  0.37605240  1
  Pr3+  Pr23  1  0.33467210  0.32020400  0.37398894  1
  Pr3+  Pr24  1  0.66922046  0.65302291  0.87378299  1
  Pr3+  Pr25  1  0.33809950  0.98663219  0.37614298  1
  Pr3+  Pr26  1  1.00605139  0.64937192  0.87648105  1
  Pr3+  Pr27  1  0.83034505  0.15659392  0.87564446  1
  Pr3+  Pr28  1  0.17168172  0.84332937  0.12568989  1
  Pr3+  Pr29  1  0.33204348  0.34283831  0.62532193  1
  Pr3+  Pr30  1  0.16672245  0.81914486  0.37564833  1
  Pr3+  Pr31  1  -0.00230601  0.68040547  0.62571424  1
  Pr3+  Pr32  1  0.33509976  0.65304516  0.87580131  1
  Pr3+  Pr33  1  -0.00273779  0.34435796  0.62457337  1
  Pr3+  Pr34  1  -0.00079610  0.01381736  0.62614374  1
  Pr3+  Pr35  1  1.00337090  0.32256273  0.87775685  1
  Pr3+  Pr36  1  0.49825133  0.48508570  0.87415109  1
  Pr3+  Pr37  1  0.83205012  0.82137775  0.87575724  1
  Pr3+  Pr38  1  0.50217464  0.84385600  0.62301293  1
  Pr3+  Pr39  1  1.00482326  0.98862893  0.37516710  1
  Pr3+  Pr40  1  0.49679518  0.82007754  0.87571960  1
  Pr3+  Pr41  1  0.82967242  0.48898139  0.37242419  1
  Pr3+  Pr42  1  -0.00089416  0.01327708  0.12380234  1
  Pr3+  Pr43  1  0.83629027  0.18237268  0.12715420  1
  Pr3+  Pr44  1  0.16956858  0.50932288  0.62627293  1
  Pr3+  Pr45  1  0.83596686  0.84604138  0.12509234  1
  Pr3+  Pr46  1  0.16523287  0.48817709  0.37234464  1
  Pr3+  Pr47  1  -0.00167859  0.67633263  0.12513488  1
  Pr3+  Pr48  1  0.83016073  0.15268444  0.37452794  1
  Pr3+  Pr49  1  1.00520955  0.31740404  0.37213704  1
  Pr3+  Pr50  1  1.00402160  0.65319882  0.37427921  1
  Pr3+  Pr51  1  0.33096633  0.01429741  0.12490601  1
  Pr3+  Pr52  1  0.83017373  0.48578415  0.87793260  1
  Pr3+  Pr53  1  0.66767964  0.32150521  0.37301339  1
  Pr3+  Pr54  1  0.66196507  0.01108678  0.12583235  1
  Pr3+  Pr55  1  0.16402908  0.82084880  0.87480045  1
  Pr3+  Pr56  1  0.49679844  0.15486394  0.37512371  1
  Pr3+  Pr57  1  0.33576080  0.98884812  0.87329853  1
  Pr3+  Pr58  1  0.49833485  0.15710696  0.87410370  1
  Pr3+  Pr59  1  0.66198152  0.01503651  0.62377064  1
  Pr3+  Pr60  1  0.83336060  0.51173828  0.62627339  1
  Pr3+  Pr61  1  0.83663096  0.18097772  0.62350930  1
  Pr3+  Pr62  1  0.66356701  0.67878269  0.12379081  1
  Pr3+  Pr63  1  0.33333995  0.32092436  0.87639718  1
  Pr3+  Pr64  1  0.16255719  0.15148293  0.87594046  1
  Pr3+  Pr65  1  0.33287086  0.67779790  0.62403525  1
  Pr3+  Pr66  1  0.50093430  0.51033424  0.12467202  1
  Pr3+  Pr67  1  0.82844396  0.82109181  0.37444765  1
  Pr3+  Pr68  1  0.32852989  0.34726331  0.12521220  1
  Pr3+  Pr69  1  0.83456905  0.84615053  0.62537115  1
  Pr3+  Pr70  1  0.66728156  0.99051042  0.87578343  1
  Pr3+  Pr71  1  0.66531659  0.65730479  0.37589450  1
  Mn3.30+  Mn72  1  0.16530714  0.00002254  0.00036485  1
  Mn3.30+  Mn73  1  0.17009675  0.00064946  0.49951612  1
  Mn3.30+  Mn74  1  0.16477142  0.33431289  0.00336242  1
  Mn3.30+  Mn75  1  0.16685234  0.33082288  0.49884095  1
  Mn3.30+  Mn76  1  0.16891451  0.66383932  0.00103100  1
  Mn3.30+  Mn77  1  0.16763071  0.66534499  0.50030308  1
  Mn3.30+  Mn78  1  0.49969270  -0.00078039  0.00050017  1
  Mn3.30+  Mn79  1  0.49781113  -0.00023394  0.50106438  1
  Mn3.30+  Mn80  1  0.50051741  0.33248682  0.00104481  1
  Mn3.30+  Mn81  1  0.50000484  0.33335088  0.50138326  1
  Mn3.30+  Mn82  1  0.49810342  0.66668435  0.00176854  1
  Mn3.30+  Mn83  1  0.50110165  0.66636976  0.50071080  1
  Mn3.30+  Mn84  1  0.83533681  0.00126746  -0.00105988  1
  Mn3.30+  Mn85  1  0.83207881  -0.00015595  0.50003482  1
  Mn3.30+  Mn86  1  0.83418538  0.33519967  0.00509795  1
  Mn3.30+  Mn87  1  0.83296590  0.33480139  0.49776220  1
  Mn3.30+  Mn88  1  0.83457447  0.66525429  0.00045976  1
  Mn3.30+  Mn89  1  0.83168414  0.66663522  0.50132623  1
  Mn3.30+  Mn90  1  0.00443167  0.16761649  0.24745553  1
  Mn3.30+  Mn91  1  0.00010942  0.16648154  0.75177019  1
  Mn3.30+  Mn92  1  -0.00042759  0.49872242  0.24627488  1
  Mn3.30+  Mn93  1  0.00144083  0.49854151  0.75122148  1
  Mn3.30+  Mn94  1  0.00072994  0.83306277  0.25021515  1
  Mn3.30+  Mn95  1  0.00089337  0.83476632  0.75026827  1
  Mn3.30+  Mn96  1  0.33062571  0.16719247  0.24939482  1
  Mn3.30+  Mn97  1  0.33268429  0.16590225  0.74861251  1
  Mn3.30+  Mn98  1  0.33153419  0.50218940  0.24897651  1
  Mn3.30+  Mn99  1  0.33341384  0.49866453  0.75045495  1
  Mn3.30+  Mn100  1  0.33691295  0.83241663  0.24836257  1
  Mn3.30+  Mn101  1  0.33295525  0.83441408  0.74949632  1
  Mn3.30+  Mn102  1  0.66663156  0.16749756  0.24893735  1
  Mn3.30+  Mn103  1  0.66479989  0.16821807  0.74946190  1
  Mn3.30+  Mn104  1  0.66622158  0.50019705  0.24833898  1
  Mn3.30+  Mn105  1  0.66503346  0.49969123  0.74795016  1
  Mn3.30+  Mn106  1  0.66335191  0.83260880  0.25013469  1
  Mn3.30+  Mn107  1  0.66614262  0.83306172  0.74950892  1
  Mn3.30+  Mn108  1  0.16804404  0.00168137  0.24972141  1
  Mn3.30+  Mn109  1  0.16767044  -0.00078865  0.74944902  1
  Mn3.30+  Mn110  1  0.16509409  0.33249878  0.24712885  1
  Mn3.30+  Mn111  1  0.16647806  0.33238985  0.75064860  1
  Mn3.30+  Mn112  1  0.16896299  0.66472889  0.24866588  1
  Mn3.30+  Mn113  1  0.16746800  0.66459114  0.75070917  1
  Mn3.30+  Mn114  1  0.49938885  -0.00245591  0.25031932  1
  Mn3.30+  Mn115  1  0.49798537  0.00125161  0.74664201  1
  Mn3.30+  Mn116  1  0.50058166  0.33370395  0.24825246  1
  Mn3.30+  Mn117  1  0.49963842  0.33250406  0.74924163  1
  Mn3.30+  Mn118  1  0.49784200  0.66799121  0.24749362  1
  Mn3.30+  Mn119  1  0.50145613  0.66499731  0.74981287  1
  Mn3.30+  Mn120  1  0.83314112  0.00003422  0.24917381  1
  Mn3.30+  Mn121  1  0.83412851  0.00105975  0.75176451  1
  Mn3.30+  Mn122  1  0.83482914  0.33606585  0.24755193  1
  Mn3.30+  Mn123  1  0.83245763  0.33398928  0.75017318  1
  Mn3.30+  Mn124  1  0.83291789  0.66535795  0.24889098  1
  Mn3.30+  Mn125  1  0.83286659  0.66653192  0.75002995  1
  Mn3.30+  Mn126  1  0.00130486  0.16812864  0.00284972  1
  Mn3.30+  Mn127  1  0.00248791  0.16625493  0.49831617  1
  Mn3.30+  Mn128  1  0.00185333  0.49833012  0.00435008  1
  Mn3.30+  Mn129  1  -0.00050403  0.49918992  0.49917320  1
  Mn3.30+  Mn130  1  0.00113015  0.83341326  -0.00072585  1
  Mn3.30+  Mn131  1  0.00019985  0.83427421  0.50098328  1
  Mn3.30+  Mn132  1  0.33130888  0.16772169  0.00171601  1
  Mn3.30+  Mn133  1  0.33240234  0.16551487  0.50015535  1
  Mn3.30+  Mn134  1  0.32959412  0.50077693  -0.00022559  1
  Mn3.30+  Mn135  1  0.33513176  0.49976114  0.50189462  1
  Mn3.30+  Mn136  1  0.33429492  0.83288019  0.00174695  1
  Mn3.30+  Mn137  1  0.33575671  0.83365799  0.50002369  1
  Mn3.30+  Mn138  1  0.66679819  0.16857458  0.00134045  1
  Mn3.30+  Mn139  1  0.66452757  0.16740887  0.49996380  1
  Mn3.30+  Mn140  1  0.66779529  0.49861913  0.00213211  1
  Mn3.30+  Mn141  1  0.66376371  0.50095910  0.50103242  1
  Mn3.30+  Mn142  1  0.66517953  0.83347982  -0.00002894  1
  Mn3.30+  Mn143  1  0.66481701  0.83245429  0.49949245  1
  O2-  O144  1  0.03076347  0.15718282  0.12431942  1
  O2-  O145  1  0.01844406  0.16329570  0.62359016  1
  O2-  O146  1  0.03008249  0.49762748  0.12559599  1
  O2-  O147  1  0.02473539  0.49339478  0.62440766  1
  O2-  O148  1  0.02630131  0.82633350  0.12572022  1
  O2-  O149  1  0.02140044  0.82809675  0.62619629  1
  O2-  O150  1  0.35341967  0.16319928  0.12470231  1
  O2-  O151  1  0.35722019  0.16290711  0.62506307  1
  O2-  O152  1  0.35792822  0.49309151  0.12378542  1
  O2-  O153  1  0.36164797  0.49126733  0.62646530  1
  O2-  O154  1  0.35864693  0.82789305  0.12333677  1
  O2-  O155  1  0.35840041  0.82482718  0.62615523  1
  O2-  O156  1  0.69221296  0.15725036  0.12539451  1
  O2-  O157  1  0.69234953  0.16322384  0.62382763  1
  O2-  O158  1  0.69144202  0.49568746  0.12521825  1
  O2-  O159  1  0.69133835  0.49567546  0.62388569  1
  O2-  O160  1  0.69321291  0.82787138  0.12366635  1
  O2-  O161  1  0.69163633  0.82767184  0.62827398  1
  O2-  O162  1  0.13928971  0.32263446  0.12645513  1
  O2-  O163  1  0.14102641  0.33022716  0.62218343  1
  O2-  O164  1  0.14163293  0.66439572  0.12413768  1
  O2-  O165  1  0.14131843  0.65855222  0.62633925  1
  O2-  O166  1  0.14149633  0.98923416  0.12552121  1
  O2-  O167  1  0.14239178  0.99914806  0.62713856  1
  O2-  O168  1  0.47405993  0.33480088  0.12497132  1
  O2-  O169  1  0.47478068  0.32380255  0.62516159  1
  O2-  O170  1  0.47179564  0.65611502  0.12272233  1
  O2-  O171  1  0.47583038  0.66074929  0.62921089  1
  O2-  O172  1  0.47518051  0.99222711  0.12552203  1
  O2-  O173  1  0.46959752  0.99012164  0.62473569  1
  O2-  O174  1  0.80408276  0.32710723  0.12701426  1
  O2-  O175  1  0.81487453  0.32895707  0.62131346  1
  O2-  O176  1  0.80877210  0.66081793  0.12298988  1
  O2-  O177  1  0.80542697  0.65986374  0.62573223  1
  O2-  O178  1  0.80740573  0.99406137  0.12393391  1
  O2-  O179  1  0.80699811  0.99479928  0.62705682  1
  O2-  O180  1  0.30784109  0.17193499  0.37247574  1
  O2-  O181  1  0.30724627  0.17135742  0.87779549  1
  O2-  O182  1  0.30934778  0.50217058  0.37503465  1
  O2-  O183  1  0.30399642  0.50548832  0.87585512  1
  O2-  O184  1  0.30947913  0.83848384  0.37422832  1
  O2-  O185  1  0.30783795  0.84000618  0.87530156  1
  O2-  O186  1  0.64264104  0.17230944  0.37419575  1
  O2-  O187  1  0.64411180  0.16470164  0.87563917  1
  O2-  O188  1  0.63942216  0.50841157  0.37519615  1
  O2-  O189  1  0.64309466  0.50543363  0.87504233  1
  O2-  O190  1  0.63995909  0.83046462  0.37254303  1
  O2-  O191  1  0.64083356  0.84056426  0.87418693  1
  O2-  O192  1  0.97386831  0.16867715  0.37291979  1
  O2-  O193  1  0.97282351  0.17632314  0.87922544  1
  O2-  O194  1  0.97432967  0.50581424  0.37349959  1
  O2-  O195  1  0.97461864  0.50143847  0.87744362  1
  O2-  O196  1  0.97330473  0.83936895  0.37521619  1
  O2-  O197  1  0.97571727  0.83859604  0.87389664  1
  O2-  O198  1  0.19275165  0.00549798  0.37157132  1
  O2-  O199  1  0.19129074  0.00263924  0.87575520  1
  O2-  O200  1  0.19112254  0.34258039  0.37343060  1
  O2-  O201  1  0.18926780  0.34014376  0.87817620  1
  O2-  O202  1  0.18456684  0.66868464  0.37421419  1
  O2-  O203  1  0.19115585  0.67299440  0.87580354  1
  O2-  O204  1  0.51719328  0.00862667  0.37592136  1
  O2-  O205  1  0.52375539  0.00702983  0.87256425  1
  O2-  O206  1  0.52304609  0.34028089  0.37360246  1
  O2-  O207  1  0.51838598  0.33657996  0.87560230  1
  O2-  O208  1  0.52269626  0.67019598  0.37162792  1
  O2-  O209  1  0.52572349  0.67202525  0.87613023  1
  O2-  O210  1  0.85957839  0.00331582  0.37359104  1
  O2-  O211  1  0.86266717  0.00907778  0.87556019  1
  O2-  O212  1  0.86098613  0.34128572  0.37205200  1
  O2-  O213  1  0.85874773  0.33733628  0.88020710  1
  O2-  O214  1  0.85994839  0.67285583  0.37584264  1
  O2-  O215  1  0.86139765  0.67229373  0.87610418  1
  O2-  O216  1  0.23674923  0.09550877  0.01981547  1
  O2-  O217  1  0.24069404  0.09335615  0.51534183  1
  O2-  O218  1  0.23624689  0.42792046  0.02471236  1
  O2-  O219  1  0.23885955  0.42673673  0.52024263  1
  O2-  O220  1  0.23717343  0.76377293  0.01675784  1
  O2-  O221  1  0.24284736  0.75848169  0.51508751  1
  O2-  O222  1  0.57554055  0.09150657  0.01723981  1
  O2-  O223  1  0.56965172  0.09376688  0.52198520  1
  O2-  O224  1  0.57086408  0.42943698  0.01601872  1
  O2-  O225  1  0.56724877  0.43149573  0.51678935  1
  O2-  O226  1  0.56921131  0.75981943  0.02170581  1
  O2-  O227  1  0.57351568  0.76048457  0.52050460  1
  O2-  O228  1  0.90550136  0.09628816  0.02423982  1
  O2-  O229  1  0.90515217  0.09428268  0.51890139  1
  O2-  O230  1  0.90389431  0.43131031  0.02200796  1
  O2-  O231  1  0.90508594  0.42929166  0.51975048  1
  O2-  O232  1  0.90652657  0.76127032  0.02046228  1
  O2-  O233  1  0.90308027  0.76053291  0.52190207  1
  O2-  O234  1  0.26309242  0.26502534  0.23212247  1
  O2-  O235  1  0.26266630  0.26273150  0.73450173  1
  O2-  O236  1  0.26187077  0.59504571  0.22847631  1
  O2-  O237  1  0.26299489  0.59213651  0.72815219  1
  O2-  O238  1  0.26308288  0.92800178  0.22900331  1
  O2-  O239  1  0.26634325  0.93094934  0.73252504  1
  O2-  O240  1  0.59975706  0.26416874  0.23272159  1
  O2-  O241  1  0.59024990  0.25760125  0.73533371  1
  O2-  O242  1  0.59438928  0.59476535  0.22769796  1
  O2-  O243  1  0.59842852  0.59863638  0.73336534  1
  O2-  O244  1  0.59532657  0.92533093  0.22855163  1
  O2-  O245  1  0.59376054  0.92975212  0.72865019  1
  O2-  O246  1  0.93303549  0.26234968  0.22826501  1
  O2-  O247  1  0.92805090  0.26195922  0.73117302  1
  O2-  O248  1  0.93043446  0.59561490  0.23195625  1
  O2-  O249  1  0.92894044  0.59476980  0.73005941  1
  O2-  O250  1  0.92883018  0.92737929  0.22811605  1
  O2-  O251  1  0.92546378  0.92804323  0.72776708  1
  O2-  O252  1  0.09652697  0.23667043  0.27527388  1
  O2-  O253  1  0.09339496  0.23886758  0.77329531  1
  O2-  O254  1  0.09188897  0.57181310  0.27062387  1
  O2-  O255  1  0.09485784  0.56807382  0.77197640  1
  O2-  O256  1  0.09689159  0.90528650  0.27202701  1
  O2-  O257  1  0.09635422  0.90586568  0.76997024  1
  O2-  O258  1  0.42764106  0.24021902  0.27113440  1
  O2-  O259  1  0.42405846  0.24011258  0.77205645  1
  O2-  O260  1  0.43070714  0.56959676  0.26604970  1
  O2-  O261  1  0.42670806  0.57312987  0.77439960  1
  O2-  O262  1  0.42734105  0.90546528  0.27272811  1
  O2-  O263  1  0.42915079  0.90485557  0.77181711  1
  O2-  O264  1  0.76543929  0.24010732  0.27131343  1
  O2-  O265  1  0.76480900  0.23773949  0.76589524  1
  O2-  O266  1  0.75875860  0.57528786  0.27222810  1
  O2-  O267  1  0.76468453  0.57315404  0.77196704  1
  O2-  O268  1  0.76214701  0.90166101  0.26619588  1
  O2-  O269  1  0.76260631  0.90778053  0.77294502  1
  O2-  O270  1  0.06971162  0.07029232  0.48295770  1
  O2-  O271  1  0.06943147  0.07009554  0.97762395  1
  O2-  O272  1  0.07212372  0.40344337  0.47871736  1
  O2-  O273  1  0.06951471  0.40341131  0.98293161  1
  O2-  O274  1  0.06963009  0.73994549  0.48122989  1
  O2-  O275  1  0.07295473  0.73621567  0.97937892  1
  O2-  O276  1  0.40544464  0.07410919  0.47802596  1
  O2-  O277  1  0.40511252  0.07295086  0.98107437  1
  O2-  O278  1  0.40396094  0.40424345  0.47954104  1
  O2-  O279  1  0.40248433  0.40749818  0.97989297  1
  O2-  O280  1  0.40813908  0.73923054  0.48753388  1
  O2-  O281  1  0.40526951  0.74026274  0.97534609  1
  O2-  O282  1  0.74053788  0.07424443  0.48239851  1
  O2-  O283  1  0.74111317  0.07199921  0.97915741  1
  O2-  O284  1  0.73834911  0.40939497  0.47524355  1
  O2-  O285  1  0.74232587  0.40903772  0.98160270  1
  O2-  O286  1  0.74078692  0.73936417  0.47782506  1
  O2-  O287  1  0.73776166  0.74114248  0.97846988  1
  O2-  O288  1  0.09494809  0.23778906  0.47466431  1
  O2-  O289  1  0.09445736  0.23917775  0.97712531  1
  O2-  O290  1  0.09288989  0.57003972  0.48024769  1
  O2-  O291  1  0.09588938  0.57073688  0.97793211  1
  O2-  O292  1  0.09618607  0.90759203  0.47728596  1
  O2-  O293  1  0.09575705  0.90207455  0.98193426  1
  O2-  O294  1  0.42606978  0.23965247  0.47751674  1
  O2-  O295  1  0.42554071  0.23944435  0.97931408  1
  O2-  O296  1  0.42949863  0.57130375  0.48412156  1
  O2-  O297  1  0.42839565  0.57172385  0.97673806  1
  O2-  O298  1  0.43040049  0.90323628  0.47785854  1
  O2-  O299  1  0.42624995  0.90696168  0.97642100  1
  O2-  O300  1  0.76277183  0.24099476  0.47722085  1
  O2-  O301  1  0.76558434  0.23575369  0.98481907  1
  O2-  O302  1  0.76251885  0.57265317  0.47877355  1
  O2-  O303  1  0.75978263  0.57467101  0.97757634  1
  O2-  O304  1  0.76229702  0.90258521  0.48340094  1
  O2-  O305  1  0.76374115  0.90783648  0.97805768  1
  O2-  O306  1  0.06982615  0.06838552  0.26757410  1
  O2-  O307  1  0.06951021  0.07197391  0.77139687  1
  O2-  O308  1  0.07107503  0.40522919  0.27172292  1
  O2-  O309  1  0.06988292  0.40170497  0.76633692  1
  O2-  O310  1  0.07201475  0.73900499  0.27030794  1
  O2-  O311  1  0.07178384  0.73700877  0.77021348  1
  O2-  O312  1  0.40323628  0.07292354  0.26709871  1
  O2-  O313  1  0.40693822  0.07501753  0.77361357  1
  O2-  O314  1  0.40307516  0.40672925  0.26909075  1
  O2-  O315  1  0.40269095  0.40530607  0.77244126  1
  O2-  O316  1  0.40755623  0.74031237  0.26575512  1
  O2-  O317  1  0.40590009  0.73857454  0.77146577  1
  O2-  O318  1  0.74283068  0.07496882  0.26845948  1
  O2-  O319  1  0.73919634  0.07186338  0.76960456  1
  O2-  O320  1  0.73812910  0.40931483  0.27386530  1
  O2-  O321  1  0.74369309  0.40933566  0.76869944  1
  O2-  O322  1  0.73785898  0.73898584  0.26870631  1
  O2-  O323  1  0.74182778  0.74031723  0.77508372  1
  O2-  O324  1  0.23747025  0.09342155  0.22512503  1
  O2-  O325  1  0.23877342  0.09442812  0.73841253  1
  O2-  O326  1  0.23589558  0.42936516  0.22866932  1
  O2-  O327  1  0.23985639  0.42526958  0.72760585  1
  O2-  O328  1  0.23863399  0.76380497  0.23403248  1
  O2-  O329  1  0.24265765  0.75870932  0.73307642  1
  O2-  O330  1  0.57371667  0.08966435  0.23327453  1
  O2-  O331  1  0.57033334  0.09312197  0.72631551  1
  O2-  O332  1  0.57071255  0.43043223  0.23237327  1
  O2-  O333  1  0.56624834  0.43019857  0.73343640  1
  O2-  O334  1  0.57364205  0.75800084  0.22305107  1
  O2-  O335  1  0.56888110  0.76269475  0.73317860  1
  O2-  O336  1  0.90825474  0.09589250  0.22842622  1
  O2-  O337  1  0.90374355  0.09551546  0.72866740  1
  O2-  O338  1  0.90283611  0.43244543  0.22805454  1
  O2-  O339  1  0.90614306  0.42837956  0.73078451  1
  O2-  O340  1  0.90441146  0.76018875  0.22911650  1
  O2-  O341  1  0.90375092  0.76006713  0.72937729  1
  O2-  O342  1  0.26115051  0.26494957  0.01802543  1
  O2-  O343  1  0.26430218  0.26359584  0.51591551  1
  O2-  O344  1  0.26543017  0.59933632  0.01992429  1
  O2-  O345  1  0.26140415  0.58891964  0.52478045  1
  O2-  O346  1  0.26278593  0.92794925  0.02070297  1
  O2-  O347  1  0.26690084  0.92975992  0.51616412  1
  O2-  O348  1  0.59746918  0.26094293  0.01958601  1
  O2-  O349  1  0.59353765  0.26246614  0.51171177  1
  O2-  O350  1  0.59483191  0.59377116  0.01979989  1
  O2-  O351  1  0.59842445  0.59826796  0.51792730  1
  O2-  O352  1  0.59717715  0.92840212  0.01640416  1
  O2-  O353  1  0.59323112  0.92787055  0.52324754  1
  O2-  O354  1  0.92939857  0.26348210  0.02652321  1
  O2-  O355  1  0.92987163  0.26070502  0.51586722  1
  O2-  O356  1  0.93330969  0.59452315  0.01787250  1
  O2-  O357  1  0.92673237  0.59594798  0.52166527  1
  O2-  O358  1  0.92631852  0.92746563  0.02228940  1
  O2-  O359  1  0.92842312  0.92817770  0.52163898  1
