# generated using pymatgen
data_Sr7Ca15Pr50Mn72O216
_symmetry_space_group_name_H-M   'P 1'
_cell_length_a   16.56062666
_cell_length_b   16.60574828
_cell_length_c   15.59511524
_cell_angle_alpha   89.99387825
_cell_angle_beta   90.00137621
_cell_angle_gamma   89.99719038
_symmetry_Int_Tables_number   1
_chemical_formula_structural   Sr7Ca15Pr50Mn72O216
_chemical_formula_sum   'Sr7 Ca15 Pr50 Mn72 O216'
_cell_volume   4288.68157604
_cell_formula_units_Z   1
loop_
 _symmetry_equiv_pos_site_id
 _symmetry_equiv_pos_as_xyz
  1  'x, y, z'
loop_
 _atom_type_symbol
 _atom_type_oxidation_number
  Sr2+  2.0
  Ca2+  2.0
  Pr3+  3.0
  Mn3.30+  3.3
  O2-  -2.0
loop_
 _atom_site_type_symbol
 _atom_site_label
 _atom_site_symmetry_multiplicity
 _atom_site_fract_x
 _atom_site_fract_y
 _atom_site_fract_z
 _atom_site_occupancy
  Sr2+  Sr0  1  0.67027728  0.65624988  0.87644565  1
  Sr2+  Sr1  1  0.83612472  0.84289700  0.62589836  1
  Sr2+  Sr2  1  0.49894285  0.16112269  0.37729037  1
  Sr2+  Sr3  1  0.83753646  0.83945245  0.12419590  1
  Sr2+  Sr4  1  1.00096292  0.65654382  0.37294077  1
  Sr2+  Sr5  1  0.16842842  0.51341628  0.12395094  1
  Sr2+  Sr6  1  1.00425941  0.65816299  0.87685917  1
  Ca2+  Ca7  1  0.50448897  0.51397679  0.62420447  1
  Ca2+  Ca8  1  1.00269672  0.32303230  0.87535805  1
  Ca2+  Ca9  1  -0.00166697  0.68026133  0.12441329  1
  Ca2+  Ca10  1  0.16555772  0.83845022  0.12375930  1
  Ca2+  Ca11  1  0.32612195  0.68319317  0.12469912  1
  Ca2+  Ca12  1  0.33689440  0.31949077  0.37394560  1
  Ca2+  Ca13  1  -0.00520115  0.01497265  0.62625006  1
  Ca2+  Ca14  1  0.67499874  0.64882071  0.37385207  1
  Ca2+  Ca15  1  0.66911466  0.31917931  0.37556785  1
  Ca2+  Ca16  1  0.50335231  0.18442022  0.62392035  1
  Ca2+  Ca17  1  0.84126308  0.51739869  0.12626647  1
  Ca2+  Ca18  1  0.33400269  0.32286632  0.87592044  1
  Ca2+  Ca19  1  0.82766602  0.48435621  0.37226239  1
  Ca2+  Ca20  1  0.16106469  0.48516437  0.87665478  1
  Ca2+  Ca21  1  0.16205606  0.81635961  0.87845490  1
  Pr3+  Pr22  1  -0.00262160  0.67903974  0.62502176  1
  Pr3+  Pr23  1  0.33360481  0.98387178  0.87438993  1
  Pr3+  Pr24  1  0.83166003  0.49128199  0.87770120  1
  Pr3+  Pr25  1  0.83651018  0.17902432  0.12513883  1
  Pr3+  Pr26  1  0.83338602  0.81686576  0.87579091  1
  Pr3+  Pr27  1  0.83518403  0.51200419  0.62316625  1
  Pr3+  Pr28  1  0.67056722  0.98681573  0.87450605  1
  Pr3+  Pr29  1  0.50243249  0.84479723  0.12400517  1
  Pr3+  Pr30  1  0.16373808  0.15706498  0.87442560  1
  Pr3+  Pr31  1  0.16626036  0.17986274  0.62627954  1
  Pr3+  Pr32  1  0.49875130  0.81951912  0.37471582  1
  Pr3+  Pr33  1  0.49767914  0.81623446  0.87509887  1
  Pr3+  Pr34  1  1.00166423  0.98787388  0.37688690  1
  Pr3+  Pr35  1  0.49650852  0.48743529  0.87497483  1
  Pr3+  Pr36  1  0.16803027  0.51174042  0.62606789  1
  Pr3+  Pr37  1  0.83025786  0.81693050  0.37402510  1
  Pr3+  Pr38  1  0.66813685  0.67841762  0.12602097  1
  Pr3+  Pr39  1  0.49955549  0.51310783  0.12597000  1
  Pr3+  Pr40  1  -0.00434589  0.34720330  0.62675504  1
  Pr3+  Pr41  1  0.49916067  0.48584229  0.37522392  1
  Pr3+  Pr42  1  0.66425929  0.67754565  0.62396362  1
  Pr3+  Pr43  1  0.83274888  0.15559926  0.87471995  1
  Pr3+  Pr44  1  0.33384584  0.34423800  0.62388186  1
  Pr3+  Pr45  1  0.32808651  0.01065937  0.12494517  1
  Pr3+  Pr46  1  0.50094682  0.18045737  0.12575230  1
  Pr3+  Pr47  1  0.66942213  0.98901576  0.37561194  1
  Pr3+  Pr48  1  -0.00398647  0.34969273  0.12299163  1
  Pr3+  Pr49  1  -0.00131652  0.00804804  0.12445059  1
  Pr3+  Pr50  1  1.00530808  0.98474726  0.87341479  1
  Pr3+  Pr51  1  0.16857997  0.17919098  0.12412725  1
  Pr3+  Pr52  1  0.16526873  0.15646689  0.37573293  1
  Pr3+  Pr53  1  0.83535141  0.18046629  0.62519592  1
  Pr3+  Pr54  1  0.32768220  0.34576692  0.12594082  1
  Pr3+  Pr55  1  0.33324804  0.65351989  0.87694526  1
  Pr3+  Pr56  1  0.66539289  0.01130589  0.12482180  1
  Pr3+  Pr57  1  0.33641824  0.65382081  0.37232685  1
  Pr3+  Pr58  1  0.33425631  0.67630471  0.62403765  1
  Pr3+  Pr59  1  0.50569793  0.84469849  0.62558823  1
  Pr3+  Pr60  1  0.66245184  0.01578027  0.62544890  1
  Pr3+  Pr61  1  0.82739229  0.15512829  0.37565473  1
  Pr3+  Pr62  1  0.65903670  0.34886476  0.62255898  1
  Pr3+  Pr63  1  0.16380302  0.48731272  0.37325790  1
  Pr3+  Pr64  1  0.66884757  0.32254354  0.87560241  1
  Pr3+  Pr65  1  0.99823434  0.32534718  0.37461633  1
  Pr3+  Pr66  1  0.33743500  0.98773970  0.37549987  1
  Pr3+  Pr67  1  0.49417688  0.15591790  0.87287325  1
  Pr3+  Pr68  1  0.16743782  0.84427936  0.62620300  1
  Pr3+  Pr69  1  0.33196449  0.01513638  0.62548672  1
  Pr3+  Pr70  1  0.16382437  0.81963426  0.37370596  1
  Pr3+  Pr71  1  0.66403765  0.34733041  0.12757174  1
  Mn3.30+  Mn72  1  0.16636644  -0.00325733  -0.00080533  1
  Mn3.30+  Mn73  1  0.16574874  0.00081309  0.50227529  1
  Mn3.30+  Mn74  1  0.16531502  0.33533658  -0.00277556  1
  Mn3.30+  Mn75  1  0.16700748  0.33363863  0.49971936  1
  Mn3.30+  Mn76  1  0.16690293  0.66665510  0.00184499  1
  Mn3.30+  Mn77  1  0.16681519  0.66579200  0.49937805  1
  Mn3.30+  Mn78  1  0.49883450  -0.00024762  -0.00126678  1
  Mn3.30+  Mn79  1  0.50038990  0.00248854  0.50051075  1
  Mn3.30+  Mn80  1  0.49744790  0.33441754  0.00006149  1
  Mn3.30+  Mn81  1  0.49923030  0.33440528  0.49880635  1
  Mn3.30+  Mn82  1  0.49789262  0.66521091  0.00254454  1
  Mn3.30+  Mn83  1  0.50338917  0.66424558  0.49697567  1
  Mn3.30+  Mn84  1  0.83520950  -0.00092833  -0.00077813  1
  Mn3.30+  Mn85  1  0.83461050  -0.00062285  0.50258665  1
  Mn3.30+  Mn86  1  0.83434106  0.33611392  0.00010481  1
  Mn3.30+  Mn87  1  0.82936851  0.33473450  0.49909168  1
  Mn3.30+  Mn88  1  0.83724473  0.66481517  0.00228246  1
  Mn3.30+  Mn89  1  0.83239891  0.66359425  0.49721498  1
  Mn3.30+  Mn90  1  -0.00079586  0.16725953  0.25046573  1
  Mn3.30+  Mn91  1  -0.00060149  0.16780348  0.75048304  1
  Mn3.30+  Mn92  1  -0.00237872  0.50250493  0.24929414  1
  Mn3.30+  Mn93  1  0.00193840  0.50020136  0.75297623  1
  Mn3.30+  Mn94  1  0.00080308  0.83181985  0.24921113  1
  Mn3.30+  Mn95  1  0.00200331  0.83349844  0.74970527  1
  Mn3.30+  Mn96  1  0.33351550  0.16707627  0.25139477  1
  Mn3.30+  Mn97  1  0.33349337  0.16931414  0.74939125  1
  Mn3.30+  Mn98  1  0.33206171  0.50054018  0.24978310  1
  Mn3.30+  Mn99  1  0.33294379  0.49798777  0.75056860  1
  Mn3.30+  Mn100  1  0.33215086  0.83241164  0.24845491  1
  Mn3.30+  Mn101  1  0.33276401  0.83134449  0.75004897  1
  Mn3.30+  Mn102  1  0.66624679  0.16771837  0.25032115  1
  Mn3.30+  Mn103  1  0.66443263  0.16841532  0.75019232  1
  Mn3.30+  Mn104  1  0.66995853  0.50024068  0.24968582  1
  Mn3.30+  Mn105  1  0.66523184  0.50074417  0.75050085  1
  Mn3.30+  Mn106  1  0.66732912  0.83220534  0.25017880  1
  Mn3.30+  Mn107  1  0.66865668  0.83290971  0.74989291  1
  Mn3.30+  Mn108  1  0.16677362  -0.00152410  0.25038927  1
  Mn3.30+  Mn109  1  0.16518752  -0.00058290  0.74867698  1
  Mn3.30+  Mn110  1  0.16640127  0.33361907  0.25095304  1
  Mn3.30+  Mn111  1  0.16633335  0.33510646  0.75209685  1
  Mn3.30+  Mn112  1  0.16676361  0.66669822  0.24696020  1
  Mn3.30+  Mn113  1  0.16707047  0.66572215  0.75153229  1
  Mn3.30+  Mn114  1  0.49951115  0.00109080  0.25037151  1
  Mn3.30+  Mn115  1  0.49954056  0.00091086  0.75009581  1
  Mn3.30+  Mn116  1  0.49850904  0.33409768  0.25164369  1
  Mn3.30+  Mn117  1  0.49865699  0.33463514  0.75011726  1
  Mn3.30+  Mn118  1  0.50126277  0.66615205  0.24943281  1
  Mn3.30+  Mn119  1  0.50043111  0.66304529  0.75019308  1
  Mn3.30+  Mn120  1  0.83426355  -0.00148465  0.24968401  1
  Mn3.30+  Mn121  1  0.83550643  -0.00029049  0.74920770  1
  Mn3.30+  Mn122  1  0.83088723  0.33595726  0.24960045  1
  Mn3.30+  Mn123  1  0.83272651  0.33509426  0.75175898  1
  Mn3.30+  Mn124  1  0.83518765  0.66319190  0.25053709  1
  Mn3.30+  Mn125  1  0.83434085  0.66520120  0.75018603  1
  Mn3.30+  Mn126  1  0.00041131  0.16782353  -0.00093358  1
  Mn3.30+  Mn127  1  -0.00184078  0.16725030  0.50050558  1
  Mn3.30+  Mn128  1  0.00160462  0.50278222  0.00031873  1
  Mn3.30+  Mn129  1  -0.00179652  0.50046730  0.49687695  1
  Mn3.30+  Mn130  1  0.00365447  0.83126155  0.00099887  1
  Mn3.30+  Mn131  1  -0.00081283  0.83426255  0.50070562  1
  Mn3.30+  Mn132  1  0.33219138  0.16753769  -0.00186094  1
  Mn3.30+  Mn133  1  0.33495299  0.16876669  0.50162114  1
  Mn3.30+  Mn134  1  0.32942781  0.50002992  -0.00114209  1
  Mn3.30+  Mn135  1  0.33536748  0.49855425  0.50005764  1
  Mn3.30+  Mn136  1  0.33014250  0.83108440  0.00015837  1
  Mn3.30+  Mn137  1  0.33463727  0.83275944  0.50081872  1
  Mn3.30+  Mn138  1  0.66597247  0.16725465  -0.00034681  1
  Mn3.30+  Mn139  1  0.66465180  0.16863105  0.50040141  1
  Mn3.30+  Mn140  1  0.66796218  0.50117498  0.00313245  1
  Mn3.30+  Mn141  1  0.66707037  0.49963266  0.49657330  1
  Mn3.30+  Mn142  1  0.66834745  0.83268730  0.00076680  1
  Mn3.30+  Mn143  1  0.66790992  0.83233020  0.49928735  1
  O2-  O144  1  0.02451758  0.15866184  0.12436284  1
  O2-  O145  1  0.02234717  0.16239400  0.62433855  1
  O2-  O146  1  0.02119364  0.49249190  0.12479613  1
  O2-  O147  1  0.02357558  0.49387388  0.62469508  1
  O2-  O148  1  0.02308880  0.83494597  0.12594534  1
  O2-  O149  1  0.02356851  0.82722728  0.62460423  1
  O2-  O150  1  0.35682872  0.15891477  0.12135660  1
  O2-  O151  1  0.36066916  0.16247337  0.62556516  1
  O2-  O152  1  0.35641324  0.49102081  0.12511399  1
  O2-  O153  1  0.36220849  0.49261572  0.62408228  1
  O2-  O154  1  0.35948749  0.83120786  0.12487350  1
  O2-  O155  1  0.36253496  0.82630677  0.62561173  1
  O2-  O156  1  0.69215120  0.16053180  0.12298906  1
  O2-  O157  1  0.69190755  0.16397759  0.62612284  1
  O2-  O158  1  0.69628837  0.49254855  0.12656570  1
  O2-  O159  1  0.69068058  0.49473780  0.62216099  1
  O2-  O160  1  0.68674203  0.82957488  0.12633315  1
  O2-  O161  1  0.68501246  0.82677858  0.62443979  1
  O2-  O162  1  0.14091675  0.32630385  0.12475817  1
  O2-  O163  1  0.13892067  0.32937479  0.62447243  1
  O2-  O164  1  0.14043320  0.66543758  0.12650794  1
  O2-  O165  1  0.14242166  0.65949143  0.62339376  1
  O2-  O166  1  0.14285608  0.99226600  0.12307297  1
  O2-  O167  1  0.13691027  0.99316784  0.62499983  1
  O2-  O168  1  0.47282215  0.32980173  0.12484359  1
  O2-  O169  1  0.47775162  0.32930395  0.62547259  1
  O2-  O170  1  0.46992491  0.66164739  0.12566082  1
  O2-  O171  1  0.47802079  0.66070956  0.62218377  1
  O2-  O172  1  0.47278988  0.99336896  0.12212231  1
  O2-  O173  1  0.47513925  0.99038502  0.62601577  1
  O2-  O174  1  0.80673921  0.32468364  0.12460735  1
  O2-  O175  1  0.80468055  0.32943385  0.62751358  1
  O2-  O176  1  0.81070926  0.66395071  0.12736955  1
  O2-  O177  1  0.80888735  0.66037408  0.62191460  1
  O2-  O178  1  0.80968607  0.99718086  0.12189877  1
  O2-  O179  1  0.80630880  0.99868115  0.62662089  1
  O2-  O180  1  0.30855676  0.17095818  0.37904643  1
  O2-  O181  1  0.30770047  0.17415667  0.87441067  1
  O2-  O182  1  0.30723538  0.50810350  0.37498425  1
  O2-  O183  1  0.30447184  0.50823202  0.87488861  1
  O2-  O184  1  0.30842227  0.83914317  0.37613147  1
  O2-  O185  1  0.30547986  0.83653300  0.87265264  1
  O2-  O186  1  0.64949474  0.16886442  0.37542653  1
  O2-  O187  1  0.63866667  0.17293857  0.87587609  1
  O2-  O188  1  0.64112336  0.50738233  0.37246668  1
  O2-  O189  1  0.64140017  0.50110931  0.87906007  1
  O2-  O190  1  0.64183260  0.84197476  0.37404977  1
  O2-  O191  1  0.64240519  0.83797266  0.87535372  1
  O2-  O192  1  0.97183456  0.17434912  0.37598714  1
  O2-  O193  1  0.97609569  0.17480031  0.87551902  1
  O2-  O194  1  0.97275624  0.49706942  0.37426720  1
  O2-  O195  1  0.97408495  0.50520494  0.87569036  1
  O2-  O196  1  0.97545671  0.84068883  0.37708415  1
  O2-  O197  1  0.97717199  0.83761246  0.87315032  1
  O2-  O198  1  0.19407738  0.00789383  0.37902089  1
  O2-  O199  1  0.19196259  0.00973779  0.87336697  1
  O2-  O200  1  0.19326193  0.33788582  0.37733362  1
  O2-  O201  1  0.19295062  0.33726031  0.87351388  1
  O2-  O202  1  0.19290338  0.67173024  0.37572327  1
  O2-  O203  1  0.19191489  0.67505805  0.87385092  1
  O2-  O204  1  0.52495116  0.00420537  0.37680241  1
  O2-  O205  1  0.52583246  0.00757984  0.87475045  1
  O2-  O206  1  0.52681388  0.33867721  0.37366947  1
  O2-  O207  1  0.52566990  0.33931832  0.87584429  1
  O2-  O208  1  0.53037697  0.67290506  0.37276573  1
  O2-  O209  1  0.52011320  0.66804861  0.87871418  1
  O2-  O210  1  0.85697126  0.00807543  0.37734947  1
  O2-  O211  1  0.86028818  0.00874166  0.87446034  1
  O2-  O212  1  0.85544462  0.33617563  0.37273150  1
  O2-  O213  1  0.85948498  0.34212778  0.87544055  1
  O2-  O214  1  0.85299460  0.67132745  0.37442231  1
  O2-  O215  1  0.85184925  0.66676060  0.87659474  1
  O2-  O216  1  0.23735756  0.09383168  0.01990087  1
  O2-  O217  1  0.23769564  0.09435771  0.52426694  1
  O2-  O218  1  0.24038371  0.42411793  0.01959953  1
  O2-  O219  1  0.23804714  0.42608242  0.52210005  1
  O2-  O220  1  0.23876033  0.76286844  0.02176972  1
  O2-  O221  1  0.24214281  0.76045876  0.52176098  1
  O2-  O222  1  0.57055869  0.09340410  0.02143427  1
  O2-  O223  1  0.57331855  0.09641355  0.52461230  1
  O2-  O224  1  0.57224126  0.42807409  0.02298791  1
  O2-  O225  1  0.56891810  0.43149347  0.51882959  1
  O2-  O226  1  0.57021351  0.75896191  0.01999940  1
  O2-  O227  1  0.57063644  0.76139669  0.51910895  1
  O2-  O228  1  0.90515393  0.09437697  0.01914372  1
  O2-  O229  1  0.90115799  0.09700683  0.51871909  1
  O2-  O230  1  0.90271289  0.42985255  0.02127418  1
  O2-  O231  1  0.90515406  0.42522834  0.52134431  1
  O2-  O232  1  0.90892214  0.76107702  0.01208305  1
  O2-  O233  1  0.90766897  0.75848398  0.51580401  1
  O2-  O234  1  0.25780983  0.25819482  0.22880537  1
  O2-  O235  1  0.25875014  0.26056563  0.72579011  1
  O2-  O236  1  0.26596497  0.59937392  0.23284705  1
  O2-  O237  1  0.26343978  0.59357991  0.72711086  1
  O2-  O238  1  0.26504452  0.92990303  0.23472439  1
  O2-  O239  1  0.26220152  0.92790604  0.72697944  1
  O2-  O240  1  0.59131466  0.26038575  0.22717984  1
  O2-  O241  1  0.59633038  0.26582797  0.73317573  1
  O2-  O242  1  0.59598612  0.59221079  0.22464310  1
  O2-  O243  1  0.59576006  0.59432293  0.73025405  1
  O2-  O244  1  0.59312707  0.92894070  0.22937317  1
  O2-  O245  1  0.59569378  0.92871122  0.73158564  1
  O2-  O246  1  0.92773263  0.26213952  0.22883913  1
  O2-  O247  1  0.92452997  0.26153824  0.72822712  1
  O2-  O248  1  0.93120470  0.59625915  0.22823252  1
  O2-  O249  1  0.92813248  0.59205762  0.72709176  1
  O2-  O250  1  0.93101334  0.93108299  0.23532771  1
  O2-  O251  1  0.93248444  0.93260345  0.73349360  1
  O2-  O252  1  0.09346089  0.23949048  0.27153252  1
  O2-  O253  1  0.09696792  0.23865221  0.76672641  1
  O2-  O254  1  0.09700192  0.57096284  0.27049483  1
  O2-  O255  1  0.10000227  0.56752839  0.76596046  1
  O2-  O256  1  0.09437439  0.90877534  0.27464461  1
  O2-  O257  1  0.09831638  0.90349667  0.77144178  1
  O2-  O258  1  0.42595852  0.23989849  0.26347440  1
  O2-  O259  1  0.42950412  0.24065113  0.76930175  1
  O2-  O260  1  0.43153177  0.57203272  0.27129625  1
  O2-  O261  1  0.42588370  0.57098489  0.77143149  1
  O2-  O262  1  0.42867076  0.90475345  0.27044421  1
  O2-  O263  1  0.42752176  0.90323595  0.77210047  1
  O2-  O264  1  0.76350323  0.23610270  0.26511035  1
  O2-  O265  1  0.76147751  0.24035729  0.77355986  1
  O2-  O266  1  0.76384078  0.56833590  0.26927842  1
  O2-  O267  1  0.76278241  0.56836343  0.76476504  1
  O2-  O268  1  0.76108922  0.90649350  0.27233342  1
  O2-  O269  1  0.76316455  0.90816018  0.77371004  1
  O2-  O270  1  0.07389461  0.07554272  0.47689885  1
  O2-  O271  1  0.07312419  0.07107582  0.97945139  1
  O2-  O272  1  0.07136097  0.40607386  0.47921664  1
  O2-  O273  1  0.06803583  0.40230744  0.98139898  1
  O2-  O274  1  0.07744675  0.74164141  0.48334554  1
  O2-  O275  1  0.07625358  0.74039091  0.98449258  1
  O2-  O276  1  0.40205032  0.06982270  0.48441563  1
  O2-  O277  1  0.40236906  0.07262930  0.97601614  1
  O2-  O278  1  0.40327344  0.40524415  0.47617225  1
  O2-  O279  1  0.40379823  0.40611350  0.97812013  1
  O2-  O280  1  0.40884213  0.73677858  0.47791097  1
  O2-  O281  1  0.40460763  0.74076079  0.97802362  1
  O2-  O282  1  0.73739877  0.07034794  0.48297191  1
  O2-  O283  1  0.73876246  0.07313473  0.97825291  1
  O2-  O284  1  0.73249736  0.40130814  0.48105216  1
  O2-  O285  1  0.73797337  0.40500555  0.97989657  1
  O2-  O286  1  0.73814669  0.73619007  0.47902014  1
  O2-  O287  1  0.74288981  0.74178116  0.98578826  1
  O2-  O288  1  0.09345046  0.24119861  0.47899011  1
  O2-  O289  1  0.09737671  0.23725153  0.98243433  1
  O2-  O290  1  0.09666168  0.56867494  0.48213682  1
  O2-  O291  1  0.09881118  0.56946052  0.97986714  1
  O2-  O292  1  0.09685315  0.90670461  0.47864670  1
  O2-  O293  1  0.09598281  0.90595269  0.97564613  1
  O2-  O294  1  0.42463265  0.24323155  0.48464823  1
  O2-  O295  1  0.42911687  0.23636984  0.98271940  1
  O2-  O296  1  0.42960232  0.57395820  0.47530515  1
  O2-  O297  1  0.42743465  0.56923227  0.98075009  1
  O2-  O298  1  0.42831684  0.90433014  0.47955232  1
  O2-  O299  1  0.42819105  0.90402338  0.97677494  1
  O2-  O300  1  0.76266926  0.23589475  0.48415177  1
  O2-  O301  1  0.76160240  0.24058975  0.97792612  1
  O2-  O302  1  0.76446857  0.56508089  0.48068849  1
  O2-  O303  1  0.76208481  0.57126753  0.98542538  1
  O2-  O304  1  0.76219296  0.90621062  0.47821502  1
  O2-  O305  1  0.76307406  0.90910607  0.97507917  1
  O2-  O306  1  0.07230362  0.07324495  0.27149862  1
  O2-  O307  1  0.07305725  0.07414483  0.77147724  1
  O2-  O308  1  0.07103233  0.40540841  0.27020780  1
  O2-  O309  1  0.06912025  0.40266321  0.76855527  1
  O2-  O310  1  0.07687347  0.74380127  0.27041636  1
  O2-  O311  1  0.07607481  0.73814891  0.76105365  1
  O2-  O312  1  0.40353545  0.06969659  0.26681635  1
  O2-  O313  1  0.40318451  0.07117050  0.77093583  1
  O2-  O314  1  0.40509756  0.40570146  0.27152671  1
  O2-  O315  1  0.40311404  0.40416982  0.77347142  1
  O2-  O316  1  0.40660991  0.74163660  0.27321248  1
  O2-  O317  1  0.40620025  0.73680862  0.76994963  1
  O2-  O318  1  0.73947231  0.07011416  0.26780350  1
  O2-  O319  1  0.73734334  0.07300269  0.77085903  1
  O2-  O320  1  0.73268903  0.40002321  0.26952409  1
  O2-  O321  1  0.73718886  0.40591118  0.77070454  1
  O2-  O322  1  0.73815292  0.73626414  0.26891364  1
  O2-  O323  1  0.74279025  0.74152072  0.76617901  1
  O2-  O324  1  0.23708645  0.09351900  0.23037784  1
  O2-  O325  1  0.23737717  0.09361995  0.72753620  1
  O2-  O326  1  0.23846956  0.42487299  0.23294123  1
  O2-  O327  1  0.24027629  0.42579065  0.72491738  1
  O2-  O328  1  0.23789368  0.76483216  0.23235258  1
  O2-  O329  1  0.24337143  0.75811715  0.72337523  1
  O2-  O330  1  0.57383351  0.09285108  0.22619275  1
  O2-  O331  1  0.56982470  0.09689225  0.72831716  1
  O2-  O332  1  0.57079995  0.42919732  0.22842188  1
  O2-  O333  1  0.56973352  0.42976300  0.73016803  1
  O2-  O334  1  0.57036844  0.76046061  0.22768182  1
  O2-  O335  1  0.57120577  0.75981037  0.73285730  1
  O2-  O336  1  0.90549680  0.09445568  0.23026927  1
  O2-  O337  1  0.90146407  0.09701966  0.73266271  1
  O2-  O338  1  0.90381344  0.42642033  0.22777753  1
  O2-  O339  1  0.90373471  0.42793591  0.72909455  1
  O2-  O340  1  0.90667550  0.76114287  0.23844511  1
  O2-  O341  1  0.90979536  0.75890001  0.73429798  1
  O2-  O342  1  0.26007660  0.25895399  0.02213148  1
  O2-  O343  1  0.25786316  0.25822514  0.52485443  1
  O2-  O344  1  0.26577577  0.60013427  0.01790410  1
  O2-  O345  1  0.26370477  0.59263706  0.52084979  1
  O2-  O346  1  0.26548611  0.93060751  0.01487171  1
  O2-  O347  1  0.26037170  0.92865970  0.52365459  1
  O2-  O348  1  0.59419653  0.26135104  0.02174966  1
  O2-  O349  1  0.59440290  0.26303860  0.51813250  1
  O2-  O350  1  0.59324895  0.59205398  0.02684156  1
  O2-  O351  1  0.59858332  0.59564290  0.51793060  1
  O2-  O352  1  0.59548846  0.92706571  0.01923802  1
  O2-  O353  1  0.59489347  0.92952445  0.52030164  1
  O2-  O354  1  0.92540977  0.26131491  0.02246210  1
  O2-  O355  1  0.92608499  0.26283712  0.52090603  1
  O2-  O356  1  0.93053011  0.59557413  0.02205766  1
  O2-  O357  1  0.92790127  0.59263714  0.52190800  1
  O2-  O358  1  0.93263532  0.93054566  0.01382506  1
  O2-  O359  1  0.93084874  0.93425224  0.51847592  1
