# generated using pymatgen
data_Sr7Ca15Pr50Mn72O216
_symmetry_space_group_name_H-M   'P 1'
_cell_length_a   16.55738520
_cell_length_b   16.60441352
_cell_length_c   15.59405122
_cell_angle_alpha   89.99409797
_cell_angle_beta   90.00167366
_cell_angle_gamma   90.00473898
_symmetry_Int_Tables_number   1
_chemical_formula_structural   Sr7Ca15Pr50Mn72O216
_chemical_formula_sum   'Sr7 Ca15 Pr50 Mn72 O216'
_cell_volume   4287.20495128
_cell_formula_units_Z   1
loop_
 _symmetry_equiv_pos_site_id
 _symmetry_equiv_pos_as_xyz
  1  'x, y, z'
loop_
 _atom_type_symbol
 _atom_type_oxidation_number
  Sr2+  2.0
  Ca2+  2.0
  Pr3+  3.0
  Mn3.30+  3.3
  O2-  -2.0
loop_
 _atom_site_type_symbol
 _atom_site_label
 _atom_site_symmetry_multiplicity
 _atom_site_fract_x
 _atom_site_fract_y
 _atom_site_fract_z
 _atom_site_occupancy
  Sr2+  Sr0  1  0.49450460  0.48800559  0.37712122  1
  Sr2+  Sr1  1  0.32852095  0.34477161  0.12687683  1
  Sr2+  Sr2  1  0.16573781  0.15994068  0.37403361  1
  Sr2+  Sr3  1  0.83192571  0.15532417  0.37489268  1
  Sr2+  Sr4  1  1.00215810  0.65946380  0.87212227  1
  Sr2+  Sr5  1  0.33023892  0.00921515  0.12465316  1
  Sr2+  Sr6  1  0.66673863  0.00879041  0.12615491  1
  Ca2+  Ca7  1  0.16335015  0.82083387  0.37374692  1
  Ca2+  Ca8  1  -0.00159193  0.68141841  0.62659335  1
  Ca2+  Ca9  1  0.16153290  0.81675164  0.87706348  1
  Ca2+  Ca10  1  0.83813927  0.84910612  0.12316696  1
  Ca2+  Ca11  1  0.50245204  0.51509024  0.62291066  1
  Ca2+  Ca12  1  0.67207660  0.98923284  0.37362195  1
  Ca2+  Ca13  1  1.00389984  0.31659262  0.37574859  1
  Ca2+  Ca14  1  0.17206419  0.84808528  0.12343047  1
  Ca2+  Ca15  1  0.16754615  0.51606232  0.62601666  1
  Ca2+  Ca16  1  0.33618560  0.31897936  0.37244884  1
  Ca2+  Ca17  1  0.66513401  0.01385174  0.62247930  1
  Ca2+  Ca18  1  0.16928619  0.51229945  0.12421941  1
  Ca2+  Ca19  1  0.83306524  0.81839235  0.87824088  1
  Ca2+  Ca20  1  0.16249989  0.15281863  0.87714512  1
  Ca2+  Ca21  1  1.00516680  0.31728015  0.87484548  1
  Pr3+  Pr22  1  0.83489680  0.17863579  0.62448861  1
  Pr3+  Pr23  1  0.83830531  0.51226039  0.12570030  1
  Pr3+  Pr24  1  0.50201868  0.17955796  0.62512855  1
  Pr3+  Pr25  1  0.83211317  0.15402141  0.87463055  1
  Pr3+  Pr26  1  0.66757612  0.31970060  0.37558016  1
  Pr3+  Pr27  1  0.33330745  0.67623971  0.62349520  1
  Pr3+  Pr28  1  0.83523923  0.48884533  0.87486615  1
  Pr3+  Pr29  1  0.16534569  0.84089191  0.62693979  1
  Pr3+  Pr30  1  0.49806004  0.82119121  0.87660737  1
  Pr3+  Pr31  1  0.83894967  0.51651564  0.62385034  1
  Pr3+  Pr32  1  0.49552428  0.15527712  0.37465042  1
  Pr3+  Pr33  1  0.66397868  0.34208223  0.12614840  1
  Pr3+  Pr34  1  0.50611703  0.84807338  0.62516079  1
  Pr3+  Pr35  1  -0.00171688  0.01097610  0.12522445  1
  Pr3+  Pr36  1  1.00578789  0.65676868  0.37690142  1
  Pr3+  Pr37  1  0.67334195  0.65490227  0.87536656  1
  Pr3+  Pr38  1  0.66389158  0.67972583  0.62394413  1
  Pr3+  Pr39  1  0.50115421  0.84715311  0.12490478  1
  Pr3+  Pr40  1  0.33303137  0.32015772  0.87641664  1
  Pr3+  Pr41  1  0.33368091  0.65473492  0.37552313  1
  Pr3+  Pr42  1  0.16417697  0.48451145  0.37550655  1
  Pr3+  Pr43  1  0.83831010  0.84560418  0.62588420  1
  Pr3+  Pr44  1  0.15982484  0.48683408  0.87496854  1
  Pr3+  Pr45  1  0.66510556  0.68119998  0.12587650  1
  Pr3+  Pr46  1  0.49854242  0.82374263  0.37341277  1
  Pr3+  Pr47  1  0.67284461  0.98415147  0.87462609  1
  Pr3+  Pr48  1  0.33166284  0.65574352  0.87396188  1
  Pr3+  Pr49  1  0.83261093  0.48637862  0.37540547  1
  Pr3+  Pr50  1  0.83622816  0.17756619  0.12561436  1
  Pr3+  Pr51  1  0.33317550  0.98914938  0.37384546  1
  Pr3+  Pr52  1  0.50015772  0.17922763  0.12521927  1
  Pr3+  Pr53  1  0.49687192  0.15286861  0.87539050  1
  Pr3+  Pr54  1  0.33214691  0.98601863  0.87598311  1
  Pr3+  Pr55  1  0.66225575  0.34832082  0.62366400  1
  Pr3+  Pr56  1  0.83170491  0.82533895  0.37149518  1
  Pr3+  Pr57  1  1.00422830  0.98367428  0.87539880  1
  Pr3+  Pr58  1  0.49569380  0.48919192  0.87329976  1
  Pr3+  Pr59  1  0.66968233  0.32079345  0.87440822  1
  Pr3+  Pr60  1  0.32685425  0.67881211  0.12587709  1
  Pr3+  Pr61  1  0.33049578  0.01200256  0.62533908  1
  Pr3+  Pr62  1  0.17067478  0.17851451  0.12482719  1
  Pr3+  Pr63  1  0.16817684  0.17921799  0.62543053  1
  Pr3+  Pr64  1  0.00086921  0.68135477  0.12377389  1
  Pr3+  Pr65  1  -0.00145137  0.34513155  0.62359594  1
  Pr3+  Pr66  1  -0.00316570  0.01246809  0.62513195  1
  Pr3+  Pr67  1  -0.00050671  0.34419994  0.12703578  1
  Pr3+  Pr68  1  0.32642482  0.34952324  0.62313638  1
  Pr3+  Pr69  1  0.49982798  0.51089127  0.12697422  1
  Pr3+  Pr70  1  1.00497972  0.98642175  0.37495664  1
  Pr3+  Pr71  1  0.67018382  0.65400087  0.37489036  1
  Mn3.30+  Mn72  1  0.16584846  -0.00185225  -0.00103085  1
  Mn3.30+  Mn73  1  0.16624313  -0.00158985  0.49985758  1
  Mn3.30+  Mn74  1  0.16463938  0.33324793  -0.00090975  1
  Mn3.30+  Mn75  1  0.16563263  0.33419262  0.49920460  1
  Mn3.30+  Mn76  1  0.16553997  0.66636232  0.00034063  1
  Mn3.30+  Mn77  1  0.16603140  0.66683924  0.50180109  1
  Mn3.30+  Mn78  1  0.50049223  -0.00012075  0.00008640  1
  Mn3.30+  Mn79  1  0.50322185  0.00056419  0.49895014  1
  Mn3.30+  Mn80  1  0.49904384  0.33454932  -0.00038220  1
  Mn3.30+  Mn81  1  0.49598155  0.33495183  0.50056272  1
  Mn3.30+  Mn82  1  0.49975361  0.66619374  0.00032494  1
  Mn3.30+  Mn83  1  0.50023312  0.66661225  0.49933895  1
  Mn3.30+  Mn84  1  0.83508525  -0.00179439  0.00043821  1
  Mn3.30+  Mn85  1  0.83080021  0.00049206  0.49955065  1
  Mn3.30+  Mn86  1  0.83564075  0.33343314  -0.00123699  1
  Mn3.30+  Mn87  1  0.83346147  0.33304554  0.49949022  1
  Mn3.30+  Mn88  1  0.83540609  0.66860041  0.00102334  1
  Mn3.30+  Mn89  1  0.83630885  0.66876420  0.49925459  1
  Mn3.30+  Mn90  1  0.00149412  0.16650432  0.25152915  1
  Mn3.30+  Mn91  1  0.00157000  0.16728253  0.75164177  1
  Mn3.30+  Mn92  1  0.00290597  0.49958804  0.25067664  1
  Mn3.30+  Mn93  1  0.00169018  0.50095755  0.74841217  1
  Mn3.30+  Mn94  1  0.00239821  0.83375730  0.24749690  1
  Mn3.30+  Mn95  1  0.00059411  0.83131147  0.75214821  1
  Mn3.30+  Mn96  1  0.33176734  0.16647284  0.25005718  1
  Mn3.30+  Mn97  1  0.33136306  0.16630431  0.75173356  1
  Mn3.30+  Mn98  1  0.33087156  0.49893735  0.25039851  1
  Mn3.30+  Mn99  1  0.33128855  0.50063912  0.74826886  1
  Mn3.30+  Mn100  1  0.32889237  0.83375514  0.25111463  1
  Mn3.30+  Mn101  1  0.33308687  0.83225926  0.75004362  1
  Mn3.30+  Mn102  1  0.66658258  0.16465020  0.25059915  1
  Mn3.30+  Mn103  1  0.66631477  0.16535164  0.74914046  1
  Mn3.30+  Mn104  1  0.66711527  0.49925199  0.25032760  1
  Mn3.30+  Mn105  1  0.66603660  0.50104655  0.74916579  1
  Mn3.30+  Mn106  1  0.66767932  0.83598435  0.24936626  1
  Mn3.30+  Mn107  1  0.67006182  0.83371755  0.74999712  1
  Mn3.30+  Mn108  1  0.16658393  -0.00226615  0.25038492  1
  Mn3.30+  Mn109  1  0.16537956  -0.00096092  0.75109808  1
  Mn3.30+  Mn110  1  0.16635681  0.33402059  0.25149032  1
  Mn3.30+  Mn111  1  0.16432167  0.33338527  0.75051490  1
  Mn3.30+  Mn112  1  0.16654391  0.66729643  0.25006358  1
  Mn3.30+  Mn113  1  0.16497549  0.66606299  0.74753133  1
  Mn3.30+  Mn114  1  0.50148319  0.00072643  0.25064826  1
  Mn3.30+  Mn115  1  0.50192906  0.00009731  0.75009394  1
  Mn3.30+  Mn116  1  0.49707135  0.33416734  0.25081563  1
  Mn3.30+  Mn117  1  0.49822189  0.33564344  0.74891762  1
  Mn3.30+  Mn118  1  0.49855064  0.66658801  0.24991872  1
  Mn3.30+  Mn119  1  0.50126907  0.66641133  0.74989952  1
  Mn3.30+  Mn120  1  0.83354865  0.00013422  0.24963556  1
  Mn3.30+  Mn121  1  0.83292618  -0.00161502  0.75027488  1
  Mn3.30+  Mn122  1  0.83418007  0.33237796  0.25149764  1
  Mn3.30+  Mn123  1  0.83496277  0.33420306  0.75042333  1
  Mn3.30+  Mn124  1  0.83588570  0.66887079  0.24864037  1
  Mn3.30+  Mn125  1  0.83567000  0.66809949  0.75057771  1
  Mn3.30+  Mn126  1  0.00209592  0.16705841  -0.00134676  1
  Mn3.30+  Mn127  1  0.00040121  0.16660332  0.49878228  1
  Mn3.30+  Mn128  1  0.00239778  0.49975079  0.00037474  1
  Mn3.30+  Mn129  1  0.00216766  0.50090784  0.50101647  1
  Mn3.30+  Mn130  1  0.00210480  0.83291901  0.00082256  1
  Mn3.30+  Mn131  1  0.00099505  0.83269198  0.49998340  1
  Mn3.30+  Mn132  1  0.33002713  0.16560820  -0.00115908  1
  Mn3.30+  Mn133  1  0.33276612  0.16760991  0.49977993  1
  Mn3.30+  Mn134  1  0.32969002  0.49989299  0.00008746  1
  Mn3.30+  Mn135  1  0.33213035  0.49963499  0.50132733  1
  Mn3.30+  Mn136  1  0.32918381  0.83251659  -0.00085143  1
  Mn3.30+  Mn137  1  0.33257928  0.83359436  0.49982062  1
  Mn3.30+  Mn138  1  0.66665623  0.16579182  -0.00015798  1
  Mn3.30+  Mn139  1  0.66630118  0.16434403  0.50034614  1
  Mn3.30+  Mn140  1  0.66724217  0.49944589  0.00063865  1
  Mn3.30+  Mn141  1  0.66539545  0.50041210  0.49943947  1
  Mn3.30+  Mn142  1  0.66936753  0.83333669  0.00110224  1
  Mn3.30+  Mn143  1  0.66803198  0.83646011  0.49886714  1
  O2-  O144  1  0.02541680  0.16051987  0.12466410  1
  O2-  O145  1  0.02349825  0.16096804  0.62643806  1
  O2-  O146  1  0.02745601  0.49072415  0.12792990  1
  O2-  O147  1  0.02729856  0.48950205  0.62409982  1
  O2-  O148  1  0.03039586  0.83091752  0.12488284  1
  O2-  O149  1  0.02090537  0.83245891  0.62611306  1
  O2-  O150  1  0.35580177  0.16433611  0.12217710  1
  O2-  O151  1  0.35818390  0.16047561  0.62769685  1
  O2-  O152  1  0.35588391  0.50095017  0.12297606  1
  O2-  O153  1  0.36089002  0.49653983  0.62554417  1
  O2-  O154  1  0.35777307  0.82746472  0.12459458  1
  O2-  O155  1  0.36224581  0.82783923  0.62504169  1
  O2-  O156  1  0.69091482  0.16860776  0.12280677  1
  O2-  O157  1  0.69046751  0.16097017  0.62623233  1
  O2-  O158  1  0.69445591  0.49059408  0.12539961  1
  O2-  O159  1  0.69399343  0.49613866  0.62383020  1
  O2-  O160  1  0.69335586  0.82820902  0.12507016  1
  O2-  O161  1  0.69409918  0.82546851  0.62397216  1
  O2-  O162  1  0.14221037  0.32670018  0.12361842  1
  O2-  O163  1  0.14167874  0.32635262  0.62711326  1
  O2-  O164  1  0.14413835  0.65525121  0.12628690  1
  O2-  O165  1  0.14007746  0.66083929  0.62382182  1
  O2-  O166  1  0.14228704  0.99214883  0.12374042  1
  O2-  O167  1  0.14089235  0.98979337  0.62625638  1
  O2-  O168  1  0.48010042  0.32862648  0.12447644  1
  O2-  O169  1  0.47018249  0.32499671  0.62699705  1
  O2-  O170  1  0.47330515  0.66081996  0.12427986  1
  O2-  O171  1  0.47902641  0.66437161  0.62452029  1
  O2-  O172  1  0.47978032  0.99531957  0.12339414  1
  O2-  O173  1  0.47445854  0.99501512  0.62585332  1
  O2-  O174  1  0.80862459  0.32886469  0.12460084  1
  O2-  O175  1  0.80718770  0.32873730  0.62568232  1
  O2-  O176  1  0.80771002  0.65837539  0.12653853  1
  O2-  O177  1  0.80701063  0.66350406  0.62492877  1
  O2-  O178  1  0.81653934  0.99680291  0.12294832  1
  O2-  O179  1  0.80744807  0.99257143  0.62615321  1
  O2-  O180  1  0.31623392  0.16974257  0.37736639  1
  O2-  O181  1  0.30555482  0.17224909  0.87318208  1
  O2-  O182  1  0.30786820  0.50741870  0.37731970  1
  O2-  O183  1  0.30541949  0.50648956  0.87353422  1
  O2-  O184  1  0.30578157  0.84019892  0.37724731  1
  O2-  O185  1  0.30558316  0.83646342  0.87302895  1
  O2-  O186  1  0.63953211  0.17379245  0.37678912  1
  O2-  O187  1  0.64179817  0.17309878  0.87404969  1
  O2-  O188  1  0.64558016  0.50596791  0.37444653  1
  O2-  O189  1  0.64014780  0.50692589  0.87591889  1
  O2-  O190  1  0.64229539  0.84120774  0.37457303  1
  O2-  O191  1  0.64178110  0.83550182  0.87559445  1
  O2-  O192  1  0.98188000  0.16847444  0.37509020  1
  O2-  O193  1  0.97459220  0.17228585  0.87409771  1
  O2-  O194  1  0.97430949  0.51052497  0.37572150  1
  O2-  O195  1  0.97732062  0.50597217  0.87274769  1
  O2-  O196  1  0.97572608  0.83580970  0.37316961  1
  O2-  O197  1  0.97440985  0.83603940  0.87601787  1
  O2-  O198  1  0.19012493  0.00522549  0.37767129  1
  O2-  O199  1  0.19004960  0.00966226  0.87297813  1
  O2-  O200  1  0.19410939  0.33827507  0.37758382  1
  O2-  O201  1  0.19099914  0.34117361  0.87282234  1
  O2-  O202  1  0.18993429  0.67606704  0.37651916  1
  O2-  O203  1  0.18873637  0.67152645  0.87320220  1
  O2-  O204  1  0.52904363  0.00633650  0.37610989  1
  O2-  O205  1  0.52768514  0.00377351  0.87464170  1
  O2-  O206  1  0.52357046  0.33326136  0.37556354  1
  O2-  O207  1  0.52613098  0.34205008  0.87325297  1
  O2-  O208  1  0.52537673  0.67439044  0.37435596  1
  O2-  O209  1  0.52822360  0.67202885  0.87659893  1
  O2-  O210  1  0.85925123  -0.00216766  0.37533229  1
  O2-  O211  1  0.85976741  0.00718075  0.87553536  1
  O2-  O212  1  0.85977695  0.33898775  0.37593415  1
  O2-  O213  1  0.86123235  0.34083097  0.87406392  1
  O2-  O214  1  0.86116468  0.67575593  0.37147650  1
  O2-  O215  1  0.85164204  0.67046565  0.87656180  1
  O2-  O216  1  0.23479537  0.09353090  0.01756640  1
  O2-  O217  1  0.24057268  0.09176251  0.52372103  1
  O2-  O218  1  0.23403965  0.43219162  0.01547129  1
  O2-  O219  1  0.23490381  0.43101773  0.52328880  1
  O2-  O220  1  0.23854430  0.75960164  0.02227695  1
  O2-  O221  1  0.23996819  0.75796801  0.52535967  1
  O2-  O222  1  0.57043530  0.09911049  0.01591616  1
  O2-  O223  1  0.56912857  0.09703711  0.52053722  1
  O2-  O224  1  0.57260010  0.42901335  0.02071227  1
  O2-  O225  1  0.56815294  0.42548138  0.52367636  1
  O2-  O226  1  0.57165422  0.76055647  0.02228410  1
  O2-  O227  1  0.57390493  0.76415057  0.51869642  1
  O2-  O228  1  0.90587812  0.09677550  0.01852682  1
  O2-  O229  1  0.90399782  0.09216727  0.52239926  1
  O2-  O230  1  0.90591184  0.42881827  0.02081422  1
  O2-  O231  1  0.90551495  0.43060297  0.52013969  1
  O2-  O232  1  0.90794886  0.76245984  0.02437588  1
  O2-  O233  1  0.90339695  0.76342439  0.51776270  1
  O2-  O234  1  0.25546159  0.25865660  0.23298520  1
  O2-  O235  1  0.26219451  0.26218779  0.72954668  1
  O2-  O236  1  0.26319240  0.59859165  0.23647120  1
  O2-  O237  1  0.26412106  0.59654368  0.73054307  1
  O2-  O238  1  0.26087847  0.92758105  0.23547498  1
  O2-  O239  1  0.26243456  0.92644827  0.72918678  1
  O2-  O240  1  0.59346232  0.26050915  0.23129897  1
  O2-  O241  1  0.59269666  0.26512730  0.72909270  1
  O2-  O242  1  0.59688395  0.59167427  0.22817404  1
  O2-  O243  1  0.59786197  0.59635170  0.73127696  1
  O2-  O244  1  0.58956417  0.92342253  0.23027817  1
  O2-  O245  1  0.60001830  0.92873258  0.72939135  1
  O2-  O246  1  0.92484588  0.25834100  0.22783230  1
  O2-  O247  1  0.92807964  0.25975026  0.72742102  1
  O2-  O248  1  0.93103650  0.59369116  0.22788163  1
  O2-  O249  1  0.92745810  0.59459484  0.72554758  1
  O2-  O250  1  0.93193957  0.92751330  0.23300528  1
  O2-  O251  1  0.92772002  0.92926948  0.73076262  1
  O2-  O252  1  0.09149210  0.24061184  0.26336098  1
  O2-  O253  1  0.09786656  0.23356547  0.76837668  1
  O2-  O254  1  0.09535161  0.57307531  0.27455113  1
  O2-  O255  1  0.09732900  0.56888853  0.76603002  1
  O2-  O256  1  0.09434098  0.90458099  0.27468109  1
  O2-  O257  1  0.09617081  0.90413104  0.77244522  1
  O2-  O258  1  0.42905615  0.23784239  0.26512355  1
  O2-  O259  1  0.42812010  0.23977853  0.77348841  1
  O2-  O260  1  0.42485121  0.57347659  0.26715207  1
  O2-  O261  1  0.42511241  0.57329722  0.77192315  1
  O2-  O262  1  0.42671364  0.90740053  0.27080478  1
  O2-  O263  1  0.43028764  0.90631380  0.77145975  1
  O2-  O264  1  0.75647565  0.24163197  0.26837070  1
  O2-  O265  1  0.76184002  0.23979974  0.77042410  1
  O2-  O266  1  0.76295977  0.57266361  0.27082042  1
  O2-  O267  1  0.76384014  0.57199390  0.77000770  1
  O2-  O268  1  0.76096817  0.90677517  0.26745801  1
  O2-  O269  1  0.76425094  0.90125959  0.77409236  1
  O2-  O270  1  0.07039722  0.06733564  0.48683070  1
  O2-  O271  1  0.06841509  0.06826610  0.98243896  1
  O2-  O272  1  0.06964769  0.40409971  0.47712906  1
  O2-  O273  1  0.06936808  0.40119128  0.97864920  1
  O2-  O274  1  0.07214165  0.73843936  0.48415603  1
  O2-  O275  1  0.07198253  0.73689347  0.98660039  1
  O2-  O276  1  0.40695811  0.07020386  0.48097105  1
  O2-  O277  1  0.40606141  0.07329821  0.97506190  1
  O2-  O278  1  0.39785595  0.40049951  0.48280519  1
  O2-  O279  1  0.40443608  0.40937711  0.97684988  1
  O2-  O280  1  0.40644016  0.74152327  0.47824767  1
  O2-  O281  1  0.40416947  0.74044014  0.97803370  1
  O2-  O282  1  0.73592748  0.06902042  0.48204130  1
  O2-  O283  1  0.73890271  0.07432323  0.97769777  1
  O2-  O284  1  0.73875222  0.40568287  0.47959282  1
  O2-  O285  1  0.73804785  0.40600701  0.97782602  1
  O2-  O286  1  0.73767702  0.74031255  0.47699780  1
  O2-  O287  1  0.73576017  0.73629352  0.98462182  1
  O2-  O288  1  0.09351675  0.24032303  0.48794131  1
  O2-  O289  1  0.09608517  0.23471288  0.98097048  1
  O2-  O290  1  0.09594961  0.57251186  0.47697011  1
  O2-  O291  1  0.09662330  0.56953215  0.98303451  1
  O2-  O292  1  0.09581774  0.90336163  0.47957011  1
  O2-  O293  1  0.09525873  0.90462433  0.97477689  1
  O2-  O294  1  0.42985411  0.23644109  0.48489201  1
  O2-  O295  1  0.42716056  0.24018925  0.97803814  1
  O2-  O296  1  0.42308503  0.57600226  0.48263366  1
  O2-  O297  1  0.42811646  0.57255820  0.97836549  1
  O2-  O298  1  0.43056182  0.90762438  0.47855543  1
  O2-  O299  1  0.42544717  0.90448282  0.97895626  1
  O2-  O300  1  0.75567994  0.23938034  0.48316393  1
  O2-  O301  1  0.76198038  0.23958653  0.97817707  1
  O2-  O302  1  0.76657610  0.57509758  0.47846696  1
  O2-  O303  1  0.76083187  0.57002074  0.98043645  1
  O2-  O304  1  0.76456158  0.90281458  0.48168515  1
  O2-  O305  1  0.76133969  0.90498497  0.97701282  1
  O2-  O306  1  0.07082725  0.06724622  0.26487942  1
  O2-  O307  1  0.06739602  0.06862935  0.76601165  1
  O2-  O308  1  0.06980407  0.40351064  0.27449072  1
  O2-  O309  1  0.06912742  0.40172150  0.77096052  1
  O2-  O310  1  0.06854500  0.73514684  0.26553021  1
  O2-  O311  1  0.07648469  0.74100603  0.76268021  1
  O2-  O312  1  0.40822042  0.07236570  0.27173577  1
  O2-  O313  1  0.40343223  0.07252647  0.77215780  1
  O2-  O314  1  0.40297700  0.40447594  0.26773908  1
  O2-  O315  1  0.40250081  0.40566298  0.77194000  1
  O2-  O316  1  0.40245134  0.74292222  0.27150056  1
  O2-  O317  1  0.40749586  0.74026622  0.77196885  1
  O2-  O318  1  0.73627162  0.07332456  0.26795845  1
  O2-  O319  1  0.74181947  0.06999991  0.77264739  1
  O2-  O320  1  0.73873277  0.40621210  0.27176234  1
  O2-  O321  1  0.73683089  0.40685640  0.77089272  1
  O2-  O322  1  0.73732679  0.74043473  0.27066626  1
  O2-  O323  1  0.73656700  0.73593410  0.76686336  1
  O2-  O324  1  0.23751662  0.09292542  0.23210660  1
  O2-  O325  1  0.23821321  0.09105583  0.72627158  1
  O2-  O326  1  0.23280124  0.43297803  0.23343509  1
  O2-  O327  1  0.23744511  0.42973700  0.72779396  1
  O2-  O328  1  0.23667156  0.76026452  0.22625881  1
  O2-  O329  1  0.24224415  0.75673187  0.72495965  1
  O2-  O330  1  0.56896460  0.09804303  0.23156402  1
  O2-  O331  1  0.56804348  0.09644368  0.73302803  1
  O2-  O332  1  0.57359865  0.42536060  0.22832773  1
  O2-  O333  1  0.56888762  0.43030998  0.72694333  1
  O2-  O334  1  0.57267089  0.76096924  0.22867429  1
  O2-  O335  1  0.57426483  0.76441108  0.72997611  1
  O2-  O336  1  0.90710948  0.09333969  0.22919280  1
  O2-  O337  1  0.90389822  0.09559101  0.72996685  1
  O2-  O338  1  0.90586266  0.42867376  0.23073945  1
  O2-  O339  1  0.90469116  0.42987314  0.72807020  1
  O2-  O340  1  0.90621268  0.76416354  0.22497200  1
  O2-  O341  1  0.90485106  0.76056033  0.73136728  1
  O2-  O342  1  0.25813643  0.26198593  0.01557109  1
  O2-  O343  1  0.25831019  0.26014493  0.52362605  1
  O2-  O344  1  0.26424734  0.59873650  0.01428779  1
  O2-  O345  1  0.26235039  0.59667704  0.51798117  1
  O2-  O346  1  0.26106581  0.92792276  0.01262172  1
  O2-  O347  1  0.26195247  0.92715503  0.52246740  1
  O2-  O348  1  0.59634637  0.26160986  0.01695691  1
  O2-  O349  1  0.59294677  0.26202661  0.52222459  1
  O2-  O350  1  0.59647887  0.59249553  0.02397885  1
  O2-  O351  1  0.59772050  0.59712042  0.51606833  1
  O2-  O352  1  0.59302924  0.92353548  0.01595175  1
  O2-  O353  1  0.59503468  0.92814375  0.52480923  1
  O2-  O354  1  0.92865168  0.25930198  0.02304618  1
  O2-  O355  1  0.92392567  0.25978479  0.52232391  1
  O2-  O356  1  0.92747955  0.59246419  0.02361650  1
  O2-  O357  1  0.93205374  0.59595608  0.52261960  1
  O2-  O358  1  0.93327877  0.92829141  0.01721233  1
  O2-  O359  1  0.92800218  0.92805636  0.51928935  1
