# generated using pymatgen
data_Sr7Ca15Pr50Mn72O216
_symmetry_space_group_name_H-M   'P 1'
_cell_length_a   16.55661540
_cell_length_b   16.60277270
_cell_length_c   15.59012501
_cell_angle_alpha   89.99934523
_cell_angle_beta   89.99735581
_cell_angle_gamma   90.00018465
_symmetry_Int_Tables_number   1
_chemical_formula_structural   Sr7Ca15Pr50Mn72O216
_chemical_formula_sum   'Sr7 Ca15 Pr50 Mn72 O216'
_cell_volume   4285.50276779
_cell_formula_units_Z   1
loop_
 _symmetry_equiv_pos_site_id
 _symmetry_equiv_pos_as_xyz
  1  'x, y, z'
loop_
 _atom_type_symbol
 _atom_type_oxidation_number
  Sr2+  2.0
  Ca2+  2.0
  Pr3+  3.0
  Mn3.30+  3.3
  O2-  -2.0
loop_
 _atom_site_type_symbol
 _atom_site_label
 _atom_site_symmetry_multiplicity
 _atom_site_fract_x
 _atom_site_fract_y
 _atom_site_fract_z
 _atom_site_occupancy
  Sr2+  Sr0  1  0.33299582  0.32536244  0.37439879  1
  Sr2+  Sr1  1  0.49837090  0.49241603  0.87283496  1
  Sr2+  Sr2  1  0.17015745  0.84618988  0.62481583  1
  Sr2+  Sr3  1  0.50053671  0.84255765  0.62549794  1
  Sr2+  Sr4  1  0.66757827  0.98781787  0.37512281  1
  Sr2+  Sr5  1  0.50060916  0.50805313  0.62466947  1
  Sr2+  Sr6  1  0.66432745  0.32381209  0.87357250  1
  Ca2+  Ca7  1  0.33662895  0.98730883  0.37898785  1
  Ca2+  Ca8  1  0.33693094  0.65278602  0.87199357  1
  Ca2+  Ca9  1  0.32984653  0.01456483  0.12535496  1
  Ca2+  Ca10  1  0.33567531  0.65322756  0.37731691  1
  Ca2+  Ca11  1  0.16469563  0.15036719  0.87473942  1
  Ca2+  Ca12  1  0.16518280  0.48662971  0.37484412  1
  Ca2+  Ca13  1  0.33060240  0.34973621  0.12553148  1
  Ca2+  Ca14  1  0.82966617  0.81981496  0.87179861  1
  Ca2+  Ca15  1  0.83602000  0.84669298  0.62179743  1
  Ca2+  Ca16  1  0.49743746  0.15256595  0.87414300  1
  Ca2+  Ca17  1  0.83036829  0.82012442  0.37805544  1
  Ca2+  Ca18  1  0.33087590  0.01246401  0.62501276  1
  Ca2+  Ca19  1  1.00429214  0.65095286  0.37702213  1
  Ca2+  Ca20  1  0.83764450  0.51621546  0.62510226  1
  Ca2+  Ca21  1  0.83604351  0.17930841  0.62612320  1
  Pr3+  Pr22  1  0.49566968  0.48772576  0.37695032  1
  Pr3+  Pr23  1  0.34129575  0.31966508  0.87531586  1
  Pr3+  Pr24  1  0.66502958  0.00905013  0.62389194  1
  Pr3+  Pr25  1  0.66919390  0.65498601  0.87296057  1
  Pr3+  Pr26  1  0.49475607  0.82103874  0.37680145  1
  Pr3+  Pr27  1  0.17470824  0.18169110  0.12307048  1
  Pr3+  Pr28  1  -0.00154976  0.01325585  0.12536834  1
  Pr3+  Pr29  1  0.66611766  0.34379855  0.62605986  1
  Pr3+  Pr30  1  0.66751979  0.32174293  0.37664625  1
  Pr3+  Pr31  1  0.66432458  0.67943154  0.62457373  1
  Pr3+  Pr32  1  0.99980674  0.65594967  0.87343237  1
  Pr3+  Pr33  1  0.49875426  0.51056927  0.12557475  1
  Pr3+  Pr34  1  0.33529790  0.99033595  0.87393754  1
  Pr3+  Pr35  1  0.66325691  0.34595130  0.12451051  1
  Pr3+  Pr36  1  0.66835125  0.98665951  0.87438399  1
  Pr3+  Pr37  1  0.49362251  0.15064198  0.37613613  1
  Pr3+  Pr38  1  1.00332531  0.98581320  0.87423882  1
  Pr3+  Pr39  1  0.16689574  0.15299663  0.37506686  1
  Pr3+  Pr40  1  0.66198363  0.01362439  0.12645176  1
  Pr3+  Pr41  1  -0.00194763  0.67894385  0.12726764  1
  Pr3+  Pr42  1  0.66288581  0.67991812  0.12569491  1
  Pr3+  Pr43  1  0.32933672  0.67768888  0.12486359  1
  Pr3+  Pr44  1  0.66891570  0.65780828  0.37692348  1
  Pr3+  Pr45  1  1.00707482  0.32171708  0.37516372  1
  Pr3+  Pr46  1  0.50150425  0.84733516  0.12505845  1
  Pr3+  Pr47  1  0.17058757  0.51167068  0.12768762  1
  Pr3+  Pr48  1  0.83532282  0.84605358  0.12613226  1
  Pr3+  Pr49  1  0.17152605  0.17659293  0.62749306  1
  Pr3+  Pr50  1  -0.00410560  0.68181390  0.62224870  1
  Pr3+  Pr51  1  1.00558038  0.31821525  0.87461895  1
  Pr3+  Pr52  1  0.33153766  0.34710963  0.62409910  1
  Pr3+  Pr53  1  0.16686155  0.48963504  0.87427147  1
  Pr3+  Pr54  1  0.49842222  0.17900324  0.12364468  1
  Pr3+  Pr55  1  0.83450997  0.17910011  0.12508850  1
  Pr3+  Pr56  1  -0.00139095  0.34742290  0.12482069  1
  Pr3+  Pr57  1  0.33057338  0.67926176  0.62524915  1
  Pr3+  Pr58  1  0.16475488  0.82051098  0.87346896  1
  Pr3+  Pr59  1  0.83271612  0.48923870  0.37744474  1
  Pr3+  Pr60  1  0.83677955  0.51438404  0.12479289  1
  Pr3+  Pr61  1  0.17080945  0.84831991  0.12506187  1
  Pr3+  Pr62  1  -0.00445780  0.34837155  0.62498678  1
  Pr3+  Pr63  1  -0.00423796  0.01375854  0.62504042  1
  Pr3+  Pr64  1  0.16505180  0.81985122  0.37675725  1
  Pr3+  Pr65  1  0.49946410  0.17338085  0.62663147  1
  Pr3+  Pr66  1  1.00269341  0.98651153  0.37598119  1
  Pr3+  Pr67  1  0.82874263  0.15509159  0.87281272  1
  Pr3+  Pr68  1  0.17056081  0.51340277  0.62197572  1
  Pr3+  Pr69  1  0.82744001  0.48667426  0.87275644  1
  Pr3+  Pr70  1  0.49557290  0.81851826  0.87321342  1
  Pr3+  Pr71  1  0.83024714  0.15446915  0.37659131  1
  Mn3.30+  Mn72  1  0.16818342  0.00144227  0.00003198  1
  Mn3.30+  Mn73  1  0.16941287  -0.00076218  0.50031884  1
  Mn3.30+  Mn74  1  0.17032817  0.33310879  -0.00156888  1
  Mn3.30+  Mn75  1  0.16616093  0.33295397  0.49995184  1
  Mn3.30+  Mn76  1  0.16689524  0.66653225  -0.00097543  1
  Mn3.30+  Mn77  1  0.16609207  0.66597931  0.49669537  1
  Mn3.30+  Mn78  1  0.49809562  0.00148609  -0.00061927  1
  Mn3.30+  Mn79  1  0.49738486  -0.00220646  0.50153261  1
  Mn3.30+  Mn80  1  0.49782262  0.33315748  -0.00029173  1
  Mn3.30+  Mn81  1  0.50015269  0.33130521  0.50100553  1
  Mn3.30+  Mn82  1  0.49708762  0.66585748  -0.00052137  1
  Mn3.30+  Mn83  1  0.49877660  0.66666289  0.50027421  1
  Mn3.30+  Mn84  1  0.83305925  -0.00085945  -0.00073203  1
  Mn3.30+  Mn85  1  0.83284495  -0.00149061  0.50014440  1
  Mn3.30+  Mn86  1  0.83338546  0.33312322  -0.00064148  1
  Mn3.30+  Mn87  1  0.83530785  0.33383272  0.50096010  1
  Mn3.30+  Mn88  1  0.83314340  0.66893687  -0.00042122  1
  Mn3.30+  Mn89  1  0.83517536  0.66839409  0.49904778  1
  Mn3.30+  Mn90  1  0.00143311  0.16654152  0.24924812  1
  Mn3.30+  Mn91  1  0.00046573  0.16628647  0.75059840  1
  Mn3.30+  Mn92  1  0.00222760  0.50136311  0.25205321  1
  Mn3.30+  Mn93  1  -0.00133528  0.50122643  0.74936130  1
  Mn3.30+  Mn94  1  -0.00031379  0.83159240  0.25287793  1
  Mn3.30+  Mn95  1  -0.00286356  0.83393899  0.74831551  1
  Mn3.30+  Mn96  1  0.33310134  0.16603530  0.24964529  1
  Mn3.30+  Mn97  1  0.33319347  0.16548286  0.75219490  1
  Mn3.30+  Mn98  1  0.33222687  0.50053977  0.25244849  1
  Mn3.30+  Mn99  1  0.33340688  0.50155160  0.74935278  1
  Mn3.30+  Mn100  1  0.33241607  0.83449566  0.25097505  1
  Mn3.30+  Mn101  1  0.33242230  0.83471936  0.74926135  1
  Mn3.30+  Mn102  1  0.66518449  0.16697913  0.25066388  1
  Mn3.30+  Mn103  1  0.66717773  0.16554846  0.74968795  1
  Mn3.30+  Mn104  1  0.66670641  0.50092216  0.25107598  1
  Mn3.30+  Mn105  1  0.66818729  0.49943137  0.74757425  1
  Mn3.30+  Mn106  1  0.66740924  0.83396318  0.25207574  1
  Mn3.30+  Mn107  1  0.66909665  0.83338056  0.74896671  1
  Mn3.30+  Mn108  1  0.17021446  -0.00032295  0.25089149  1
  Mn3.30+  Mn109  1  0.16755436  0.00040399  0.74954425  1
  Mn3.30+  Mn110  1  0.16923405  0.33412747  0.24978104  1
  Mn3.30+  Mn111  1  0.16757655  0.33210378  0.75157301  1
  Mn3.30+  Mn112  1  0.16626462  0.66562323  0.25349458  1
  Mn3.30+  Mn113  1  0.16643679  0.66723097  0.75021256  1
  Mn3.30+  Mn114  1  0.49547373  -0.00071997  0.25020118  1
  Mn3.30+  Mn115  1  0.49944651  -0.00023502  0.74947725  1
  Mn3.30+  Mn116  1  0.49741587  0.33262230  0.24919065  1
  Mn3.30+  Mn117  1  0.50046643  0.33186837  0.75099489  1
  Mn3.30+  Mn118  1  0.49720611  0.66711638  0.25129504  1
  Mn3.30+  Mn119  1  0.49895465  0.66562594  0.74882055  1
  Mn3.30+  Mn120  1  0.83261741  -0.00140710  0.25111179  1
  Mn3.30+  Mn121  1  0.83349849  -0.00135405  0.74903436  1
  Mn3.30+  Mn122  1  0.83447247  0.33438725  0.25109119  1
  Mn3.30+  Mn123  1  0.83417263  0.33276994  0.74860382  1
  Mn3.30+  Mn124  1  0.83472543  0.66835162  0.25364942  1
  Mn3.30+  Mn125  1  0.83363907  0.66918866  0.74757509  1
  Mn3.30+  Mn126  1  0.00242101  0.16617810  -0.00070489  1
  Mn3.30+  Mn127  1  -0.00071168  0.16665129  0.50118876  1
  Mn3.30+  Mn128  1  0.00024806  0.50059470  -0.00127845  1
  Mn3.30+  Mn129  1  0.00095681  0.50172359  0.49974447  1
  Mn3.30+  Mn130  1  -0.00089016  0.83283164  -0.00057206  1
  Mn3.30+  Mn131  1  -0.00193393  0.83306200  0.49903262  1
  Mn3.30+  Mn132  1  0.33339888  0.16671761  -0.00095644  1
  Mn3.30+  Mn133  1  0.33287188  0.16550128  0.50016927  1
  Mn3.30+  Mn134  1  0.33325853  0.50014974  -0.00001421  1
  Mn3.30+  Mn135  1  0.33241320  0.50173554  0.49778053  1
  Mn3.30+  Mn136  1  0.33304612  0.83359372  -0.00038998  1
  Mn3.30+  Mn137  1  0.33172654  0.83526188  0.50005208  1
  Mn3.30+  Mn138  1  0.66465685  0.16702833  -0.00253345  1
  Mn3.30+  Mn139  1  0.66803278  0.16509049  0.50170505  1
  Mn3.30+  Mn140  1  0.66641077  0.50014612  -0.00012335  1
  Mn3.30+  Mn141  1  0.66827448  0.50038454  0.50161450  1
  Mn3.30+  Mn142  1  0.66726949  0.83328824  -0.00100107  1
  Mn3.30+  Mn143  1  0.66863944  0.83391477  0.49995352  1
  O2-  O144  1  0.02889705  0.16138789  0.12487955  1
  O2-  O145  1  0.02708661  0.16250158  0.62753360  1
  O2-  O146  1  0.02513639  0.49701253  0.12313585  1
  O2-  O147  1  0.02680322  0.49697615  0.62436939  1
  O2-  O148  1  0.02660292  0.82711492  0.12809524  1
  O2-  O149  1  0.02131819  0.82993854  0.62378319  1
  O2-  O150  1  0.35613577  0.15755062  0.12411651  1
  O2-  O151  1  0.35449368  0.15994641  0.62641606  1
  O2-  O152  1  0.35440076  0.49758509  0.12689298  1
  O2-  O153  1  0.34981560  0.49628278  0.62342442  1
  O2-  O154  1  0.35840957  0.82288243  0.12371593  1
  O2-  O155  1  0.35146416  0.82474757  0.62579525  1
  O2-  O156  1  0.69027412  0.16266672  0.12409000  1
  O2-  O157  1  0.69474053  0.15760614  0.62436498  1
  O2-  O158  1  0.69336851  0.49534719  0.12708970  1
  O2-  O159  1  0.69594716  0.49351404  0.62272839  1
  O2-  O160  1  0.69064163  0.82856264  0.12456679  1
  O2-  O161  1  0.69346762  0.82837468  0.62520980  1
  O2-  O162  1  0.14127667  0.32934848  0.12312108  1
  O2-  O163  1  0.14030214  0.32581057  0.62807861  1
  O2-  O164  1  0.14111903  0.66055736  0.12593460  1
  O2-  O165  1  0.14083188  0.66128094  0.62235412  1
  O2-  O166  1  0.14134104  0.99597405  0.12549993  1
  O2-  O167  1  0.14092158  1.00317029  0.62489394  1
  O2-  O168  1  0.47278003  0.32751599  0.12556925  1
  O2-  O169  1  0.47585311  0.32458155  0.62567925  1
  O2-  O170  1  0.47376772  0.66109263  0.12623384  1
  O2-  O171  1  0.47543008  0.66532876  0.62309600  1
  O2-  O172  1  0.47224989  0.99390787  0.12413332  1
  O2-  O173  1  0.47430749  1.00050036  0.62573147  1
  O2-  O174  1  0.80861642  0.32749869  0.12571150  1
  O2-  O175  1  0.81020027  0.32385849  0.62311862  1
  O2-  O176  1  0.80753302  0.66127886  0.12813696  1
  O2-  O177  1  0.80803875  0.65831727  0.62354911  1
  O2-  O178  1  0.80662124  0.99344391  0.12355378  1
  O2-  O179  1  0.80848744  0.99027902  0.62386904  1
  O2-  O180  1  0.30966332  0.17266704  0.37463109  1
  O2-  O181  1  0.30562026  0.17437954  0.87601182  1
  O2-  O182  1  0.30776674  0.50582984  0.37493698  1
  O2-  O183  1  0.30995764  0.50575230  0.87440053  1
  O2-  O184  1  0.30783117  0.84466246  0.37399253  1
  O2-  O185  1  0.30731869  0.84335797  0.87614586  1
  O2-  O186  1  0.64008933  0.17307081  0.37602294  1
  O2-  O187  1  0.64095805  0.16656115  0.87541113  1
  O2-  O188  1  0.64048991  0.50624979  0.37529337  1
  O2-  O189  1  0.64971406  0.50644664  0.87464170  1
  O2-  O190  1  0.64040918  0.83085851  0.37433075  1
  O2-  O191  1  0.64054344  0.83689382  0.87617521  1
  O2-  O192  1  0.97453553  0.17297564  0.37314554  1
  O2-  O193  1  0.97309573  0.17104668  0.87485968  1
  O2-  O194  1  0.97558902  0.50231355  0.37640988  1
  O2-  O195  1  0.97187457  0.50662098  0.87556620  1
  O2-  O196  1  0.97243128  0.84154318  0.37414177  1
  O2-  O197  1  0.97287666  0.83737446  0.87356554  1
  O2-  O198  1  0.19318507  0.00522076  0.37452122  1
  O2-  O199  1  0.18976152  0.00246575  0.87571295  1
  O2-  O200  1  0.18293582  0.33787009  0.37346716  1
  O2-  O201  1  0.19645606  0.34357635  0.87469002  1
  O2-  O202  1  0.19518954  0.67442116  0.37397930  1
  O2-  O203  1  0.19298668  0.67151836  0.87721683  1
  O2-  O204  1  0.51827185  0.00265806  0.37530589  1
  O2-  O205  1  0.52475734  0.00513311  0.87538376  1
  O2-  O206  1  0.52327585  0.33694059  0.37466572  1
  O2-  O207  1  0.51570492  0.33864402  0.87521545  1
  O2-  O208  1  0.52484054  0.67178900  0.37499215  1
  O2-  O209  1  0.52442915  0.66972574  0.87542281  1
  O2-  O210  1  0.85954936  0.00951284  0.37535083  1
  O2-  O211  1  0.86042589  0.00987460  0.87673553  1
  O2-  O212  1  0.86257710  0.34035652  0.37581482  1
  O2-  O213  1  0.86039253  0.33889501  0.87523759  1
  O2-  O214  1  0.86157685  0.67450771  0.37473221  1
  O2-  O215  1  0.85722142  0.67513529  0.87270692  1
  O2-  O216  1  0.23767519  0.09707022  0.01751869  1
  O2-  O217  1  0.23498341  0.09810046  0.51587822  1
  O2-  O218  1  0.23569112  0.43184617  0.01753821  1
  O2-  O219  1  0.23823242  0.42500430  0.51991377  1
  O2-  O220  1  0.23563828  0.76129101  0.02111235  1
  O2-  O221  1  0.23911985  0.76078373  0.51544738  1
  O2-  O222  1  0.57170318  0.09180582  0.02402838  1
  O2-  O223  1  0.57175769  0.09170034  0.51959334  1
  O2-  O224  1  0.57257429  0.42516948  0.02404852  1
  O2-  O225  1  0.57848931  0.42222740  0.51677219  1
  O2-  O226  1  0.56953316  0.76022423  0.02023304  1
  O2-  O227  1  0.57557729  0.75741794  0.51773634  1
  O2-  O228  1  0.90339410  0.09363316  0.02346207  1
  O2-  O229  1  0.90546587  0.09713054  0.52163957  1
  O2-  O230  1  0.90653812  0.42786360  0.02147459  1
  O2-  O231  1  0.90456030  0.43086236  0.52235865  1
  O2-  O232  1  0.90640067  0.76018093  0.02370703  1
  O2-  O233  1  0.90379378  0.76109007  0.52296602  1
  O2-  O234  1  0.26173589  0.26177889  0.22641416  1
  O2-  O235  1  0.26364672  0.26258371  0.72913712  1
  O2-  O236  1  0.26004134  0.59508173  0.22801949  1
  O2-  O237  1  0.25740365  0.59349698  0.72846639  1
  O2-  O238  1  0.26203163  0.92711423  0.22443057  1
  O2-  O239  1  0.26371481  0.93260264  0.73316067  1
  O2-  O240  1  0.59436070  0.26256870  0.22984220  1
  O2-  O241  1  0.59472959  0.25565963  0.72588386  1
  O2-  O242  1  0.59485054  0.59370449  0.22929377  1
  O2-  O243  1  0.59782384  0.59323238  0.73168140  1
  O2-  O244  1  0.59248171  0.92761557  0.22806120  1
  O2-  O245  1  0.59905136  0.92771388  0.73380420  1
  O2-  O246  1  0.92985434  0.26024894  0.22778675  1
  O2-  O247  1  0.93177725  0.26419304  0.73346199  1
  O2-  O248  1  0.92724835  0.59388664  0.22901434  1
  O2-  O249  1  0.92920634  0.60052693  0.73194871  1
  O2-  O250  1  0.92926638  0.92839665  0.22859041  1
  O2-  O251  1  0.93079047  0.93207565  0.73291872  1
  O2-  O252  1  0.09536641  0.23770251  0.26873208  1
  O2-  O253  1  0.09816001  0.23843181  0.77486445  1
  O2-  O254  1  0.09788646  0.56863264  0.26937681  1
  O2-  O255  1  0.09293009  0.57236512  0.77110150  1
  O2-  O256  1  0.09492787  0.90389415  0.27067472  1
  O2-  O257  1  0.09338199  0.90576850  0.77154085  1
  O2-  O258  1  0.43072160  0.23312878  0.26605645  1
  O2-  O259  1  0.42814445  0.23652378  0.76999844  1
  O2-  O260  1  0.42993588  0.57078849  0.26854063  1
  O2-  O261  1  0.42301036  0.57529170  0.76473058  1
  O2-  O262  1  0.43096733  0.90014332  0.26537267  1
  O2-  O263  1  0.42744613  0.90676115  0.77285932  1
  O2-  O264  1  0.76295212  0.24169041  0.27178426  1
  O2-  O265  1  0.76156803  0.23679148  0.76775378  1
  O2-  O266  1  0.76363287  0.57366181  0.27264229  1
  O2-  O267  1  0.76258733  0.57501871  0.77042151  1
  O2-  O268  1  0.76491734  0.90197130  0.26770886  1
  O2-  O269  1  0.76178598  0.90639148  0.77469712  1
  O2-  O270  1  0.07213447  0.07145325  0.47894281  1
  O2-  O271  1  0.06878751  0.07009267  0.98163113  1
  O2-  O272  1  0.06819359  0.40309018  0.48554934  1
  O2-  O273  1  0.07319994  0.40478952  0.97840157  1
  O2-  O274  1  0.07159113  0.73646211  0.47744027  1
  O2-  O275  1  0.07166260  0.73826455  0.97924862  1
  O2-  O276  1  0.40467644  0.07323890  0.47987663  1
  O2-  O277  1  0.40452049  0.07246502  0.97904435  1
  O2-  O278  1  0.40790239  0.40941902  0.48448721  1
  O2-  O279  1  0.40247804  0.40382436  0.98532642  1
  O2-  O280  1  0.40428691  0.74015994  0.47864040  1
  O2-  O281  1  0.40243879  0.73851779  0.97661747  1
  O2-  O282  1  0.74137858  0.07399939  0.48037947  1
  O2-  O283  1  0.73847807  0.07075137  0.98029365  1
  O2-  O284  1  0.74149998  0.40624188  0.47694089  1
  O2-  O285  1  0.74115231  0.40783542  0.98340451  1
  O2-  O286  1  0.73852805  0.73744096  0.48180751  1
  O2-  O287  1  0.73572805  0.73659850  0.98327361  1
  O2-  O288  1  0.09483575  0.23733171  0.47990987  1
  O2-  O289  1  0.09920843  0.23919941  0.97682206  1
  O2-  O290  1  0.09841646  0.56811175  0.47947908  1
  O2-  O291  1  0.09363847  0.57324759  0.97753697  1
  O2-  O292  1  0.09471887  0.90680389  0.47762563  1
  O2-  O293  1  0.09441395  0.90401349  0.98059555  1
  O2-  O294  1  0.42965299  0.23505518  0.48507193  1
  O2-  O295  1  0.42947024  0.23553794  0.97977288  1
  O2-  O296  1  0.42828290  0.57377355  0.47906558  1
  O2-  O297  1  0.42640098  0.57138347  0.98734850  1
  O2-  O298  1  0.42809889  0.90367253  0.48170338  1
  O2-  O299  1  0.43093471  0.90529611  0.97908247  1
  O2-  O300  1  0.76076552  0.24217556  0.47610970  1
  O2-  O301  1  0.76439221  0.23661105  0.98308330  1
  O2-  O302  1  0.76175282  0.57527937  0.47561986  1
  O2-  O303  1  0.76375250  0.57381687  0.98085393  1
  O2-  O304  1  0.76378495  0.90396140  0.47953841  1
  O2-  O305  1  0.76411611  0.90488503  0.97763104  1
  O2-  O306  1  0.07155079  0.07166038  0.27083690  1
  O2-  O307  1  0.06991226  0.06995789  0.76948523  1
  O2-  O308  1  0.06939888  0.40268715  0.26342696  1
  O2-  O309  1  0.07278717  0.40443139  0.77169178  1
  O2-  O310  1  0.07081437  0.73591356  0.27299845  1
  O2-  O311  1  0.07107458  0.73923820  0.77024440  1
  O2-  O312  1  0.40301033  0.07018829  0.27213607  1
  O2-  O313  1  0.40454441  0.07430807  0.77116816  1
  O2-  O314  1  0.40994285  0.40929441  0.26884188  1
  O2-  O315  1  0.40114563  0.40429372  0.76253875  1
  O2-  O316  1  0.40123396  0.73850772  0.27257943  1
  O2-  O317  1  0.40486456  0.74140025  0.77109357  1
  O2-  O318  1  0.74134770  0.07523387  0.26581346  1
  O2-  O319  1  0.73876981  0.07042843  0.77108620  1
  O2-  O320  1  0.73828533  0.40688151  0.27240864  1
  O2-  O321  1  0.74294886  0.40673103  0.76714784  1
  O2-  O322  1  0.73764894  0.73630393  0.26721754  1
  O2-  O323  1  0.73732926  0.73737656  0.76807117  1
  O2-  O324  1  0.23611885  0.09911922  0.23247763  1
  O2-  O325  1  0.23710820  0.09638323  0.73536487  1
  O2-  O326  1  0.23814813  0.42787718  0.23124973  1
  O2-  O327  1  0.23615583  0.42835986  0.72974119  1
  O2-  O328  1  0.23669568  0.76282807  0.22935782  1
  O2-  O329  1  0.23919433  0.76038530  0.73496528  1
  O2-  O330  1  0.56808105  0.09291925  0.22975855  1
  O2-  O331  1  0.57526470  0.09083259  0.72760115  1
  O2-  O332  1  0.57278208  0.42621842  0.22931751  1
  O2-  O333  1  0.57871226  0.42142101  0.72976553  1
  O2-  O334  1  0.57059908  0.76029809  0.22868793  1
  O2-  O335  1  0.57601568  0.75847332  0.73406219  1
  O2-  O336  1  0.90734628  0.09479437  0.22789594  1
  O2-  O337  1  0.90265727  0.09479954  0.72799776  1
  O2-  O338  1  0.90519619  0.42864240  0.22910395  1
  O2-  O339  1  0.90669644  0.43100473  0.72792018  1
  O2-  O340  1  0.90637327  0.76028377  0.22579708  1
  O2-  O341  1  0.90392526  0.76229109  0.72522982  1
  O2-  O342  1  0.26515459  0.26491508  0.02246876  1
  O2-  O343  1  0.26047153  0.25937486  0.52254238  1
  O2-  O344  1  0.25809172  0.59322740  0.02216484  1
  O2-  O345  1  0.26042625  0.59533919  0.52127902  1
  O2-  O346  1  0.26255693  0.92835256  0.02183754  1
  O2-  O347  1  0.26315246  0.93221795  0.52000556  1
  O2-  O348  1  0.59213548  0.26107444  0.02293010  1
  O2-  O349  1  0.59676928  0.25728816  0.52211921  1
  O2-  O350  1  0.59413232  0.59342179  0.02137246  1
  O2-  O351  1  0.59754653  0.59386411  0.51765910  1
  O2-  O352  1  0.59545603  0.92809024  0.02037618  1
  O2-  O353  1  0.59583020  0.92665791  0.51862787  1
  O2-  O354  1  0.93080969  0.26052391  0.02072970  1
  O2-  O355  1  0.93093911  0.26484628  0.51742667  1
  O2-  O356  1  0.92740852  0.59666351  0.02021853  1
  O2-  O357  1  0.92996433  0.59610319  0.51796192  1
  O2-  O358  1  0.92866883  0.92847768  0.02235132  1
  O2-  O359  1  0.92999452  0.93320460  0.51646062  1
