# generated using pymatgen
data_Sr7Ca15Pr50Mn72O216
_symmetry_space_group_name_H-M   'P 1'
_cell_length_a   16.55933423
_cell_length_b   16.60412916
_cell_length_c   15.59329153
_cell_angle_alpha   90.00085080
_cell_angle_beta   89.99778371
_cell_angle_gamma   89.99380125
_symmetry_Int_Tables_number   1
_chemical_formula_structural   Sr7Ca15Pr50Mn72O216
_chemical_formula_sum   'Sr7 Ca15 Pr50 Mn72 O216'
_cell_volume   4287.42731466
_cell_formula_units_Z   1
loop_
 _symmetry_equiv_pos_site_id
 _symmetry_equiv_pos_as_xyz
  1  'x, y, z'
loop_
 _atom_type_symbol
 _atom_type_oxidation_number
  Sr2+  2.0
  Ca2+  2.0
  Pr3+  3.0
  Mn3.30+  3.3
  O2-  -2.0
loop_
 _atom_site_type_symbol
 _atom_site_label
 _atom_site_symmetry_multiplicity
 _atom_site_fract_x
 _atom_site_fract_y
 _atom_site_fract_z
 _atom_site_occupancy
  Sr2+  Sr0  1  0.66687489  0.99023869  0.87308801  1
  Sr2+  Sr1  1  0.33372740  0.34391660  0.62642012  1
  Sr2+  Sr2  1  0.49992434  0.48956928  0.37592245  1
  Sr2+  Sr3  1  0.66591013  0.32389667  0.37478678  1
  Sr2+  Sr4  1  0.66510471  0.66022700  0.87699834  1
  Sr2+  Sr5  1  0.50203047  0.17578449  0.12334183  1
  Sr2+  Sr6  1  0.50197104  0.17545712  0.62677634  1
  Ca2+  Ca7  1  0.82920418  0.81900212  0.37279888  1
  Ca2+  Ca8  1  0.34278027  0.98014373  0.87603151  1
  Ca2+  Ca9  1  0.83553603  0.84495680  0.12232465  1
  Ca2+  Ca10  1  -0.00548583  0.68428424  0.12374882  1
  Ca2+  Ca11  1  0.83345597  0.84554480  0.62751827  1
  Ca2+  Ca12  1  0.16509393  0.48826945  0.87597451  1
  Ca2+  Ca13  1  0.83837525  0.51800104  0.12462160  1
  Ca2+  Ca14  1  0.49621393  0.81648321  0.87716743  1
  Ca2+  Ca15  1  0.33106293  0.68201334  0.12138953  1
  Ca2+  Ca16  1  0.66400196  0.01339107  0.62658879  1
  Ca2+  Ca17  1  0.50171944  0.51350128  0.62592089  1
  Ca2+  Ca18  1  0.33602924  0.65483073  0.87654197  1
  Ca2+  Ca19  1  -0.00721662  0.35223694  0.12338778  1
  Ca2+  Ca20  1  0.16731456  0.81846000  0.87702908  1
  Ca2+  Ca21  1  0.50229270  0.84423515  0.11994168  1
  Pr3+  Pr22  1  0.65780921  0.34786828  0.62457722  1
  Pr3+  Pr23  1  0.33230779  0.01246435  0.62752882  1
  Pr3+  Pr24  1  -0.00422240  0.68130116  0.62629627  1
  Pr3+  Pr25  1  0.83071765  0.17727035  0.62687179  1
  Pr3+  Pr26  1  0.66330981  0.34668646  0.12583403  1
  Pr3+  Pr27  1  0.16935190  0.84276411  0.12281299  1
  Pr3+  Pr28  1  1.00021637  0.98466607  0.37531066  1
  Pr3+  Pr29  1  0.33353727  0.01064122  0.12255573  1
  Pr3+  Pr30  1  0.50063379  0.51344860  0.12553974  1
  Pr3+  Pr31  1  0.33496949  0.67455653  0.62693443  1
  Pr3+  Pr32  1  0.16437890  0.81882654  0.37392264  1
  Pr3+  Pr33  1  0.49898375  0.82080555  0.37346541  1
  Pr3+  Pr34  1  0.33862115  0.98658739  0.37456768  1
  Pr3+  Pr35  1  0.49601069  0.15009847  0.87586412  1
  Pr3+  Pr36  1  0.33092014  0.34581674  0.12359191  1
  Pr3+  Pr37  1  1.00575999  0.65405077  0.87804996  1
  Pr3+  Pr38  1  0.66510379  0.00928618  0.12345046  1
  Pr3+  Pr39  1  0.82973735  0.15250475  0.87490059  1
  Pr3+  Pr40  1  1.00301485  0.32178386  0.87735935  1
  Pr3+  Pr41  1  0.49695779  0.49272749  0.87440023  1
  Pr3+  Pr42  1  0.67108150  0.98635882  0.37651215  1
  Pr3+  Pr43  1  0.82725009  0.15469696  0.37512941  1
  Pr3+  Pr44  1  -0.00192767  0.01087601  0.62614273  1
  Pr3+  Pr45  1  0.67025207  0.65543166  0.37358929  1
  Pr3+  Pr46  1  0.16844769  0.17924663  0.12372281  1
  Pr3+  Pr47  1  0.50544888  0.84567301  0.62763529  1
  Pr3+  Pr48  1  0.83426153  0.51342535  0.62432227  1
  Pr3+  Pr49  1  1.00412299  0.98288382  0.87473762  1
  Pr3+  Pr50  1  0.16386891  0.48747620  0.37389776  1
  Pr3+  Pr51  1  0.83720558  0.18005318  0.12348827  1
  Pr3+  Pr52  1  0.16316552  0.15309057  0.37544334  1
  Pr3+  Pr53  1  0.16598754  0.15291095  0.87442279  1
  Pr3+  Pr54  1  0.82863846  0.82016627  0.87649615  1
  Pr3+  Pr55  1  0.82876385  0.49060895  0.87760439  1
  Pr3+  Pr56  1  1.00122584  0.32090128  0.37311301  1
  Pr3+  Pr57  1  0.17233058  0.18086093  0.62637102  1
  Pr3+  Pr58  1  0.66247067  0.67816663  0.62665483  1
  Pr3+  Pr59  1  0.17187111  0.84397935  0.62666743  1
  Pr3+  Pr60  1  0.50001332  0.15657901  0.37444102  1
  Pr3+  Pr61  1  -0.00296687  0.34697991  0.62621660  1
  Pr3+  Pr62  1  0.16888665  0.51671088  0.12237456  1
  Pr3+  Pr63  1  0.33679210  0.65270560  0.37272178  1
  Pr3+  Pr64  1  -0.00315612  0.00855042  0.12405179  1
  Pr3+  Pr65  1  0.66499377  0.68248208  0.12311801  1
  Pr3+  Pr66  1  0.66784085  0.32155072  0.87578960  1
  Pr3+  Pr67  1  0.33734551  0.32189052  0.37439906  1
  Pr3+  Pr68  1  0.82803946  0.48687099  0.37218549  1
  Pr3+  Pr69  1  0.33382286  0.32306397  0.87530726  1
  Pr3+  Pr70  1  0.17089288  0.51223672  0.62732664  1
  Pr3+  Pr71  1  1.00058307  0.65519381  0.37202317  1
  Mn3.30+  Mn72  1  0.16935332  -0.00334104  -0.00333887  1
  Mn3.30+  Mn73  1  0.16696208  -0.00165933  0.50026853  1
  Mn3.30+  Mn74  1  0.16317198  0.33603696  0.00152424  1
  Mn3.30+  Mn75  1  0.16687102  0.33384528  0.49941158  1
  Mn3.30+  Mn76  1  0.16842670  0.66764996  -0.00104342  1
  Mn3.30+  Mn77  1  0.16611890  0.66587765  0.50023015  1
  Mn3.30+  Mn78  1  0.49971946  -0.00548193  -0.00115425  1
  Mn3.30+  Mn79  1  0.50340554  -0.00007452  0.50093336  1
  Mn3.30+  Mn80  1  0.49965693  0.33427937  0.00011858  1
  Mn3.30+  Mn81  1  0.49902249  0.33386330  0.50066293  1
  Mn3.30+  Mn82  1  0.49660782  0.66869621  0.00081608  1
  Mn3.30+  Mn83  1  0.50066091  0.66588624  0.49980537  1
  Mn3.30+  Mn84  1  0.83351618  -0.00214287  -0.00075020  1
  Mn3.30+  Mn85  1  0.83232128  -0.00279880  0.50251447  1
  Mn3.30+  Mn86  1  0.83487876  0.33636294  0.00143722  1
  Mn3.30+  Mn87  1  0.83139045  0.33315607  0.50092963  1
  Mn3.30+  Mn88  1  0.83526728  0.66759237  0.00229879  1
  Mn3.30+  Mn89  1  0.83322269  0.66998752  0.49978989  1
  Mn3.30+  Mn90  1  -0.00130492  0.16698518  0.24908238  1
  Mn3.30+  Mn91  1  0.00042873  0.16604237  0.75010324  1
  Mn3.30+  Mn92  1  -0.00252612  0.50185565  0.24634650  1
  Mn3.30+  Mn93  1  0.00112798  0.50106937  0.75193686  1
  Mn3.30+  Mn94  1  -0.00326841  0.83204032  0.24944134  1
  Mn3.30+  Mn95  1  0.00118411  0.83208180  0.75047885  1
  Mn3.30+  Mn96  1  0.33236854  0.16640715  0.24840042  1
  Mn3.30+  Mn97  1  0.33364004  0.16550533  0.75176113  1
  Mn3.30+  Mn98  1  0.33296170  0.50125155  0.24787097  1
  Mn3.30+  Mn99  1  0.33254385  0.50116002  0.75164760  1
  Mn3.30+  Mn100  1  0.33489641  0.83204660  0.24654519  1
  Mn3.30+  Mn101  1  0.33532952  0.83091952  0.75401366  1
  Mn3.30+  Mn102  1  0.66687703  0.16656555  0.24917693  1
  Mn3.30+  Mn103  1  0.66479664  0.16553313  0.75031186  1
  Mn3.30+  Mn104  1  0.66906999  0.50118405  0.24760270  1
  Mn3.30+  Mn105  1  0.66477274  0.50221981  0.75135011  1
  Mn3.30+  Mn106  1  0.66832685  0.83377468  0.24808930  1
  Mn3.30+  Mn107  1  0.66706859  0.83449998  0.75095795  1
  Mn3.30+  Mn108  1  0.16659271  -0.00160544  0.24922008  1
  Mn3.30+  Mn109  1  0.16993651  -0.00365860  0.75385116  1
  Mn3.30+  Mn110  1  0.16345935  0.33426606  0.24719921  1
  Mn3.30+  Mn111  1  0.16631804  0.33548212  0.75219607  1
  Mn3.30+  Mn112  1  0.16613395  0.66703571  0.24633421  1
  Mn3.30+  Mn113  1  0.16806985  0.66687237  0.75366134  1
  Mn3.30+  Mn114  1  0.50212867  -0.00174355  0.24855251  1
  Mn3.30+  Mn115  1  0.50076564  -0.00335364  0.75184541  1
  Mn3.30+  Mn116  1  0.49947551  0.33324417  0.24939925  1
  Mn3.30+  Mn117  1  0.49937819  0.33457624  0.74982427  1
  Mn3.30+  Mn118  1  0.49931996  0.66862621  0.24652599  1
  Mn3.30+  Mn119  1  0.49825364  0.66645348  0.75256201  1
  Mn3.30+  Mn120  1  0.83307379  -0.00278668  0.25024515  1
  Mn3.30+  Mn121  1  0.83255889  -0.00230561  0.74806904  1
  Mn3.30+  Mn122  1  0.83427489  0.33478006  0.24729237  1
  Mn3.30+  Mn123  1  0.83176223  0.33471817  0.75030661  1
  Mn3.30+  Mn124  1  0.83545315  0.66964733  0.24743979  1
  Mn3.30+  Mn125  1  0.83271229  0.66815680  0.75065165  1
  Mn3.30+  Mn126  1  0.00039451  0.16620321  -0.00020411  1
  Mn3.30+  Mn127  1  -0.00137760  0.16643820  0.50094238  1
  Mn3.30+  Mn128  1  -0.00022898  0.50184163  0.00193394  1
  Mn3.30+  Mn129  1  -0.00059125  0.50099884  0.49938215  1
  Mn3.30+  Mn130  1  0.00051629  0.83128040  0.00005448  1
  Mn3.30+  Mn131  1  -0.00284640  0.83276914  0.50022044  1
  Mn3.30+  Mn132  1  0.33301147  0.16538540  -0.00014874  1
  Mn3.30+  Mn133  1  0.33298318  0.16651959  0.49997109  1
  Mn3.30+  Mn134  1  0.33099584  0.50360171  -0.00156400  1
  Mn3.30+  Mn135  1  0.33468318  0.49920951  0.50159380  1
  Mn3.30+  Mn136  1  0.33489536  0.83075231  -0.00172821  1
  Mn3.30+  Mn137  1  0.33515440  0.83203717  0.50049007  1
  Mn3.30+  Mn138  1  0.66678276  0.16595935  0.00025794  1
  Mn3.30+  Mn139  1  0.66523710  0.16604340  0.50064114  1
  Mn3.30+  Mn140  1  0.66775078  0.50259541  0.00198713  1
  Mn3.30+  Mn141  1  0.66560844  0.50090899  0.49966371  1
  Mn3.30+  Mn142  1  0.66545691  0.83420845  -0.00104732  1
  Mn3.30+  Mn143  1  0.67014945  0.83399124  0.50175788  1
  O2-  O144  1  0.02602824  0.15561218  0.12445030  1
  O2-  O145  1  0.02887079  0.16044234  0.62619081  1
  O2-  O146  1  0.02678235  0.49335099  0.12493721  1
  O2-  O147  1  0.02617645  0.49555774  0.62691927  1
  O2-  O148  1  0.02535714  0.83417680  0.12312782  1
  O2-  O149  1  0.02791864  0.82950110  0.62478836  1
  O2-  O150  1  0.35229612  0.16122840  0.12365670  1
  O2-  O151  1  0.35082752  0.16100000  0.62671233  1
  O2-  O152  1  0.35658974  0.49208865  0.12409894  1
  O2-  O153  1  0.35721888  0.50136049  0.62553352  1
  O2-  O154  1  0.35991943  0.82717106  0.12538811  1
  O2-  O155  1  0.36055397  0.82417848  0.62600585  1
  O2-  O156  1  0.69251238  0.15975536  0.12398206  1
  O2-  O157  1  0.68690349  0.16248006  0.62607790  1
  O2-  O158  1  0.69484668  0.49435914  0.12422081  1
  O2-  O159  1  0.69110534  0.49691225  0.62480444  1
  O2-  O160  1  0.69376412  0.83123438  0.12562449  1
  O2-  O161  1  0.69280881  0.82324198  0.62464496  1
  O2-  O162  1  0.13495195  0.32559962  0.12517177  1
  O2-  O163  1  0.14095969  0.32885145  0.62733510  1
  O2-  O164  1  0.13755304  0.66424826  0.12478867  1
  O2-  O165  1  0.14002598  0.65999012  0.62698472  1
  O2-  O166  1  0.14072633  0.99225003  0.12420614  1
  O2-  O167  1  0.14217691  0.99196348  0.62727920  1
  O2-  O168  1  0.47526360  0.33229363  0.12340944  1
  O2-  O169  1  0.48220517  0.32911200  0.62738847  1
  O2-  O170  1  0.47183718  0.66029263  0.12482363  1
  O2-  O171  1  0.47874900  0.66370965  0.62677123  1
  O2-  O172  1  0.47685864  0.99205323  0.12473296  1
  O2-  O173  1  0.47517893  0.99380711  0.62659716  1
  O2-  O174  1  0.80637230  0.32552543  0.12365422  1
  O2-  O175  1  0.80408249  0.32758604  0.62816127  1
  O2-  O176  1  0.80866046  0.66050479  0.12561956  1
  O2-  O177  1  0.80725220  0.65879652  0.62623400  1
  O2-  O178  1  0.81078851  0.99282926  0.12674466  1
  O2-  O179  1  0.80731635  0.99184299  0.62449863  1
  O2-  O180  1  0.30650274  0.17124565  0.37284201  1
  O2-  O181  1  0.30889716  0.17364811  0.87652578  1
  O2-  O182  1  0.30765745  0.50461788  0.37257329  1
  O2-  O183  1  0.30633166  0.50787667  0.87701731  1
  O2-  O184  1  0.30853500  0.83947369  0.37368305  1
  O2-  O185  1  0.30684736  0.84051324  0.87483702  1
  O2-  O186  1  0.64542152  0.16632214  0.37455412  1
  O2-  O187  1  0.64222939  0.17296433  0.87585923  1
  O2-  O188  1  0.64999335  0.50701643  0.37317608  1
  O2-  O189  1  0.64227834  0.50178226  0.87844992  1
  O2-  O190  1  0.64173946  0.83708048  0.37491505  1
  O2-  O191  1  0.64086236  0.83549285  0.87487559  1
  O2-  O192  1  0.97136429  0.17358620  0.37519272  1
  O2-  O193  1  0.97342548  0.17239200  0.87423349  1
  O2-  O194  1  0.97283134  0.50654754  0.37231864  1
  O2-  O195  1  0.97281171  0.50617386  0.87596283  1
  O2-  O196  1  0.97267212  0.83656438  0.37709898  1
  O2-  O197  1  0.97365135  0.83509428  0.87529150  1
  O2-  O198  1  0.19402140  0.00473823  0.37376124  1
  O2-  O199  1  0.20015956  0.00735443  0.87499195  1
  O2-  O200  1  0.19194808  0.33905218  0.37098176  1
  O2-  O201  1  0.18867143  0.33999719  0.87656768  1
  O2-  O202  1  0.19182626  0.67059920  0.37249310  1
  O2-  O203  1  0.19385663  0.67577796  0.87515234  1
  O2-  O204  1  0.52521064  0.00525836  0.37413268  1
  O2-  O205  1  0.51887490  0.00364031  0.87542433  1
  O2-  O206  1  0.51570104  0.33157389  0.37302935  1
  O2-  O207  1  0.52410249  0.34303317  0.87637818  1
  O2-  O208  1  0.52549319  0.67343647  0.37129121  1
  O2-  O209  1  0.51775661  0.66674402  0.87695682  1
  O2-  O210  1  0.85862669  0.00980973  0.37723820  1
  O2-  O211  1  0.86002247  0.00556639  0.87189164  1
  O2-  O212  1  0.85805669  0.33765755  0.37309509  1
  O2-  O213  1  0.85927474  0.34172944  0.87490609  1
  O2-  O214  1  0.85808775  0.67512086  0.37274904  1
  O2-  O215  1  0.86003865  0.67180473  0.87538596  1
  O2-  O216  1  0.23709331  0.09330849  0.02104486  1
  O2-  O217  1  0.23758945  0.09348843  0.51972057  1
  O2-  O218  1  0.23798507  0.42765937  0.02276613  1
  O2-  O219  1  0.23563038  0.43115748  0.51648041  1
  O2-  O220  1  0.23795533  0.76195246  0.02097942  1
  O2-  O221  1  0.23773173  0.75957408  0.51912986  1
  O2-  O222  1  0.57547545  0.09056810  0.01540071  1
  O2-  O223  1  0.57167573  0.09450393  0.51382876  1
  O2-  O224  1  0.57315793  0.42882295  0.02205126  1
  O2-  O225  1  0.57384987  0.42944842  0.52027258  1
  O2-  O226  1  0.57239103  0.75904994  0.02184669  1
  O2-  O227  1  0.57295302  0.76272813  0.51904339  1
  O2-  O228  1  0.90718203  0.09386635  0.01921848  1
  O2-  O229  1  0.90509085  0.09476057  0.52403416  1
  O2-  O230  1  0.90170449  0.43322655  0.01959573  1
  O2-  O231  1  0.90696729  0.42783460  0.52097904  1
  O2-  O232  1  0.90432593  0.76432402  0.01930809  1
  O2-  O233  1  0.90480015  0.76077659  0.52605649  1
  O2-  O234  1  0.25708537  0.26266069  0.22718146  1
  O2-  O235  1  0.25592969  0.26001173  0.73559330  1
  O2-  O236  1  0.26059077  0.59653116  0.22717498  1
  O2-  O237  1  0.25927358  0.59357807  0.72709543  1
  O2-  O238  1  0.26332660  0.92660852  0.22810130  1
  O2-  O239  1  0.26354210  0.92497540  0.72590367  1
  O2-  O240  1  0.59383014  0.26165132  0.23080051  1
  O2-  O241  1  0.59755814  0.26511389  0.73714309  1
  O2-  O242  1  0.59487010  0.59613298  0.22735168  1
  O2-  O243  1  0.59337069  0.59418003  0.73184558  1
  O2-  O244  1  0.59918642  0.92912163  0.23356244  1
  O2-  O245  1  0.59627025  0.92689500  0.72482625  1
  O2-  O246  1  0.92907432  0.26468774  0.22698215  1
  O2-  O247  1  0.92437152  0.26271971  0.72824654  1
  O2-  O248  1  0.93274576  0.60115035  0.23115693  1
  O2-  O249  1  0.92876251  0.59481526  0.72976714  1
  O2-  O250  1  0.93116532  0.93240343  0.23514050  1
  O2-  O251  1  0.93338718  0.92865476  0.73285429  1
  O2-  O252  1  0.09426315  0.23795456  0.27225923  1
  O2-  O253  1  0.09357274  0.23919446  0.77166166  1
  O2-  O254  1  0.09508732  0.57137320  0.26996260  1
  O2-  O255  1  0.09715870  0.57263257  0.77428158  1
  O2-  O256  1  0.09400374  0.90450015  0.27194655  1
  O2-  O257  1  0.09936728  0.90352491  0.77368532  1
  O2-  O258  1  0.42423036  0.23927638  0.26925273  1
  O2-  O259  1  0.42692713  0.24077792  0.77420856  1
  O2-  O260  1  0.42715924  0.57457371  0.26762637  1
  O2-  O261  1  0.42660896  0.57180614  0.76824176  1
  O2-  O262  1  0.42793241  0.90749314  0.27276376  1
  O2-  O263  1  0.43211309  0.89853283  0.76783849  1
  O2-  O264  1  0.76481610  0.23531993  0.26458755  1
  O2-  O265  1  0.76219966  0.24051187  0.77234550  1
  O2-  O266  1  0.76406091  0.57599894  0.27052746  1
  O2-  O267  1  0.76400086  0.57103487  0.76714481  1
  O2-  O268  1  0.76208016  0.90588990  0.27487123  1
  O2-  O269  1  0.76453867  0.90423811  0.76915246  1
  O2-  O270  1  0.06924848  0.07371017  0.47843650  1
  O2-  O271  1  0.07587899  0.06884994  0.97658499  1
  O2-  O272  1  0.07114078  0.40465219  0.47904076  1
  O2-  O273  1  0.06848601  0.40560367  0.98068559  1
  O2-  O274  1  0.07163210  0.73808109  0.47943046  1
  O2-  O275  1  0.07263390  0.73863264  0.98072119  1
  O2-  O276  1  0.40359452  0.07270889  0.47981063  1
  O2-  O277  1  0.40662534  0.06832973  0.98215099  1
  O2-  O278  1  0.40194684  0.40459269  0.48167893  1
  O2-  O279  1  0.40221311  0.40777538  0.97952822  1
  O2-  O280  1  0.40534094  0.73956338  0.47809657  1
  O2-  O281  1  0.40100394  0.73665507  0.97926020  1
  O2-  O282  1  0.74057309  0.07228622  0.48158233  1
  O2-  O283  1  0.74315512  0.07536681  0.98220188  1
  O2-  O284  1  0.74086851  0.40922377  0.48392241  1
  O2-  O285  1  0.73875116  0.40492732  0.97955171  1
  O2-  O286  1  0.73649231  0.73718270  0.48063634  1
  O2-  O287  1  0.73973848  0.74264423  0.98396993  1
  O2-  O288  1  0.09240289  0.23849023  0.47904122  1
  O2-  O289  1  0.09386614  0.23677707  0.97816900  1
  O2-  O290  1  0.09388258  0.57192478  0.47852042  1
  O2-  O291  1  0.09871848  0.57135842  0.97851905  1
  O2-  O292  1  0.09582324  0.90497589  0.47860433  1
  O2-  O293  1  0.09747868  0.90389596  0.97624143  1
  O2-  O294  1  0.42341425  0.23755288  0.47847151  1
  O2-  O295  1  0.42571357  0.24074755  0.97802486  1
  O2-  O296  1  0.42269601  0.57560964  0.48054459  1
  O2-  O297  1  0.42924993  0.56914448  0.98441594  1
  O2-  O298  1  0.43155165  0.90575703  0.48025168  1
  O2-  O299  1  0.42890906  0.89992433  0.98041835  1
  O2-  O300  1  0.76241701  0.23490070  0.48511306  1
  O2-  O301  1  0.76351386  0.23923337  0.97908049  1
  O2-  O302  1  0.76383380  0.57366964  0.48022579  1
  O2-  O303  1  0.76277788  0.57287489  0.98248953  1
  O2-  O304  1  0.76335812  0.90460391  0.47500473  1
  O2-  O305  1  0.76288817  0.90630523  0.98067829  1
  O2-  O306  1  0.07143308  0.07204757  0.27277612  1
  O2-  O307  1  0.07603549  0.06884536  0.77284422  1
  O2-  O308  1  0.07135082  0.40647659  0.27312204  1
  O2-  O309  1  0.06815832  0.40321209  0.76841196  1
  O2-  O310  1  0.07246610  0.73998702  0.27158620  1
  O2-  O311  1  0.07036181  0.73610219  0.76719215  1
  O2-  O312  1  0.40770658  0.07124149  0.26958993  1
  O2-  O313  1  0.40448443  0.06847183  0.77000424  1
  O2-  O314  1  0.40161233  0.40299837  0.26411084  1
  O2-  O315  1  0.40442766  0.40793000  0.77401351  1
  O2-  O316  1  0.40592048  0.74096339  0.27387283  1
  O2-  O317  1  0.40122183  0.73471064  0.76862487  1
  O2-  O318  1  0.74083442  0.06943768  0.26936871  1
  O2-  O319  1  0.74462213  0.07769320  0.76666384  1
  O2-  O320  1  0.74215384  0.40529138  0.26689075  1
  O2-  O321  1  0.73785579  0.40636841  0.77074945  1
  O2-  O322  1  0.73554498  0.73721253  0.26611349  1
  O2-  O323  1  0.74106906  0.74102072  0.76943165  1
  O2-  O324  1  0.23757547  0.09342768  0.22893022  1
  O2-  O325  1  0.23692215  0.09286839  0.72944700  1
  O2-  O326  1  0.23448149  0.42784836  0.22692793  1
  O2-  O327  1  0.23697086  0.42914936  0.73325784  1
  O2-  O328  1  0.23622833  0.76298339  0.23210419  1
  O2-  O329  1  0.24008572  0.75889652  0.72627676  1
  O2-  O330  1  0.57461279  0.09098328  0.23099907  1
  O2-  O331  1  0.57117551  0.09322667  0.73948610  1
  O2-  O332  1  0.57344828  0.42673861  0.22875624  1
  O2-  O333  1  0.57085919  0.42967558  0.73016953  1
  O2-  O334  1  0.57122890  0.76346432  0.22692884  1
  O2-  O335  1  0.57368362  0.75928029  0.73042236  1
  O2-  O336  1  0.90465003  0.09510033  0.22907792  1
  O2-  O337  1  0.90735525  0.09262248  0.72732599  1
  O2-  O338  1  0.90343194  0.43355405  0.23000443  1
  O2-  O339  1  0.90313600  0.42770399  0.72808419  1
  O2-  O340  1  0.90312220  0.76475711  0.22730660  1
  O2-  O341  1  0.90460865  0.76058553  0.72788033  1
  O2-  O342  1  0.25654847  0.26285863  0.01963327  1
  O2-  O343  1  0.25758212  0.25837813  0.51648800  1
  O2-  O344  1  0.26069696  0.59603412  0.02513073  1
  O2-  O345  1  0.26009008  0.59388684  0.51937430  1
  O2-  O346  1  0.26247358  0.92544696  0.02412748  1
  O2-  O347  1  0.26564118  0.92526051  0.52131420  1
  O2-  O348  1  0.59887926  0.26250359  0.01653799  1
  O2-  O349  1  0.59501015  0.26162271  0.51621939  1
  O2-  O350  1  0.59218997  0.59337537  0.02438118  1
  O2-  O351  1  0.59741179  0.59635833  0.51600334  1
  O2-  O352  1  0.59537182  0.92645436  0.02147480  1
  O2-  O353  1  0.60003418  0.92758077  0.52116768  1
  O2-  O354  1  0.92710773  0.26490056  0.02060907  1
  O2-  O355  1  0.92810417  0.26009020  0.52290312  1
  O2-  O356  1  0.93494352  0.59807320  0.01889082  1
  O2-  O357  1  0.92747776  0.59643640  0.51957701  1
  O2-  O358  1  0.93251014  0.92975323  0.01441103  1
  O2-  O359  1  0.93133007  0.93156180  0.51865154  1
