# generated using pymatgen
data_Sr7Ca15Pr50Mn72O216
_symmetry_space_group_name_H-M   'P 1'
_cell_length_a   16.55819880
_cell_length_b   16.60513186
_cell_length_c   15.59349521
_cell_angle_alpha   90.00317413
_cell_angle_beta   90.00238533
_cell_angle_gamma   90.00266440
_symmetry_Int_Tables_number   1
_chemical_formula_structural   Sr7Ca15Pr50Mn72O216
_chemical_formula_sum   'Sr7 Ca15 Pr50 Mn72 O216'
_cell_volume   4287.44824861
_cell_formula_units_Z   1
loop_
 _symmetry_equiv_pos_site_id
 _symmetry_equiv_pos_as_xyz
  1  'x, y, z'
loop_
 _atom_type_symbol
 _atom_type_oxidation_number
  Sr2+  2.0
  Ca2+  2.0
  Pr3+  3.0
  Mn3.30+  3.3
  O2-  -2.0
loop_
 _atom_site_type_symbol
 _atom_site_label
 _atom_site_symmetry_multiplicity
 _atom_site_fract_x
 _atom_site_fract_y
 _atom_site_fract_z
 _atom_site_occupancy
  Sr2+  Sr0  1  0.50293460  0.17710886  0.12545537  1
  Sr2+  Sr1  1  0.83566036  0.84009484  0.12641157  1
  Sr2+  Sr2  1  0.83568210  0.17443243  0.12784511  1
  Sr2+  Sr3  1  0.49665438  0.49175641  0.37425120  1
  Sr2+  Sr4  1  -0.00429587  0.67708973  0.12799881  1
  Sr2+  Sr5  1  0.66578786  0.67563588  0.12700915  1
  Sr2+  Sr6  1  0.17006460  0.17946316  0.12623811  1
  Ca2+  Ca7  1  0.32967686  0.35096645  0.62283835  1
  Ca2+  Ca8  1  0.33190845  0.34684441  0.12733667  1
  Ca2+  Ca9  1  0.33696643  0.98679544  0.37464776  1
  Ca2+  Ca10  1  0.32810190  0.67955146  0.61844164  1
  Ca2+  Ca11  1  0.83117537  0.81851806  0.87729863  1
  Ca2+  Ca12  1  0.83079323  0.48840085  0.37391179  1
  Ca2+  Ca13  1  0.66984994  0.31649488  0.87472290  1
  Ca2+  Ca14  1  1.00119274  0.65490044  0.37369686  1
  Ca2+  Ca15  1  0.82988387  0.15218448  0.37683710  1
  Ca2+  Ca16  1  0.83151660  0.81744269  0.37241713  1
  Ca2+  Ca17  1  0.66461908  0.01520676  0.62282408  1
  Ca2+  Ca18  1  0.83520485  0.17948899  0.62230731  1
  Ca2+  Ca19  1  0.17214006  0.51809298  0.62192381  1
  Ca2+  Ca20  1  0.16339377  0.81636368  0.37655426  1
  Ca2+  Ca21  1  0.33585922  0.65081349  0.37786474  1
  Pr3+  Pr22  1  0.83586707  0.51290232  0.12709423  1
  Pr3+  Pr23  1  0.83558081  0.51279611  0.62261319  1
  Pr3+  Pr24  1  -0.00262765  0.34724305  0.62418008  1
  Pr3+  Pr25  1  -0.00488639  0.34526197  0.12616163  1
  Pr3+  Pr26  1  0.67254551  0.98628902  0.37572969  1
  Pr3+  Pr27  1  0.67248296  0.98535321  0.87409637  1
  Pr3+  Pr28  1  1.00072546  0.98678121  0.87535815  1
  Pr3+  Pr29  1  0.66322777  0.67866984  0.62320749  1
  Pr3+  Pr30  1  0.50283383  0.84744161  0.62296534  1
  Pr3+  Pr31  1  0.82846926  0.48488011  0.87482304  1
  Pr3+  Pr32  1  0.66973032  0.65557920  0.87522463  1
  Pr3+  Pr33  1  0.33128683  0.01407851  0.12739889  1
  Pr3+  Pr34  1  0.16672751  0.51314742  0.12685577  1
  Pr3+  Pr35  1  0.66355350  0.34258520  0.12412593  1
  Pr3+  Pr36  1  1.00048806  0.98715057  0.37443471  1
  Pr3+  Pr37  1  0.50589673  0.84446829  0.12671560  1
  Pr3+  Pr38  1  0.66575068  0.34425781  0.62640854  1
  Pr3+  Pr39  1  0.16420606  0.82071589  0.87425802  1
  Pr3+  Pr40  1  0.50391783  0.17936285  0.62449376  1
  Pr3+  Pr41  1  -0.00305578  0.01470941  0.62278953  1
  Pr3+  Pr42  1  0.33592926  0.32115413  0.87484907  1
  Pr3+  Pr43  1  0.99998474  0.32174687  0.37552779  1
  Pr3+  Pr44  1  0.16678900  0.84465364  0.12843852  1
  Pr3+  Pr45  1  0.00009186  0.67815375  0.62160952  1
  Pr3+  Pr46  1  0.83661608  0.84526532  0.62286932  1
  Pr3+  Pr47  1  0.32957134  0.67833762  0.12960312  1
  Pr3+  Pr48  1  0.33581692  0.65339666  0.87325435  1
  Pr3+  Pr49  1  0.67069610  0.65094138  0.37464958  1
  Pr3+  Pr50  1  0.16221466  0.48805353  0.87358751  1
  Pr3+  Pr51  1  0.49741157  0.48734756  0.87480699  1
  Pr3+  Pr52  1  0.49712080  0.15306646  0.37456202  1
  Pr3+  Pr53  1  0.66640572  0.01233543  0.12655467  1
  Pr3+  Pr54  1  0.33800566  0.32516046  0.37473182  1
  Pr3+  Pr55  1  0.16475457  0.49219362  0.37670321  1
  Pr3+  Pr56  1  0.33680444  0.98791755  0.87512463  1
  Pr3+  Pr57  1  0.50090614  0.51131688  0.12670445  1
  Pr3+  Pr58  1  0.33083831  0.01290077  0.62267764  1
  Pr3+  Pr59  1  1.00014041  0.65611949  0.87554108  1
  Pr3+  Pr60  1  0.17031899  0.84430957  0.62197222  1
  Pr3+  Pr61  1  0.66991038  0.32064507  0.37636303  1
  Pr3+  Pr62  1  1.00374535  0.31901569  0.87447888  1
  Pr3+  Pr63  1  -0.00366309  0.01101718  0.12677226  1
  Pr3+  Pr64  1  0.17233722  0.18318265  0.62389898  1
  Pr3+  Pr65  1  0.49496876  0.81928651  0.37534671  1
  Pr3+  Pr66  1  0.16328557  0.15333150  0.87545340  1
  Pr3+  Pr67  1  0.49774032  0.82057826  0.87480414  1
  Pr3+  Pr68  1  0.16542615  0.15549530  0.37447592  1
  Pr3+  Pr69  1  0.50168074  0.15392777  0.87573320  1
  Pr3+  Pr70  1  0.49886242  0.51262345  0.62316463  1
  Pr3+  Pr71  1  0.83055528  0.15369163  0.87415718  1
  Mn3.30+  Mn72  1  0.16709727  -0.00024647  0.00125062  1
  Mn3.30+  Mn73  1  0.16797164  -0.00105095  0.49687113  1
  Mn3.30+  Mn74  1  0.16805501  0.33416748  0.00189220  1
  Mn3.30+  Mn75  1  0.16853956  0.33658128  0.50035594  1
  Mn3.30+  Mn76  1  0.16618967  0.66751252  0.00121057  1
  Mn3.30+  Mn77  1  0.16736166  0.66709124  0.49720557  1
  Mn3.30+  Mn78  1  0.50174686  -0.00045689  -0.00002743  1
  Mn3.30+  Mn79  1  0.50077551  0.00010248  0.49955572  1
  Mn3.30+  Mn80  1  0.50000568  0.33245601  -0.00029659  1
  Mn3.30+  Mn81  1  0.49868177  0.33466970  0.50160426  1
  Mn3.30+  Mn82  1  0.50007864  0.66638596  0.00020060  1
  Mn3.30+  Mn83  1  0.49610308  0.66653097  0.50029831  1
  Mn3.30+  Mn84  1  0.83425066  -0.00275098  0.00002576  1
  Mn3.30+  Mn85  1  0.83217731  0.00063632  0.50101624  1
  Mn3.30+  Mn86  1  0.83163189  0.33125528  -0.00017055  1
  Mn3.30+  Mn87  1  0.83345564  0.33235931  0.49965180  1
  Mn3.30+  Mn88  1  0.83343832  0.66748998  0.00004805  1
  Mn3.30+  Mn89  1  0.83423096  0.66653976  0.49712231  1
  Mn3.30+  Mn90  1  -0.00100353  0.16647429  0.25204715  1
  Mn3.30+  Mn91  1  -0.00102418  0.16697953  0.74733267  1
  Mn3.30+  Mn92  1  -0.00206325  0.50097552  0.25410101  1
  Mn3.30+  Mn93  1  0.00064314  0.50089121  0.74736965  1
  Mn3.30+  Mn94  1  -0.00011468  0.83104418  0.25401330  1
  Mn3.30+  Mn95  1  -0.00082220  0.83328634  0.74897926  1
  Mn3.30+  Mn96  1  0.33317430  0.16871287  0.24970324  1
  Mn3.30+  Mn97  1  0.33445019  0.16867299  0.74939131  1
  Mn3.30+  Mn98  1  0.33242749  0.50031457  0.25015515  1
  Mn3.30+  Mn99  1  0.33021518  0.50043039  0.74771264  1
  Mn3.30+  Mn100  1  0.33213358  0.83352615  0.25435033  1
  Mn3.30+  Mn101  1  0.33360788  0.83222145  0.74759585  1
  Mn3.30+  Mn102  1  0.66804445  0.16656438  0.25153326  1
  Mn3.30+  Mn103  1  0.66893607  0.16594311  0.74767773  1
  Mn3.30+  Mn104  1  0.66716671  0.49789177  0.25117946  1
  Mn3.30+  Mn105  1  0.66561436  0.49867686  0.74982094  1
  Mn3.30+  Mn106  1  0.66850401  0.83178980  0.25130367  1
  Mn3.30+  Mn107  1  0.66873275  0.83425523  0.74843115  1
  Mn3.30+  Mn108  1  0.16861382  -0.00129477  0.25380197  1
  Mn3.30+  Mn109  1  0.16671432  0.00020877  0.74821497  1
  Mn3.30+  Mn110  1  0.16796832  0.33472109  0.25007237  1
  Mn3.30+  Mn111  1  0.16878719  0.33605479  0.74779705  1
  Mn3.30+  Mn112  1  0.16494307  0.66832261  0.25364404  1
  Mn3.30+  Mn113  1  0.16865426  0.66644457  0.74762859  1
  Mn3.30+  Mn114  1  0.49980592  -0.00045467  0.25212349  1
  Mn3.30+  Mn115  1  0.50276910  0.00029621  0.74821318  1
  Mn3.30+  Mn116  1  0.49941164  0.33335627  0.24912415  1
  Mn3.30+  Mn117  1  0.49971305  0.33335507  0.75005960  1
  Mn3.30+  Mn118  1  0.49787333  0.66601468  0.25217830  1
  Mn3.30+  Mn119  1  0.49812790  0.66727779  0.74733150  1
  Mn3.30+  Mn120  1  0.83420996  -0.00162039  0.25256939  1
  Mn3.30+  Mn121  1  0.83218287  -0.00044920  0.74638295  1
  Mn3.30+  Mn122  1  0.83216670  0.33239007  0.25180803  1
  Mn3.30+  Mn123  1  0.83271635  0.33108226  0.74909234  1
  Mn3.30+  Mn124  1  0.83491208  0.66665344  0.25296325  1
  Mn3.30+  Mn125  1  0.83273794  0.66735680  0.74881473  1
  Mn3.30+  Mn126  1  -0.00020561  0.16644235  0.00174883  1
  Mn3.30+  Mn127  1  -0.00164583  0.16723379  0.49924565  1
  Mn3.30+  Mn128  1  -0.00185851  0.49975004  -0.00069956  1
  Mn3.30+  Mn129  1  0.00012984  0.50180585  0.49904379  1
  Mn3.30+  Mn130  1  -0.00180488  0.83218690  -0.00005868  1
  Mn3.30+  Mn131  1  0.00080159  0.83169512  0.49626788  1
  Mn3.30+  Mn132  1  0.33308741  0.16885471  0.00123059  1
  Mn3.30+  Mn133  1  0.33435039  0.16833705  0.49941321  1
  Mn3.30+  Mn134  1  0.33185143  0.49901596  0.00032379  1
  Mn3.30+  Mn135  1  0.33120570  0.50149629  0.50152881  1
  Mn3.30+  Mn136  1  0.33382879  0.83320362  0.00197001  1
  Mn3.30+  Mn137  1  0.33189823  0.83268667  0.49679059  1
  Mn3.30+  Mn138  1  0.66772114  0.16699551  -0.00044273  1
  Mn3.30+  Mn139  1  0.66920016  0.16557127  0.50131086  1
  Mn3.30+  Mn140  1  0.66578948  0.49807236  -0.00061024  1
  Mn3.30+  Mn141  1  0.66725357  0.49833643  0.49965127  1
  Mn3.30+  Mn142  1  0.66879349  0.83227016  0.00075955  1
  Mn3.30+  Mn143  1  0.66850520  0.83377062  0.49928789  1
  O2-  O144  1  0.02022869  0.16092987  0.12703051  1
  O2-  O145  1  0.02837065  0.16275801  0.62344032  1
  O2-  O146  1  0.02223964  0.49327159  0.12720674  1
  O2-  O147  1  0.02789048  0.49501908  0.62520682  1
  O2-  O148  1  0.02371703  0.83285114  0.12951974  1
  O2-  O149  1  0.02654590  0.82802342  0.62291557  1
  O2-  O150  1  0.35382679  0.16027113  0.12435129  1
  O2-  O151  1  0.36030757  0.15848319  0.62382782  1
  O2-  O152  1  0.35594538  0.49478001  0.12303971  1
  O2-  O153  1  0.35685717  0.49294778  0.62649632  1
  O2-  O154  1  0.36127127  0.82586930  0.12773153  1
  O2-  O155  1  0.35817329  0.82604229  0.62323848  1
  O2-  O156  1  0.68602941  0.16251081  0.12641094  1
  O2-  O157  1  0.69338104  0.16115570  0.62459925  1
  O2-  O158  1  0.69165341  0.49190513  0.12571213  1
  O2-  O159  1  0.69181715  0.49468270  0.62654310  1
  O2-  O160  1  0.68472653  0.83211287  0.12769686  1
  O2-  O161  1  0.69367265  0.82404043  0.62389897  1
  O2-  O162  1  0.13900244  0.33500191  0.12598485  1
  O2-  O163  1  0.14058512  0.32763797  0.62450851  1
  O2-  O164  1  0.14550163  0.66356767  0.12671489  1
  O2-  O165  1  0.14285000  0.66551094  0.62393088  1
  O2-  O166  1  0.14123474  0.99323354  0.12868936  1
  O2-  O167  1  0.14182689  0.99403154  0.62325927  1
  O2-  O168  1  0.47493740  0.33112930  0.12235148  1
  O2-  O169  1  0.47230723  0.32571589  0.62687307  1
  O2-  O170  1  0.47484841  0.66315557  0.12615063  1
  O2-  O171  1  0.47174518  0.66256935  0.62479524  1
  O2-  O172  1  0.47603671  0.99285455  0.12677820  1
  O2-  O173  1  0.47428357  0.99621971  0.62410048  1
  O2-  O174  1  0.80811742  0.32995822  0.12663914  1
  O2-  O175  1  0.80946150  0.32608343  0.62523198  1
  O2-  O176  1  0.81504606  0.66081037  0.12697602  1
  O2-  O177  1  0.80713793  0.66110062  0.62424916  1
  O2-  O178  1  0.81071527  0.99503942  0.12651001  1
  O2-  O179  1  0.80429097  0.98909009  0.62410021  1
  O2-  O180  1  0.30874804  0.17807738  0.37574684  1
  O2-  O181  1  0.30643835  0.17303100  0.87557079  1
  O2-  O182  1  0.30963514  0.50251585  0.37615909  1
  O2-  O183  1  0.30586157  0.50667483  0.87376889  1
  O2-  O184  1  0.30522548  0.84566689  0.37484497  1
  O2-  O185  1  0.30835712  0.84065014  0.87488479  1
  O2-  O186  1  0.64107125  0.17178739  0.37698539  1
  O2-  O187  1  0.64536321  0.16933534  0.87223827  1
  O2-  O188  1  0.64654014  0.50085142  0.37628343  1
  O2-  O189  1  0.64091572  0.50823973  0.87211956  1
  O2-  O190  1  0.63960915  0.83856203  0.37679276  1
  O2-  O191  1  0.64077471  0.83781934  0.87166600  1
  O2-  O192  1  0.97366620  0.17277370  0.37715437  1
  O2-  O193  1  0.97621281  0.17080760  0.87269378  1
  O2-  O194  1  0.97290009  0.50607024  0.37745986  1
  O2-  O195  1  0.97370804  0.50607809  0.87057117  1
  O2-  O196  1  0.97132886  0.84197986  0.37686678  1
  O2-  O197  1  0.97402667  0.83947579  0.87026512  1
  O2-  O198  1  0.19648158  0.00974779  0.37631015  1
  O2-  O199  1  0.19208058  0.00406074  0.87263575  1
  O2-  O200  1  0.19361984  0.34203293  0.37592426  1
  O2-  O201  1  0.19144219  0.34011184  0.87338112  1
  O2-  O202  1  0.19480544  0.66771780  0.37506166  1
  O2-  O203  1  0.19289835  0.67274618  0.87479340  1
  O2-  O204  1  0.52729946  0.00356083  0.37692245  1
  O2-  O205  1  0.52663756  0.00285626  0.87217342  1
  O2-  O206  1  0.52386353  0.33627005  0.37736276  1
  O2-  O207  1  0.52725476  0.34030354  0.87302870  1
  O2-  O208  1  0.52515824  0.67027451  0.37714604  1
  O2-  O209  1  0.52473933  0.67129252  0.87218541  1
  O2-  O210  1  0.85682511  0.00889346  0.37830687  1
  O2-  O211  1  0.85838966  0.00741682  0.87074604  1
  O2-  O212  1  0.85688858  0.34424130  0.37626491  1
  O2-  O213  1  0.86034439  0.33783235  0.87252009  1
  O2-  O214  1  0.85855791  0.67281086  0.37737060  1
  O2-  O215  1  0.85587831  0.67018034  0.87074938  1
  O2-  O216  1  0.24079363  0.09233220  0.01595131  1
  O2-  O217  1  0.23938410  0.09746721  0.52093740  1
  O2-  O218  1  0.23324396  0.43221064  0.01620680  1
  O2-  O219  1  0.23472920  0.43253418  0.51909145  1
  O2-  O220  1  0.23917819  0.76309615  0.02109936  1
  O2-  O221  1  0.23608374  0.76290332  0.51738680  1
  O2-  O222  1  0.57564610  0.09143764  0.01558776  1
  O2-  O223  1  0.57040845  0.09707423  0.51824834  1
  O2-  O224  1  0.57046641  0.42730040  0.02046835  1
  O2-  O225  1  0.57173315  0.42435169  0.52569358  1
  O2-  O226  1  0.56948298  0.76317785  0.01435534  1
  O2-  O227  1  0.57091595  0.76119042  0.52087762  1
  O2-  O228  1  0.90742720  0.09058225  0.01552916  1
  O2-  O229  1  0.90448236  0.09261035  0.52509858  1
  O2-  O230  1  0.90287709  0.42707970  0.01892130  1
  O2-  O231  1  0.90692419  0.42656491  0.52379647  1
  O2-  O232  1  0.90760967  0.75983927  0.01119427  1
  O2-  O233  1  0.90644014  0.75974841  0.52266761  1
  O2-  O234  1  0.26255036  0.26721543  0.23273257  1
  O2-  O235  1  0.26510338  0.26457639  0.72773326  1
  O2-  O236  1  0.25772726  0.59278785  0.22907986  1
  O2-  O237  1  0.26468029  0.60048018  0.73038155  1
  O2-  O238  1  0.26171624  0.92652407  0.22566109  1
  O2-  O239  1  0.26289324  0.92836531  0.72849334  1
  O2-  O240  1  0.59697867  0.26289120  0.23469485  1
  O2-  O241  1  0.59542445  0.25869839  0.72807092  1
  O2-  O242  1  0.59170446  0.58897787  0.23439804  1
  O2-  O243  1  0.59155553  0.59500081  0.72735679  1
  O2-  O244  1  0.59487580  0.92799538  0.23132873  1
  O2-  O245  1  0.59854126  0.92830993  0.72626690  1
  O2-  O246  1  0.92914602  0.26499921  0.23481925  1
  O2-  O247  1  0.93202008  0.26361944  0.73136196  1
  O2-  O248  1  0.92377968  0.58924664  0.23250791  1
  O2-  O249  1  0.92833840  0.59375892  0.72710098  1
  O2-  O250  1  0.93218777  0.92941303  0.23569090  1
  O2-  O251  1  0.92863307  0.92941252  0.72596083  1
  O2-  O252  1  0.09428807  0.24185974  0.27360963  1
  O2-  O253  1  0.09820474  0.23949990  0.76952361  1
  O2-  O254  1  0.09450170  0.57240221  0.26838842  1
  O2-  O255  1  0.09403185  0.57631870  0.77215366  1
  O2-  O256  1  0.09704927  0.90472839  0.27459869  1
  O2-  O257  1  0.09356488  0.90499133  0.76993586  1
  O2-  O258  1  0.42853405  0.24031586  0.27206529  1
  O2-  O259  1  0.43031307  0.23829671  0.77329753  1
  O2-  O260  1  0.42357574  0.57325511  0.26319558  1
  O2-  O261  1  0.42606249  0.57042144  0.77080893  1
  O2-  O262  1  0.42938197  0.90347705  0.26931242  1
  O2-  O263  1  0.42901864  0.90629590  0.76853486  1
  O2-  O264  1  0.76176013  0.23869059  0.27544659  1
  O2-  O265  1  0.76363594  0.23661469  0.76890181  1
  O2-  O266  1  0.76037513  0.57102652  0.27008330  1
  O2-  O267  1  0.75990585  0.57027445  0.76943436  1
  O2-  O268  1  0.76071667  0.90571489  0.27468186  1
  O2-  O269  1  0.76413801  0.90211741  0.77222841  1
  O2-  O270  1  0.07236339  0.07269115  0.47858850  1
  O2-  O271  1  0.07336218  0.07197986  0.97933235  1
  O2-  O272  1  0.07063628  0.40698599  0.47804801  1
  O2-  O273  1  0.07075826  0.40558991  0.97866347  1
  O2-  O274  1  0.06929845  0.73590905  0.48004724  1
  O2-  O275  1  0.07428551  0.74122295  0.97649318  1
  O2-  O276  1  0.40384871  0.07255677  0.47740887  1
  O2-  O277  1  0.40817775  0.07168414  0.97888539  1
  O2-  O278  1  0.40243647  0.40569197  0.48487329  1
  O2-  O279  1  0.40686973  0.40672744  0.97577820  1
  O2-  O280  1  0.40252256  0.74104904  0.47493129  1
  O2-  O281  1  0.40465476  0.73853595  0.97920351  1
  O2-  O282  1  0.73659786  0.07018794  0.48078556  1
  O2-  O283  1  0.74096094  0.07001440  0.98082787  1
  O2-  O284  1  0.73740559  0.40168420  0.48670774  1
  O2-  O285  1  0.73735312  0.40342733  0.97702704  1
  O2-  O286  1  0.73511882  0.73496030  0.48208575  1
  O2-  O287  1  0.73783479  0.73826860  0.98009499  1
  O2-  O288  1  0.09781447  0.24135599  0.47952919  1
  O2-  O289  1  0.09612687  0.24051313  0.97815078  1
  O2-  O290  1  0.09462686  0.57391407  0.48113106  1
  O2-  O291  1  0.09258278  0.57291349  0.97975666  1
  O2-  O292  1  0.09435841  0.90374322  0.47736800  1
  O2-  O293  1  0.09517088  0.90535033  0.98003287  1
  O2-  O294  1  0.43024777  0.23845540  0.47979662  1
  O2-  O295  1  0.42854731  0.24034267  0.97457732  1
  O2-  O296  1  0.42599810  0.57153822  0.48631173  1
  O2-  O297  1  0.42639734  0.57243597  0.97925860  1
  O2-  O298  1  0.42956325  0.90342083  0.48342800  1
  O2-  O299  1  0.42825608  0.90537581  0.97961275  1
  O2-  O300  1  0.76190539  0.23836988  0.47780474  1
  O2-  O301  1  0.76297252  0.23724267  0.97957120  1
  O2-  O302  1  0.76330061  0.57111146  0.48022080  1
  O2-  O303  1  0.75929515  0.57131531  0.97984418  1
  O2-  O304  1  0.76415685  0.90212778  0.47741534  1
  O2-  O305  1  0.76127207  0.90568259  0.97611399  1
  O2-  O306  1  0.07533345  0.07203189  0.27321355  1
  O2-  O307  1  0.07110506  0.07229834  0.76948615  1
  O2-  O308  1  0.07140429  0.40730013  0.27303637  1
  O2-  O309  1  0.07006116  0.40607489  0.77095852  1
  O2-  O310  1  0.07290547  0.73932648  0.27452019  1
  O2-  O311  1  0.07252355  0.73877630  0.77040605  1
  O2-  O312  1  0.40740238  0.07114404  0.27142548  1
  O2-  O313  1  0.40496297  0.07306304  0.77159820  1
  O2-  O314  1  0.40412905  0.40543791  0.26592738  1
  O2-  O315  1  0.40406535  0.40786828  0.77239401  1
  O2-  O316  1  0.40127917  0.73939323  0.27465442  1
  O2-  O317  1  0.40672799  0.74126535  0.77399394  1
  O2-  O318  1  0.73817355  0.07000428  0.26711754  1
  O2-  O319  1  0.73928715  0.07106643  0.77146110  1
  O2-  O320  1  0.73641804  0.40192195  0.26777572  1
  O2-  O321  1  0.73869314  0.40171322  0.77099607  1
  O2-  O322  1  0.73762720  0.73694282  0.27162681  1
  O2-  O323  1  0.73514299  0.73661101  0.76702658  1
  O2-  O324  1  0.24132199  0.09328560  0.23352184  1
  O2-  O325  1  0.23882259  0.09635460  0.72914109  1
  O2-  O326  1  0.23547540  0.43158653  0.23234564  1
  O2-  O327  1  0.23319405  0.43470923  0.73132676  1
  O2-  O328  1  0.23945240  0.76092124  0.22870839  1
  O2-  O329  1  0.23503039  0.76456815  0.73298515  1
  O2-  O330  1  0.57497743  0.09178249  0.23466703  1
  O2-  O331  1  0.57102265  0.09665845  0.73143559  1
  O2-  O332  1  0.57249830  0.42463192  0.22675494  1
  O2-  O333  1  0.57053209  0.42792735  0.72764719  1
  O2-  O334  1  0.56835794  0.76277024  0.23633017  1
  O2-  O335  1  0.57243893  0.76324686  0.72774228  1
  O2-  O336  1  0.91011703  0.08853157  0.23381150  1
  O2-  O337  1  0.90351671  0.09452081  0.72529682  1
  O2-  O338  1  0.90473461  0.42537092  0.22906194  1
  O2-  O339  1  0.90334860  0.42761046  0.72797168  1
  O2-  O340  1  0.90637642  0.76020169  0.23724119  1
  O2-  O341  1  0.90871958  0.76027202  0.72531900  1
  O2-  O342  1  0.26360416  0.26918850  0.01730272  1
  O2-  O343  1  0.26375392  0.26361873  0.52193958  1
  O2-  O344  1  0.26078595  0.59647725  0.02028236  1
  O2-  O345  1  0.26122950  0.59590682  0.51953589  1
  O2-  O346  1  0.26235593  0.92814282  0.02187471  1
  O2-  O347  1  0.26206880  0.92671249  0.52376442  1
  O2-  O348  1  0.59490490  0.26223987  0.01474852  1
  O2-  O349  1  0.59616205  0.26020096  0.52197137  1
  O2-  O350  1  0.59033293  0.59095977  0.01792646  1
  O2-  O351  1  0.59402232  0.59267695  0.52009392  1
  O2-  O352  1  0.59578211  0.92723735  0.01929739  1
  O2-  O353  1  0.59756540  0.92752425  0.52213421  1
  O2-  O354  1  0.93100674  0.26369343  0.01561385  1
  O2-  O355  1  0.93065873  0.26431672  0.51809582  1
  O2-  O356  1  0.92499507  0.59082452  0.01513967  1
  O2-  O357  1  0.92682964  0.59268957  0.52486097  1
  O2-  O358  1  0.93158616  0.93033519  0.01549171  1
  O2-  O359  1  0.92884899  0.92865412  0.52140142  1
