# generated using pymatgen
data_Sr7Ca15Pr50Mn72O216
_symmetry_space_group_name_H-M   'P 1'
_cell_length_a   16.56025472
_cell_length_b   16.60428217
_cell_length_c   15.59306946
_cell_angle_alpha   90.00088377
_cell_angle_beta   90.00585318
_cell_angle_gamma   89.99977017
_symmetry_Int_Tables_number   1
_chemical_formula_structural   Sr7Ca15Pr50Mn72O216
_chemical_formula_sum   'Sr7 Ca15 Pr50 Mn72 O216'
_cell_volume   4287.64409805
_cell_formula_units_Z   1
loop_
 _symmetry_equiv_pos_site_id
 _symmetry_equiv_pos_as_xyz
  1  'x, y, z'
loop_
 _atom_type_symbol
 _atom_type_oxidation_number
  Sr2+  2.0
  Ca2+  2.0
  Pr3+  3.0
  Mn3.30+  3.3
  O2-  -2.0
loop_
 _atom_site_type_symbol
 _atom_site_label
 _atom_site_symmetry_multiplicity
 _atom_site_fract_x
 _atom_site_fract_y
 _atom_site_fract_z
 _atom_site_occupancy
  Sr2+  Sr0  1  0.33367381  0.99072505  0.87685263  1
  Sr2+  Sr1  1  0.49862479  0.48958307  0.87615441  1
  Sr2+  Sr2  1  0.66563800  0.01129287  0.12552762  1
  Sr2+  Sr3  1  -0.00338724  0.34063373  0.12590669  1
  Sr2+  Sr4  1  0.83339310  0.17518593  0.12297099  1
  Sr2+  Sr5  1  0.83387550  0.84281313  0.12346357  1
  Sr2+  Sr6  1  0.16893999  0.84347369  0.62609833  1
  Ca2+  Ca7  1  0.50661565  0.18030372  0.12382546  1
  Ca2+  Ca8  1  0.33116114  0.68208630  0.12304935  1
  Ca2+  Ca9  1  0.50209462  0.17965950  0.62561979  1
  Ca2+  Ca10  1  0.66194884  0.34552222  0.12564501  1
  Ca2+  Ca11  1  0.66357409  0.68341261  0.62672821  1
  Ca2+  Ca12  1  0.50443029  0.51357676  0.12370373  1
  Ca2+  Ca13  1  0.16551065  0.14967569  0.87773846  1
  Ca2+  Ca14  1  0.82821140  0.81954525  0.87553506  1
  Ca2+  Ca15  1  0.17100874  0.85018573  0.12370858  1
  Ca2+  Ca16  1  0.32919413  0.68335509  0.62679330  1
  Ca2+  Ca17  1  0.66939189  0.31686993  0.37195334  1
  Ca2+  Ca18  1  0.82905129  0.15122067  0.87854550  1
  Ca2+  Ca19  1  0.83756515  0.84723989  0.62598086  1
  Ca2+  Ca20  1  0.33110672  0.01332352  0.12247494  1
  Ca2+  Ca21  1  1.00306858  0.98442780  0.37254175  1
  Pr3+  Pr22  1  1.00320610  0.31598920  0.87710804  1
  Pr3+  Pr23  1  0.16912402  0.17665597  0.12179384  1
  Pr3+  Pr24  1  0.99984676  0.98869898  0.87695186  1
  Pr3+  Pr25  1  0.83044439  0.15369593  0.37297390  1
  Pr3+  Pr26  1  1.00178380  0.31912123  0.37335316  1
  Pr3+  Pr27  1  0.33575176  0.98632501  0.37294821  1
  Pr3+  Pr28  1  -0.00519971  0.01047326  0.12564969  1
  Pr3+  Pr29  1  0.66331913  0.67784766  0.12419448  1
  Pr3+  Pr30  1  0.33831259  0.32078872  0.87667654  1
  Pr3+  Pr31  1  0.16220766  0.14996669  0.37281523  1
  Pr3+  Pr32  1  0.17058425  0.51405881  0.12466379  1
  Pr3+  Pr33  1  0.17226103  0.51548927  0.62459038  1
  Pr3+  Pr34  1  0.16548740  0.82281158  0.87561853  1
  Pr3+  Pr35  1  0.50146383  0.84418199  0.62542186  1
  Pr3+  Pr36  1  -0.00314695  0.34650080  0.62515062  1
  Pr3+  Pr37  1  -0.00367723  0.68414549  0.62560391  1
  Pr3+  Pr38  1  1.00332738  0.65548806  0.37502520  1
  Pr3+  Pr39  1  0.83404029  0.51459993  0.62556617  1
  Pr3+  Pr40  1  0.82888312  0.48728831  0.87575083  1
  Pr3+  Pr41  1  -0.00321005  0.67896472  0.12449595  1
  Pr3+  Pr42  1  0.33750188  0.65588874  0.37575439  1
  Pr3+  Pr43  1  -0.00262305  0.00898452  0.62449901  1
  Pr3+  Pr44  1  0.99964471  0.65676251  0.87540610  1
  Pr3+  Pr45  1  0.16907885  0.17564942  0.62763933  1
  Pr3+  Pr46  1  0.66960450  0.31790546  0.87694932  1
  Pr3+  Pr47  1  0.50266962  0.84721543  0.12448699  1
  Pr3+  Pr48  1  0.66386147  0.01381190  0.62457167  1
  Pr3+  Pr49  1  0.16455694  0.48704557  0.37404113  1
  Pr3+  Pr50  1  0.66836330  0.65439790  0.87517654  1
  Pr3+  Pr51  1  0.82793820  0.48312760  0.37451176  1
  Pr3+  Pr52  1  0.33319688  0.34399139  0.62537077  1
  Pr3+  Pr53  1  0.67183937  0.98721091  0.87657681  1
  Pr3+  Pr54  1  0.49911747  0.15529517  0.37442171  1
  Pr3+  Pr55  1  0.33487783  0.34564015  0.12392389  1
  Pr3+  Pr56  1  0.66956876  0.65422038  0.37518241  1
  Pr3+  Pr57  1  0.32957862  0.01214209  0.62645872  1
  Pr3+  Pr58  1  0.83619883  0.17830219  0.62722010  1
  Pr3+  Pr59  1  0.50328571  0.51769818  0.62620809  1
  Pr3+  Pr60  1  0.16331589  0.82257093  0.37357179  1
  Pr3+  Pr61  1  0.66869777  0.98835235  0.37317492  1
  Pr3+  Pr62  1  0.66162647  0.34376472  0.62409312  1
  Pr3+  Pr63  1  0.49857088  0.48546035  0.37351491  1
  Pr3+  Pr64  1  0.83354977  0.82265547  0.37384640  1
  Pr3+  Pr65  1  0.49659122  0.82385588  0.87679364  1
  Pr3+  Pr66  1  0.33672582  0.31961337  0.37284177  1
  Pr3+  Pr67  1  0.83457294  0.50684690  0.12482001  1
  Pr3+  Pr68  1  0.49785579  0.82190743  0.37335402  1
  Pr3+  Pr69  1  0.33734695  0.65669096  0.87386025  1
  Pr3+  Pr70  1  0.16449959  0.48887149  0.87536014  1
  Pr3+  Pr71  1  0.49709593  0.15421976  0.87555557  1
  Mn3.30+  Mn72  1  0.16739622  -0.00069119  0.00062666  1
  Mn3.30+  Mn73  1  0.16525850  -0.00128766  0.49970508  1
  Mn3.30+  Mn74  1  0.16764949  0.33251193  -0.00014047  1
  Mn3.30+  Mn75  1  0.16657547  0.33184206  0.50010717  1
  Mn3.30+  Mn76  1  0.16839245  0.66886694  0.00145254  1
  Mn3.30+  Mn77  1  0.16942882  0.66793621  0.50006441  1
  Mn3.30+  Mn78  1  0.49921201  0.00246365  0.00187717  1
  Mn3.30+  Mn79  1  0.49962996  0.00105327  0.50075457  1
  Mn3.30+  Mn80  1  0.50282528  0.33381356  0.00200708  1
  Mn3.30+  Mn81  1  0.50106433  0.33211590  0.49899310  1
  Mn3.30+  Mn82  1  0.49771126  0.66603792  0.00213686  1
  Mn3.30+  Mn83  1  0.50145262  0.66826410  0.50153033  1
  Mn3.30+  Mn84  1  0.83300105  -0.00066439  0.00018834  1
  Mn3.30+  Mn85  1  0.83365804  -0.00150108  0.49947549  1
  Mn3.30+  Mn86  1  0.83251164  0.33059096  0.00083165  1
  Mn3.30+  Mn87  1  0.83086086  0.33206567  0.50018722  1
  Mn3.30+  Mn88  1  0.83295487  0.66631075  -0.00039322  1
  Mn3.30+  Mn89  1  0.83223361  0.66836792  0.50184147  1
  Mn3.30+  Mn90  1  -0.00114903  0.16453287  0.24991730  1
  Mn3.30+  Mn91  1  0.00013734  0.16455604  0.75231656  1
  Mn3.30+  Mn92  1  -0.00033144  0.49866882  0.24963525  1
  Mn3.30+  Mn93  1  -0.00019253  0.50076875  0.75018396  1
  Mn3.30+  Mn94  1  0.00198348  0.83359852  0.24808878  1
  Mn3.30+  Mn95  1  -0.00368812  0.83434534  0.75160068  1
  Mn3.30+  Mn96  1  0.33510911  0.16537180  0.24657459  1
  Mn3.30+  Mn97  1  0.33400161  0.16669106  0.75125698  1
  Mn3.30+  Mn98  1  0.33575641  0.50232232  0.24745667  1
  Mn3.30+  Mn99  1  0.33435604  0.50096426  0.74958345  1
  Mn3.30+  Mn100  1  0.33118488  0.83371018  0.24645325  1
  Mn3.30+  Mn101  1  0.33312341  0.83431882  0.75085461  1
  Mn3.30+  Mn102  1  0.66492882  0.16876329  0.24791656  1
  Mn3.30+  Mn103  1  0.66691613  0.16565653  0.75063814  1
  Mn3.30+  Mn104  1  0.66449152  0.49679081  0.24904265  1
  Mn3.30+  Mn105  1  0.66601048  0.50029087  0.74949718  1
  Mn3.30+  Mn106  1  0.66603185  0.83344001  0.24989632  1
  Mn3.30+  Mn107  1  0.66949524  0.83320186  0.74823550  1
  Mn3.30+  Mn108  1  0.16725141  -0.00130719  0.24707225  1
  Mn3.30+  Mn109  1  0.16588089  -0.00034863  0.75242346  1
  Mn3.30+  Mn110  1  0.16771452  0.33271286  0.24770183  1
  Mn3.30+  Mn111  1  0.16659123  0.33137601  0.75178420  1
  Mn3.30+  Mn112  1  0.16955703  0.66901678  0.24768180  1
  Mn3.30+  Mn113  1  0.16788343  0.66766263  0.75038178  1
  Mn3.30+  Mn114  1  0.49884473  0.00265556  0.24767965  1
  Mn3.30+  Mn115  1  0.50038725  0.00116905  0.74964476  1
  Mn3.30+  Mn116  1  0.50357437  0.33255758  0.24894387  1
  Mn3.30+  Mn117  1  0.50032477  0.33318495  0.74996743  1
  Mn3.30+  Mn118  1  0.49876834  0.66539881  0.24811842  1
  Mn3.30+  Mn119  1  0.50052372  0.66909757  0.74834341  1
  Mn3.30+  Mn120  1  0.83464950  -0.00089494  0.24991310  1
  Mn3.30+  Mn121  1  0.83219252  -0.00164623  0.75021861  1
  Mn3.30+  Mn122  1  0.82986551  0.33103731  0.24831291  1
  Mn3.30+  Mn123  1  0.83305177  0.33163292  0.75119917  1
  Mn3.30+  Mn124  1  0.83397275  0.66501996  0.25045105  1
  Mn3.30+  Mn125  1  0.83107147  0.66985157  0.74830430  1
  Mn3.30+  Mn126  1  -0.00082851  0.16472180  -0.00170572  1
  Mn3.30+  Mn127  1  -0.00004340  0.16437632  0.50012709  1
  Mn3.30+  Mn128  1  -0.00003955  0.49865167  -0.00009916  1
  Mn3.30+  Mn129  1  -0.00013744  0.50084003  0.50061825  1
  Mn3.30+  Mn130  1  -0.00055985  0.83273020  -0.00019948  1
  Mn3.30+  Mn131  1  -0.00085550  0.83526791  0.50038066  1
  Mn3.30+  Mn132  1  0.33557974  0.16522580  0.00164371  1
  Mn3.30+  Mn133  1  0.33345700  0.16646297  0.49993260  1
  Mn3.30+  Mn134  1  0.33575286  0.50256598  0.00192599  1
  Mn3.30+  Mn135  1  0.33444550  0.50078095  0.49999001  1
  Mn3.30+  Mn136  1  0.33164606  0.83504418  0.00263615  1
  Mn3.30+  Mn137  1  0.33270243  0.83288732  0.50029401  1
  Mn3.30+  Mn138  1  0.66613872  0.16676071  0.00246988  1
  Mn3.30+  Mn139  1  0.66582548  0.16742156  0.49965679  1
  Mn3.30+  Mn140  1  0.66431297  0.49755822  0.00120801  1
  Mn3.30+  Mn141  1  0.66596132  0.49980429  0.50037169  1
  Mn3.30+  Mn142  1  0.66675580  0.83388924  -0.00033776  1
  Mn3.30+  Mn143  1  0.66885830  0.83302397  0.50219622  1
  O2-  O144  1  0.02419046  0.15991460  0.12421024  1
  O2-  O145  1  0.02535885  0.15982288  0.62494950  1
  O2-  O146  1  0.02581809  0.49675259  0.12213553  1
  O2-  O147  1  0.02723024  0.49442154  0.62354109  1
  O2-  O148  1  0.02753970  0.82610119  0.12383749  1
  O2-  O149  1  0.01955975  0.83183844  0.62605522  1
  O2-  O150  1  0.36239761  0.15911247  0.12606357  1
  O2-  O151  1  0.35851565  0.16118016  0.62533619  1
  O2-  O152  1  0.36261439  0.49308276  0.12613543  1
  O2-  O153  1  0.35941998  0.49043724  0.62326408  1
  O2-  O154  1  0.36038854  0.82444125  0.12548866  1
  O2-  O155  1  0.35705755  0.82923631  0.62542567  1
  O2-  O156  1  0.68568088  0.16420588  0.12512674  1
  O2-  O157  1  0.69284108  0.16275159  0.62582878  1
  O2-  O158  1  0.69168103  0.49505647  0.12578893  1
  O2-  O159  1  0.69180085  0.49038084  0.62317662  1
  O2-  O160  1  0.68352060  0.82696079  0.12522818  1
  O2-  O161  1  0.69572485  0.82831262  0.62404323  1
  O2-  O162  1  0.14671734  0.32725203  0.12433129  1
  O2-  O163  1  0.13967578  0.32398560  0.62813215  1
  O2-  O164  1  0.13942054  0.65936072  0.12428960  1
  O2-  O165  1  0.14086507  0.66214771  0.62617930  1
  O2-  O166  1  0.13896457  0.99723250  0.12449738  1
  O2-  O167  1  0.14277718  1.00148895  0.62602215  1
  O2-  O168  1  0.47618849  0.32361350  0.12594718  1
  O2-  O169  1  0.47617458  0.32491930  0.62300263  1
  O2-  O170  1  0.47375882  0.65931171  0.12642642  1
  O2-  O171  1  0.47155879  0.66586794  0.62372669  1
  O2-  O172  1  0.47339176  0.99320093  0.12638814  1
  O2-  O173  1  0.47380030  0.99178582  0.62437213  1
  O2-  O174  1  0.80701458  0.33452216  0.12416783  1
  O2-  O175  1  0.80697527  0.32601686  0.62641742  1
  O2-  O176  1  0.80847436  0.65719687  0.12662744  1
  O2-  O177  1  0.80432347  0.65948357  0.62423428  1
  O2-  O178  1  0.81623481  0.99654427  0.12576968  1
  O2-  O179  1  0.80720514  0.99235747  0.62404798  1
  O2-  O180  1  0.30644304  0.17239709  0.37314023  1
  O2-  O181  1  0.30849709  0.17425261  0.87528630  1
  O2-  O182  1  0.30807204  0.50700218  0.37458737  1
  O2-  O183  1  0.30829896  0.50717723  0.87527396  1
  O2-  O184  1  0.30746147  0.83853162  0.37199502  1
  O2-  O185  1  0.30999097  0.83506100  0.87738126  1
  O2-  O186  1  0.64273380  0.16976683  0.37458997  1
  O2-  O187  1  0.64102910  0.16903367  0.87495770  1
  O2-  O188  1  0.64115640  0.50860926  0.37714899  1
  O2-  O189  1  0.64763904  0.50568686  0.87529780  1
  O2-  O190  1  0.64195269  0.83769962  0.37661628  1
  O2-  O191  1  0.64060904  0.83764119  0.87379909  1
  O2-  O192  1  0.97499763  0.17271431  0.37761198  1
  O2-  O193  1  0.97181377  0.16878343  0.87351857  1
  O2-  O194  1  0.97370974  0.50769695  0.37884695  1
  O2-  O195  1  0.97375454  0.50840442  0.87534750  1
  O2-  O196  1  0.97805366  0.83522511  0.37490650  1
  O2-  O197  1  0.97102154  0.83760986  0.87493612  1
  O2-  O198  1  0.19257638  0.00327160  0.37226260  1
  O2-  O199  1  0.18590524  0.00267525  0.87666313  1
  O2-  O200  1  0.19247617  0.33827113  0.37149432  1
  O2-  O201  1  0.19459695  0.34232426  0.87557025  1
  O2-  O202  1  0.19367590  0.67357527  0.37226626  1
  O2-  O203  1  0.19220532  0.67086655  0.87686146  1
  O2-  O204  1  0.52379993  0.00557274  0.37611002  1
  O2-  O205  1  0.52618508  0.00460353  0.87329480  1
  O2-  O206  1  0.52710697  0.33922014  0.37489393  1
  O2-  O207  1  0.52447641  0.33549041  0.87646415  1
  O2-  O208  1  0.52604691  0.67273780  0.37573350  1
  O2-  O209  1  0.52452608  0.67476301  0.87427447  1
  O2-  O210  1  0.85943261  0.00581143  0.37587617  1
  O2-  O211  1  0.85545470  0.00798515  0.87423132  1
  O2-  O212  1  0.85849261  0.33651495  0.37752300  1
  O2-  O213  1  0.85938072  0.34137440  0.87295677  1
  O2-  O214  1  0.85937898  0.67212583  0.37630726  1
  O2-  O215  1  0.85579446  0.67063786  0.87296057  1
  O2-  O216  1  0.23912921  0.09417764  0.01960636  1
  O2-  O217  1  0.23618255  0.09425219  0.51875743  1
  O2-  O218  1  0.24155109  0.43136028  0.02067542  1
  O2-  O219  1  0.23745773  0.42707130  0.52010718  1
  O2-  O220  1  0.23502332  0.76491280  0.01847445  1
  O2-  O221  1  0.24016476  0.76035495  0.51504566  1
  O2-  O222  1  0.56846208  0.09864375  0.01628750  1
  O2-  O223  1  0.57060165  0.09514353  0.52142792  1
  O2-  O224  1  0.57117528  0.42880199  0.02220615  1
  O2-  O225  1  0.56823838  0.42882084  0.52157320  1
  O2-  O226  1  0.56954247  0.75937590  0.02037825  1
  O2-  O227  1  0.57231020  0.76328579  0.51911410  1
  O2-  O228  1  0.90964868  0.08910234  0.01766914  1
  O2-  O229  1  0.90360399  0.09335262  0.52274445  1
  O2-  O230  1  0.90330178  0.42896781  0.01592813  1
  O2-  O231  1  0.90161896  0.42611326  0.52175855  1
  O2-  O232  1  0.90993965  0.75512439  0.01929915  1
  O2-  O233  1  0.90328356  0.76161298  0.52043177  1
  O2-  O234  1  0.26501612  0.25891511  0.22750453  1
  O2-  O235  1  0.26183024  0.26154330  0.72847247  1
  O2-  O236  1  0.26291619  0.59877710  0.22705667  1
  O2-  O237  1  0.26263893  0.59305078  0.72803352  1
  O2-  O238  1  0.26494523  0.93249967  0.22928531  1
  O2-  O239  1  0.26193195  0.92718708  0.73197713  1
  O2-  O240  1  0.59764462  0.26582628  0.23218920  1
  O2-  O241  1  0.59838350  0.26233422  0.73393257  1
  O2-  O242  1  0.59724974  0.59616781  0.23254489  1
  O2-  O243  1  0.59358134  0.59754828  0.72812417  1
  O2-  O244  1  0.58877254  0.92798281  0.23526103  1
  O2-  O245  1  0.59742956  0.92735434  0.72790674  1
  O2-  O246  1  0.92651803  0.26010801  0.23822323  1
  O2-  O247  1  0.93012111  0.26137595  0.72922359  1
  O2-  O248  1  0.92875731  0.59268255  0.23016340  1
  O2-  O249  1  0.92599406  0.59792933  0.72831604  1
  O2-  O250  1  0.93095439  0.92482271  0.23377957  1
  O2-  O251  1  0.92834665  0.93024913  0.73227937  1
  O2-  O252  1  0.09222563  0.23615307  0.26960182  1
  O2-  O253  1  0.09778922  0.23698997  0.77422527  1
  O2-  O254  1  0.09814708  0.57416025  0.27067477  1
  O2-  O255  1  0.09471524  0.57284592  0.77029363  1
  O2-  O256  1  0.09726142  0.90464426  0.26792609  1
  O2-  O257  1  0.09034301  0.90606881  0.77274657  1
  O2-  O258  1  0.42850765  0.24091544  0.27333532  1
  O2-  O259  1  0.42682196  0.24126781  0.77124600  1
  O2-  O260  1  0.42777079  0.57384225  0.27555535  1
  O2-  O261  1  0.42752449  0.57534426  0.76631894  1
  O2-  O262  1  0.42615986  0.90494944  0.27052415  1
  O2-  O263  1  0.43054548  0.90412164  0.76672333  1
  O2-  O264  1  0.76110221  0.23810437  0.27143909  1
  O2-  O265  1  0.76272037  0.23412629  0.77204140  1
  O2-  O266  1  0.76134811  0.57017997  0.27126451  1
  O2-  O267  1  0.76279154  0.57199707  0.76823395  1
  O2-  O268  1  0.76059986  0.90816130  0.27245660  1
  O2-  O269  1  0.76123149  0.90478405  0.77434986  1
  O2-  O270  1  0.07172935  0.06975217  0.47740189  1
  O2-  O271  1  0.07181464  0.07088618  0.98219096  1
  O2-  O272  1  0.07255314  0.40393910  0.47944323  1
  O2-  O273  1  0.07238062  0.40837190  0.97521661  1
  O2-  O274  1  0.07196496  0.73857085  0.48123636  1
  O2-  O275  1  0.07219935  0.73875534  0.97669518  1
  O2-  O276  1  0.40271812  0.07325864  0.47902674  1
  O2-  O277  1  0.40851325  0.07580380  0.97847979  1
  O2-  O278  1  0.40491200  0.40484063  0.47769278  1
  O2-  O279  1  0.40346061  0.40322184  0.98405258  1
  O2-  O280  1  0.40881294  0.74105059  0.47649046  1
  O2-  O281  1  0.40543373  0.74087531  0.97943496  1
  O2-  O282  1  0.73808346  0.07074372  0.48047246  1
  O2-  O283  1  0.73768097  0.07243957  0.98169082  1
  O2-  O284  1  0.73736165  0.40156506  0.47851224  1
  O2-  O285  1  0.74036966  0.40584299  0.97772066  1
  O2-  O286  1  0.74064743  0.74036190  0.47498519  1
  O2-  O287  1  0.73590254  0.73692261  0.98336757  1
  O2-  O288  1  0.09574214  0.23760814  0.47909165  1
  O2-  O289  1  0.09416099  0.23623381  0.97801016  1
  O2-  O290  1  0.09905505  0.57411090  0.47872201  1
  O2-  O291  1  0.09432574  0.57303738  0.97907279  1
  O2-  O292  1  0.09616568  0.90627401  0.48045402  1
  O2-  O293  1  0.09253399  0.90548557  0.97809993  1
  O2-  O294  1  0.42737989  0.24171954  0.47630047  1
  O2-  O295  1  0.42870668  0.24121432  0.97897065  1
  O2-  O296  1  0.43106536  0.57252288  0.47962813  1
  O2-  O297  1  0.42401945  0.57691619  0.97791679  1
  O2-  O298  1  0.42795330  0.90560410  0.47879492  1
  O2-  O299  1  0.42948134  0.90449246  0.98473934  1
  O2-  O300  1  0.76517963  0.23505386  0.48292999  1
  O2-  O301  1  0.76076254  0.23870391  0.97567977  1
  O2-  O302  1  0.76328454  0.57163049  0.47912735  1
  O2-  O303  1  0.76045782  0.57137059  0.98140660  1
  O2-  O304  1  0.76023467  0.90708659  0.47481717  1
  O2-  O305  1  0.76078175  0.90638430  0.97785458  1
  O2-  O306  1  0.07216230  0.06988986  0.27092257  1
  O2-  O307  1  0.06959337  0.07144650  0.76907993  1
  O2-  O308  1  0.07160961  0.40846326  0.27311606  1
  O2-  O309  1  0.07296385  0.40253609  0.77153483  1
  O2-  O310  1  0.07263775  0.73762443  0.27105367  1
  O2-  O311  1  0.06978461  0.74005111  0.77045839  1
  O2-  O312  1  0.40557683  0.07379545  0.27465515  1
  O2-  O313  1  0.40718899  0.07552222  0.76863853  1
  O2-  O314  1  0.40615795  0.40393115  0.27079120  1
  O2-  O315  1  0.40144508  0.40443423  0.76640692  1
  O2-  O316  1  0.40589165  0.74023201  0.27236564  1
  O2-  O317  1  0.40756880  0.74214127  0.77163175  1
  O2-  O318  1  0.73885112  0.07453658  0.27161174  1
  O2-  O319  1  0.73511102  0.06790635  0.76499631  1
  O2-  O320  1  0.73618782  0.40522649  0.27400109  1
  O2-  O321  1  0.73970847  0.40300167  0.76987706  1
  O2-  O322  1  0.74115575  0.73711338  0.26983828  1
  O2-  O323  1  0.73625693  0.73782221  0.77110301  1
  O2-  O324  1  0.23521604  0.09639539  0.23088442  1
  O2-  O325  1  0.24154368  0.09379606  0.73024351  1
  O2-  O326  1  0.24181664  0.43136836  0.22932608  1
  O2-  O327  1  0.23637736  0.42753104  0.72856969  1
  O2-  O328  1  0.23487636  0.76636925  0.22925131  1
  O2-  O329  1  0.24019006  0.75993097  0.73711984  1
  O2-  O330  1  0.56815800  0.09978759  0.23469987  1
  O2-  O331  1  0.57182353  0.09622105  0.72718384  1
  O2-  O332  1  0.56654529  0.43309133  0.23187645  1
  O2-  O333  1  0.57118734  0.42665652  0.72681689  1
  O2-  O334  1  0.56975073  0.75851908  0.23088375  1
  O2-  O335  1  0.57192733  0.76429616  0.72986646  1
  O2-  O336  1  0.90804962  0.09214095  0.23288677  1
  O2-  O337  1  0.90488218  0.09082349  0.72615358  1
  O2-  O338  1  0.89919831  0.42719070  0.23589406  1
  O2-  O339  1  0.90583238  0.42923141  0.72805812  1
  O2-  O340  1  0.90908337  0.75685401  0.23233067  1
  O2-  O341  1  0.90371893  0.76087368  0.72677758  1
  O2-  O342  1  0.26544947  0.25898848  0.02169333  1
  O2-  O343  1  0.26161351  0.26027592  0.52091836  1
  O2-  O344  1  0.26099348  0.59653010  0.02252491  1
  O2-  O345  1  0.26370035  0.59534753  0.52203019  1
  O2-  O346  1  0.26100841  0.92795387  0.02292537  1
  O2-  O347  1  0.26337377  0.93170091  0.51641846  1
  O2-  O348  1  0.59860513  0.26560216  0.01611098  1
  O2-  O349  1  0.59533948  0.26179191  0.51827345  1
  O2-  O350  1  0.59510201  0.59579659  0.01794522  1
  O2-  O351  1  0.59504210  0.59790584  0.52352307  1
  O2-  O352  1  0.59102185  0.92714975  0.01609200  1
  O2-  O353  1  0.59588503  0.92718594  0.52038583  1
  O2-  O354  1  0.92826538  0.26094025  0.01306781  1
  O2-  O355  1  0.92843430  0.26174150  0.52180621  1
  O2-  O356  1  0.92810640  0.59221770  0.01992802  1
  O2-  O357  1  0.92742404  0.59733011  0.52321979  1
  O2-  O358  1  0.93109210  0.92732691  0.01653144  1
  O2-  O359  1  0.92693742  0.92833386  0.51805872  1
