# generated using pymatgen
data_Sr7Ca15Pr50Mn72O216
_symmetry_space_group_name_H-M   'P 1'
_cell_length_a   16.56011508
_cell_length_b   16.60443828
_cell_length_c   15.59066237
_cell_angle_alpha   90.00659165
_cell_angle_beta   90.00598847
_cell_angle_gamma   90.00315468
_symmetry_Int_Tables_number   1
_chemical_formula_structural   Sr7Ca15Pr50Mn72O216
_chemical_formula_sum   'Sr7 Ca15 Pr50 Mn72 O216'
_cell_volume   4286.98633583
_cell_formula_units_Z   1
loop_
 _symmetry_equiv_pos_site_id
 _symmetry_equiv_pos_as_xyz
  1  'x, y, z'
loop_
 _atom_type_symbol
 _atom_type_oxidation_number
  Sr2+  2.0
  Ca2+  2.0
  Pr3+  3.0
  Mn3.30+  3.3
  O2-  -2.0
loop_
 _atom_site_type_symbol
 _atom_site_label
 _atom_site_symmetry_multiplicity
 _atom_site_fract_x
 _atom_site_fract_y
 _atom_site_fract_z
 _atom_site_occupancy
  Sr2+  Sr0  1  0.66763435  0.34349915  0.62588159  1
  Sr2+  Sr1  1  0.66548666  0.65668441  0.37726042  1
  Sr2+  Sr2  1  0.66797621  0.67223296  0.62471898  1
  Sr2+  Sr3  1  0.16456885  0.48751809  0.37227918  1
  Sr2+  Sr4  1  0.66698928  0.34429589  0.12441652  1
  Sr2+  Sr5  1  0.66935467  0.65691570  0.87304050  1
  Sr2+  Sr6  1  0.16651734  0.17751100  0.62785811  1
  Ca2+  Ca7  1  1.00401412  0.31487700  0.87702577  1
  Ca2+  Ca8  1  -0.00063968  0.67863829  0.12654911  1
  Ca2+  Ca9  1  1.00472190  0.32030027  0.37327171  1
  Ca2+  Ca10  1  0.33775857  0.65065530  0.37501811  1
  Ca2+  Ca11  1  0.67195877  0.98627918  0.87373370  1
  Ca2+  Ca12  1  0.50577474  0.84590908  0.12752774  1
  Ca2+  Ca13  1  0.16702632  0.51369455  0.12611442  1
  Ca2+  Ca14  1  0.83271861  0.51381911  0.62470009  1
  Ca2+  Ca15  1  0.16172244  0.15274972  0.87614738  1
  Ca2+  Ca16  1  0.49450835  0.81270686  0.37595783  1
  Ca2+  Ca17  1  0.66392547  0.01404464  0.62739858  1
  Ca2+  Ca18  1  0.33004601  0.68031954  0.62157771  1
  Ca2+  Ca19  1  0.16680050  0.18157459  0.12226519  1
  Ca2+  Ca20  1  -0.00142979  0.34660348  0.12638090  1
  Ca2+  Ca21  1  0.82856317  0.15068462  0.87503679  1
  Pr3+  Pr22  1  0.82779093  0.82218001  0.87515724  1
  Pr3+  Pr23  1  0.83178221  0.48861758  0.37619812  1
  Pr3+  Pr24  1  1.00498336  0.65177765  0.37206454  1
  Pr3+  Pr25  1  0.50570660  0.84464536  0.62280240  1
  Pr3+  Pr26  1  1.00406983  0.98834092  0.37474726  1
  Pr3+  Pr27  1  0.49737482  0.15568546  0.37426729  1
  Pr3+  Pr28  1  0.66139164  0.68000763  0.12538098  1
  Pr3+  Pr29  1  1.00081333  0.98966622  0.87526513  1
  Pr3+  Pr30  1  0.83222045  0.84544428  0.62381265  1
  Pr3+  Pr31  1  0.33053145  0.01367607  0.12467901  1
  Pr3+  Pr32  1  0.50316442  0.51193597  0.12473127  1
  Pr3+  Pr33  1  0.16440237  0.82035586  0.87596483  1
  Pr3+  Pr34  1  0.50330453  0.18070467  0.12399544  1
  Pr3+  Pr35  1  0.49566687  0.49158361  0.37560341  1
  Pr3+  Pr36  1  0.17196204  0.84421908  0.62463198  1
  Pr3+  Pr37  1  0.17012253  0.51352619  0.62439074  1
  Pr3+  Pr38  1  0.67281905  0.31989094  0.87516782  1
  Pr3+  Pr39  1  0.50440645  0.17887420  0.62601703  1
  Pr3+  Pr40  1  0.16715911  0.81804861  0.37424539  1
  Pr3+  Pr41  1  0.50142803  0.51283598  0.62541481  1
  Pr3+  Pr42  1  0.15874905  0.48397991  0.87772285  1
  Pr3+  Pr43  1  0.83640250  0.17973760  0.62712298  1
  Pr3+  Pr44  1  0.16359802  0.15779770  0.37433724  1
  Pr3+  Pr45  1  0.83063790  0.81900213  0.37465576  1
  Pr3+  Pr46  1  0.33222397  0.67933690  0.12695288  1
  Pr3+  Pr47  1  0.33960296  0.98549257  0.37620443  1
  Pr3+  Pr48  1  0.50152650  0.82170970  0.87520385  1
  Pr3+  Pr49  1  -0.00540650  0.34882610  0.62526007  1
  Pr3+  Pr50  1  0.83885243  0.18401523  0.12271599  1
  Pr3+  Pr51  1  -0.00389142  0.67746492  0.62332765  1
  Pr3+  Pr52  1  0.66312675  0.01189698  0.12340302  1
  Pr3+  Pr53  1  0.33274721  0.32225321  0.37417666  1
  Pr3+  Pr54  1  0.83232607  0.15815054  0.37457639  1
  Pr3+  Pr55  1  0.83506956  0.84503761  0.12573630  1
  Pr3+  Pr56  1  -0.00263291  0.01491684  0.62605444  1
  Pr3+  Pr57  1  0.83187532  0.48843548  0.87360353  1
  Pr3+  Pr58  1  0.33643616  0.65417196  0.87468315  1
  Pr3+  Pr59  1  0.16858802  0.84337225  0.12556044  1
  Pr3+  Pr60  1  0.50065285  0.48862582  0.87406068  1
  Pr3+  Pr61  1  0.33201506  0.31858243  0.87555087  1
  Pr3+  Pr62  1  1.00321911  0.65413019  0.87794339  1
  Pr3+  Pr63  1  -0.00253146  0.01487206  0.12414337  1
  Pr3+  Pr64  1  0.32689062  0.34440047  0.62581311  1
  Pr3+  Pr65  1  0.32551886  0.34725768  0.12367533  1
  Pr3+  Pr66  1  0.66851398  0.32450287  0.37478520  1
  Pr3+  Pr67  1  0.50033531  0.15281711  0.87568897  1
  Pr3+  Pr68  1  0.83690274  0.51391802  0.12510322  1
  Pr3+  Pr69  1  0.66790805  0.98636489  0.37675202  1
  Pr3+  Pr70  1  0.33109816  0.01263269  0.62520989  1
  Pr3+  Pr71  1  0.33464765  0.98901496  0.87354045  1
  Mn3.30+  Mn72  1  0.16595335  0.00170205  0.00073054  1
  Mn3.30+  Mn73  1  0.16845313  0.00025361  0.49942006  1
  Mn3.30+  Mn74  1  0.16136002  0.33152410  0.00155048  1
  Mn3.30+  Mn75  1  0.16339728  0.33373466  0.49972332  1
  Mn3.30+  Mn76  1  0.16677105  0.66502974  0.00308886  1
  Mn3.30+  Mn77  1  0.16920176  0.66527068  0.49839392  1
  Mn3.30+  Mn78  1  0.50088997  -0.00240398  -0.00014480  1
  Mn3.30+  Mn79  1  0.50221471  -0.00115567  0.50059126  1
  Mn3.30+  Mn80  1  0.49964912  0.33351633  -0.00098249  1
  Mn3.30+  Mn81  1  0.49903328  0.33376781  0.50093862  1
  Mn3.30+  Mn82  1  0.50015542  0.66732272  -0.00081980  1
  Mn3.30+  Mn83  1  0.49618008  0.66622600  0.50072034  1
  Mn3.30+  Mn84  1  0.83153259  0.00182905  -0.00083266  1
  Mn3.30+  Mn85  1  0.83254460  0.00136507  0.50005589  1
  Mn3.30+  Mn86  1  0.83847434  0.33388764  -0.00133946  1
  Mn3.30+  Mn87  1  0.83504776  0.33565325  0.50014015  1
  Mn3.30+  Mn88  1  0.83439288  0.66737699  0.00155376  1
  Mn3.30+  Mn89  1  0.83362406  0.66521893  0.49974074  1
  Mn3.30+  Mn90  1  0.00152848  0.16997040  0.24814396  1
  Mn3.30+  Mn91  1  -0.00081364  0.16817020  0.75433517  1
  Mn3.30+  Mn92  1  0.00195082  0.49767474  0.24727195  1
  Mn3.30+  Mn93  1  -0.00140400  0.49992982  0.75046171  1
  Mn3.30+  Mn94  1  0.00064319  0.83263599  0.24930870  1
  Mn3.30+  Mn95  1  -0.00022521  0.83365211  0.74966601  1
  Mn3.30+  Mn96  1  0.33079943  0.16753004  0.24781188  1
  Mn3.30+  Mn97  1  0.33193638  0.16603350  0.75199072  1
  Mn3.30+  Mn98  1  0.33070948  0.50039613  0.24914089  1
  Mn3.30+  Mn99  1  0.33107191  0.50005508  0.75106398  1
  Mn3.30+  Mn100  1  0.33788670  0.83261391  0.24972622  1
  Mn3.30+  Mn101  1  0.33509231  0.83176832  0.74933416  1
  Mn3.30+  Mn102  1  0.66686980  0.16741367  0.24975794  1
  Mn3.30+  Mn103  1  0.66889774  0.16428173  0.75074620  1
  Mn3.30+  Mn104  1  0.66690238  0.50041981  0.25050154  1
  Mn3.30+  Mn105  1  0.66781413  0.49994605  0.74841156  1
  Mn3.30+  Mn106  1  0.66395813  0.83246940  0.25248132  1
  Mn3.30+  Mn107  1  0.66711747  0.83434193  0.74778758  1
  Mn3.30+  Mn108  1  0.16809329  0.00125447  0.24923773  1
  Mn3.30+  Mn109  1  0.16628841  0.00057396  0.75126719  1
  Mn3.30+  Mn110  1  0.16276429  0.33373182  0.24702536  1
  Mn3.30+  Mn111  1  0.16239643  0.33153992  0.75200355  1
  Mn3.30+  Mn112  1  0.16796660  0.66434730  0.24871366  1
  Mn3.30+  Mn113  1  0.16778119  0.66606899  0.74957966  1
  Mn3.30+  Mn114  1  0.49974132  -0.00290670  0.24942859  1
  Mn3.30+  Mn115  1  0.50388776  -0.00114835  0.75096374  1
  Mn3.30+  Mn116  1  0.49898085  0.33447146  0.24903610  1
  Mn3.30+  Mn117  1  0.49971981  0.33266745  0.75091534  1
  Mn3.30+  Mn118  1  0.49816112  0.66706996  0.25152018  1
  Mn3.30+  Mn119  1  0.49898346  0.66708156  0.74863845  1
  Mn3.30+  Mn120  1  0.83321956  0.00148648  0.25058424  1
  Mn3.30+  Mn121  1  0.83033486  0.00151778  0.74933945  1
  Mn3.30+  Mn122  1  0.83723912  0.33534662  0.24993483  1
  Mn3.30+  Mn123  1  0.83601804  0.33349024  0.75207906  1
  Mn3.30+  Mn124  1  0.83384714  0.66643793  0.24951992  1
  Mn3.30+  Mn125  1  0.83459865  0.66660171  0.74905305  1
  Mn3.30+  Mn126  1  0.00107407  0.16908930  -0.00144915  1
  Mn3.30+  Mn127  1  0.00009919  0.16934075  0.49993194  1
  Mn3.30+  Mn128  1  0.00048811  0.49819624  0.00329588  1
  Mn3.30+  Mn129  1  0.00023420  0.49914224  0.49893478  1
  Mn3.30+  Mn130  1  -0.00081855  0.83297972  0.00127355  1
  Mn3.30+  Mn131  1  0.00145191  0.83344848  0.49926005  1
  Mn3.30+  Mn132  1  0.33011006  0.16636813  -0.00058490  1
  Mn3.30+  Mn133  1  0.33230480  0.16699688  0.50046458  1
  Mn3.30+  Mn134  1  0.33014909  0.49993411  -0.00028644  1
  Mn3.30+  Mn135  1  0.33155165  0.50091600  0.49973772  1
  Mn3.30+  Mn136  1  0.33579776  0.83429776  0.00173598  1
  Mn3.30+  Mn137  1  0.33665361  0.82983118  0.49909862  1
  Mn3.30+  Mn138  1  0.66939353  0.16581743  -0.00102440  1
  Mn3.30+  Mn139  1  0.66668267  0.16668928  0.50078797  1
  Mn3.30+  Mn140  1  0.66829454  0.50006423  -0.00057379  1
  Mn3.30+  Mn141  1  0.66601381  0.50011027  0.50152519  1
  Mn3.30+  Mn142  1  0.66610821  0.83445568  0.00053694  1
  Mn3.30+  Mn143  1  0.66460572  0.83196264  0.49938202  1
  O2-  O144  1  0.02587884  0.15844638  0.12356776  1
  O2-  O145  1  0.01746798  0.16183747  0.62618684  1
  O2-  O146  1  0.02674123  0.48942300  0.12458988  1
  O2-  O147  1  0.02617348  0.49753405  0.62539245  1
  O2-  O148  1  0.02445187  0.82893505  0.12607891  1
  O2-  O149  1  0.02799974  0.82724732  0.62363203  1
  O2-  O150  1  0.36010529  0.16239674  0.12314398  1
  O2-  O151  1  0.35930014  0.16300014  0.62760081  1
  O2-  O152  1  0.35900830  0.49352144  0.12294502  1
  O2-  O153  1  0.35728051  0.48956730  0.62860278  1
  O2-  O154  1  0.36396119  0.82763306  0.12526260  1
  O2-  O155  1  0.36040447  0.82644236  0.62323063  1
  O2-  O156  1  0.69284747  0.16034483  0.12414278  1
  O2-  O157  1  0.69202517  0.16053723  0.62481194  1
  O2-  O158  1  0.69054023  0.49999255  0.12486548  1
  O2-  O159  1  0.68989145  0.49794618  0.62567532  1
  O2-  O160  1  0.69075798  0.82899147  0.12800946  1
  O2-  O161  1  0.68872139  0.82787002  0.62278186  1
  O2-  O162  1  0.13885483  0.32256790  0.12313966  1
  O2-  O163  1  0.14023162  0.33310959  0.62860308  1
  O2-  O164  1  0.14213642  0.66509484  0.12437757  1
  O2-  O165  1  0.14005769  0.66314220  0.62433149  1
  O2-  O166  1  0.14097878  0.98997565  0.12568664  1
  O2-  O167  1  0.14245263  0.99209251  0.62520929  1
  O2-  O168  1  0.47216117  0.32866478  0.12178897  1
  O2-  O169  1  0.47137295  0.32570986  0.62610860  1
  O2-  O170  1  0.47579323  0.65946936  0.12359787  1
  O2-  O171  1  0.47071671  0.66142744  0.62602022  1
  O2-  O172  1  0.47364473  0.99073114  0.12458764  1
  O2-  O173  1  0.47379996  0.99393791  0.62538033  1
  O2-  O174  1  0.81462930  0.33081787  0.12413067  1
  O2-  O175  1  0.81621320  0.32594899  0.62600659  1
  O2-  O176  1  0.80594767  0.66298723  0.12686094  1
  O2-  O177  1  0.81909921  0.66221819  0.62433314  1
  O2-  O178  1  0.80734803  0.99442486  0.12638908  1
  O2-  O179  1  0.80632793  0.99482619  0.62255742  1
  O2-  O180  1  0.30852947  0.17189991  0.37289944  1
  O2-  O181  1  0.30534794  0.16888963  0.87608107  1
  O2-  O182  1  0.31464124  0.50342170  0.37251685  1
  O2-  O183  1  0.30303030  0.50725869  0.87522271  1
  O2-  O184  1  0.30887576  0.84083322  0.37427704  1
  O2-  O185  1  0.30761778  0.83982895  0.87713704  1
  O2-  O186  1  0.64172038  0.17395351  0.37501679  1
  O2-  O187  1  0.64307275  0.17300602  0.87586745  1
  O2-  O188  1  0.64169178  0.49813644  0.37530392  1
  O2-  O189  1  0.64548468  0.50058649  0.87401512  1
  O2-  O190  1  0.63852404  0.83929417  0.37570721  1
  O2-  O191  1  0.64562526  0.84047703  0.87333703  1
  O2-  O192  1  0.97572931  0.17282549  0.37465539  1
  O2-  O193  1  0.97017382  0.16879796  0.87624734  1
  O2-  O194  1  0.97568391  0.50665171  0.37286366  1
  O2-  O195  1  0.97588132  0.50970136  0.87678120  1
  O2-  O196  1  0.97543039  0.83975609  0.37461065  1
  O2-  O197  1  0.97329745  0.83924419  0.87551193  1
  O2-  O198  1  0.19402113  0.00837597  0.37275253  1
  O2-  O199  1  0.19015054  0.00383339  0.87692551  1
  O2-  O200  1  0.18964551  0.33197323  0.37221051  1
  O2-  O201  1  0.19024934  0.34029341  0.87592014  1
  O2-  O202  1  0.19461093  0.67078309  0.37355716  1
  O2-  O203  1  0.19217508  0.67183903  0.87701560  1
  O2-  O204  1  0.52487805  0.01043671  0.37501688  1
  O2-  O205  1  0.52971596  0.00484016  0.87537944  1
  O2-  O206  1  0.52321887  0.33984580  0.37652951  1
  O2-  O207  1  0.52647147  0.33897780  0.87562670  1
  O2-  O208  1  0.51641450  0.66339216  0.37513236  1
  O2-  O209  1  0.51961529  0.67246210  0.87497234  1
  O2-  O210  1  0.86118897  0.00823038  0.37489113  1
  O2-  O211  1  0.85754333  0.00201026  0.87576523  1
  O2-  O212  1  0.86175788  0.33985482  0.37555128  1
  O2-  O213  1  0.86358177  0.34335950  0.87502177  1
  O2-  O214  1  0.86056898  0.67090404  0.37297112  1
  O2-  O215  1  0.85944801  0.67457274  0.87577127  1
  O2-  O216  1  0.23883257  0.09268933  0.02423198  1
  O2-  O217  1  0.24207889  0.09223594  0.51938903  1
  O2-  O218  1  0.23269677  0.42804930  0.02106151  1
  O2-  O219  1  0.23881926  0.42747915  0.52022479  1
  O2-  O220  1  0.24159239  0.76234190  0.02151508  1
  O2-  O221  1  0.23596654  0.76328317  0.51763479  1
  O2-  O222  1  0.56885415  0.09203039  0.02220804  1
  O2-  O223  1  0.56958239  0.09580917  0.51850246  1
  O2-  O224  1  0.56964471  0.42942827  0.01579254  1
  O2-  O225  1  0.56775389  0.42730078  0.51910559  1
  O2-  O226  1  0.57124351  0.76237097  0.01991013  1
  O2-  O227  1  0.56593912  0.75880219  0.51630805  1
  O2-  O228  1  0.90481844  0.09498989  0.02209542  1
  O2-  O229  1  0.90429414  0.09548948  0.51973270  1
  O2-  O230  1  0.90293179  0.43301314  0.01787776  1
  O2-  O231  1  0.90354825  0.43169139  0.52217021  1
  O2-  O232  1  0.90430676  0.76297024  0.01993709  1
  O2-  O233  1  0.90784789  0.76211142  0.51875536  1
  O2-  O234  1  0.26196316  0.26411746  0.23081902  1
  O2-  O235  1  0.26164620  0.26504300  0.73469985  1
  O2-  O236  1  0.26141822  0.59358555  0.22712196  1
  O2-  O237  1  0.26188639  0.59656631  0.72711681  1
  O2-  O238  1  0.26541856  0.92730988  0.22920503  1
  O2-  O239  1  0.26414026  0.92445666  0.72933204  1
  O2-  O240  1  0.59048466  0.25904712  0.23224197  1
  O2-  O241  1  0.59341442  0.25670587  0.73320180  1
  O2-  O242  1  0.59230814  0.59445291  0.22939543  1
  O2-  O243  1  0.58627608  0.59116276  0.73217440  1
  O2-  O244  1  0.59773293  0.93058132  0.23248674  1
  O2-  O245  1  0.59454772  0.92762681  0.72553310  1
  O2-  O246  1  0.92895053  0.26142870  0.22764912  1
  O2-  O247  1  0.92911091  0.26164876  0.73048449  1
  O2-  O248  1  0.92926945  0.59526532  0.22699133  1
  O2-  O249  1  0.93441557  0.59961581  0.73595994  1
  O2-  O250  1  0.92741714  0.92970042  0.23013676  1
  O2-  O251  1  0.92664706  0.92973835  0.72768765  1
  O2-  O252  1  0.09648064  0.23637540  0.26880388  1
  O2-  O253  1  0.09449571  0.23575973  0.77334939  1
  O2-  O254  1  0.09072785  0.57305459  0.26747678  1
  O2-  O255  1  0.09691443  0.57073550  0.76984242  1
  O2-  O256  1  0.09639322  0.90640062  0.27153049  1
  O2-  O257  1  0.09333682  0.90458729  0.77157418  1
  O2-  O258  1  0.42637357  0.23895203  0.26950726  1
  O2-  O259  1  0.42724768  0.23827628  0.77350080  1
  O2-  O260  1  0.42916486  0.56951031  0.26294129  1
  O2-  O261  1  0.42407298  0.57113114  0.77277546  1
  O2-  O262  1  0.43035587  0.90397645  0.27572004  1
  O2-  O263  1  0.43055516  0.90655347  0.77145506  1
  O2-  O264  1  0.76393580  0.24253049  0.26977590  1
  O2-  O265  1  0.76282663  0.23692136  0.77116212  1
  O2-  O266  1  0.76378071  0.57145711  0.26859860  1
  O2-  O267  1  0.76598692  0.57437007  0.76665349  1
  O2-  O268  1  0.76039803  0.90544834  0.27270651  1
  O2-  O269  1  0.76460994  0.90429121  0.76531780  1
  O2-  O270  1  0.07056956  0.07380051  0.48016500  1
  O2-  O271  1  0.06676353  0.07049907  0.98166334  1
  O2-  O272  1  0.06646543  0.40212826  0.48346763  1
  O2-  O273  1  0.06919005  0.40294414  0.97621889  1
  O2-  O274  1  0.07463754  0.73725603  0.47711067  1
  O2-  O275  1  0.07603674  0.74028194  0.97905092  1
  O2-  O276  1  0.40688862  0.07099911  0.48102939  1
  O2-  O277  1  0.40638488  0.07072081  0.97897376  1
  O2-  O278  1  0.40383711  0.40449370  0.48055584  1
  O2-  O279  1  0.40234439  0.40686029  0.97666810  1
  O2-  O280  1  0.40090279  0.73504831  0.47854441  1
  O2-  O281  1  0.40481442  0.73948125  0.97914961  1
  O2-  O282  1  0.74145765  0.07475911  0.47492554  1
  O2-  O283  1  0.73635015  0.06818992  0.98117119  1
  O2-  O284  1  0.74071196  0.40602691  0.47812973  1
  O2-  O285  1  0.74209874  0.40499206  0.97848960  1
  O2-  O286  1  0.74566906  0.74258502  0.48055131  1
  O2-  O287  1  0.73892865  0.74244247  0.98406119  1
  O2-  O288  1  0.09453104  0.23776670  0.48156698  1
  O2-  O289  1  0.09671101  0.23444524  0.97687702  1
  O2-  O290  1  0.09416800  0.57261522  0.48179881  1
  O2-  O291  1  0.09314476  0.57091234  0.98005472  1
  O2-  O292  1  0.09622108  0.90544860  0.47759584  1
  O2-  O293  1  0.09390327  0.90567296  0.98003123  1
  O2-  O294  1  0.42679027  0.23928732  0.47853710  1
  O2-  O295  1  0.42665979  0.23843928  0.97754222  1
  O2-  O296  1  0.42723452  0.56842093  0.48552013  1
  O2-  O297  1  0.42796447  0.57299116  0.97864953  1
  O2-  O298  1  0.43155384  0.90344370  0.47886696  1
  O2-  O299  1  0.42693055  0.90781917  0.97411115  1
  O2-  O300  1  0.76122979  0.24186652  0.47922630  1
  O2-  O301  1  0.76717190  0.23998761  0.97900922  1
  O2-  O302  1  0.76287625  0.57306703  0.48251568  1
  O2-  O303  1  0.76555825  0.57161559  0.98278608  1
  O2-  O304  1  0.76415201  0.90828125  0.47683394  1
  O2-  O305  1  0.76326310  0.90426669  0.98462209  1
  O2-  O306  1  0.07013379  0.07303173  0.27086950  1
  O2-  O307  1  0.06693221  0.07181394  0.76768457  1
  O2-  O308  1  0.06798024  0.40109404  0.26860384  1
  O2-  O309  1  0.06801471  0.40395407  0.77205838  1
  O2-  O310  1  0.07680478  0.74020489  0.27145310  1
  O2-  O311  1  0.07315344  0.73742480  0.77175202  1
  O2-  O312  1  0.40465069  0.07059206  0.26839665  1
  O2-  O313  1  0.40956073  0.07069546  0.77186240  1
  O2-  O314  1  0.40342001  0.40560895  0.26867566  1
  O2-  O315  1  0.40238727  0.40549481  0.77392718  1
  O2-  O316  1  0.40166901  0.73438943  0.26873384  1
  O2-  O317  1  0.40565912  0.74127442  0.77297721  1
  O2-  O318  1  0.73896559  0.07269486  0.27203843  1
  O2-  O319  1  0.73700074  0.06950081  0.77035060  1
  O2-  O320  1  0.74140525  0.40622325  0.27155125  1
  O2-  O321  1  0.74284210  0.40330685  0.77208068  1
  O2-  O322  1  0.73977494  0.74154090  0.26897130  1
  O2-  O323  1  0.74420540  0.74371004  0.76711942  1
  O2-  O324  1  0.23775583  0.09618838  0.22583769  1
  O2-  O325  1  0.24496257  0.08911377  0.73145504  1
  O2-  O326  1  0.23644375  0.42604933  0.22540661  1
  O2-  O327  1  0.23616451  0.42936180  0.73184052  1
  O2-  O328  1  0.24111640  0.76341991  0.22862056  1
  O2-  O329  1  0.23571860  0.76172688  0.73294527  1
  O2-  O330  1  0.56886515  0.09219805  0.22788445  1
  O2-  O331  1  0.57007699  0.09549636  0.73111449  1
  O2-  O332  1  0.56948296  0.42878396  0.23210331  1
  O2-  O333  1  0.56667257  0.42623770  0.73296865  1
  O2-  O334  1  0.57138569  0.75993114  0.22929324  1
  O2-  O335  1  0.57047695  0.76393733  0.73407967  1
  O2-  O336  1  0.90601882  0.09786390  0.22912504  1
  O2-  O337  1  0.90349713  0.09341134  0.72963718  1
  O2-  O338  1  0.90279270  0.43241560  0.23218937  1
  O2-  O339  1  0.90493618  0.43320541  0.72773424  1
  O2-  O340  1  0.90401196  0.76220326  0.23219501  1
  O2-  O341  1  0.90708307  0.76334644  0.72825053  1
  O2-  O342  1  0.26128784  0.26494177  0.01724373  1
  O2-  O343  1  0.26131408  0.26403616  0.51662818  1
  O2-  O344  1  0.26358703  0.59672815  0.01964742  1
  O2-  O345  1  0.26008827  0.59377481  0.52407698  1
  O2-  O346  1  0.26265088  0.92643161  0.02192521  1
  O2-  O347  1  0.26557913  0.92571880  0.51981752  1
  O2-  O348  1  0.59261977  0.25738850  0.01725269  1
  O2-  O349  1  0.59075870  0.25934123  0.51829535  1
  O2-  O350  1  0.59295412  0.59439407  0.01967474  1
  O2-  O351  1  0.58736575  0.59079961  0.51907131  1
  O2-  O352  1  0.59467675  0.92674025  0.02094106  1
  O2-  O353  1  0.59612633  0.93168369  0.52100365  1
  O2-  O354  1  0.93182925  0.26243624  0.02332589  1
  O2-  O355  1  0.92689591  0.26088180  0.52065432  1
  O2-  O356  1  0.93154772  0.59589106  0.02326866  1
  O2-  O357  1  0.93246889  0.59677524  0.51361298  1
  O2-  O358  1  0.92618960  0.93002421  0.02129540  1
  O2-  O359  1  0.92760521  0.92993879  0.52071441  1
