# generated using pymatgen
data_Sr7Ca15Pr50Mn72O216
_symmetry_space_group_name_H-M   'P 1'
_cell_length_a   16.55837558
_cell_length_b   16.60475803
_cell_length_c   15.59395351
_cell_angle_alpha   90.00043709
_cell_angle_beta   90.00481144
_cell_angle_gamma   89.99517861
_symmetry_Int_Tables_number   1
_chemical_formula_structural   Sr7Ca15Pr50Mn72O216
_chemical_formula_sum   'Sr7 Ca15 Pr50 Mn72 O216'
_cell_volume   4287.52348764
_cell_formula_units_Z   1
loop_
 _symmetry_equiv_pos_site_id
 _symmetry_equiv_pos_as_xyz
  1  'x, y, z'
loop_
 _atom_type_symbol
 _atom_type_oxidation_number
  Sr2+  2.0
  Ca2+  2.0
  Pr3+  3.0
  Mn3.30+  3.3
  O2-  -2.0
loop_
 _atom_site_type_symbol
 _atom_site_label
 _atom_site_symmetry_multiplicity
 _atom_site_fract_x
 _atom_site_fract_y
 _atom_site_fract_z
 _atom_site_occupancy
  Sr2+  Sr0  1  0.66518327  0.34306557  0.62602146  1
  Sr2+  Sr1  1  0.16830481  0.50939436  0.62460072  1
  Sr2+  Sr2  1  1.00005882  0.99053649  0.87758441  1
  Sr2+  Sr3  1  0.83691976  0.84374618  0.62708595  1
  Sr2+  Sr4  1  0.66827937  0.32316749  0.87750652  1
  Sr2+  Sr5  1  0.32975003  0.34299109  0.62459376  1
  Sr2+  Sr6  1  0.17035035  0.84412322  0.62530997  1
  Ca2+  Ca7  1  0.49642680  0.82012237  0.37374482  1
  Ca2+  Ca8  1  1.00356266  0.31574930  0.37275938  1
  Ca2+  Ca9  1  0.16975148  0.51504047  0.12619923  1
  Ca2+  Ca10  1  0.66494716  0.01487281  0.12426863  1
  Ca2+  Ca11  1  0.16654459  0.17775706  0.12412513  1
  Ca2+  Ca12  1  0.33707503  0.98338344  0.87444673  1
  Ca2+  Ca13  1  0.32839655  0.01101403  0.62751177  1
  Ca2+  Ca14  1  0.16464386  0.81982743  0.37330947  1
  Ca2+  Ca15  1  0.83309478  0.82050653  0.87466343  1
  Ca2+  Ca16  1  1.00274650  0.65536120  0.87449713  1
  Ca2+  Ca17  1  0.16895905  0.84795337  0.12313978  1
  Ca2+  Ca18  1  0.49620923  0.82020657  0.87636318  1
  Ca2+  Ca19  1  0.83496969  0.17914525  0.12312341  1
  Ca2+  Ca20  1  -0.00106081  0.01492322  0.12360103  1
  Ca2+  Ca21  1  0.66475528  0.34557057  0.12436808  1
  Pr3+  Pr22  1  0.83328497  0.82123180  0.37479966  1
  Pr3+  Pr23  1  1.00544784  0.65692864  0.37502357  1
  Pr3+  Pr24  1  0.83295746  0.15367100  0.37172168  1
  Pr3+  Pr25  1  0.82920336  0.15479733  0.87823407  1
  Pr3+  Pr26  1  0.32609306  0.34735842  0.12605452  1
  Pr3+  Pr27  1  0.33590603  0.65570862  0.87454895  1
  Pr3+  Pr28  1  0.33554905  0.98429379  0.37477586  1
  Pr3+  Pr29  1  -0.00436691  0.34564158  0.62409425  1
  Pr3+  Pr30  1  0.83711020  0.51243145  0.62680806  1
  Pr3+  Pr31  1  0.49665188  0.48622555  0.87545165  1
  Pr3+  Pr32  1  0.50482635  0.85019188  0.12381848  1
  Pr3+  Pr33  1  0.50517223  0.17962372  0.12519470  1
  Pr3+  Pr34  1  0.66941863  0.65514442  0.37435625  1
  Pr3+  Pr35  1  0.50011502  0.17849402  0.62471673  1
  Pr3+  Pr36  1  0.16288604  0.48904305  0.87600921  1
  Pr3+  Pr37  1  1.00164285  0.31981436  0.87705201  1
  Pr3+  Pr38  1  0.49662454  0.15427491  0.37511191  1
  Pr3+  Pr39  1  0.32872278  0.67907864  0.62576327  1
  Pr3+  Pr40  1  0.16414185  0.15169849  0.87752628  1
  Pr3+  Pr41  1  0.33259580  0.65777481  0.37555446  1
  Pr3+  Pr42  1  0.83234780  0.48615340  0.37344520  1
  Pr3+  Pr43  1  -0.00125185  0.34298385  0.12610607  1
  Pr3+  Pr44  1  0.33371848  0.31975145  0.37647371  1
  Pr3+  Pr45  1  0.66547880  0.01179720  0.62562010  1
  Pr3+  Pr46  1  0.50245282  0.51255506  0.62460162  1
  Pr3+  Pr47  1  0.33622501  0.32007139  0.87374721  1
  Pr3+  Pr48  1  0.83137107  0.48816773  0.87676838  1
  Pr3+  Pr49  1  1.00641725  0.98430497  0.37228575  1
  Pr3+  Pr50  1  0.16905764  0.17506913  0.62607050  1
  Pr3+  Pr51  1  0.50208717  0.84637829  0.62606490  1
  Pr3+  Pr52  1  0.83612426  0.17865591  0.62570775  1
  Pr3+  Pr53  1  0.32886569  0.01360014  0.12280517  1
  Pr3+  Pr54  1  0.16096139  0.48372912  0.37438747  1
  Pr3+  Pr55  1  0.00042153  0.67872054  0.12191705  1
  Pr3+  Pr56  1  0.16230374  0.15404274  0.37219528  1
  Pr3+  Pr57  1  0.49780016  0.15363108  0.87440097  1
  Pr3+  Pr58  1  0.66965074  0.31976604  0.37322500  1
  Pr3+  Pr59  1  0.16359028  0.82079215  0.87649372  1
  Pr3+  Pr60  1  -0.00129660  0.68150540  0.62784106  1
  Pr3+  Pr61  1  0.66521047  0.68061767  0.62577997  1
  Pr3+  Pr62  1  0.66898426  0.98705270  0.37302709  1
  Pr3+  Pr63  1  0.83397598  0.51020365  0.12343659  1
  Pr3+  Pr64  1  0.67224352  0.98591142  0.87742000  1
  Pr3+  Pr65  1  0.66856724  0.65761336  0.87572948  1
  Pr3+  Pr66  1  -0.00130446  0.00993474  0.62650124  1
  Pr3+  Pr67  1  0.49675056  0.48724114  0.37454182  1
  Pr3+  Pr68  1  0.83771806  0.84786590  0.12350746  1
  Pr3+  Pr69  1  0.66361807  0.68038297  0.12428287  1
  Pr3+  Pr70  1  0.50282741  0.51257562  0.12498562  1
  Pr3+  Pr71  1  0.32730633  0.68335016  0.12388551  1
  Mn3.30+  Mn72  1  0.16652187  -0.00100422  0.00134816  1
  Mn3.30+  Mn73  1  0.16876000  -0.00263228  0.49971139  1
  Mn3.30+  Mn74  1  0.16709120  0.33287318  0.00152815  1
  Mn3.30+  Mn75  1  0.16425790  0.33129209  0.49944715  1
  Mn3.30+  Mn76  1  0.16523035  0.66709290  0.00068707  1
  Mn3.30+  Mn77  1  0.16713024  0.66761997  0.50001411  1
  Mn3.30+  Mn78  1  0.50051664  -0.00027568  -0.00191302  1
  Mn3.30+  Mn79  1  0.49782270  -0.00147341  0.50080703  1
  Mn3.30+  Mn80  1  0.49978440  0.33244554  0.00104357  1
  Mn3.30+  Mn81  1  0.50008015  0.33373134  0.50046195  1
  Mn3.30+  Mn82  1  0.49873880  0.66887043  0.00044525  1
  Mn3.30+  Mn83  1  0.49983053  0.66890778  0.49833655  1
  Mn3.30+  Mn84  1  0.83377549  0.00030091  0.00285570  1
  Mn3.30+  Mn85  1  0.83494490  -0.00072130  0.49904673  1
  Mn3.30+  Mn86  1  0.83190491  0.33180171  0.00356423  1
  Mn3.30+  Mn87  1  0.83475213  0.33274784  0.49749242  1
  Mn3.30+  Mn88  1  0.83463254  0.66842627  -0.00172845  1
  Mn3.30+  Mn89  1  0.83507053  0.66701246  0.50006044  1
  Mn3.30+  Mn90  1  -0.00113561  0.16548246  0.24622214  1
  Mn3.30+  Mn91  1  0.00072061  0.16538706  0.75178723  1
  Mn3.30+  Mn92  1  0.00160337  0.49935605  0.24806309  1
  Mn3.30+  Mn93  1  0.00077907  0.50114329  0.75152799  1
  Mn3.30+  Mn94  1  0.00399016  0.83446190  0.24597969  1
  Mn3.30+  Mn95  1  -0.00017824  0.83426942  0.75418009  1
  Mn3.30+  Mn96  1  0.33120269  0.16613981  0.24823878  1
  Mn3.30+  Mn97  1  0.33228716  0.16243460  0.75068920  1
  Mn3.30+  Mn98  1  0.33071898  0.50146471  0.25017777  1
  Mn3.30+  Mn99  1  0.33189571  0.49926458  0.74929888  1
  Mn3.30+  Mn100  1  0.33257266  0.83427103  0.24969812  1
  Mn3.30+  Mn101  1  0.33452825  0.83538162  0.75128559  1
  Mn3.30+  Mn102  1  0.66779916  0.16603572  0.24727620  1
  Mn3.30+  Mn103  1  0.66550298  0.16668110  0.75103692  1
  Mn3.30+  Mn104  1  0.66613457  0.49920864  0.24928203  1
  Mn3.30+  Mn105  1  0.66685683  0.50052046  0.75009120  1
  Mn3.30+  Mn106  1  0.66637895  0.83512216  0.24991219  1
  Mn3.30+  Mn107  1  0.66658739  0.83417901  0.75189511  1
  Mn3.30+  Mn108  1  0.16635311  -0.00123338  0.24609792  1
  Mn3.30+  Mn109  1  0.16926820  -0.00220820  0.75225865  1
  Mn3.30+  Mn110  1  0.16417558  0.33175561  0.24853161  1
  Mn3.30+  Mn111  1  0.16684399  0.33255871  0.75071722  1
  Mn3.30+  Mn112  1  0.16691417  0.66842930  0.24821048  1
  Mn3.30+  Mn113  1  0.16594062  0.66668522  0.75129823  1
  Mn3.30+  Mn114  1  0.50068397  -0.00028291  0.24976691  1
  Mn3.30+  Mn115  1  0.49729397  -0.00174083  0.75085047  1
  Mn3.30+  Mn116  1  0.49975862  0.33314975  0.24913309  1
  Mn3.30+  Mn117  1  0.49990494  0.33288866  0.74936811  1
  Mn3.30+  Mn118  1  0.49862964  0.66905602  0.25036146  1
  Mn3.30+  Mn119  1  0.49950231  0.66846319  0.75066181  1
  Mn3.30+  Mn120  1  0.83524645  0.00128892  0.24634465  1
  Mn3.30+  Mn121  1  0.83363669  -0.00165230  0.75192184  1
  Mn3.30+  Mn122  1  0.83392541  0.33153633  0.24841708  1
  Mn3.30+  Mn123  1  0.83243439  0.33323636  0.75087171  1
  Mn3.30+  Mn124  1  0.83474638  0.66702268  0.24796718  1
  Mn3.30+  Mn125  1  0.83486168  0.66864110  0.75329594  1
  Mn3.30+  Mn126  1  -0.00075839  0.16470987  0.00368790  1
  Mn3.30+  Mn127  1  0.00042323  0.16568034  0.49806171  1
  Mn3.30+  Mn128  1  0.00160648  0.50084435  0.00143984  1
  Mn3.30+  Mn129  1  0.00022479  0.49938583  0.49910266  1
  Mn3.30+  Mn130  1  0.00085087  0.83490955  -0.00049403  1
  Mn3.30+  Mn131  1  0.00282856  0.83388578  0.50060532  1
  Mn3.30+  Mn132  1  0.33253823  0.16526893  0.00047405  1
  Mn3.30+  Mn133  1  0.33116556  0.16337966  0.50055827  1
  Mn3.30+  Mn134  1  0.33090344  0.50066585  0.00136879  1
  Mn3.30+  Mn135  1  0.33151350  0.49998537  0.49945234  1
  Mn3.30+  Mn136  1  0.33390054  0.83573560  -0.00059619  1
  Mn3.30+  Mn137  1  0.33377225  0.83410219  0.49888355  1
  Mn3.30+  Mn138  1  0.66698339  0.16673444  0.00310599  1
  Mn3.30+  Mn139  1  0.66626385  0.16603683  0.49901848  1
  Mn3.30+  Mn140  1  0.66597186  0.49960750  0.00057177  1
  Mn3.30+  Mn141  1  0.66740194  0.50014031  0.50019418  1
  Mn3.30+  Mn142  1  0.66767732  0.83521322  -0.00078275  1
  Mn3.30+  Mn143  1  0.66577753  0.83396272  0.49917445  1
  O2-  O144  1  0.02612994  0.16257549  0.12462272  1
  O2-  O145  1  0.02413446  0.15989835  0.62464801  1
  O2-  O146  1  0.02902060  0.49137778  0.12546260  1
  O2-  O147  1  0.01891165  0.49230496  0.62635878  1
  O2-  O148  1  0.02807744  0.82429031  0.12338991  1
  O2-  O149  1  0.01983530  0.83014317  0.62835150  1
  O2-  O150  1  0.36102932  0.16199251  0.12361234  1
  O2-  O151  1  0.35653343  0.15671455  0.62371043  1
  O2-  O152  1  0.35913781  0.49488794  0.12614897  1
  O2-  O153  1  0.35795594  0.49979471  0.62223773  1
  O2-  O154  1  0.36075530  0.83070412  0.12508930  1
  O2-  O155  1  0.35924467  0.82574824  0.62515484  1
  O2-  O156  1  0.69262476  0.15701913  0.12676531  1
  O2-  O157  1  0.69145171  0.16038439  0.62356138  1
  O2-  O158  1  0.68874467  0.49557187  0.12664050  1
  O2-  O159  1  0.69224356  0.50100318  0.62566284  1
  O2-  O160  1  0.69324131  0.82633479  0.12543125  1
  O2-  O161  1  0.68725611  0.82982191  0.62511247  1
  O2-  O162  1  0.14246974  0.32403601  0.12421077  1
  O2-  O163  1  0.13899495  0.32478079  0.62430043  1
  O2-  O164  1  0.14319348  0.65771623  0.12450486  1
  O2-  O165  1  0.14308511  0.66437316  0.62819692  1
  O2-  O166  1  0.14115934  0.99010300  0.12492866  1
  O2-  O167  1  0.14256260  0.99931153  0.62595786  1
  O2-  O168  1  0.47099223  0.32839244  0.12624931  1
  O2-  O169  1  0.47984491  0.32932277  0.62456881  1
  O2-  O170  1  0.47281921  0.66010054  0.12578123  1
  O2-  O171  1  0.47406316  0.66038939  0.62306099  1
  O2-  O172  1  0.47380538  0.99692355  0.12394136  1
  O2-  O173  1  0.47071336  0.99247342  0.62497564  1
  O2-  O174  1  0.80635131  0.32908008  0.12622877  1
  O2-  O175  1  0.81553382  0.32834246  0.62235803  1
  O2-  O176  1  0.80720172  0.66093243  0.12394975  1
  O2-  O177  1  0.80919776  0.66064163  0.62715326  1
  O2-  O178  1  0.80416532  0.99129265  0.12543104  1
  O2-  O179  1  0.81005072  0.99918659  0.62660414  1
  O2-  O180  1  0.30737565  0.17093890  0.37413191  1
  O2-  O181  1  0.30777530  0.17420742  0.87796387  1
  O2-  O182  1  0.30619617  0.50762361  0.37426001  1
  O2-  O183  1  0.30799315  0.50597085  0.87742828  1
  O2-  O184  1  0.30640353  0.83714962  0.37308900  1
  O2-  O185  1  0.30874776  0.83655225  0.87599939  1
  O2-  O186  1  0.64088823  0.17172062  0.37385494  1
  O2-  O187  1  0.64325833  0.16800783  0.87667129  1
  O2-  O188  1  0.64182193  0.50653977  0.37345615  1
  O2-  O189  1  0.64103017  0.50831091  0.87472217  1
  O2-  O190  1  0.63940426  0.83949971  0.37406211  1
  O2-  O191  1  0.63813814  0.83824319  0.87567811  1
  O2-  O192  1  0.97603767  0.16957799  0.37128338  1
  O2-  O193  1  0.97404311  0.17150228  0.87884258  1
  O2-  O194  1  0.97447471  0.51015149  0.37212419  1
  O2-  O195  1  0.97493308  0.50506350  0.87656685  1
  O2-  O196  1  0.97669552  0.83600013  0.37090419  1
  O2-  O197  1  0.97385267  0.83865608  0.87785735  1
  O2-  O198  1  0.19180540  0.00860232  0.37158866  1
  O2-  O199  1  0.19426933  0.00571843  0.87750265  1
  O2-  O200  1  0.18971337  0.33471746  0.37303668  1
  O2-  O201  1  0.19228231  0.34042299  0.87859838  1
  O2-  O202  1  0.18839156  0.67422151  0.37176600  1
  O2-  O203  1  0.19207680  0.67067992  0.87637567  1
  O2-  O204  1  0.52580299  0.00773129  0.37578142  1
  O2-  O205  1  0.52883828  0.00813138  0.87452362  1
  O2-  O206  1  0.52466256  0.33760028  0.37409391  1
  O2-  O207  1  0.51765980  0.33718106  0.87503951  1
  O2-  O208  1  0.52678930  0.67509316  0.37392711  1
  O2-  O209  1  0.52408406  0.67244746  0.87699695  1
  O2-  O210  1  0.86129423  0.00537448  0.37093592  1
  O2-  O211  1  0.85083408  0.00946726  0.87698889  1
  O2-  O212  1  0.86186653  0.33851226  0.37308095  1
  O2-  O213  1  0.85720886  0.33756254  0.87847779  1
  O2-  O214  1  0.85997333  0.67169677  0.37191281  1
  O2-  O215  1  0.85958038  0.67202964  0.87725039  1
  O2-  O216  1  0.23810198  0.09650028  0.02320494  1
  O2-  O217  1  0.23561721  0.09443332  0.51691165  1
  O2-  O218  1  0.23653443  0.43017450  0.02369723  1
  O2-  O219  1  0.23588355  0.42397047  0.51091226  1
  O2-  O220  1  0.23642765  0.76154669  0.02056338  1
  O2-  O221  1  0.24427391  0.75815431  0.51801660  1
  O2-  O222  1  0.56851359  0.09755205  0.01745789  1
  O2-  O223  1  0.56977929  0.09229251  0.52183233  1
  O2-  O224  1  0.56712824  0.42834071  0.01701756  1
  O2-  O225  1  0.57193587  0.43248297  0.51645716  1
  O2-  O226  1  0.57408760  0.76224070  0.02335307  1
  O2-  O227  1  0.57289297  0.75969514  0.52245035  1
  O2-  O228  1  0.90183750  0.09591575  0.02030766  1
  O2-  O229  1  0.90612922  0.09544176  0.51919949  1
  O2-  O230  1  0.90789945  0.42683693  0.02178582  1
  O2-  O231  1  0.90326732  0.42907658  0.51812860  1
  O2-  O232  1  0.90665456  0.75983098  0.02380133  1
  O2-  O233  1  0.90823675  0.75972430  0.51551004  1
  O2-  O234  1  0.26300726  0.26396119  0.23323556  1
  O2-  O235  1  0.25765383  0.25628337  0.73295446  1
  O2-  O236  1  0.26363926  0.59825156  0.23192800  1
  O2-  O237  1  0.26347786  0.59557780  0.73465606  1
  O2-  O238  1  0.26647119  0.93229240  0.23211995  1
  O2-  O239  1  0.26652816  0.92923825  0.73300477  1
  O2-  O240  1  0.59715802  0.26190769  0.22851934  1
  O2-  O241  1  0.58939102  0.25578613  0.73196818  1
  O2-  O242  1  0.59348446  0.59623856  0.23001869  1
  O2-  O243  1  0.59452235  0.59602355  0.72949172  1
  O2-  O244  1  0.59738447  0.93017720  0.22798830  1
  O2-  O245  1  0.59492308  0.92933131  0.72883472  1
  O2-  O246  1  0.92780441  0.26058152  0.22858969  1
  O2-  O247  1  0.92939466  0.26096607  0.73159334  1
  O2-  O248  1  0.92913270  0.59278744  0.22522535  1
  O2-  O249  1  0.92717017  0.59174828  0.72888926  1
  O2-  O250  1  0.93166863  0.92857935  0.22718833  1
  O2-  O251  1  0.92866986  0.93014428  0.73281372  1
  O2-  O252  1  0.09372576  0.23749741  0.26741029  1
  O2-  O253  1  0.09329914  0.23907819  0.77323340  1
  O2-  O254  1  0.09460177  0.57222477  0.27110931  1
  O2-  O255  1  0.09374049  0.57205816  0.77101377  1
  O2-  O256  1  0.09717700  0.90416421  0.27288260  1
  O2-  O257  1  0.09835294  0.90550582  0.77060632  1
  O2-  O258  1  0.42804146  0.23898439  0.27114996  1
  O2-  O259  1  0.42376380  0.23630821  0.76751987  1
  O2-  O260  1  0.42965589  0.57384606  0.27199527  1
  O2-  O261  1  0.42836256  0.57224265  0.77047827  1
  O2-  O262  1  0.43012553  0.90361702  0.27061331  1
  O2-  O263  1  0.43383743  0.90046755  0.77013026  1
  O2-  O264  1  0.75954178  0.23943655  0.27424038  1
  O2-  O265  1  0.76423430  0.23746533  0.76577630  1
  O2-  O266  1  0.76159916  0.57288286  0.26956375  1
  O2-  O267  1  0.76111998  0.57416258  0.77298330  1
  O2-  O268  1  0.76452695  0.90606907  0.27166182  1
  O2-  O269  1  0.75980682  0.90581901  0.77371429  1
  O2-  O270  1  0.07166936  0.07025059  0.47903385  1
  O2-  O271  1  0.07624403  0.07496276  0.98214729  1
  O2-  O272  1  0.06904106  0.40271991  0.47803196  1
  O2-  O273  1  0.07175190  0.40563040  0.97844468  1
  O2-  O274  1  0.07123181  0.73734462  0.48483528  1
  O2-  O275  1  0.07065589  0.73679122  0.97852950  1
  O2-  O276  1  0.40659712  0.07287421  0.47548565  1
  O2-  O277  1  0.40453088  0.07040235  0.97747587  1
  O2-  O278  1  0.40680098  0.40831001  0.47641557  1
  O2-  O279  1  0.40104357  0.40568406  0.98101224  1
  O2-  O280  1  0.40545623  0.73879408  0.48013522  1
  O2-  O281  1  0.40284664  0.73770760  0.98310161  1
  O2-  O282  1  0.73864289  0.07225517  0.47833678  1
  O2-  O283  1  0.73740248  0.07222917  0.98091720  1
  O2-  O284  1  0.74135938  0.40493007  0.47621714  1
  O2-  O285  1  0.74379193  0.41079328  0.98290879  1
  O2-  O286  1  0.74009304  0.73857231  0.47888225  1
  O2-  O287  1  0.73670534  0.73828024  0.98185816  1
  O2-  O288  1  0.09396215  0.23515090  0.48017538  1
  O2-  O289  1  0.09368897  0.24129522  0.97770673  1
  O2-  O290  1  0.09361585  0.57236357  0.47818018  1
  O2-  O291  1  0.09421930  0.57246096  0.98099800  1
  O2-  O292  1  0.09774260  0.90518652  0.47706205  1
  O2-  O293  1  0.09755249  0.90353273  0.98071380  1
  O2-  O294  1  0.42358726  0.23821883  0.48067530  1
  O2-  O295  1  0.42871552  0.23745430  0.97990256  1
  O2-  O296  1  0.42961440  0.57512405  0.47684103  1
  O2-  O297  1  0.42690534  0.57087200  0.97989024  1
  O2-  O298  1  0.43045803  0.90329146  0.47651993  1
  O2-  O299  1  0.43500885  0.90394157  0.98143482  1
  O2-  O300  1  0.76317875  0.23943081  0.47798362  1
  O2-  O301  1  0.76184532  0.23663686  0.98318403  1
  O2-  O302  1  0.76226775  0.57197997  0.47859876  1
  O2-  O303  1  0.76135864  0.57535933  0.97959699  1
  O2-  O304  1  0.76032082  0.90694130  0.47629513  1
  O2-  O305  1  0.76392532  0.90292788  0.97848621  1
  O2-  O306  1  0.07190266  0.07169314  0.26933160  1
  O2-  O307  1  0.07549759  0.07434398  0.76842812  1
  O2-  O308  1  0.06961421  0.40298637  0.27235160  1
  O2-  O309  1  0.07088597  0.40554840  0.77143840  1
  O2-  O310  1  0.06918824  0.73522984  0.26495659  1
  O2-  O311  1  0.07269610  0.73893871  0.77233711  1
  O2-  O312  1  0.40458981  0.07167202  0.27024926  1
  O2-  O313  1  0.40630813  0.07075889  0.77489556  1
  O2-  O314  1  0.40193785  0.40655342  0.27196875  1
  O2-  O315  1  0.40606368  0.40768318  0.77044917  1
  O2-  O316  1  0.40216270  0.73752651  0.26781946  1
  O2-  O317  1  0.40425340  0.73737803  0.76762592  1
  O2-  O318  1  0.73894952  0.07319566  0.27388951  1
  O2-  O319  1  0.73748211  0.07176959  0.76845418  1
  O2-  O320  1  0.74100000  0.40627344  0.27227981  1
  O2-  O321  1  0.74207066  0.41081857  0.76956831  1
  O2-  O322  1  0.73815570  0.74042234  0.27109395  1
  O2-  O323  1  0.73607882  0.73832274  0.76862903  1
  O2-  O324  1  0.23664782  0.09563223  0.22581376  1
  O2-  O325  1  0.23722136  0.09451033  0.73347872  1
  O2-  O326  1  0.23419238  0.42862145  0.23029875  1
  O2-  O327  1  0.23834583  0.42640510  0.73662679  1
  O2-  O328  1  0.23886266  0.76318041  0.22507790  1
  O2-  O329  1  0.24257727  0.75939954  0.73458617  1
  O2-  O330  1  0.57007093  0.09786318  0.23320437  1
  O2-  O331  1  0.56960922  0.09239787  0.72726113  1
  O2-  O332  1  0.56808213  0.42943951  0.23254467  1
  O2-  O333  1  0.57142131  0.43251008  0.73376378  1
  O2-  O334  1  0.57132808  0.76014938  0.22611450  1
  O2-  O335  1  0.57314375  0.76021735  0.72818620  1
  O2-  O336  1  0.90157742  0.09757437  0.22844351  1
  O2-  O337  1  0.90571471  0.09481501  0.73099588  1
  O2-  O338  1  0.90520577  0.42842217  0.22737636  1
  O2-  O339  1  0.90571129  0.42738189  0.73314109  1
  O2-  O340  1  0.90575315  0.76209102  0.22807645  1
  O2-  O341  1  0.90838071  0.75681490  0.73229748  1
  O2-  O342  1  0.26436202  0.26388274  0.01796629  1
  O2-  O343  1  0.25728450  0.25639843  0.51752043  1
  O2-  O344  1  0.26370671  0.59676773  0.01807202  1
  O2-  O345  1  0.26212213  0.59638626  0.51557340  1
  O2-  O346  1  0.26368486  0.92931997  0.01918802  1
  O2-  O347  1  0.26816900  0.93176356  0.51616775  1
  O2-  O348  1  0.59560250  0.25974637  0.02508925  1
  O2-  O349  1  0.59182412  0.25788534  0.51570791  1
  O2-  O350  1  0.59304163  0.59546171  0.02115122  1
  O2-  O351  1  0.59423099  0.59740304  0.51895976  1
  O2-  O352  1  0.59849873  0.93130263  0.02164294  1
  O2-  O353  1  0.59368087  0.92938181  0.52133246  1
  O2-  O354  1  0.92934757  0.26254514  0.01952308  1
  O2-  O355  1  0.92740118  0.25971245  0.52033369  1
  O2-  O356  1  0.92577285  0.59080356  0.02381293  1
  O2-  O357  1  0.92801330  0.59499157  0.52176846  1
  O2-  O358  1  0.92812228  0.92839599  0.02564583  1
  O2-  O359  1  0.93336102  0.92985118  0.51418636  1
