# generated using pymatgen
data_Sr7Ca15Pr50Mn72O216
_symmetry_space_group_name_H-M   'P 1'
_cell_length_a   16.55997558
_cell_length_b   16.60469943
_cell_length_c   15.59380352
_cell_angle_alpha   90.00358126
_cell_angle_beta   89.99849011
_cell_angle_gamma   90.01013437
_symmetry_Int_Tables_number   1
_chemical_formula_structural   Sr7Ca15Pr50Mn72O216
_chemical_formula_sum   'Sr7 Ca15 Pr50 Mn72 O216'
_cell_volume   4287.88136224
_cell_formula_units_Z   1
loop_
 _symmetry_equiv_pos_site_id
 _symmetry_equiv_pos_as_xyz
  1  'x, y, z'
loop_
 _atom_type_symbol
 _atom_type_oxidation_number
  Sr2+  2.0
  Ca2+  2.0
  Pr3+  3.0
  Mn3.30+  3.3
  O2-  -2.0
loop_
 _atom_site_type_symbol
 _atom_site_label
 _atom_site_symmetry_multiplicity
 _atom_site_fract_x
 _atom_site_fract_y
 _atom_site_fract_z
 _atom_site_occupancy
  Sr2+  Sr0  1  0.16352403  0.82272453  0.37831208  1
  Sr2+  Sr1  1  0.66410530  0.65939066  0.87230229  1
  Sr2+  Sr2  1  1.00453272  0.32230680  0.87456026  1
  Sr2+  Sr3  1  0.33168418  0.34414922  0.62400361  1
  Sr2+  Sr4  1  0.50114975  0.84173252  0.12237213  1
  Sr2+  Sr5  1  1.00143199  0.98742799  0.37847706  1
  Sr2+  Sr6  1  0.83207510  0.82202198  0.37688096  1
  Ca2+  Ca7  1  0.00100768  0.67967156  0.62308949  1
  Ca2+  Ca8  1  0.49830841  0.48727959  0.37716016  1
  Ca2+  Ca9  1  0.17341505  0.51538847  0.62564712  1
  Ca2+  Ca10  1  0.16786843  0.84619029  0.62272473  1
  Ca2+  Ca11  1  0.33805072  0.65087329  0.37984704  1
  Ca2+  Ca12  1  0.66295011  0.68109157  0.62413640  1
  Ca2+  Ca13  1  0.32785167  0.68155598  0.62251071  1
  Ca2+  Ca14  1  0.50343078  0.18181368  0.12562507  1
  Ca2+  Ca15  1  -0.00018778  0.00991266  0.62334704  1
  Ca2+  Ca16  1  0.66959322  0.65619790  0.37717617  1
  Ca2+  Ca17  1  0.49589964  0.81671336  0.87243541  1
  Ca2+  Ca18  1  0.16392305  0.15457368  0.87181340  1
  Ca2+  Ca19  1  0.66718568  0.32037533  0.37623761  1
  Ca2+  Ca20  1  0.16462075  0.48596058  0.87007957  1
  Ca2+  Ca21  1  0.50186685  0.18280705  0.62435751  1
  Pr3+  Pr22  1  1.00301786  0.32136942  0.37565079  1
  Pr3+  Pr23  1  0.49531656  0.15548196  0.87396127  1
  Pr3+  Pr24  1  0.50182830  0.84286425  0.62748430  1
  Pr3+  Pr25  1  0.33283071  0.01222488  0.12518591  1
  Pr3+  Pr26  1  -0.00133411  0.01042356  0.12648524  1
  Pr3+  Pr27  1  0.33480592  0.98598365  0.37708938  1
  Pr3+  Pr28  1  0.83647631  0.17970461  0.12610586  1
  Pr3+  Pr29  1  0.83157287  0.81915981  0.87336455  1
  Pr3+  Pr30  1  1.00252873  0.65981000  0.37964585  1
  Pr3+  Pr31  1  0.65894766  0.01436771  0.12555617  1
  Pr3+  Pr32  1  0.83813711  0.17814216  0.62403327  1
  Pr3+  Pr33  1  0.16973217  0.51288883  0.12414101  1
  Pr3+  Pr34  1  -0.00117853  0.34642148  0.62569507  1
  Pr3+  Pr35  1  0.33212266  0.67980035  0.12738243  1
  Pr3+  Pr36  1  0.16557240  0.15435401  0.37728352  1
  Pr3+  Pr37  1  0.16721754  0.49276795  0.37779526  1
  Pr3+  Pr38  1  0.67075732  0.98536319  0.37597832  1
  Pr3+  Pr39  1  0.16417541  0.81945659  0.87143481  1
  Pr3+  Pr40  1  0.33690950  0.65456613  0.87139030  1
  Pr3+  Pr41  1  -0.00304302  0.34794661  0.12482221  1
  Pr3+  Pr42  1  -0.00148798  0.67860706  0.12575312  1
  Pr3+  Pr43  1  0.66200265  0.01454953  0.62439947  1
  Pr3+  Pr44  1  0.83632942  0.51634449  0.62479377  1
  Pr3+  Pr45  1  0.33786753  0.32290644  0.37686308  1
  Pr3+  Pr46  1  0.83075989  0.15368797  0.87460463  1
  Pr3+  Pr47  1  0.83354111  0.84309088  0.12523778  1
  Pr3+  Pr48  1  0.49695204  0.48844995  0.87334158  1
  Pr3+  Pr49  1  0.33293425  0.34684050  0.12629813  1
  Pr3+  Pr50  1  1.00600483  0.65077139  0.87100729  1
  Pr3+  Pr51  1  0.66118193  0.34643557  0.62280657  1
  Pr3+  Pr52  1  0.33639645  0.98414196  0.87309979  1
  Pr3+  Pr53  1  0.17146414  0.84697760  0.12582739  1
  Pr3+  Pr54  1  0.83647318  0.84361030  0.62505845  1
  Pr3+  Pr55  1  0.83104190  0.48828423  0.87301161  1
  Pr3+  Pr56  1  0.33265703  0.32192179  0.87306365  1
  Pr3+  Pr57  1  0.33014766  0.01084672  0.62518971  1
  Pr3+  Pr58  1  0.66283829  0.67969135  0.12534097  1
  Pr3+  Pr59  1  0.50139619  0.51511862  0.62296597  1
  Pr3+  Pr60  1  1.00389936  0.98858860  0.87269976  1
  Pr3+  Pr61  1  0.16734282  0.17767425  0.62572030  1
  Pr3+  Pr62  1  0.66245887  0.34666389  0.12669850  1
  Pr3+  Pr63  1  0.49809869  0.15480197  0.37656718  1
  Pr3+  Pr64  1  0.82909714  0.15232712  0.37559789  1
  Pr3+  Pr65  1  0.50255645  0.51318835  0.12700016  1
  Pr3+  Pr66  1  0.83489919  0.51379427  0.12497449  1
  Pr3+  Pr67  1  0.66916247  0.32207157  0.87400166  1
  Pr3+  Pr68  1  0.82766615  0.48925298  0.37642372  1
  Pr3+  Pr69  1  0.17028906  0.17952742  0.12400474  1
  Pr3+  Pr70  1  0.66843522  0.98545293  0.87410059  1
  Pr3+  Pr71  1  0.49533159  0.81815103  0.37628527  1
  Mn3.30+  Mn72  1  0.16744640  0.00163041  -0.00241660  1
  Mn3.30+  Mn73  1  0.16496241  -0.00193505  0.50288337  1
  Mn3.30+  Mn74  1  0.16633702  0.33346922  -0.00104009  1
  Mn3.30+  Mn75  1  0.16775861  0.33610314  0.50075523  1
  Mn3.30+  Mn76  1  0.16753239  0.66557312  -0.00165108  1
  Mn3.30+  Mn77  1  0.16933825  0.66694842  0.50270352  1
  Mn3.30+  Mn78  1  0.49958070  -0.00048865  -0.00101705  1
  Mn3.30+  Mn79  1  0.50019406  0.00028789  0.50176373  1
  Mn3.30+  Mn80  1  0.49953519  0.33267933  0.00032841  1
  Mn3.30+  Mn81  1  0.50081144  0.33493667  0.49912767  1
  Mn3.30+  Mn82  1  0.49963776  0.66673635  -0.00163895  1
  Mn3.30+  Mn83  1  0.49990421  0.66555722  0.49991571  1
  Mn3.30+  Mn84  1  0.83255380  -0.00059355  0.00047447  1
  Mn3.30+  Mn85  1  0.83348499  -0.00185173  0.50149090  1
  Mn3.30+  Mn86  1  0.83354886  0.33355780  -0.00054211  1
  Mn3.30+  Mn87  1  0.83116227  0.33396225  0.49932206  1
  Mn3.30+  Mn88  1  0.83365183  0.66602111  -0.00215923  1
  Mn3.30+  Mn89  1  0.83192249  0.66790508  0.50186448  1
  Mn3.30+  Mn90  1  0.00069151  0.16640974  0.25020361  1
  Mn3.30+  Mn91  1  0.00143689  0.16584515  0.75049823  1
  Mn3.30+  Mn92  1  -0.00084364  0.50189461  0.25244593  1
  Mn3.30+  Mn93  1  0.00451048  0.50078590  0.74652034  1
  Mn3.30+  Mn94  1  0.00096298  0.83289806  0.25157437  1
  Mn3.30+  Mn95  1  0.00176696  0.83262135  0.74633030  1
  Mn3.30+  Mn96  1  0.33611664  0.16690363  0.24932898  1
  Mn3.30+  Mn97  1  0.33191233  0.16723165  0.74981572  1
  Mn3.30+  Mn98  1  0.33599415  0.50151253  0.25278978  1
  Mn3.30+  Mn99  1  0.32975006  0.50067635  0.74743794  1
  Mn3.30+  Mn100  1  0.33363972  0.83158155  0.25264068  1
  Mn3.30+  Mn101  1  0.33185357  0.83110576  0.74728619  1
  Mn3.30+  Mn102  1  0.66477655  0.16833568  0.25053280  1
  Mn3.30+  Mn103  1  0.66490310  0.16735445  0.74919302  1
  Mn3.30+  Mn104  1  0.66507008  0.50083410  0.25419512  1
  Mn3.30+  Mn105  1  0.66617191  0.50276702  0.74797811  1
  Mn3.30+  Mn106  1  0.66495010  0.83163584  0.25110085  1
  Mn3.30+  Mn107  1  0.66619544  0.83144614  0.74962633  1
  Mn3.30+  Mn108  1  0.16624367  0.00041685  0.25097341  1
  Mn3.30+  Mn109  1  0.16621566  0.00004128  0.74883413  1
  Mn3.30+  Mn110  1  0.16750013  0.33462155  0.25091405  1
  Mn3.30+  Mn111  1  0.16614643  0.33494906  0.74949909  1
  Mn3.30+  Mn112  1  0.16811354  0.66716024  0.25347071  1
  Mn3.30+  Mn113  1  0.16836155  0.66571520  0.74497990  1
  Mn3.30+  Mn114  1  0.50033956  0.00002599  0.24983867  1
  Mn3.30+  Mn115  1  0.49955487  0.00008006  0.75006961  1
  Mn3.30+  Mn116  1  0.50133273  0.33368746  0.25244003  1
  Mn3.30+  Mn117  1  0.49914338  0.33359683  0.74776876  1
  Mn3.30+  Mn118  1  0.50088073  0.66465474  0.25470870  1
  Mn3.30+  Mn119  1  0.49847590  0.66701897  0.74704226  1
  Mn3.30+  Mn120  1  0.83111731  -0.00215911  0.24964988  1
  Mn3.30+  Mn121  1  0.83499592  -0.00014346  0.74890245  1
  Mn3.30+  Mn122  1  0.83082904  0.33401069  0.25206515  1
  Mn3.30+  Mn123  1  0.83354275  0.33362068  0.74907154  1
  Mn3.30+  Mn124  1  0.83128715  0.66697354  0.25208431  1
  Mn3.30+  Mn125  1  0.83424205  0.66699688  0.74749054  1
  Mn3.30+  Mn126  1  0.00224823  0.16662003  -0.00112510  1
  Mn3.30+  Mn127  1  -0.00003441  0.16539155  0.50053661  1
  Mn3.30+  Mn128  1  0.00237771  0.49950894  -0.00171889  1
  Mn3.30+  Mn129  1  0.00113627  0.50258701  0.50217842  1
  Mn3.30+  Mn130  1  0.00100051  0.83243759  -0.00098244  1
  Mn3.30+  Mn131  1  0.00175137  0.83246516  0.50333016  1
  Mn3.30+  Mn132  1  0.33370567  0.16700651  -0.00024885  1
  Mn3.30+  Mn133  1  0.33448931  0.16704792  0.50219891  1
  Mn3.30+  Mn134  1  0.33184127  0.50029838  -0.00142521  1
  Mn3.30+  Mn135  1  0.33414768  0.50196292  0.50130180  1
  Mn3.30+  Mn136  1  0.33482533  0.83284237  -0.00094785  1
  Mn3.30+  Mn137  1  0.33146782  0.82984575  0.50092102  1
  Mn3.30+  Mn138  1  0.66444228  0.16724316  0.00028303  1
  Mn3.30+  Mn139  1  0.66518631  0.16857094  0.50011322  1
  Mn3.30+  Mn140  1  0.66628007  0.50090972  -0.00092515  1
  Mn3.30+  Mn141  1  0.66500722  0.50299618  0.49852200  1
  Mn3.30+  Mn142  1  0.66510043  0.83280455  -0.00248903  1
  Mn3.30+  Mn143  1  0.66627972  0.83025358  0.50122665  1
  O2-  O144  1  0.02572128  0.15982762  0.12514156  1
  O2-  O145  1  0.02247923  0.16074606  0.62562597  1
  O2-  O146  1  0.02470841  0.49757929  0.12821878  1
  O2-  O147  1  0.02968419  0.49138190  0.62301315  1
  O2-  O148  1  0.02714034  0.82583807  0.12163709  1
  O2-  O149  1  0.02696092  0.82364162  0.62696350  1
  O2-  O150  1  0.36221329  0.16053618  0.12655169  1
  O2-  O151  1  0.36001340  0.15976503  0.62581456  1
  O2-  O152  1  0.35825969  0.49577883  0.12674489  1
  O2-  O153  1  0.35875913  0.49568223  0.62389506  1
  O2-  O154  1  0.35145524  0.82916426  0.12697036  1
  O2-  O155  1  0.35888628  0.83055981  0.62379984  1
  O2-  O156  1  0.69280853  0.16185967  0.12630588  1
  O2-  O157  1  0.69383737  0.16270691  0.62687520  1
  O2-  O158  1  0.69115296  0.49355371  0.12685334  1
  O2-  O159  1  0.69254236  0.49120103  0.62389011  1
  O2-  O160  1  0.68895075  0.82838215  0.12232212  1
  O2-  O161  1  0.69040009  0.82821799  0.62591846  1
  O2-  O162  1  0.14129852  0.32708964  0.12646606  1
  O2-  O163  1  0.14161919  0.32413157  0.62195275  1
  O2-  O164  1  0.14205818  0.66002580  0.12534095  1
  O2-  O165  1  0.14031098  0.65547431  0.62530584  1
  O2-  O166  1  0.14357303  0.99608768  0.12216991  1
  O2-  O167  1  0.14251300  0.99605020  0.62672745  1
  O2-  O168  1  0.47640392  0.32822091  0.12623981  1
  O2-  O169  1  0.48203621  0.32842331  0.62433644  1
  O2-  O170  1  0.47624839  0.66090594  0.12681364  1
  O2-  O171  1  0.47083822  0.66296137  0.62301495  1
  O2-  O172  1  0.47528796  0.99429828  0.12214507  1
  O2-  O173  1  0.47392843  0.99079651  0.62662539  1
  O2-  O174  1  0.80749325  0.32911474  0.12526145  1
  O2-  O175  1  0.80589478  0.32634840  0.62340369  1
  O2-  O176  1  0.80851446  0.66235199  0.12254614  1
  O2-  O177  1  0.80582154  0.66362809  0.62505063  1
  O2-  O178  1  0.80443220  0.99289601  0.12396282  1
  O2-  O179  1  0.80619444  0.99567664  0.62607797  1
  O2-  O180  1  0.30987974  0.17163595  0.37420531  1
  O2-  O181  1  0.30652373  0.17322726  0.87430304  1
  O2-  O182  1  0.31009029  0.50372114  0.37598334  1
  O2-  O183  1  0.30678655  0.50735025  0.87330924  1
  O2-  O184  1  0.31280840  0.83997888  0.37704557  1
  O2-  O185  1  0.30751394  0.83513737  0.87280911  1
  O2-  O186  1  0.64128024  0.17183071  0.37330011  1
  O2-  O187  1  0.63955699  0.17371719  0.87324933  1
  O2-  O188  1  0.64056744  0.51287827  0.37647390  1
  O2-  O189  1  0.64167791  0.50237700  0.87224491  1
  O2-  O190  1  0.63992004  0.84023122  0.37820978  1
  O2-  O191  1  0.64065213  0.83900324  0.87336204  1
  O2-  O192  1  0.97400552  0.17295664  0.37406504  1
  O2-  O193  1  0.97416665  0.16693832  0.87546701  1
  O2-  O194  1  0.97225039  0.50833333  0.37650220  1
  O2-  O195  1  0.97478901  0.50423958  0.87127626  1
  O2-  O196  1  0.98220616  0.82971408  0.37650959  1
  O2-  O197  1  0.97552635  0.83980806  0.87496863  1
  O2-  O198  1  0.19072578  0.00633252  0.37717393  1
  O2-  O199  1  0.19175356  0.00647591  0.87455420  1
  O2-  O200  1  0.19286860  0.34125907  0.37520684  1
  O2-  O201  1  0.19018504  0.34216170  0.87708967  1
  O2-  O202  1  0.19355715  0.66589899  0.37626289  1
  O2-  O203  1  0.19330088  0.67396375  0.87208636  1
  O2-  O204  1  0.52692244  0.00733894  0.37791861  1
  O2-  O205  1  0.52613328  0.01050780  0.87384883  1
  O2-  O206  1  0.52547852  0.33947654  0.37485013  1
  O2-  O207  1  0.52490713  0.33953295  0.87419153  1
  O2-  O208  1  0.52903121  0.67397468  0.37728880  1
  O2-  O209  1  0.51467131  0.66856958  0.87264411  1
  O2-  O210  1  0.84994172  0.00419502  0.37519703  1
  O2-  O211  1  0.85893495  0.00530979  0.87541253  1
  O2-  O212  1  0.86028398  0.34017332  0.37627583  1
  O2-  O213  1  0.85389320  0.34005237  0.87484714  1
  O2-  O214  1  0.85792358  0.66510896  0.37824171  1
  O2-  O215  1  0.86117078  0.66952953  0.87373925  1
  O2-  O216  1  0.24230489  0.09472865  0.02375172  1
  O2-  O217  1  0.24027489  0.09298500  0.52067274  1
  O2-  O218  1  0.24039571  0.42668074  0.02406362  1
  O2-  O219  1  0.23476275  0.43207400  0.51650948  1
  O2-  O220  1  0.23703141  0.76138602  0.01921740  1
  O2-  O221  1  0.23703889  0.76150695  0.52396434  1
  O2-  O222  1  0.56912610  0.09758198  0.02136774  1
  O2-  O223  1  0.56941816  0.09579112  0.52340086  1
  O2-  O224  1  0.57010704  0.42709522  0.02011566  1
  O2-  O225  1  0.57321098  0.42920063  0.52084344  1
  O2-  O226  1  0.57618700  0.75576449  0.01593116  1
  O2-  O227  1  0.56771917  0.76362316  0.51980502  1
  O2-  O228  1  0.90358479  0.09263335  0.02213902  1
  O2-  O229  1  0.90292652  0.09453828  0.51637511  1
  O2-  O230  1  0.90548736  0.42787660  0.02096119  1
  O2-  O231  1  0.90444876  0.42772686  0.52176967  1
  O2-  O232  1  0.90658437  0.76069738  0.01989576  1
  O2-  O233  1  0.90487052  0.75975407  0.52083627  1
  O2-  O234  1  0.26457319  0.26017746  0.22921211  1
  O2-  O235  1  0.25878771  0.26037991  0.73252470  1
  O2-  O236  1  0.25951127  0.59298711  0.22862569  1
  O2-  O237  1  0.26583034  0.60055447  0.73013206  1
  O2-  O238  1  0.26023748  0.93002073  0.23137921  1
  O2-  O239  1  0.26414922  0.92940758  0.73322916  1
  O2-  O240  1  0.59598581  0.26239647  0.23015552  1
  O2-  O241  1  0.59794156  0.26338548  0.73288045  1
  O2-  O242  1  0.59505728  0.59361746  0.22630742  1
  O2-  O243  1  0.59381875  0.59413545  0.72567836  1
  O2-  O244  1  0.59537448  0.93177514  0.23416492  1
  O2-  O245  1  0.59659399  0.92901950  0.73000860  1
  O2-  O246  1  0.92949708  0.26015693  0.22929398  1
  O2-  O247  1  0.92662780  0.25921467  0.72739409  1
  O2-  O248  1  0.92668365  0.59407966  0.22831895  1
  O2-  O249  1  0.93237802  0.59478945  0.72709847  1
  O2-  O250  1  0.92544461  0.92318841  0.22646156  1
  O2-  O251  1  0.93082031  0.92693407  0.72766776  1
  O2-  O252  1  0.09691062  0.24099762  0.27202895  1
  O2-  O253  1  0.09604528  0.23488913  0.76601791  1
  O2-  O254  1  0.09386462  0.57340352  0.27149976  1
  O2-  O255  1  0.09694028  0.57203899  0.77311950  1
  O2-  O256  1  0.09256004  0.90488295  0.26028569  1
  O2-  O257  1  0.09394696  0.90645942  0.77289677  1
  O2-  O258  1  0.42868503  0.23969534  0.27372680  1
  O2-  O259  1  0.42507138  0.24014884  0.77151135  1
  O2-  O260  1  0.43332808  0.56913964  0.26982970  1
  O2-  O261  1  0.42803921  0.57018617  0.76824818  1
  O2-  O262  1  0.42711896  0.90688766  0.27259163  1
  O2-  O263  1  0.42868423  0.90395687  0.77157579  1
  O2-  O264  1  0.76311051  0.23604998  0.26835554  1
  O2-  O265  1  0.76041569  0.23783249  0.77138467  1
  O2-  O266  1  0.76336256  0.56858000  0.26570776  1
  O2-  O267  1  0.76510595  0.56920175  0.76600365  1
  O2-  O268  1  0.75756648  0.90448678  0.26686818  1
  O2-  O269  1  0.76305324  0.90678069  0.77075556  1
  O2-  O270  1  0.07694934  0.07751457  0.48179814  1
  O2-  O271  1  0.06933370  0.06899265  0.98243707  1
  O2-  O272  1  0.07020494  0.40675698  0.47738338  1
  O2-  O273  1  0.07202896  0.40362650  0.98920601  1
  O2-  O274  1  0.07249678  0.73627377  0.48443462  1
  O2-  O275  1  0.07144799  0.73696192  0.97790123  1
  O2-  O276  1  0.40609067  0.07068750  0.47947235  1
  O2-  O277  1  0.40489939  0.07065449  0.97728252  1
  O2-  O278  1  0.40519955  0.40581473  0.48046641  1
  O2-  O279  1  0.40343174  0.40577984  0.97966546  1
  O2-  O280  1  0.40596037  0.73781904  0.47716244  1
  O2-  O281  1  0.40141607  0.73731060  0.98494422  1
  O2-  O282  1  0.73541549  0.07382559  0.48157827  1
  O2-  O283  1  0.73605611  0.07356615  0.97854826  1
  O2-  O284  1  0.73728880  0.40484152  0.47708856  1
  O2-  O285  1  0.73703522  0.40691018  0.98024975  1
  O2-  O286  1  0.73570503  0.73704849  0.48154241  1
  O2-  O287  1  0.74442482  0.74048424  0.98017303  1
  O2-  O288  1  0.09332800  0.24146970  0.47816302  1
  O2-  O289  1  0.10120325  0.23473927  0.98321232  1
  O2-  O290  1  0.09391580  0.57494626  0.47642692  1
  O2-  O291  1  0.09709352  0.57046462  0.97811502  1
  O2-  O292  1  0.09368486  0.90736514  0.48705652  1
  O2-  O293  1  0.09526239  0.90386763  0.97924821  1
  O2-  O294  1  0.42756124  0.24065692  0.47860119  1
  O2-  O295  1  0.42659809  0.24031945  0.97752974  1
  O2-  O296  1  0.43358181  0.56946957  0.48054831  1
  O2-  O297  1  0.42724574  0.57071084  0.98078445  1
  O2-  O298  1  0.42854065  0.90540990  0.48089259  1
  O2-  O299  1  0.42789468  0.90501852  0.97439813  1
  O2-  O300  1  0.76451862  0.23752154  0.48001807  1
  O2-  O301  1  0.76217588  0.23892541  0.97988689  1
  O2-  O302  1  0.76419749  0.56907805  0.48468842  1
  O2-  O303  1  0.76571837  0.56977354  0.98274949  1
  O2-  O304  1  0.75707716  0.90673559  0.48473887  1
  O2-  O305  1  0.76230512  0.90561692  0.97787998  1
  O2-  O306  1  0.07529851  0.07495480  0.26863890  1
  O2-  O307  1  0.07128725  0.07184315  0.76925718  1
  O2-  O308  1  0.06929991  0.40837182  0.27136899  1
  O2-  O309  1  0.07080736  0.40376554  0.76346067  1
  O2-  O310  1  0.07043720  0.73512810  0.26551880  1
  O2-  O311  1  0.07286247  0.73862144  0.77232807  1
  O2-  O312  1  0.40559620  0.07105298  0.27203221  1
  O2-  O313  1  0.40359173  0.07222504  0.77176798  1
  O2-  O314  1  0.40400284  0.40231299  0.26716459  1
  O2-  O315  1  0.40506672  0.40765250  0.77229893  1
  O2-  O316  1  0.40594261  0.73452799  0.27157052  1
  O2-  O317  1  0.40268087  0.73877051  0.76646539  1
  O2-  O318  1  0.73540383  0.07327304  0.26966417  1
  O2-  O319  1  0.73618639  0.07360023  0.77140120  1
  O2-  O320  1  0.73462195  0.40648811  0.27404476  1
  O2-  O321  1  0.73827283  0.40620105  0.76868084  1
  O2-  O322  1  0.73636001  0.73431498  0.26552712  1
  O2-  O323  1  0.74295410  0.74349580  0.77005985  1
  O2-  O324  1  0.24145362  0.09598832  0.23031200  1
  O2-  O325  1  0.23994804  0.09344088  0.72678977  1
  O2-  O326  1  0.23782557  0.42765725  0.22965086  1
  O2-  O327  1  0.23705310  0.43162888  0.73097323  1
  O2-  O328  1  0.23861043  0.75950083  0.22811869  1
  O2-  O329  1  0.23320956  0.76478478  0.72912131  1
  O2-  O330  1  0.57017034  0.09713255  0.22878648  1
  O2-  O331  1  0.57094242  0.09750986  0.72701585  1
  O2-  O332  1  0.57223648  0.42764659  0.22838002  1
  O2-  O333  1  0.57212355  0.42981889  0.72964889  1
  O2-  O334  1  0.57262021  0.75991388  0.23272497  1
  O2-  O335  1  0.57039409  0.76008549  0.73138940  1
  O2-  O336  1  0.90453440  0.09180789  0.22894108  1
  O2-  O337  1  0.90292780  0.09594473  0.73312140  1
  O2-  O338  1  0.90519587  0.42845566  0.22985518  1
  O2-  O339  1  0.90637886  0.42875945  0.72692418  1
  O2-  O340  1  0.90671335  0.75914947  0.22769656  1
  O2-  O341  1  0.90493022  0.76359082  0.73315943  1
  O2-  O342  1  0.26250010  0.26317565  0.02242341  1
  O2-  O343  1  0.25758923  0.25811534  0.51548065  1
  O2-  O344  1  0.26266065  0.59522734  0.02184321  1
  O2-  O345  1  0.26396951  0.59637029  0.51914203  1
  O2-  O346  1  0.26294292  0.92828737  0.01812843  1
  O2-  O347  1  0.26313920  0.92914250  0.51789224  1
  O2-  O348  1  0.59811637  0.26347610  0.01769554  1
  O2-  O349  1  0.59638763  0.26195040  0.51726287  1
  O2-  O350  1  0.59396113  0.59112009  0.02142560  1
  O2-  O351  1  0.59476498  0.59629556  0.52651930  1
  O2-  O352  1  0.59706263  0.93349513  0.01505031  1
  O2-  O353  1  0.59356468  0.92857700  0.52223674  1
  O2-  O354  1  0.92814613  0.25899137  0.02359107  1
  O2-  O355  1  0.92777273  0.26172877  0.52014584  1
  O2-  O356  1  0.92929334  0.59479708  0.01935806  1
  O2-  O357  1  0.92895589  0.59430531  0.52430093  1
  O2-  O358  1  0.92904559  0.92582648  0.02214341  1
  O2-  O359  1  0.92675804  0.92399361  0.52403776  1
