# generated using pymatgen
data_Sr7Ca15Pr50Mn72O216
_symmetry_space_group_name_H-M   'P 1'
_cell_length_a   16.55950866
_cell_length_b   16.60905814
_cell_length_c   15.59265806
_cell_angle_alpha   89.99542821
_cell_angle_beta   90.00249940
_cell_angle_gamma   89.99827274
_symmetry_Int_Tables_number   1
_chemical_formula_structural   Sr7Ca15Pr50Mn72O216
_chemical_formula_sum   'Sr7 Ca15 Pr50 Mn72 O216'
_cell_volume   4288.57100310
_cell_formula_units_Z   1
loop_
 _symmetry_equiv_pos_site_id
 _symmetry_equiv_pos_as_xyz
  1  'x, y, z'
loop_
 _atom_type_symbol
 _atom_type_oxidation_number
  Sr2+  2.0
  Ca2+  2.0
  Pr3+  3.0
  Mn3.30+  3.3
  O2-  -2.0
loop_
 _atom_site_type_symbol
 _atom_site_label
 _atom_site_symmetry_multiplicity
 _atom_site_fract_x
 _atom_site_fract_y
 _atom_site_fract_z
 _atom_site_occupancy
  Sr2+  Sr0  1  1.00182248  0.32484491  0.37534167  1
  Sr2+  Sr1  1  0.99808455  0.99012454  0.87398614  1
  Sr2+  Sr2  1  0.33562514  0.65877776  0.87531474  1
  Sr2+  Sr3  1  0.49897363  0.82434667  0.87477194  1
  Sr2+  Sr4  1  1.00059990  0.99077078  0.37572947  1
  Sr2+  Sr5  1  0.66790168  0.65596290  0.37331933  1
  Sr2+  Sr6  1  0.16256508  0.82368372  0.37587624  1
  Ca2+  Ca7  1  0.83685571  0.18007440  0.12444342  1
  Ca2+  Ca8  1  0.66560035  0.68240393  0.12433448  1
  Ca2+  Ca9  1  0.50441345  0.18109548  0.62610310  1
  Ca2+  Ca10  1  0.66098141  0.01633949  0.62684225  1
  Ca2+  Ca11  1  0.82775774  0.48221607  0.87573904  1
  Ca2+  Ca12  1  0.67037978  0.31732857  0.87477094  1
  Ca2+  Ca13  1  0.82853814  0.82024544  0.87667296  1
  Ca2+  Ca14  1  0.33621895  0.32099808  0.87440632  1
  Ca2+  Ca15  1  0.16531603  0.48627360  0.87571002  1
  Ca2+  Ca16  1  0.33620225  0.98570637  0.37521171  1
  Ca2+  Ca17  1  0.83551375  0.84627070  0.12493769  1
  Ca2+  Ca18  1  1.00284377  0.65564029  0.37460196  1
  Ca2+  Ca19  1  0.33721944  0.31838396  0.37560723  1
  Ca2+  Ca20  1  0.33795142  0.98580942  0.87410770  1
  Ca2+  Ca21  1  0.83566180  0.84783484  0.62519582  1
  Pr3+  Pr22  1  0.66580587  0.01093925  0.12365602  1
  Pr3+  Pr23  1  0.66526001  0.34490642  0.12204137  1
  Pr3+  Pr24  1  -0.00483164  0.01272994  0.12587543  1
  Pr3+  Pr25  1  0.49747018  0.15406709  0.87376716  1
  Pr3+  Pr26  1  0.16825494  0.17824296  0.12447272  1
  Pr3+  Pr27  1  -0.00352699  0.34552300  0.12463350  1
  Pr3+  Pr28  1  0.82782765  0.15333752  0.87577032  1
  Pr3+  Pr29  1  0.33024175  0.34567897  0.12362570  1
  Pr3+  Pr30  1  0.50541920  0.51548623  0.12310405  1
  Pr3+  Pr31  1  1.00205721  0.32196205  0.87500485  1
  Pr3+  Pr32  1  0.66667910  0.67995514  0.62422947  1
  Pr3+  Pr33  1  0.50361846  0.51277675  0.62662859  1
  Pr3+  Pr34  1  0.83057410  0.15299104  0.37441262  1
  Pr3+  Pr35  1  0.50201120  0.17905802  0.12435018  1
  Pr3+  Pr36  1  0.50460966  0.84870691  0.62665384  1
  Pr3+  Pr37  1  0.83599554  0.51350682  0.12272719  1
  Pr3+  Pr38  1  0.33036163  0.01188333  0.12344844  1
  Pr3+  Pr39  1  0.67100785  0.98664050  0.37606677  1
  Pr3+  Pr40  1  0.33038149  0.68124547  0.12374741  1
  Pr3+  Pr41  1  0.49645008  0.48688165  0.87509717  1
  Pr3+  Pr42  1  0.33193611  0.01311117  0.62620566  1
  Pr3+  Pr43  1  0.16851693  0.51339796  0.12343380  1
  Pr3+  Pr44  1  0.67159210  0.65482305  0.87641608  1
  Pr3+  Pr45  1  0.83239648  0.48931805  0.37414792  1
  Pr3+  Pr46  1  0.49622205  0.48458762  0.37468971  1
  Pr3+  Pr47  1  0.67035220  0.32074021  0.37488352  1
  Pr3+  Pr48  1  0.33086351  0.68056998  0.62665906  1
  Pr3+  Pr49  1  0.16370291  0.48871883  0.37477519  1
  Pr3+  Pr50  1  0.16521076  0.15540086  0.37552035  1
  Pr3+  Pr51  1  -0.00264744  0.00974839  0.62339067  1
  Pr3+  Pr52  1  0.16546570  0.15406011  0.87438154  1
  Pr3+  Pr53  1  0.83342170  0.17772130  0.62569194  1
  Pr3+  Pr54  1  0.49455996  0.15201433  0.37633589  1
  Pr3+  Pr55  1  0.83159520  0.81912055  0.37471342  1
  Pr3+  Pr56  1  0.67248618  0.98338445  0.87360357  1
  Pr3+  Pr57  1  0.16778796  0.84664603  0.62486822  1
  Pr3+  Pr58  1  0.50284215  0.84462305  0.12297379  1
  Pr3+  Pr59  1  0.49715128  0.82118445  0.37509506  1
  Pr3+  Pr60  1  -0.00451373  0.68339384  0.12628715  1
  Pr3+  Pr61  1  0.16287283  0.82390725  0.87432871  1
  Pr3+  Pr62  1  0.66163384  0.34488150  0.62784297  1
  Pr3+  Pr63  1  -0.00537419  0.68244942  0.62347718  1
  Pr3+  Pr64  1  0.33335068  0.34383660  0.62702913  1
  Pr3+  Pr65  1  0.16868956  0.51238119  0.62665155  1
  Pr3+  Pr66  1  0.16856067  0.17831184  0.62546143  1
  Pr3+  Pr67  1  -0.00251264  0.34712441  0.62552091  1
  Pr3+  Pr68  1  0.33665923  0.65450800  0.37505964  1
  Pr3+  Pr69  1  0.16771483  0.84726827  0.12518673  1
  Pr3+  Pr70  1  0.83662695  0.51220489  0.62721551  1
  Pr3+  Pr71  1  1.00154542  0.65503576  0.87547157  1
  Mn3.30+  Mn72  1  0.16583402  0.00006458  -0.00203930  1
  Mn3.30+  Mn73  1  0.16763429  0.00024485  0.49887047  1
  Mn3.30+  Mn74  1  0.16764433  0.33421598  -0.00291402  1
  Mn3.30+  Mn75  1  0.16905807  0.33367363  0.49960033  1
  Mn3.30+  Mn76  1  0.16577006  0.66642241  -0.00191271  1
  Mn3.30+  Mn77  1  0.16505304  0.66765512  0.49961090  1
  Mn3.30+  Mn78  1  0.49892911  -0.00004597  -0.00147497  1
  Mn3.30+  Mn79  1  0.50079211  0.00139939  0.50103023  1
  Mn3.30+  Mn80  1  0.49982058  0.33334996  -0.00235799  1
  Mn3.30+  Mn81  1  0.49914867  0.33135626  0.50024917  1
  Mn3.30+  Mn82  1  0.50225366  0.66788330  -0.00044523  1
  Mn3.30+  Mn83  1  0.50057568  0.66632787  0.49983920  1
  Mn3.30+  Mn84  1  0.83297291  -0.00223329  0.00050441  1
  Mn3.30+  Mn85  1  0.83073493  -0.00164514  0.50287493  1
  Mn3.30+  Mn86  1  0.83169288  0.33263871  -0.00106716  1
  Mn3.30+  Mn87  1  0.83255091  0.33312945  0.50033969  1
  Mn3.30+  Mn88  1  0.83297664  0.66834889  0.00057977  1
  Mn3.30+  Mn89  1  0.83393818  0.66692549  0.49860995  1
  Mn3.30+  Mn90  1  -0.00089560  0.16788210  0.25037896  1
  Mn3.30+  Mn91  1  -0.00088946  0.16627508  0.74986071  1
  Mn3.30+  Mn92  1  0.00054049  0.50221347  0.24942858  1
  Mn3.30+  Mn93  1  -0.00019870  0.50075186  0.75359825  1
  Mn3.30+  Mn94  1  -0.00098489  0.83438636  0.25075091  1
  Mn3.30+  Mn95  1  -0.00493214  0.83391132  0.75117084  1
  Mn3.30+  Mn96  1  0.33341688  0.16638676  0.25139031  1
  Mn3.30+  Mn97  1  0.33573449  0.16711368  0.75062552  1
  Mn3.30+  Mn98  1  0.33363888  0.49880807  0.24927775  1
  Mn3.30+  Mn99  1  0.33316057  0.49937633  0.75298235  1
  Mn3.30+  Mn100  1  0.33255575  0.83481045  0.25169398  1
  Mn3.30+  Mn101  1  0.33484750  0.83506102  0.75049129  1
  Mn3.30+  Mn102  1  0.66678424  0.16611897  0.24857939  1
  Mn3.30+  Mn103  1  0.66429428  0.16571718  0.74997057  1
  Mn3.30+  Mn104  1  0.66693904  0.50117101  0.24884276  1
  Mn3.30+  Mn105  1  0.66904691  0.49913122  0.75298703  1
  Mn3.30+  Mn106  1  0.66834151  0.83221321  0.24799341  1
  Mn3.30+  Mn107  1  0.66997733  0.83349853  0.74886382  1
  Mn3.30+  Mn108  1  0.16646602  0.00036534  0.25156193  1
  Mn3.30+  Mn109  1  0.16720657  -0.00011737  0.75139472  1
  Mn3.30+  Mn110  1  0.16793118  0.33353440  0.25074198  1
  Mn3.30+  Mn111  1  0.16848380  0.33449012  0.75258509  1
  Mn3.30+  Mn112  1  0.16498018  0.66815883  0.25078452  1
  Mn3.30+  Mn113  1  0.16545092  0.66593864  0.75157311  1
  Mn3.30+  Mn114  1  0.49912499  -0.00077448  0.25049128  1
  Mn3.30+  Mn115  1  0.50087446  0.00188880  0.74999613  1
  Mn3.30+  Mn116  1  0.49886436  0.33280460  0.24937919  1
  Mn3.30+  Mn117  1  0.50026204  0.33205831  0.75282475  1
  Mn3.30+  Mn118  1  0.50186343  0.66662681  0.24917266  1
  Mn3.30+  Mn119  1  0.50086319  0.66770833  0.75090751  1
  Mn3.30+  Mn120  1  0.83347482  -0.00125664  0.24928587  1
  Mn3.30+  Mn121  1  0.83076667  -0.00287604  0.74769832  1
  Mn3.30+  Mn122  1  0.83353301  0.33230987  0.24908117  1
  Mn3.30+  Mn123  1  0.83083991  0.33352307  0.75181157  1
  Mn3.30+  Mn124  1  0.83269007  0.66774547  0.24836754  1
  Mn3.30+  Mn125  1  0.83391303  0.66784973  0.75187030  1
  Mn3.30+  Mn126  1  -0.00210748  0.16660714  -0.00027476  1
  Mn3.30+  Mn127  1  0.00007452  0.16752027  0.49942737  1
  Mn3.30+  Mn128  1  -0.00057453  0.50038369  -0.00302004  1
  Mn3.30+  Mn129  1  0.00110797  0.50246973  0.50001987  1
  Mn3.30+  Mn130  1  -0.00432819  0.83454324  -0.00156458  1
  Mn3.30+  Mn131  1  -0.00147480  0.83365330  0.49932809  1
  Mn3.30+  Mn132  1  0.33366497  0.16716628  -0.00268702  1
  Mn3.30+  Mn133  1  0.33558717  0.16680465  0.50118540  1
  Mn3.30+  Mn134  1  0.33343687  0.49995991  -0.00267232  1
  Mn3.30+  Mn135  1  0.33341184  0.49810323  0.50052625  1
  Mn3.30+  Mn136  1  0.33392410  0.83484309  -0.00164579  1
  Mn3.30+  Mn137  1  0.33340554  0.83491463  0.49914669  1
  Mn3.30+  Mn138  1  0.66729926  0.16664795  0.00049872  1
  Mn3.30+  Mn139  1  0.66353214  0.16547706  0.50128921  1
  Mn3.30+  Mn140  1  0.66900926  0.50005908  -0.00138273  1
  Mn3.30+  Mn141  1  0.66698090  0.50000761  0.49958786  1
  Mn3.30+  Mn142  1  0.66957277  0.83134269  0.00093009  1
  Mn3.30+  Mn143  1  0.66832733  0.83477183  0.50213635  1
  O2-  O144  1  0.02408674  0.16326116  0.12424438  1
  O2-  O145  1  0.02313200  0.16158809  0.62464696  1
  O2-  O146  1  0.02401457  0.49477232  0.12286075  1
  O2-  O147  1  0.02411161  0.49608624  0.62895580  1
  O2-  O148  1  0.02433823  0.83066403  0.12525519  1
  O2-  O149  1  0.02400929  0.82973201  0.62520046  1
  O2-  O150  1  0.35863832  0.15937135  0.12283791  1
  O2-  O151  1  0.36320745  0.15997899  0.62614286  1
  O2-  O152  1  0.36090315  0.49242250  0.12294744  1
  O2-  O153  1  0.36043578  0.49179320  0.62554840  1
  O2-  O154  1  0.35673668  0.83060623  0.12604776  1
  O2-  O155  1  0.35822753  0.82931915  0.62417633  1
  O2-  O156  1  0.69275975  0.16007237  0.12605089  1
  O2-  O157  1  0.68963561  0.16330524  0.62466007  1
  O2-  O158  1  0.69259867  0.49035448  0.12367585  1
  O2-  O159  1  0.69196494  0.49291691  0.62856853  1
  O2-  O160  1  0.69293584  0.82936988  0.12538563  1
  O2-  O161  1  0.69474426  0.82565871  0.62531929  1
  O2-  O162  1  0.14086183  0.32708041  0.12179751  1
  O2-  O163  1  0.14150277  0.32810486  0.62683645  1
  O2-  O164  1  0.14075039  0.66165693  0.12257059  1
  O2-  O165  1  0.13957172  0.66028049  0.62704682  1
  O2-  O166  1  0.14177292  0.99778919  0.12349584  1
  O2-  O167  1  0.14326066  0.99759721  0.62658543  1
  O2-  O168  1  0.47405960  0.32793919  0.12358488  1
  O2-  O169  1  0.47725391  0.32890236  0.62776373  1
  O2-  O170  1  0.47470250  0.66311881  0.12575557  1
  O2-  O171  1  0.47642477  0.66082321  0.62451769  1
  O2-  O172  1  0.47453148  0.99486751  0.12481859  1
  O2-  O173  1  0.47483158  0.99533890  0.62478395  1
  O2-  O174  1  0.80899145  0.32744747  0.12369822  1
  O2-  O175  1  0.80630926  0.32913272  0.62576717  1
  O2-  O176  1  0.80624116  0.65778708  0.12440005  1
  O2-  O177  1  0.80925990  0.65643125  0.62644773  1
  O2-  O178  1  0.80767109  0.99060500  0.12554589  1
  O2-  O179  1  0.80261834  0.99338959  0.62461745  1
  O2-  O180  1  0.30808910  0.17587125  0.37663856  1
  O2-  O181  1  0.30739897  0.17709456  0.87460899  1
  O2-  O182  1  0.30715235  0.50836973  0.37595978  1
  O2-  O183  1  0.30669544  0.50653069  0.87563247  1
  O2-  O184  1  0.31373856  0.83877424  0.37554953  1
  O2-  O185  1  0.30814431  0.84028746  0.87457751  1
  O2-  O186  1  0.63977305  0.17205647  0.37329523  1
  O2-  O187  1  0.64285059  0.16995503  0.87568570  1
  O2-  O188  1  0.64101278  0.49987591  0.37204497  1
  O2-  O189  1  0.64000614  0.50860565  0.87554193  1
  O2-  O190  1  0.64095620  0.83961259  0.37551754  1
  O2-  O191  1  0.64793523  0.83523213  0.87435123  1
  O2-  O192  1  0.97482473  0.16957335  0.37652973  1
  O2-  O193  1  0.97284363  0.17239902  0.87437765  1
  O2-  O194  1  0.97675176  0.50759268  0.37239738  1
  O2-  O195  1  0.96985079  0.50613908  0.87531390  1
  O2-  O196  1  0.97474951  0.83759608  0.37502682  1
  O2-  O197  1  0.97156346  0.83451619  0.87408634  1
  O2-  O198  1  0.19387670  0.00782775  0.37535146  1
  O2-  O199  1  0.19389854  0.00430699  0.87416816  1
  O2-  O200  1  0.19564076  0.34161019  0.37694032  1
  O2-  O201  1  0.19451581  0.34043776  0.87496776  1
  O2-  O202  1  0.19321518  0.66746347  0.37632548  1
  O2-  O203  1  0.18631730  0.67803042  0.87468307  1
  O2-  O204  1  0.52729736  0.00464206  0.37631793  1
  O2-  O205  1  0.52800199  0.00619840  0.87421932  1
  O2-  O206  1  0.52647935  0.33757066  0.37277972  1
  O2-  O207  1  0.52894821  0.33925490  0.87619916  1
  O2-  O208  1  0.51794983  0.67174612  0.37480167  1
  O2-  O209  1  0.52589236  0.66780707  0.87488035  1
  O2-  O210  1  0.85076807  0.00661615  0.37547829  1
  O2-  O211  1  0.84985103  0.00824402  0.87435532  1
  O2-  O212  1  0.85187649  0.33996895  0.37542783  1
  O2-  O213  1  0.85823420  0.33591149  0.87498294  1
  O2-  O214  1  0.86029711  0.67076558  0.37319923  1
  O2-  O215  1  0.85879788  0.67787515  0.87582892  1
  O2-  O216  1  0.23952894  0.09506019  0.01918627  1
  O2-  O217  1  0.24207104  0.09626181  0.52290573  1
  O2-  O218  1  0.23936687  0.42645644  0.02341547  1
  O2-  O219  1  0.23984304  0.42780170  0.52349270  1
  O2-  O220  1  0.23811707  0.76135515  0.01988521  1
  O2-  O221  1  0.23769462  0.75835799  0.52355187  1
  O2-  O222  1  0.57112740  0.09319927  0.02129576  1
  O2-  O223  1  0.56674562  0.09976177  0.51789810  1
  O2-  O224  1  0.57047200  0.42820377  0.02048528  1
  O2-  O225  1  0.57043150  0.42708359  0.51982498  1
  O2-  O226  1  0.57428880  0.76117736  0.02085242  1
  O2-  O227  1  0.57473977  0.76393924  0.52007731  1
  O2-  O228  1  0.90279713  0.09368943  0.02157069  1
  O2-  O229  1  0.90176529  0.09089429  0.52159577  1
  O2-  O230  1  0.90485082  0.42586950  0.02077668  1
  O2-  O231  1  0.90737876  0.42835482  0.52016827  1
  O2-  O232  1  0.90465038  0.76166539  0.02540158  1
  O2-  O233  1  0.90338551  0.76243104  0.52109143  1
  O2-  O234  1  0.26190811  0.25966867  0.22684701  1
  O2-  O235  1  0.26183719  0.25785782  0.72654910  1
  O2-  O236  1  0.26236536  0.59420073  0.22861999  1
  O2-  O237  1  0.26116283  0.59196698  0.72597928  1
  O2-  O238  1  0.26015107  0.92837729  0.22793835  1
  O2-  O239  1  0.25919168  0.92658623  0.72729767  1
  O2-  O240  1  0.59572597  0.26048213  0.22774614  1
  O2-  O241  1  0.59579185  0.26187470  0.73246562  1
  O2-  O242  1  0.59558677  0.59364677  0.22576091  1
  O2-  O243  1  0.59704792  0.59420059  0.72924577  1
  O2-  O244  1  0.59577126  0.92722230  0.22839787  1
  O2-  O245  1  0.59710989  0.92930491  0.72970678  1
  O2-  O246  1  0.92809117  0.26134338  0.23011323  1
  O2-  O247  1  0.92629887  0.26153893  0.72885515  1
  O2-  O248  1  0.92693542  0.59436638  0.22598671  1
  O2-  O249  1  0.92967989  0.59645305  0.73111569  1
  O2-  O250  1  0.92782098  0.92876400  0.23104740  1
  O2-  O251  1  0.92781769  0.92879616  0.72756204  1
  O2-  O252  1  0.09856543  0.23911379  0.26811763  1
  O2-  O253  1  0.09636063  0.24203598  0.77185116  1
  O2-  O254  1  0.09754366  0.57156308  0.26649072  1
  O2-  O255  1  0.09533717  0.57115082  0.77415609  1
  O2-  O256  1  0.09548365  0.90641488  0.26270793  1
  O2-  O257  1  0.09470433  0.90346116  0.76628356  1
  O2-  O258  1  0.42998173  0.23465563  0.26636885  1
  O2-  O259  1  0.42886507  0.23932260  0.77162428  1
  O2-  O260  1  0.42814037  0.56995572  0.26917371  1
  O2-  O261  1  0.42984117  0.56831343  0.76600352  1
  O2-  O262  1  0.43169411  0.90449721  0.26809919  1
  O2-  O263  1  0.42928816  0.90940911  0.76389028  1
  O2-  O264  1  0.75907173  0.23822228  0.27227057  1
  O2-  O265  1  0.76158961  0.23344596  0.76674638  1
  O2-  O266  1  0.76468940  0.56835127  0.26731370  1
  O2-  O267  1  0.76469731  0.56918522  0.77263114  1
  O2-  O268  1  0.75963711  0.90640472  0.27281110  1
  O2-  O269  1  0.76280176  0.90327614  0.77304740  1
  O2-  O270  1  0.07792773  0.07572177  0.48318200  1
  O2-  O271  1  0.07497819  0.07531153  0.98134578  1
  O2-  O272  1  0.07613573  0.40926880  0.48428458  1
  O2-  O273  1  0.07140173  0.40422870  0.97978746  1
  O2-  O274  1  0.06812914  0.73518941  0.48377285  1
  O2-  O275  1  0.06847037  0.74070733  0.98121590  1
  O2-  O276  1  0.40367903  0.06951549  0.47704432  1
  O2-  O277  1  0.40372576  0.07357432  0.97662221  1
  O2-  O278  1  0.40485611  0.40282988  0.47830426  1
  O2-  O279  1  0.40451388  0.40409770  0.97702207  1
  O2-  O280  1  0.40391765  0.73899589  0.48172434  1
  O2-  O281  1  0.40493175  0.74135341  0.98810843  1
  O2-  O282  1  0.73653913  0.07423140  0.47932235  1
  O2-  O283  1  0.73683543  0.06913539  0.98184984  1
  O2-  O284  1  0.73781389  0.40562842  0.48097788  1
  O2-  O285  1  0.73542346  0.40144021  0.98050407  1
  O2-  O286  1  0.74173285  0.73806563  0.48167544  1
  O2-  O287  1  0.73810876  0.73598315  0.98166428  1
  O2-  O288  1  0.10013030  0.24117317  0.48271738  1
  O2-  O289  1  0.09577198  0.24040106  0.97674700  1
  O2-  O290  1  0.09800825  0.57113746  0.48301854  1
  O2-  O291  1  0.09551507  0.57197007  0.97717666  1
  O2-  O292  1  0.09311907  0.90587709  0.48887686  1
  O2-  O293  1  0.09498239  0.90313259  0.98223806  1
  O2-  O294  1  0.42910833  0.23753367  0.48034747  1
  O2-  O295  1  0.43027647  0.23738619  0.98186436  1
  O2-  O296  1  0.42618512  0.56863249  0.48014558  1
  O2-  O297  1  0.43170791  0.56969419  0.98401196  1
  O2-  O298  1  0.43378452  0.90472117  0.48371188  1
  O2-  O299  1  0.42650720  0.90804848  0.98459488  1
  O2-  O300  1  0.75956903  0.23660435  0.47994770  1
  O2-  O301  1  0.76253261  0.23782280  0.98063667  1
  O2-  O302  1  0.76478848  0.56903238  0.48271011  1
  O2-  O303  1  0.76533041  0.56965185  0.97761940  1
  O2-  O304  1  0.76055068  0.90559126  0.47626552  1
  O2-  O305  1  0.76099361  0.90466939  0.97899940  1
  O2-  O306  1  0.07534400  0.07581085  0.26724499  1
  O2-  O307  1  0.07694487  0.07549308  0.76794869  1
  O2-  O308  1  0.07544926  0.40935102  0.26666690  1
  O2-  O309  1  0.06963924  0.40586848  0.76931948  1
  O2-  O310  1  0.06798270  0.73612474  0.26638999  1
  O2-  O311  1  0.06857559  0.73995848  0.76880625  1
  O2-  O312  1  0.40304481  0.07100670  0.27159590  1
  O2-  O313  1  0.40363433  0.07272227  0.77402566  1
  O2-  O314  1  0.40352476  0.40397176  0.27197271  1
  O2-  O315  1  0.40499692  0.40439964  0.77271481  1
  O2-  O316  1  0.40387207  0.73845997  0.26819987  1
  O2-  O317  1  0.40634573  0.73975610  0.76258845  1
  O2-  O318  1  0.73651651  0.07194097  0.26937281  1
  O2-  O319  1  0.73625272  0.07155647  0.76881209  1
  O2-  O320  1  0.73822102  0.40530813  0.26783944  1
  O2-  O321  1  0.73520132  0.40180306  0.77105434  1
  O2-  O322  1  0.74200405  0.74155066  0.27044594  1
  O2-  O323  1  0.73683612  0.73319238  0.76634014  1
  O2-  O324  1  0.23912463  0.09523391  0.22869522  1
  O2-  O325  1  0.24125919  0.09502976  0.72941855  1
  O2-  O326  1  0.23918297  0.42833542  0.22694177  1
  O2-  O327  1  0.24057139  0.42607763  0.72698001  1
  O2-  O328  1  0.23781387  0.75934738  0.22798407  1
  O2-  O329  1  0.23724622  0.75973524  0.72926241  1
  O2-  O330  1  0.57091690  0.09396128  0.22938533  1
  O2-  O331  1  0.56818608  0.09873997  0.73155437  1
  O2-  O332  1  0.57177456  0.42814151  0.22826422  1
  O2-  O333  1  0.57076538  0.42857463  0.73083114  1
  O2-  O334  1  0.57118584  0.76363805  0.23240085  1
  O2-  O335  1  0.57625831  0.76148521  0.72683918  1
  O2-  O336  1  0.90346134  0.09409733  0.22938445  1
  O2-  O337  1  0.90217294  0.09069902  0.72789062  1
  O2-  O338  1  0.90702990  0.42863832  0.22944130  1
  O2-  O339  1  0.90703028  0.42732059  0.72909866  1
  O2-  O340  1  0.90384926  0.76285763  0.22791035  1
  O2-  O341  1  0.90453770  0.76071805  0.72454152  1
  O2-  O342  1  0.26014041  0.25942962  0.02251784  1
  O2-  O343  1  0.26207172  0.26001893  0.52525691  1
  O2-  O344  1  0.26167669  0.59246388  0.02392837  1
  O2-  O345  1  0.26179655  0.59397656  0.52278923  1
  O2-  O346  1  0.25868648  0.92676492  0.02216835  1
  O2-  O347  1  0.26069209  0.92744137  0.52215983  1
  O2-  O348  1  0.59282826  0.25945914  0.02261639  1
  O2-  O349  1  0.59765077  0.26403751  0.51694506  1
  O2-  O350  1  0.59873239  0.59427280  0.02219642  1
  O2-  O351  1  0.59518444  0.59168464  0.52161332  1
  O2-  O352  1  0.59578786  0.92572588  0.01958791  1
  O2-  O353  1  0.59612588  0.93222557  0.52307482  1
  O2-  O354  1  0.92950407  0.26367896  0.01720220  1
  O2-  O355  1  0.92440561  0.26042748  0.52351110  1
  O2-  O356  1  0.92846524  0.59781463  0.02021187  1
  O2-  O357  1  0.92723062  0.59434116  0.52159970  1
  O2-  O358  1  0.92880186  0.92997847  0.02000568  1
  O2-  O359  1  0.92575400  0.92816197  0.52072187  1
