# generated using pymatgen
data_Sr7Ca15Pr50Mn72O216
_symmetry_space_group_name_H-M   'P 1'
_cell_length_a   16.56007154
_cell_length_b   16.60535357
_cell_length_c   15.59213695
_cell_angle_alpha   90.00594178
_cell_angle_beta   90.00024631
_cell_angle_gamma   90.00645387
_symmetry_Int_Tables_number   1
_chemical_formula_structural   Sr7Ca15Pr50Mn72O216
_chemical_formula_sum   'Sr7 Ca15 Pr50 Mn72 O216'
_cell_volume   4287.61687474
_cell_formula_units_Z   1
loop_
 _symmetry_equiv_pos_site_id
 _symmetry_equiv_pos_as_xyz
  1  'x, y, z'
loop_
 _atom_type_symbol
 _atom_type_oxidation_number
  Sr2+  2.0
  Ca2+  2.0
  Pr3+  3.0
  Mn3.30+  3.3
  O2-  -2.0
loop_
 _atom_site_type_symbol
 _atom_site_label
 _atom_site_symmetry_multiplicity
 _atom_site_fract_x
 _atom_site_fract_y
 _atom_site_fract_z
 _atom_site_occupancy
  Sr2+  Sr0  1  0.16498576  0.49102684  0.37509437  1
  Sr2+  Sr1  1  1.00014053  0.99118956  0.87718233  1
  Sr2+  Sr2  1  0.83355844  0.82538026  0.87325673  1
  Sr2+  Sr3  1  0.16978639  0.15946807  0.37363915  1
  Sr2+  Sr4  1  1.00180318  0.32333923  0.87771406  1
  Sr2+  Sr5  1  0.50070271  0.51061054  0.62515313  1
  Sr2+  Sr6  1  0.66435239  0.65816984  0.37489821  1
  Ca2+  Ca7  1  0.83631515  0.84698091  0.62564606  1
  Ca2+  Ca8  1  0.33790680  0.98326768  0.87542254  1
  Ca2+  Ca9  1  0.33829898  0.98391853  0.37507189  1
  Ca2+  Ca10  1  0.17166290  0.51432485  0.62417849  1
  Ca2+  Ca11  1  0.83613740  0.51375276  0.12553554  1
  Ca2+  Ca12  1  0.50356927  0.18189590  0.12656394  1
  Ca2+  Ca13  1  0.33556791  0.31773348  0.87573746  1
  Ca2+  Ca14  1  0.49103358  0.15154152  0.37123387  1
  Ca2+  Ca15  1  0.33509366  0.31805193  0.37356122  1
  Ca2+  Ca16  1  -0.00573367  0.35124799  0.12549348  1
  Ca2+  Ca17  1  1.00482430  0.65061136  0.37431048  1
  Ca2+  Ca18  1  0.49715074  0.81830442  0.37516796  1
  Ca2+  Ca19  1  0.49838558  0.82028045  0.87549218  1
  Ca2+  Ca20  1  -0.00095214  0.01410010  0.12442037  1
  Ca2+  Ca21  1  0.67079749  0.31820398  0.87474718  1
  Pr3+  Pr22  1  0.16503052  0.50967722  0.12500866  1
  Pr3+  Pr23  1  0.16288772  0.48599851  0.87477735  1
  Pr3+  Pr24  1  0.66234268  0.34648983  0.12404983  1
  Pr3+  Pr25  1  0.16935218  0.84777820  0.12528243  1
  Pr3+  Pr26  1  1.00563934  0.98969914  0.37295090  1
  Pr3+  Pr27  1  0.83559683  0.18006623  0.62521773  1
  Pr3+  Pr28  1  0.32790153  0.34708405  0.62503713  1
  Pr3+  Pr29  1  0.49321063  0.48497669  0.37560708  1
  Pr3+  Pr30  1  0.83006772  0.15522752  0.87564518  1
  Pr3+  Pr31  1  -0.00061262  0.01195316  0.62550319  1
  Pr3+  Pr32  1  0.33717875  0.65320803  0.37510047  1
  Pr3+  Pr33  1  0.83126497  0.81967614  0.37634795  1
  Pr3+  Pr34  1  0.32966119  0.68003100  0.12567171  1
  Pr3+  Pr35  1  0.66458522  0.01079256  0.62533083  1
  Pr3+  Pr36  1  -0.00186426  0.68044384  0.62243316  1
  Pr3+  Pr37  1  1.00581184  0.32342001  0.37203752  1
  Pr3+  Pr38  1  -0.00435569  0.67618407  0.12746473  1
  Pr3+  Pr39  1  0.16267702  0.82301746  0.87470572  1
  Pr3+  Pr40  1  0.33047220  0.01341784  0.62409219  1
  Pr3+  Pr41  1  0.83159283  0.49082631  0.37383634  1
  Pr3+  Pr42  1  0.49668914  0.48280551  0.87441850  1
  Pr3+  Pr43  1  0.82921348  0.48568619  0.87620632  1
  Pr3+  Pr44  1  0.50362727  0.84583501  0.12641403  1
  Pr3+  Pr45  1  0.66166460  0.34801279  0.62625650  1
  Pr3+  Pr46  1  0.17057015  0.17900657  0.62452019  1
  Pr3+  Pr47  1  0.66645385  0.32234597  0.37611878  1
  Pr3+  Pr48  1  1.00134874  0.65691981  0.87491056  1
  Pr3+  Pr49  1  0.83747325  0.84822124  0.12511817  1
  Pr3+  Pr50  1  0.33188183  0.01372177  0.12558973  1
  Pr3+  Pr51  1  0.83823319  0.18161671  0.12508615  1
  Pr3+  Pr52  1  0.66390643  0.67980087  0.62395884  1
  Pr3+  Pr53  1  0.67097471  0.98609405  0.87542236  1
  Pr3+  Pr54  1  0.66943473  0.65722989  0.87485583  1
  Pr3+  Pr55  1  0.83482015  0.51287755  0.62516146  1
  Pr3+  Pr56  1  0.50139466  0.17839166  0.62372763  1
  Pr3+  Pr57  1  0.66621757  0.98801396  0.37479270  1
  Pr3+  Pr58  1  0.50299147  0.51206418  0.12478680  1
  Pr3+  Pr59  1  0.17194740  0.84737164  0.62446438  1
  Pr3+  Pr60  1  0.16435384  0.81988271  0.37462592  1
  Pr3+  Pr61  1  0.33273686  0.34144005  0.12450938  1
  Pr3+  Pr62  1  0.16534648  0.15409642  0.87627971  1
  Pr3+  Pr63  1  0.49591717  0.15275406  0.87727258  1
  Pr3+  Pr64  1  0.66090712  0.01689177  0.12512157  1
  Pr3+  Pr65  1  0.16452406  0.17819922  0.12579245  1
  Pr3+  Pr66  1  0.50231546  0.84463925  0.62370589  1
  Pr3+  Pr67  1  0.33017947  0.67825735  0.62433354  1
  Pr3+  Pr68  1  0.33707120  0.65468953  0.87530683  1
  Pr3+  Pr69  1  0.00137182  0.34708002  0.62480351  1
  Pr3+  Pr70  1  0.83033958  0.15505950  0.37486147  1
  Pr3+  Pr71  1  0.66740395  0.67853988  0.12659030  1
  Mn3.30+  Mn72  1  0.16755425  0.00056534  0.00066617  1
  Mn3.30+  Mn73  1  0.16936376  0.00117979  0.49616677  1
  Mn3.30+  Mn74  1  0.16572806  0.33272143  0.00127011  1
  Mn3.30+  Mn75  1  0.16819976  0.33471292  0.49747506  1
  Mn3.30+  Mn76  1  0.16685390  0.66692970  0.00036908  1
  Mn3.30+  Mn77  1  0.16510394  0.66553629  0.49952761  1
  Mn3.30+  Mn78  1  0.49863921  -0.00051910  -0.00043284  1
  Mn3.30+  Mn79  1  0.49755243  -0.00080588  0.49734745  1
  Mn3.30+  Mn80  1  0.50012717  0.33059334  -0.00187659  1
  Mn3.30+  Mn81  1  0.49710373  0.33094530  0.49921799  1
  Mn3.30+  Mn82  1  0.50058454  0.66753745  -0.00039132  1
  Mn3.30+  Mn83  1  0.49918965  0.66591085  0.49990409  1
  Mn3.30+  Mn84  1  0.83331571  0.00096172  0.00136815  1
  Mn3.30+  Mn85  1  0.83427739  -0.00068150  0.50001152  1
  Mn3.30+  Mn86  1  0.83228654  0.33442528  0.00061851  1
  Mn3.30+  Mn87  1  0.83378070  0.33502419  0.50005487  1
  Mn3.30+  Mn88  1  0.83358600  0.66680095  -0.00003862  1
  Mn3.30+  Mn89  1  0.83416979  0.66777239  0.49948649  1
  Mn3.30+  Mn90  1  -0.00029741  0.16762095  0.24903190  1
  Mn3.30+  Mn91  1  0.00101043  0.16763955  0.75104288  1
  Mn3.30+  Mn92  1  -0.00207459  0.50068636  0.24997409  1
  Mn3.30+  Mn93  1  0.00174996  0.50077014  0.74880092  1
  Mn3.30+  Mn94  1  0.00038799  0.83350274  0.25022444  1
  Mn3.30+  Mn95  1  -0.00024861  0.83444452  0.74925737  1
  Mn3.30+  Mn96  1  0.33611966  0.16614614  0.24936795  1
  Mn3.30+  Mn97  1  0.33418603  0.16613140  0.75239789  1
  Mn3.30+  Mn98  1  0.33253625  0.49678148  0.24944637  1
  Mn3.30+  Mn99  1  0.33187205  0.49856365  0.75084289  1
  Mn3.30+  Mn100  1  0.33545184  0.83448204  0.25120911  1
  Mn3.30+  Mn101  1  0.33572000  0.83402807  0.75207962  1
  Mn3.30+  Mn102  1  0.66320045  0.16776104  0.25172781  1
  Mn3.30+  Mn103  1  0.66513181  0.16728811  0.75010639  1
  Mn3.30+  Mn104  1  0.66699114  0.50046927  0.25020547  1
  Mn3.30+  Mn105  1  0.66535255  0.50018938  0.75136268  1
  Mn3.30+  Mn106  1  0.66692585  0.83401710  0.25161568  1
  Mn3.30+  Mn107  1  0.66686020  0.83355909  0.74919657  1
  Mn3.30+  Mn108  1  0.16831703  0.00143780  0.25071494  1
  Mn3.30+  Mn109  1  0.16858237  0.00020365  0.75196045  1
  Mn3.30+  Mn110  1  0.16605429  0.33366231  0.24878289  1
  Mn3.30+  Mn111  1  0.16801690  0.33371795  0.75187988  1
  Mn3.30+  Mn112  1  0.16467660  0.66582091  0.25037246  1
  Mn3.30+  Mn113  1  0.16741931  0.66624689  0.74930164  1
  Mn3.30+  Mn114  1  0.49765917  0.00092633  0.25147972  1
  Mn3.30+  Mn115  1  0.49834439  -0.00202676  0.75158983  1
  Mn3.30+  Mn116  1  0.49832446  0.33020620  0.24985099  1
  Mn3.30+  Mn117  1  0.49895314  0.33154687  0.75184944  1
  Mn3.30+  Mn118  1  0.49945578  0.66682195  0.25023950  1
  Mn3.30+  Mn119  1  0.50003068  0.66700307  0.75084757  1
  Mn3.30+  Mn120  1  0.83456790  0.00130495  0.25011406  1
  Mn3.30+  Mn121  1  0.83317558  -0.00103248  0.74882646  1
  Mn3.30+  Mn122  1  0.83395772  0.33587729  0.24929744  1
  Mn3.30+  Mn123  1  0.83221125  0.33335239  0.75094073  1
  Mn3.30+  Mn124  1  0.83410223  0.66580615  0.25219443  1
  Mn3.30+  Mn125  1  0.83388142  0.66887946  0.74900144  1
  Mn3.30+  Mn126  1  -0.00049626  0.16772615  0.00061576  1
  Mn3.30+  Mn127  1  0.00119523  0.16781244  0.49937339  1
  Mn3.30+  Mn128  1  -0.00275834  0.49986395  0.00005399  1
  Mn3.30+  Mn129  1  0.00234082  0.50191336  0.50090115  1
  Mn3.30+  Mn130  1  0.00033317  0.83457702  0.00069202  1
  Mn3.30+  Mn131  1  -0.00029083  0.83352616  0.49956379  1
  Mn3.30+  Mn132  1  0.33449688  0.16593073  0.00102530  1
  Mn3.30+  Mn133  1  0.33582725  0.16616874  0.49616150  1
  Mn3.30+  Mn134  1  0.33329126  0.49739383  -0.00039669  1
  Mn3.30+  Mn135  1  0.33098443  0.49808779  0.50024829  1
  Mn3.30+  Mn136  1  0.33541405  0.83470664  -0.00109273  1
  Mn3.30+  Mn137  1  0.33549685  0.83369238  0.49803442  1
  Mn3.30+  Mn138  1  0.66454769  0.16870450  0.00059290  1
  Mn3.30+  Mn139  1  0.66378646  0.16616970  0.49839891  1
  Mn3.30+  Mn140  1  0.66772332  0.49944716  0.00023071  1
  Mn3.30+  Mn141  1  0.66475783  0.50139191  0.49858142  1
  Mn3.30+  Mn142  1  0.66672963  0.83371348  0.00004498  1
  Mn3.30+  Mn143  1  0.66724065  0.83361481  0.49926009  1
  O2-  O144  1  0.02015048  0.15857721  0.12480218  1
  O2-  O145  1  0.02544947  0.16129361  0.62485047  1
  O2-  O146  1  0.02068218  0.50013054  0.12398786  1
  O2-  O147  1  0.02880671  0.49480981  0.62591121  1
  O2-  O148  1  0.02620928  0.82290777  0.12688526  1
  O2-  O149  1  0.02878556  0.82933489  0.62342663  1
  O2-  O150  1  0.36301090  0.16023706  0.12378577  1
  O2-  O151  1  0.35768306  0.16070851  0.62415055  1
  O2-  O152  1  0.36011006  0.49160791  0.12337009  1
  O2-  O153  1  0.35291911  0.49488188  0.62717549  1
  O2-  O154  1  0.35936891  0.82803786  0.12627219  1
  O2-  O155  1  0.35804472  0.82750869  0.62673411  1
  O2-  O156  1  0.69291053  0.16352038  0.12837839  1
  O2-  O157  1  0.69175153  0.15969901  0.62322964  1
  O2-  O158  1  0.69278364  0.49335067  0.12447817  1
  O2-  O159  1  0.68967080  0.49537094  0.62536377  1
  O2-  O160  1  0.69224044  0.82897288  0.12763473  1
  O2-  O161  1  0.69275186  0.82928487  0.62325566  1
  O2-  O162  1  0.13838181  0.32806520  0.12420468  1
  O2-  O163  1  0.14499545  0.32553287  0.62518995  1
  O2-  O164  1  0.14080984  0.66085864  0.12388501  1
  O2-  O165  1  0.14285414  0.66227781  0.62366832  1
  O2-  O166  1  0.14195282  0.99510308  0.12587416  1
  O2-  O167  1  0.14506035  0.99615521  0.62211867  1
  O2-  O168  1  0.47721446  0.32984160  0.12345060  1
  O2-  O169  1  0.47292043  0.32689730  0.62547747  1
  O2-  O170  1  0.47401380  0.66087749  0.12391488  1
  O2-  O171  1  0.47499985  0.66655215  0.62603774  1
  O2-  O172  1  0.47478211  0.99093218  0.12528821  1
  O2-  O173  1  0.47361378  0.99241213  0.62386140  1
  O2-  O174  1  0.80444804  0.32735968  0.12548605  1
  O2-  O175  1  0.80589934  0.32995326  0.62536699  1
  O2-  O176  1  0.81114232  0.66024255  0.12533293  1
  O2-  O177  1  0.80756010  0.65957294  0.62453791  1
  O2-  O178  1  0.80573679  0.99725010  0.12700325  1
  O2-  O179  1  0.80885132  0.99579157  0.62241847  1
  O2-  O180  1  0.31663810  0.17513152  0.37315253  1
  O2-  O181  1  0.30845682  0.17413553  0.87839441  1
  O2-  O182  1  0.31438266  0.50612756  0.37259807  1
  O2-  O183  1  0.30608623  0.50756469  0.87623836  1
  O2-  O184  1  0.30839303  0.83646111  0.37263946  1
  O2-  O185  1  0.30652243  0.83725941  0.87439933  1
  O2-  O186  1  0.63590579  0.17393850  0.37604918  1
  O2-  O187  1  0.64044614  0.17249264  0.87287866  1
  O2-  O188  1  0.63885113  0.50069546  0.37441605  1
  O2-  O189  1  0.64031498  0.51023976  0.87619226  1
  O2-  O190  1  0.64028015  0.83986446  0.37426531  1
  O2-  O191  1  0.64136320  0.83792728  0.87486659  1
  O2-  O192  1  0.97433572  0.17461572  0.37505695  1
  O2-  O193  1  0.97491668  0.16945565  0.87512168  1
  O2-  O194  1  0.97530118  0.50318801  0.37617820  1
  O2-  O195  1  0.97417662  0.50694974  0.87373936  1
  O2-  O196  1  0.97412090  0.84423151  0.37449836  1
  O2-  O197  1  0.98356058  0.83262283  0.87423924  1
  O2-  O198  1  0.19438200  0.00151588  0.37398964  1
  O2-  O199  1  0.19491908  0.00538923  0.87745871  1
  O2-  O200  1  0.19060574  0.33658975  0.37294481  1
  O2-  O201  1  0.19318982  0.33924130  0.87706845  1
  O2-  O202  1  0.19290298  0.67180354  0.37478231  1
  O2-  O203  1  0.19284085  0.67468865  0.87692754  1
  O2-  O204  1  0.52488907  0.00930352  0.37494364  1
  O2-  O205  1  0.52835782  0.00734946  0.87673017  1
  O2-  O206  1  0.52350457  0.33953118  0.37470661  1
  O2-  O207  1  0.52809830  0.33552794  0.87559072  1
  O2-  O208  1  0.51468772  0.66985302  0.37399051  1
  O2-  O209  1  0.52497593  0.67392609  0.87645452  1
  O2-  O210  1  0.86088291  0.00694151  0.37552796  1
  O2-  O211  1  0.84947703  0.00664725  0.87520421  1
  O2-  O212  1  0.86096051  0.34123156  0.37518144  1
  O2-  O213  1  0.85319745  0.33722193  0.87471330  1
  O2-  O214  1  0.86250284  0.67272970  0.37800697  1
  O2-  O215  1  0.85743883  0.67032662  0.87248691  1
  O2-  O216  1  0.23974693  0.09439244  0.02347719  1
  O2-  O217  1  0.24059605  0.09468138  0.52063016  1
  O2-  O218  1  0.23895373  0.42597091  0.02220888  1
  O2-  O219  1  0.23814858  0.42772908  0.52261252  1
  O2-  O220  1  0.23865593  0.76087061  0.02210180  1
  O2-  O221  1  0.23754970  0.76098627  0.51911977  1
  O2-  O222  1  0.56904469  0.09632572  0.02206453  1
  O2-  O223  1  0.57271044  0.09090837  0.52413165  1
  O2-  O224  1  0.57042733  0.42863745  0.01914747  1
  O2-  O225  1  0.57250155  0.42307489  0.51696761  1
  O2-  O226  1  0.57483807  0.76045018  0.02355239  1
  O2-  O227  1  0.57485061  0.76034177  0.52013744  1
  O2-  O228  1  0.90138699  0.09675611  0.01655742  1
  O2-  O229  1  0.90542638  0.09550051  0.52046077  1
  O2-  O230  1  0.89861155  0.43097792  0.01715185  1
  O2-  O231  1  0.90751508  0.42971651  0.52280105  1
  O2-  O232  1  0.90600517  0.76025723  0.02234177  1
  O2-  O233  1  0.90476738  0.76337467  0.52267514  1
  O2-  O234  1  0.26104349  0.25743512  0.22619448  1
  O2-  O235  1  0.26179955  0.26115868  0.72965586  1
  O2-  O236  1  0.26101151  0.59171945  0.22804952  1
  O2-  O237  1  0.26215929  0.59644691  0.73267980  1
  O2-  O238  1  0.26192573  0.92596919  0.22725247  1
  O2-  O239  1  0.26295910  0.92690465  0.72873588  1
  O2-  O240  1  0.59817229  0.26470898  0.23230258  1
  O2-  O241  1  0.59396804  0.25863082  0.72515462  1
  O2-  O242  1  0.59331328  0.59237541  0.22686069  1
  O2-  O243  1  0.59732256  0.59721587  0.73336529  1
  O2-  O244  1  0.59550999  0.93097518  0.23055255  1
  O2-  O245  1  0.59420221  0.92807110  0.72855045  1
  O2-  O246  1  0.92613918  0.26525154  0.22866582  1
  O2-  O247  1  0.92673683  0.26004870  0.72641556  1
  O2-  O248  1  0.92792728  0.59590501  0.23412785  1
  O2-  O249  1  0.92941723  0.59474817  0.72751229  1
  O2-  O250  1  0.93089251  0.92861769  0.22707121  1
  O2-  O251  1  0.92952258  0.92675415  0.72985400  1
  O2-  O252  1  0.09237445  0.24132527  0.26674116  1
  O2-  O253  1  0.09881138  0.23801581  0.76785376  1
  O2-  O254  1  0.09289263  0.57263121  0.26341417  1
  O2-  O255  1  0.09315869  0.57427925  0.77421296  1
  O2-  O256  1  0.09624940  0.90441414  0.27015938  1
  O2-  O257  1  0.09826241  0.90397938  0.76478115  1
  O2-  O258  1  0.43150865  0.23581562  0.26537359  1
  O2-  O259  1  0.43003445  0.23365490  0.76853436  1
  O2-  O260  1  0.42717624  0.56850447  0.26613371  1
  O2-  O261  1  0.42619522  0.57103325  0.77354837  1
  O2-  O262  1  0.43345745  0.90046968  0.26921135  1
  O2-  O263  1  0.43166213  0.90051619  0.77031985  1
  O2-  O264  1  0.76141399  0.24068979  0.27360903  1
  O2-  O265  1  0.76124304  0.23625240  0.76645100  1
  O2-  O266  1  0.76196905  0.57319439  0.27014964  1
  O2-  O267  1  0.76127377  0.57083749  0.76951002  1
  O2-  O268  1  0.76351044  0.90751289  0.27188180  1
  O2-  O269  1  0.75628909  0.90908464  0.76730109  1
  O2-  O270  1  0.07121085  0.07021950  0.48232571  1
  O2-  O271  1  0.07796684  0.07532681  0.98179763  1
  O2-  O272  1  0.06905134  0.40389295  0.48333658  1
  O2-  O273  1  0.07542601  0.41118459  0.98291143  1
  O2-  O274  1  0.07067332  0.73975748  0.47769786  1
  O2-  O275  1  0.07393327  0.73799491  0.98045392  1
  O2-  O276  1  0.40175796  0.06561975  0.48234012  1
  O2-  O277  1  0.40387471  0.06795270  0.97749835  1
  O2-  O278  1  0.40316361  0.40063480  0.48015719  1
  O2-  O279  1  0.40629195  0.40184718  0.97681599  1
  O2-  O280  1  0.40193644  0.73610477  0.48372358  1
  O2-  O281  1  0.40270120  0.73683676  0.98309193  1
  O2-  O282  1  0.73763660  0.07430551  0.47735610  1
  O2-  O283  1  0.73433499  0.07399043  0.98150874  1
  O2-  O284  1  0.74015572  0.40715730  0.47986824  1
  O2-  O285  1  0.73519358  0.40414419  0.97722050  1
  O2-  O286  1  0.74131469  0.74177931  0.48035436  1
  O2-  O287  1  0.73827307  0.73580721  0.98505453  1
  O2-  O288  1  0.09262763  0.24254026  0.48277265  1
  O2-  O289  1  0.09764957  0.23755806  0.98238679  1
  O2-  O290  1  0.09123523  0.57563010  0.48174917  1
  O2-  O291  1  0.09561702  0.57435470  0.97871568  1
  O2-  O292  1  0.09694441  0.90580586  0.47870823  1
  O2-  O293  1  0.09936078  0.90363181  0.98462279  1
  O2-  O294  1  0.43383685  0.23182412  0.48338115  1
  O2-  O295  1  0.42835341  0.23730948  0.98064546  1
  O2-  O296  1  0.42483754  0.56989494  0.48113949  1
  O2-  O297  1  0.42861016  0.57034387  0.97916536  1
  O2-  O298  1  0.43343239  0.90055273  0.48045314  1
  O2-  O299  1  0.43257817  0.90168988  0.98090785  1
  O2-  O300  1  0.75917604  0.23959046  0.47892774  1
  O2-  O301  1  0.76329536  0.23730235  0.98230322  1
  O2-  O302  1  0.76373575  0.57188894  0.48256936  1
  O2-  O303  1  0.76107854  0.57333839  0.97770766  1
  O2-  O304  1  0.75974753  0.90794797  0.47587815  1
  O2-  O305  1  0.75910539  0.90731406  0.98425637  1
  O2-  O306  1  0.07278943  0.07197154  0.26783084  1
  O2-  O307  1  0.07554099  0.07409680  0.76711684  1
  O2-  O308  1  0.06829155  0.40752848  0.26501877  1
  O2-  O309  1  0.07374910  0.40694259  0.76850853  1
  O2-  O310  1  0.07027804  0.73954006  0.27327398  1
  O2-  O311  1  0.07334996  0.73891820  0.76783646  1
  O2-  O312  1  0.40110130  0.06512292  0.26842781  1
  O2-  O313  1  0.40482794  0.06826803  0.77150706  1
  O2-  O314  1  0.40406499  0.40181532  0.26969188  1
  O2-  O315  1  0.40302592  0.40321235  0.77249657  1
  O2-  O316  1  0.40106286  0.73581521  0.26519075  1
  O2-  O317  1  0.40297187  0.73685806  0.76904130  1
  O2-  O318  1  0.73535250  0.07486564  0.27325138  1
  O2-  O319  1  0.73597470  0.07404575  0.76876981  1
  O2-  O320  1  0.73809087  0.40516302  0.27264097  1
  O2-  O321  1  0.73691519  0.40633889  0.77064191  1
  O2-  O322  1  0.74359396  0.74089248  0.26877427  1
  O2-  O323  1  0.73574189  0.73772566  0.76638169  1
  O2-  O324  1  0.24101288  0.09464420  0.22575415  1
  O2-  O325  1  0.24017858  0.09582123  0.73041825  1
  O2-  O326  1  0.23999603  0.42534793  0.22387777  1
  O2-  O327  1  0.23638759  0.42955486  0.73041831  1
  O2-  O328  1  0.23763644  0.76057910  0.22928473  1
  O2-  O329  1  0.24002518  0.76199551  0.72918226  1
  O2-  O330  1  0.56999914  0.09469307  0.22678150  1
  O2-  O331  1  0.57120180  0.09327843  0.72902754  1
  O2-  O332  1  0.57008368  0.42684512  0.22979378  1
  O2-  O333  1  0.57258609  0.42646993  0.73377880  1
  O2-  O334  1  0.57454105  0.75888316  0.22891253  1
  O2-  O335  1  0.57450279  0.76155215  0.72744513  1
  O2-  O336  1  0.90132659  0.09799787  0.23463952  1
  O2-  O337  1  0.90523950  0.09380353  0.72884313  1
  O2-  O338  1  0.90082030  0.43252399  0.23096697  1
  O2-  O339  1  0.90656522  0.42894376  0.72950560  1
  O2-  O340  1  0.90496545  0.76263950  0.23019777  1
  O2-  O341  1  0.90878085  0.76121679  0.72493289  1
  O2-  O342  1  0.25948373  0.25822820  0.02457496  1
  O2-  O343  1  0.26194221  0.25967705  0.51990618  1
  O2-  O344  1  0.25961236  0.59415744  0.02177111  1
  O2-  O345  1  0.26122481  0.59642586  0.51666089  1
  O2-  O346  1  0.26228526  0.92685645  0.02261076  1
  O2-  O347  1  0.26300939  0.92614702  0.52077637  1
  O2-  O348  1  0.59577846  0.26188798  0.02041771  1
  O2-  O349  1  0.59531111  0.26128518  0.52263284  1
  O2-  O350  1  0.59609646  0.59412838  0.02229727  1
  O2-  O351  1  0.59409602  0.59513307  0.51857220  1
  O2-  O352  1  0.59448621  0.93023662  0.02175336  1
  O2-  O353  1  0.59531205  0.92827358  0.52032088  1
  O2-  O354  1  0.92588775  0.26398466  0.02354007  1
  O2-  O355  1  0.92559587  0.26220265  0.52252001  1
  O2-  O356  1  0.92961880  0.59862060  0.01538725  1
  O2-  O357  1  0.92665134  0.59330975  0.52392460  1
  O2-  O358  1  0.92718668  0.92787491  0.02360559  1
  O2-  O359  1  0.93227834  0.92905544  0.51919496  1
