# generated using pymatgen
data_Sr7Ca15Pr50Mn72O216
_symmetry_space_group_name_H-M   'P 1'
_cell_length_a   16.55961570
_cell_length_b   16.60496183
_cell_length_c   15.59256070
_cell_angle_alpha   89.99950618
_cell_angle_beta   90.00069776
_cell_angle_gamma   89.99923288
_symmetry_Int_Tables_number   1
_chemical_formula_structural   Sr7Ca15Pr50Mn72O216
_chemical_formula_sum   'Sr7 Ca15 Pr50 Mn72 O216'
_cell_volume   4287.51427527
_cell_formula_units_Z   1
loop_
 _symmetry_equiv_pos_site_id
 _symmetry_equiv_pos_as_xyz
  1  'x, y, z'
loop_
 _atom_type_symbol
 _atom_type_oxidation_number
  Sr2+  2.0
  Ca2+  2.0
  Pr3+  3.0
  Mn3.30+  3.3
  O2-  -2.0
loop_
 _atom_site_type_symbol
 _atom_site_label
 _atom_site_symmetry_multiplicity
 _atom_site_fract_x
 _atom_site_fract_y
 _atom_site_fract_z
 _atom_site_occupancy
  Sr2+  Sr0  1  0.83365667  0.49108468  0.37566876  1
  Sr2+  Sr1  1  0.83309457  0.82586298  0.37825414  1
  Sr2+  Sr2  1  0.33443980  0.65617386  0.87535586  1
  Sr2+  Sr3  1  1.00226825  0.32075555  0.87548583  1
  Sr2+  Sr4  1  0.83262882  0.48552176  0.87400957  1
  Sr2+  Sr5  1  0.33668882  0.32184535  0.37364879  1
  Sr2+  Sr6  1  0.50235770  0.15933296  0.87559243  1
  Ca2+  Ca7  1  -0.00731916  0.01780022  0.12653781  1
  Ca2+  Ca8  1  0.32752777  0.34993082  0.12495165  1
  Ca2+  Ca9  1  0.83512468  0.84682037  0.62265411  1
  Ca2+  Ca10  1  0.49656564  0.15302792  0.37477671  1
  Ca2+  Ca11  1  -0.00229536  0.67897595  0.12567600  1
  Ca2+  Ca12  1  0.83755474  0.18145328  0.12418839  1
  Ca2+  Ca13  1  0.67171838  0.31827778  0.87613278  1
  Ca2+  Ca14  1  0.67089126  0.98387257  0.37512916  1
  Ca2+  Ca15  1  0.66887160  0.67909550  0.62344856  1
  Ca2+  Ca16  1  0.83689431  0.51352621  0.62537248  1
  Ca2+  Ca17  1  0.16936101  0.84887695  0.62454753  1
  Ca2+  Ca18  1  0.16101650  0.15353760  0.87615721  1
  Ca2+  Ca19  1  1.00244590  0.98337819  0.37408296  1
  Ca2+  Ca20  1  0.16920833  0.51365296  0.62655520  1
  Ca2+  Ca21  1  0.16918640  0.51253298  0.12339170  1
  Pr3+  Pr22  1  0.50300114  0.84568951  0.12471845  1
  Pr3+  Pr23  1  0.16925517  0.18083882  0.12368321  1
  Pr3+  Pr24  1  0.49703697  0.48715373  0.87482898  1
  Pr3+  Pr25  1  0.33465921  0.65387299  0.37502526  1
  Pr3+  Pr26  1  0.83927793  0.51444242  0.12470874  1
  Pr3+  Pr27  1  0.16286061  0.82039728  0.87315629  1
  Pr3+  Pr28  1  0.32703442  0.68208183  0.62579025  1
  Pr3+  Pr29  1  0.16296564  0.48626680  0.37533849  1
  Pr3+  Pr30  1  0.32978642  0.01223218  0.62472582  1
  Pr3+  Pr31  1  0.82985127  0.15879197  0.87766683  1
  Pr3+  Pr32  1  0.50504562  0.51560321  0.62508379  1
  Pr3+  Pr33  1  0.67076584  0.65247520  0.87291846  1
  Pr3+  Pr34  1  0.83175483  0.82036717  0.87217344  1
  Pr3+  Pr35  1  0.82973934  0.15127521  0.37276217  1
  Pr3+  Pr36  1  -0.00254464  0.01035664  0.62276688  1
  Pr3+  Pr37  1  0.32841621  0.67758578  0.12413117  1
  Pr3+  Pr38  1  0.83594524  0.17846489  0.62420690  1
  Pr3+  Pr39  1  0.15989204  0.82104419  0.37655018  1
  Pr3+  Pr40  1  0.33001313  0.34771928  0.62492585  1
  Pr3+  Pr41  1  0.33481097  0.99056907  0.37387203  1
  Pr3+  Pr42  1  0.33055201  0.01398272  0.12526586  1
  Pr3+  Pr43  1  1.00330066  0.65275850  0.87543727  1
  Pr3+  Pr44  1  0.50052191  0.18044495  0.12622746  1
  Pr3+  Pr45  1  0.50321734  0.84448024  0.62554720  1
  Pr3+  Pr46  1  0.16208174  0.48664021  0.87434355  1
  Pr3+  Pr47  1  0.50201137  0.17860852  0.62444532  1
  Pr3+  Pr48  1  0.33465896  0.32159077  0.87620969  1
  Pr3+  Pr49  1  0.66778355  0.34429461  0.12308758  1
  Pr3+  Pr50  1  0.66633735  0.01227575  0.12880806  1
  Pr3+  Pr51  1  0.66656739  0.67713529  0.12502624  1
  Pr3+  Pr52  1  -0.00433581  0.34879136  0.62581305  1
  Pr3+  Pr53  1  0.16183071  0.15154523  0.37380908  1
  Pr3+  Pr54  1  0.67085772  0.98845069  0.87525285  1
  Pr3+  Pr55  1  -0.00329369  0.68041147  0.62545857  1
  Pr3+  Pr56  1  0.66627535  0.00961147  0.62172697  1
  Pr3+  Pr57  1  0.66930231  0.32130201  0.37458530  1
  Pr3+  Pr58  1  0.33426397  0.99134174  0.87600312  1
  Pr3+  Pr59  1  0.84088665  0.84647113  0.12615580  1
  Pr3+  Pr60  1  0.50009481  0.82230213  0.37491264  1
  Pr3+  Pr61  1  0.16889194  0.17756188  0.62591576  1
  Pr3+  Pr62  1  0.66568167  0.34525653  0.62703719  1
  Pr3+  Pr63  1  1.00229075  0.99086549  0.87605090  1
  Pr3+  Pr64  1  0.49751443  0.48703966  0.37563277  1
  Pr3+  Pr65  1  1.00026179  0.65490806  0.37467959  1
  Pr3+  Pr66  1  1.00265110  0.32097052  0.37407093  1
  Pr3+  Pr67  1  -0.00260702  0.34523527  0.12426148  1
  Pr3+  Pr68  1  0.49660736  0.82115337  0.87537478  1
  Pr3+  Pr69  1  0.16436054  0.84593326  0.12460440  1
  Pr3+  Pr70  1  0.67363124  0.65448527  0.37719649  1
  Pr3+  Pr71  1  0.49988902  0.50960053  0.12544706  1
  Mn3.30+  Mn72  1  0.16360659  0.00207368  0.00180122  1
  Mn3.30+  Mn73  1  0.16485388  -0.00158413  0.49942984  1
  Mn3.30+  Mn74  1  0.16715593  0.33341575  0.00044629  1
  Mn3.30+  Mn75  1  0.16675614  0.33325140  0.50046692  1
  Mn3.30+  Mn76  1  0.16519607  0.66558041  0.00131381  1
  Mn3.30+  Mn77  1  0.16611713  0.66659699  0.50168407  1
  Mn3.30+  Mn78  1  0.50086216  0.00195496  0.00036313  1
  Mn3.30+  Mn79  1  0.50058086  0.00050828  0.49770838  1
  Mn3.30+  Mn80  1  0.49921320  0.33318435  0.00056118  1
  Mn3.30+  Mn81  1  0.49998347  0.33229768  0.49978607  1
  Mn3.30+  Mn82  1  0.49969567  0.66553937  0.00034283  1
  Mn3.30+  Mn83  1  0.50154747  0.66765680  0.50040204  1
  Mn3.30+  Mn84  1  0.83573303  0.00201620  0.00200987  1
  Mn3.30+  Mn85  1  0.83286988  -0.00167078  0.49762428  1
  Mn3.30+  Mn86  1  0.83335463  0.33188938  -0.00022553  1
  Mn3.30+  Mn87  1  0.83354490  0.33484276  0.49949048  1
  Mn3.30+  Mn88  1  0.83526508  0.66660784  -0.00107790  1
  Mn3.30+  Mn89  1  0.83304182  0.66718425  0.50322128  1
  Mn3.30+  Mn90  1  -0.00214358  0.16435084  0.24912551  1
  Mn3.30+  Mn91  1  0.00132043  0.16687678  0.75082009  1
  Mn3.30+  Mn92  1  0.00199607  0.50100299  0.24861987  1
  Mn3.30+  Mn93  1  0.00006377  0.49983483  0.74844132  1
  Mn3.30+  Mn94  1  -0.00063472  0.83366621  0.25029508  1
  Mn3.30+  Mn95  1  -0.00069439  0.83450856  0.74752493  1
  Mn3.30+  Mn96  1  0.33364289  0.16880216  0.25039841  1
  Mn3.30+  Mn97  1  0.33216726  0.16717958  0.75233373  1
  Mn3.30+  Mn98  1  0.33121568  0.49883232  0.24898873  1
  Mn3.30+  Mn99  1  0.33205004  0.50147084  0.74970584  1
  Mn3.30+  Mn100  1  0.33171971  0.83412242  0.24982297  1
  Mn3.30+  Mn101  1  0.33187910  0.83473067  0.74984802  1
  Mn3.30+  Mn102  1  0.66621425  0.16535393  0.25132378  1
  Mn3.30+  Mn103  1  0.66722843  0.16605268  0.75024890  1
  Mn3.30+  Mn104  1  0.66784869  0.49944921  0.24968434  1
  Mn3.30+  Mn105  1  0.66928054  0.49946710  0.74894899  1
  Mn3.30+  Mn106  1  0.66937144  0.83375678  0.25078504  1
  Mn3.30+  Mn107  1  0.66792366  0.83214015  0.74803788  1
  Mn3.30+  Mn108  1  0.16203502  0.00017402  0.24784557  1
  Mn3.30+  Mn109  1  0.16592983  0.00036488  0.75079736  1
  Mn3.30+  Mn110  1  0.16846614  0.33373939  0.24936512  1
  Mn3.30+  Mn111  1  0.16540933  0.33251103  0.74925784  1
  Mn3.30+  Mn112  1  0.16498535  0.66577388  0.24770520  1
  Mn3.30+  Mn113  1  0.16633359  0.66628525  0.74884763  1
  Mn3.30+  Mn114  1  0.50123060  0.00129181  0.25230944  1
  Mn3.30+  Mn115  1  0.50045256  0.00108586  0.75076465  1
  Mn3.30+  Mn116  1  0.49849133  0.33236803  0.24897029  1
  Mn3.30+  Mn117  1  0.50075145  0.33315628  0.75166882  1
  Mn3.30+  Mn118  1  0.50040355  0.66627907  0.25031808  1
  Mn3.30+  Mn119  1  0.50111498  0.66725634  0.74904316  1
  Mn3.30+  Mn120  1  0.83464795  0.00004344  0.25088492  1
  Mn3.30+  Mn121  1  0.83417896  0.00003810  0.74877483  1
  Mn3.30+  Mn122  1  0.83426115  0.33301301  0.25042959  1
  Mn3.30+  Mn123  1  0.83214354  0.33358432  0.75073650  1
  Mn3.30+  Mn124  1  0.83477544  0.66834789  0.25047392  1
  Mn3.30+  Mn125  1  0.83297103  0.66548190  0.74688911  1
  Mn3.30+  Mn126  1  0.00015901  0.16641457  0.00117582  1
  Mn3.30+  Mn127  1  -0.00029806  0.16512570  0.49836950  1
  Mn3.30+  Mn128  1  0.00208305  0.49988436  0.00112272  1
  Mn3.30+  Mn129  1  0.00029123  0.50108948  0.50178939  1
  Mn3.30+  Mn130  1  -0.00066496  0.83372198  0.00035809  1
  Mn3.30+  Mn131  1  -0.00077368  0.83386123  0.50172551  1
  Mn3.30+  Mn132  1  0.33168513  0.16899745  -0.00061518  1
  Mn3.30+  Mn133  1  0.33454554  0.16717338  0.49845593  1
  Mn3.30+  Mn134  1  0.33071589  0.49960804  0.00007792  1
  Mn3.30+  Mn135  1  0.33254821  0.50053598  0.50135972  1
  Mn3.30+  Mn136  1  0.33235358  0.83423013  0.00092058  1
  Mn3.30+  Mn137  1  0.33142648  0.83463904  0.49903258  1
  Mn3.30+  Mn138  1  0.66803266  0.16663606  0.00296769  1
  Mn3.30+  Mn139  1  0.66543819  0.16479575  0.49649491  1
  Mn3.30+  Mn140  1  0.66804830  0.49775137  -0.00147620  1
  Mn3.30+  Mn141  1  0.66936819  0.50080768  0.50257067  1
  Mn3.30+  Mn142  1  0.66861115  0.83298688  0.00007199  1
  Mn3.30+  Mn143  1  0.66850635  0.83269859  0.50149205  1
  O2-  O144  1  0.02565550  0.16156141  0.12678677  1
  O2-  O145  1  0.02488531  0.15847818  0.62267363  1
  O2-  O146  1  0.02714416  0.49240949  0.12533130  1
  O2-  O147  1  0.02741328  0.49604086  0.62425341  1
  O2-  O148  1  0.02202488  0.82318553  0.12409333  1
  O2-  O149  1  0.02844186  0.82907293  0.62616715  1
  O2-  O150  1  0.35660550  0.16001132  0.12538662  1
  O2-  O151  1  0.35719437  0.16045511  0.62592019  1
  O2-  O152  1  0.35669444  0.49747901  0.12457602  1
  O2-  O153  1  0.36039380  0.49639764  0.62509077  1
  O2-  O154  1  0.35844533  0.82826235  0.12683565  1
  O2-  O155  1  0.35886554  0.83132394  0.62392056  1
  O2-  O156  1  0.69504205  0.15957531  0.12842172  1
  O2-  O157  1  0.69179814  0.15841014  0.62091800  1
  O2-  O158  1  0.69370438  0.49445490  0.12257533  1
  O2-  O159  1  0.69490514  0.49017418  0.62565875  1
  O2-  O160  1  0.69536668  0.82558925  0.12276785  1
  O2-  O161  1  0.69206713  0.82715559  0.62615258  1
  O2-  O162  1  0.14076241  0.32627316  0.12565924  1
  O2-  O163  1  0.13980495  0.32302942  0.62456829  1
  O2-  O164  1  0.14002083  0.65959630  0.12503892  1
  O2-  O165  1  0.14110132  0.65787913  0.62488004  1
  O2-  O166  1  0.13522315  0.99423144  0.12496651  1
  O2-  O167  1  0.14246822  0.99631209  0.62469984  1
  O2-  O168  1  0.47127674  0.32930321  0.12553658  1
  O2-  O169  1  0.47495145  0.32730864  0.62644291  1
  O2-  O170  1  0.47317637  0.65993555  0.12688671  1
  O2-  O171  1  0.47187333  0.66449188  0.62415549  1
  O2-  O172  1  0.47519961  0.99363487  0.12573581  1
  O2-  O173  1  0.47363554  0.99324290  0.62310040  1
  O2-  O174  1  0.81169352  0.32936519  0.12662711  1
  O2-  O175  1  0.80923667  0.32497754  0.62396615  1
  O2-  O176  1  0.81060556  0.66394962  0.12298135  1
  O2-  O177  1  0.80907720  0.65718381  0.62620866  1
  O2-  O178  1  0.80878934  0.99238513  0.12544372  1
  O2-  O179  1  0.81037776  0.99783562  0.62346872  1
  O2-  O180  1  0.30660627  0.16525782  0.37307824  1
  O2-  O181  1  0.30347106  0.17349718  0.87568156  1
  O2-  O182  1  0.30804589  0.50580367  0.37613118  1
  O2-  O183  1  0.30666256  0.50118473  0.87450042  1
  O2-  O184  1  0.30463462  0.84006753  0.37247340  1
  O2-  O185  1  0.30740347  0.84149791  0.87640841  1
  O2-  O186  1  0.63671624  0.17626582  0.37418818  1
  O2-  O187  1  0.65172460  0.17032999  0.87764672  1
  O2-  O188  1  0.64166204  0.50612653  0.37667790  1
  O2-  O189  1  0.64004863  0.50697508  0.87465350  1
  O2-  O190  1  0.64316927  0.83676062  0.37596824  1
  O2-  O191  1  0.64102043  0.83995976  0.87560691  1
  O2-  O192  1  0.97410620  0.17478861  0.37433126  1
  O2-  O193  1  0.97451896  0.16425887  0.87550978  1
  O2-  O194  1  0.98234146  0.50526892  0.37511744  1
  O2-  O195  1  0.98246458  0.50498621  0.87532430  1
  O2-  O196  1  0.98299573  0.83607421  0.37613385  1
  O2-  O197  1  0.97523254  0.84130741  0.87317426  1
  O2-  O198  1  0.19089207  0.00341939  0.37259063  1
  O2-  O199  1  0.19020524  0.00646617  0.87757282  1
  O2-  O200  1  0.18699067  0.33824936  0.37505842  1
  O2-  O201  1  0.19135548  0.34055082  0.87433239  1
  O2-  O202  1  0.19136644  0.67439545  0.37546689  1
  O2-  O203  1  0.18562342  0.67347024  0.87474797  1
  O2-  O204  1  0.52757352  0.00635148  0.37461815  1
  O2-  O205  1  0.52722749  0.00309102  0.87749339  1
  O2-  O206  1  0.52578806  0.34130675  0.37379663  1
  O2-  O207  1  0.52734586  0.33990791  0.87493395  1
  O2-  O208  1  0.52826897  0.67273720  0.37432620  1
  O2-  O209  1  0.52618628  0.67217192  0.87509894  1
  O2-  O210  1  0.86095308  0.00447265  0.37361992  1
  O2-  O211  1  0.85773153  0.00754669  0.87643258  1
  O2-  O212  1  0.85842252  0.33631598  0.37524259  1
  O2-  O213  1  0.85195529  0.32722934  0.87412729  1
  O2-  O214  1  0.85582408  0.66945354  0.37761440  1
  O2-  O215  1  0.85863254  0.67259198  0.87279988  1
  O2-  O216  1  0.23804534  0.09345062  0.02358049  1
  O2-  O217  1  0.23736290  0.09364997  0.51841409  1
  O2-  O218  1  0.23670393  0.43021893  0.01885001  1
  O2-  O219  1  0.23822216  0.42946521  0.52250389  1
  O2-  O220  1  0.23705030  0.75976008  0.02121084  1
  O2-  O221  1  0.23586245  0.76230025  0.52236819  1
  O2-  O222  1  0.57476331  0.09261232  0.02500694  1
  O2-  O223  1  0.57209507  0.09214845  0.52341460  1
  O2-  O224  1  0.57106349  0.42747681  0.02219844  1
  O2-  O225  1  0.57313898  0.42843148  0.52099983  1
  O2-  O226  1  0.57403313  0.76016456  0.02191111  1
  O2-  O227  1  0.56902609  0.76297452  0.51776862  1
  O2-  O228  1  0.90240026  0.09766170  0.02003684  1
  O2-  O229  1  0.90500061  0.09511161  0.51851849  1
  O2-  O230  1  0.90713427  0.42716524  0.02074902  1
  O2-  O231  1  0.90755680  0.42921227  0.52309152  1
  O2-  O232  1  0.90343966  0.76559715  0.01343964  1
  O2-  O233  1  0.90634668  0.76030648  0.52491918  1
  O2-  O234  1  0.26158620  0.26168741  0.22727989  1
  O2-  O235  1  0.26147946  0.26232622  0.72858989  1
  O2-  O236  1  0.26307413  0.59834696  0.23365996  1
  O2-  O237  1  0.26249376  0.59550200  0.72934702  1
  O2-  O238  1  0.25805081  0.93004944  0.22696412  1
  O2-  O239  1  0.26256813  0.92992990  0.73295993  1
  O2-  O240  1  0.59463235  0.26130303  0.22607929  1
  O2-  O241  1  0.59309149  0.25695513  0.72840930  1
  O2-  O242  1  0.59276948  0.59329827  0.22790618  1
  O2-  O243  1  0.59700083  0.59524191  0.72686092  1
  O2-  O244  1  0.59367342  0.92391622  0.22818266  1
  O2-  O245  1  0.59688197  0.92569411  0.72837964  1
  O2-  O246  1  0.93112389  0.26310469  0.23293653  1
  O2-  O247  1  0.92871953  0.25912881  0.72715316  1
  O2-  O248  1  0.92916885  0.59552639  0.22958228  1
  O2-  O249  1  0.93026172  0.59678222  0.73215714  1
  O2-  O250  1  0.92956770  0.92820957  0.22768295  1
  O2-  O251  1  0.92949208  0.93001693  0.73093405  1
  O2-  O252  1  0.09517925  0.23733766  0.26946296  1
  O2-  O253  1  0.09781581  0.23327886  0.76727250  1
  O2-  O254  1  0.09562639  0.57313745  0.27285723  1
  O2-  O255  1  0.09558181  0.57414326  0.77070403  1
  O2-  O256  1  0.09714365  0.90142974  0.26594988  1
  O2-  O257  1  0.09411913  0.90693347  0.77223664  1
  O2-  O258  1  0.43308961  0.23505875  0.26834088  1
  O2-  O259  1  0.42363289  0.24114592  0.76921934  1
  O2-  O260  1  0.42849884  0.57354680  0.27192787  1
  O2-  O261  1  0.43259829  0.57155798  0.76727373  1
  O2-  O262  1  0.42891102  0.90816115  0.27157213  1
  O2-  O263  1  0.42920545  0.90845341  0.77211872  1
  O2-  O264  1  0.75795160  0.23839440  0.27320709  1
  O2-  O265  1  0.76383638  0.23492455  0.76250640  1
  O2-  O266  1  0.75953593  0.57479487  0.26439148  1
  O2-  O267  1  0.75822191  0.57280403  0.77131268  1
  O2-  O268  1  0.76218530  0.90646490  0.26422998  1
  O2-  O269  1  0.75985935  0.90673576  0.77155766  1
  O2-  O270  1  0.07018466  0.07019798  0.47752846  1
  O2-  O271  1  0.07015302  0.07168960  0.98144646  1
  O2-  O272  1  0.07134149  0.40448116  0.48104471  1
  O2-  O273  1  0.07487702  0.40575194  0.98245667  1
  O2-  O274  1  0.07065076  0.73703639  0.48126045  1
  O2-  O275  1  0.07166943  0.74116008  0.97810547  1
  O2-  O276  1  0.40401508  0.06973056  0.48187737  1
  O2-  O277  1  0.40149745  0.07355691  0.98317228  1
  O2-  O278  1  0.40789647  0.40758757  0.48323387  1
  O2-  O279  1  0.40543649  0.40826449  0.97778252  1
  O2-  O280  1  0.40308177  0.74166282  0.47764163  1
  O2-  O281  1  0.41025463  0.74171094  0.98334539  1
  O2-  O282  1  0.73670915  0.07242616  0.47552203  1
  O2-  O283  1  0.73850244  0.06981418  0.98191573  1
  O2-  O284  1  0.73539715  0.40221528  0.48268496  1
  O2-  O285  1  0.73396858  0.40202294  0.98277431  1
  O2-  O286  1  0.73644866  0.73756945  0.48384372  1
  O2-  O287  1  0.73767913  0.73910656  0.97717391  1
  O2-  O288  1  0.09371931  0.23611509  0.47901203  1
  O2-  O289  1  0.09892926  0.23523722  0.98357731  1
  O2-  O290  1  0.09542873  0.57349872  0.47811761  1
  O2-  O291  1  0.09501654  0.57313896  0.97815112  1
  O2-  O292  1  0.09645663  0.90467175  0.48270544  1
  O2-  O293  1  0.09487705  0.90428409  0.97916354  1
  O2-  O294  1  0.43104196  0.23482269  0.48299478  1
  O2-  O295  1  0.42630018  0.24217822  0.98063060  1
  O2-  O296  1  0.42970441  0.57409875  0.47874056  1
  O2-  O297  1  0.42912127  0.56938406  0.98298823  1
  O2-  O298  1  0.42860362  0.90713198  0.47600267  1
  O2-  O299  1  0.42793275  0.90843177  0.98058063  1
  O2-  O300  1  0.76011708  0.23663280  0.47857656  1
  O2-  O301  1  0.76167076  0.23709296  0.98693280  1
  O2-  O302  1  0.75884683  0.57454853  0.48113271  1
  O2-  O303  1  0.75914548  0.57321465  0.98225134  1
  O2-  O304  1  0.75672385  0.90798010  0.48539272  1
  O2-  O305  1  0.76327041  0.90527079  0.97849139  1
  O2-  O306  1  0.06951534  0.07124351  0.27416239  1
  O2-  O307  1  0.06952505  0.06967674  0.76638566  1
  O2-  O308  1  0.07219481  0.40406299  0.27005204  1
  O2-  O309  1  0.07398882  0.40492009  0.76577705  1
  O2-  O310  1  0.07330048  0.73857883  0.27095634  1
  O2-  O311  1  0.06925025  0.73907735  0.76983845  1
  O2-  O312  1  0.40248657  0.07115339  0.26614407  1
  O2-  O313  1  0.40145679  0.07270439  0.76895471  1
  O2-  O314  1  0.40992041  0.40972129  0.26838296  1
  O2-  O315  1  0.40488219  0.40667448  0.77032982  1
  O2-  O316  1  0.40802574  0.73880865  0.27225233  1
  O2-  O317  1  0.40623927  0.74398332  0.76772895  1
  O2-  O318  1  0.73575094  0.06991907  0.27370664  1
  O2-  O319  1  0.73899529  0.07131030  0.76850711  1
  O2-  O320  1  0.73726673  0.40326685  0.26639555  1
  O2-  O321  1  0.73323043  0.39948136  0.76800317  1
  O2-  O322  1  0.73568924  0.73673453  0.26637012  1
  O2-  O323  1  0.73911878  0.73991831  0.77263346  1
  O2-  O324  1  0.23543688  0.09414709  0.22928975  1
  O2-  O325  1  0.23919592  0.09348474  0.72856966  1
  O2-  O326  1  0.23497635  0.43060465  0.23154532  1
  O2-  O327  1  0.23811966  0.42681542  0.72709643  1
  O2-  O328  1  0.23617020  0.75927793  0.22678974  1
  O2-  O329  1  0.23564579  0.76193798  0.72848351  1
  O2-  O330  1  0.57236987  0.09344547  0.22618663  1
  O2-  O331  1  0.57354055  0.09105489  0.72742018  1
  O2-  O332  1  0.57350087  0.42680223  0.22872629  1
  O2-  O333  1  0.57189684  0.42968329  0.72801059  1
  O2-  O334  1  0.57157518  0.75981539  0.22795610  1
  O2-  O335  1  0.57049325  0.76335710  0.73311051  1
  O2-  O336  1  0.89993414  0.09892239  0.23075370  1
  O2-  O337  1  0.90614435  0.09518957  0.72888487  1
  O2-  O338  1  0.90893081  0.42906720  0.22827422  1
  O2-  O339  1  0.90442740  0.42592151  0.72817647  1
  O2-  O340  1  0.90573012  0.76216460  0.23235194  1
  O2-  O341  1  0.90414663  0.76383183  0.72805604  1
  O2-  O342  1  0.26272964  0.26462119  0.02177338  1
  O2-  O343  1  0.26070786  0.26027856  0.52191762  1
  O2-  O344  1  0.26162128  0.59499919  0.01983063  1
  O2-  O345  1  0.26404689  0.59907878  0.51700466  1
  O2-  O346  1  0.25726185  0.92953868  0.02236091  1
  O2-  O347  1  0.26369812  0.92975814  0.51729695  1
  O2-  O348  1  0.59274451  0.25783823  0.02423619  1
  O2-  O349  1  0.59535649  0.26051944  0.52183151  1
  O2-  O350  1  0.59418704  0.59292882  0.02106263  1
  O2-  O351  1  0.59622665  0.59399838  0.52325403  1
  O2-  O352  1  0.59733973  0.92534498  0.02282639  1
  O2-  O353  1  0.59140851  0.92480872  0.52218229  1
  O2-  O354  1  0.93099208  0.25988009  0.01991938  1
  O2-  O355  1  0.92873133  0.26113564  0.52018567  1
  O2-  O356  1  0.93032753  0.59471082  0.02070775  1
  O2-  O357  1  0.93081305  0.59688361  0.51771495  1
  O2-  O358  1  0.93000442  0.93040549  0.02122404  1
  O2-  O359  1  0.92907290  0.92594436  0.51927843  1
