# generated using pymatgen
data_Sr7Ca15Pr50Mn72O216
_symmetry_space_group_name_H-M   'P 1'
_cell_length_a   16.55738142
_cell_length_b   16.60553581
_cell_length_c   15.59335920
_cell_angle_alpha   89.99612843
_cell_angle_beta   89.99706414
_cell_angle_gamma   90.01238629
_symmetry_Int_Tables_number   1
_chemical_formula_structural   Sr7Ca15Pr50Mn72O216
_chemical_formula_sum   'Sr7 Ca15 Pr50 Mn72 O216'
_cell_volume   4287.30340129
_cell_formula_units_Z   1
loop_
 _symmetry_equiv_pos_site_id
 _symmetry_equiv_pos_as_xyz
  1  'x, y, z'
loop_
 _atom_type_symbol
 _atom_type_oxidation_number
  Sr2+  2.0
  Ca2+  2.0
  Pr3+  3.0
  Mn3.30+  3.3
  O2-  -2.0
loop_
 _atom_site_type_symbol
 _atom_site_label
 _atom_site_symmetry_multiplicity
 _atom_site_fract_x
 _atom_site_fract_y
 _atom_site_fract_z
 _atom_site_occupancy
  Sr2+  Sr0  1  0.67019719  0.32047581  0.87618232  1
  Sr2+  Sr1  1  0.83118724  0.15865877  0.37288959  1
  Sr2+  Sr2  1  0.50149668  0.50957968  0.12399974  1
  Sr2+  Sr3  1  -0.00437664  0.00876497  0.12227431  1
  Sr2+  Sr4  1  0.83278185  0.49006480  0.37562164  1
  Sr2+  Sr5  1  0.99643160  0.99177625  0.87695278  1
  Sr2+  Sr6  1  0.16308748  0.84226789  0.12486346  1
  Ca2+  Ca7  1  0.15944231  0.48359094  0.87337397  1
  Ca2+  Ca8  1  -0.00646581  0.68377964  0.12554292  1
  Ca2+  Ca9  1  0.83724131  0.18093525  0.62889167  1
  Ca2+  Ca10  1  0.33440605  0.65221395  0.37493523  1
  Ca2+  Ca11  1  1.00147806  0.31755758  0.87567273  1
  Ca2+  Ca12  1  0.83921817  0.84724236  0.12602037  1
  Ca2+  Ca13  1  0.83329689  0.15490539  0.87930427  1
  Ca2+  Ca14  1  0.83033388  0.81827225  0.37207645  1
  Ca2+  Ca15  1  0.67151928  0.65186672  0.87461180  1
  Ca2+  Ca16  1  0.83594745  0.17755364  0.12098375  1
  Ca2+  Ca17  1  0.32934965  0.67943011  0.62365103  1
  Ca2+  Ca18  1  0.66960898  0.01415738  0.12572741  1
  Ca2+  Ca19  1  0.17229186  0.51809266  0.62423881  1
  Ca2+  Ca20  1  0.66401462  0.67996036  0.62565244  1
  Ca2+  Ca21  1  0.16293902  0.48659123  0.37696440  1
  Pr3+  Pr22  1  0.16577878  0.17773787  0.12281920  1
  Pr3+  Pr23  1  0.50017842  0.81961809  0.87550086  1
  Pr3+  Pr24  1  0.32951418  0.34753013  0.12421489  1
  Pr3+  Pr25  1  0.16734850  0.18094031  0.62626674  1
  Pr3+  Pr26  1  -0.00329415  0.34693370  0.62685470  1
  Pr3+  Pr27  1  0.50453164  0.17884398  0.12519295  1
  Pr3+  Pr28  1  0.67420593  0.98446329  0.37323098  1
  Pr3+  Pr29  1  0.83590783  0.51364684  0.62546408  1
  Pr3+  Pr30  1  0.66767741  0.34470430  0.62642536  1
  Pr3+  Pr31  1  0.50413820  0.18089543  0.62551674  1
  Pr3+  Pr32  1  0.16360848  0.81864951  0.37289161  1
  Pr3+  Pr33  1  1.00281768  0.65156977  0.37318870  1
  Pr3+  Pr34  1  0.49997883  0.48966997  0.87595664  1
  Pr3+  Pr35  1  -0.00040042  0.67753251  0.62449243  1
  Pr3+  Pr36  1  0.32755735  0.01248530  0.12568890  1
  Pr3+  Pr37  1  0.49693398  0.49073827  0.37422488  1
  Pr3+  Pr38  1  0.33586017  0.32237078  0.87469580  1
  Pr3+  Pr39  1  0.33560095  0.98601063  0.37461433  1
  Pr3+  Pr40  1  0.33616627  0.98621014  0.87547171  1
  Pr3+  Pr41  1  0.99832397  0.98603192  0.37315315  1
  Pr3+  Pr42  1  0.33263061  0.65528477  0.87477375  1
  Pr3+  Pr43  1  0.16938707  0.84320979  0.62518430  1
  Pr3+  Pr44  1  1.00599010  0.65394275  0.87644457  1
  Pr3+  Pr45  1  0.50325754  0.84303382  0.62433618  1
  Pr3+  Pr46  1  0.33041380  0.01222091  0.62420144  1
  Pr3+  Pr47  1  0.16081982  0.15388080  0.87439609  1
  Pr3+  Pr48  1  0.50036488  0.15363716  0.87533459  1
  Pr3+  Pr49  1  0.66843251  0.34403870  0.12412276  1
  Pr3+  Pr50  1  0.32713563  0.35152149  0.62572489  1
  Pr3+  Pr51  1  0.66601306  0.01398812  0.62437836  1
  Pr3+  Pr52  1  0.67160395  0.65399768  0.37625592  1
  Pr3+  Pr53  1  0.15946638  0.15404875  0.37536815  1
  Pr3+  Pr54  1  1.00064855  0.32117971  0.37484076  1
  Pr3+  Pr55  1  0.16879265  0.51207915  0.12539260  1
  Pr3+  Pr56  1  0.33373217  0.32453750  0.37544247  1
  Pr3+  Pr57  1  0.50616145  0.84729845  0.12554704  1
  Pr3+  Pr58  1  0.67150432  0.32308007  0.37418685  1
  Pr3+  Pr59  1  0.66524644  0.67737487  0.12421919  1
  Pr3+  Pr60  1  0.83412017  0.84381577  0.62358317  1
  Pr3+  Pr61  1  0.83105796  0.82022148  0.87773929  1
  Pr3+  Pr62  1  -0.00574011  0.01407301  0.62637828  1
  Pr3+  Pr63  1  0.49899267  0.15411481  0.37515302  1
  Pr3+  Pr64  1  0.16085756  0.82200503  0.87712024  1
  Pr3+  Pr65  1  0.49698477  0.81664867  0.37396577  1
  Pr3+  Pr66  1  0.83940126  0.51335400  0.12469315  1
  Pr3+  Pr67  1  0.83207410  0.48588332  0.87455459  1
  Pr3+  Pr68  1  0.50232627  0.51659503  0.62618020  1
  Pr3+  Pr69  1  -0.00397619  0.34228992  0.12304335  1
  Pr3+  Pr70  1  0.33180139  0.67897429  0.12640857  1
  Pr3+  Pr71  1  0.67327812  0.99111954  0.87709510  1
  Mn3.30+  Mn72  1  0.16500758  -0.00042941  0.00082263  1
  Mn3.30+  Mn73  1  0.16537806  -0.00099708  0.49992758  1
  Mn3.30+  Mn74  1  0.16408925  0.33460256  -0.00288692  1
  Mn3.30+  Mn75  1  0.16595545  0.33682176  0.50110840  1
  Mn3.30+  Mn76  1  0.16490518  0.66568278  0.00258937  1
  Mn3.30+  Mn77  1  0.16949729  0.66413809  0.49786822  1
  Mn3.30+  Mn78  1  0.50243273  0.00009598  0.00182381  1
  Mn3.30+  Mn79  1  0.50109203  -0.00107540  0.49904647  1
  Mn3.30+  Mn80  1  0.50121855  0.33358482  -0.00071982  1
  Mn3.30+  Mn81  1  0.49937288  0.33532936  0.50098566  1
  Mn3.30+  Mn82  1  0.50207977  0.66605268  -0.00148459  1
  Mn3.30+  Mn83  1  0.49845669  0.66670590  0.50141168  1
  Mn3.30+  Mn84  1  0.83237532  0.00050419  0.00287466  1
  Mn3.30+  Mn85  1  0.83278196  0.00086862  0.49893103  1
  Mn3.30+  Mn86  1  0.83478257  0.33048409  -0.00212553  1
  Mn3.30+  Mn87  1  0.83332795  0.33298855  0.50135649  1
  Mn3.30+  Mn88  1  0.83437013  0.66694260  -0.00025457  1
  Mn3.30+  Mn89  1  0.83250412  0.66756778  0.50064712  1
  Mn3.30+  Mn90  1  -0.00385295  0.16483106  0.24816151  1
  Mn3.30+  Mn91  1  -0.00240689  0.16765660  0.75166305  1
  Mn3.30+  Mn92  1  0.00211504  0.49944213  0.25027969  1
  Mn3.30+  Mn93  1  0.00335281  0.49969754  0.74978306  1
  Mn3.30+  Mn94  1  -0.00464788  0.83201080  0.24966360  1
  Mn3.30+  Mn95  1  -0.00043517  0.83308537  0.75030700  1
  Mn3.30+  Mn96  1  0.33236232  0.16795888  0.25131348  1
  Mn3.30+  Mn97  1  0.33318701  0.16735671  0.74953764  1
  Mn3.30+  Mn98  1  0.33137072  0.50181081  0.25154670  1
  Mn3.30+  Mn99  1  0.32919251  0.50278664  0.75074393  1
  Mn3.30+  Mn100  1  0.33305933  0.83193110  0.24979095  1
  Mn3.30+  Mn101  1  0.33353390  0.83121073  0.74939192  1
  Mn3.30+  Mn102  1  0.66874468  0.16547809  0.24803934  1
  Mn3.30+  Mn103  1  0.67097801  0.16703071  0.75021095  1
  Mn3.30+  Mn104  1  0.66780978  0.50052502  0.24918481  1
  Mn3.30+  Mn105  1  0.66792711  0.50166943  0.75044015  1
  Mn3.30+  Mn106  1  0.67084786  0.83386830  0.24772919  1
  Mn3.30+  Mn107  1  0.66740253  0.83137554  0.75097418  1
  Mn3.30+  Mn108  1  0.16505927  -0.00069406  0.24919007  1
  Mn3.30+  Mn109  1  0.16527236  -0.00062986  0.74969652  1
  Mn3.30+  Mn110  1  0.16564164  0.33397566  0.25045672  1
  Mn3.30+  Mn111  1  0.16404693  0.33681391  0.75101856  1
  Mn3.30+  Mn112  1  0.16576877  0.66508883  0.24993021  1
  Mn3.30+  Mn113  1  0.16818480  0.66481667  0.74916814  1
  Mn3.30+  Mn114  1  0.50257339  0.00000406  0.24952409  1
  Mn3.30+  Mn115  1  0.50110947  -0.00092782  0.74982558  1
  Mn3.30+  Mn116  1  0.50061854  0.33425927  0.25003883  1
  Mn3.30+  Mn117  1  0.49972771  0.33451224  0.75043419  1
  Mn3.30+  Mn118  1  0.49968657  0.66561336  0.24935773  1
  Mn3.30+  Mn119  1  0.50124131  0.66706958  0.75043415  1
  Mn3.30+  Mn120  1  0.83298018  -0.00022330  0.24805064  1
  Mn3.30+  Mn121  1  0.83272187  0.00165523  0.75043147  1
  Mn3.30+  Mn122  1  0.83376701  0.33293934  0.24923525  1
  Mn3.30+  Mn123  1  0.83475114  0.33033741  0.75199022  1
  Mn3.30+  Mn124  1  0.83443137  0.66832324  0.24965737  1
  Mn3.30+  Mn125  1  0.83210906  0.66686617  0.75033594  1
  Mn3.30+  Mn126  1  -0.00267864  0.16645010  -0.00118404  1
  Mn3.30+  Mn127  1  -0.00330769  0.16647732  0.50066405  1
  Mn3.30+  Mn128  1  0.00204911  0.49967159  -0.00096548  1
  Mn3.30+  Mn129  1  0.00338346  0.49949221  0.50084302  1
  Mn3.30+  Mn130  1  -0.00351849  0.83327350  0.00174323  1
  Mn3.30+  Mn131  1  -0.00120280  0.83204127  0.49813164  1
  Mn3.30+  Mn132  1  0.33353095  0.16709415  -0.00051610  1
  Mn3.30+  Mn133  1  0.33250144  0.16812500  0.49987821  1
  Mn3.30+  Mn134  1  0.33027570  0.50087626  -0.00198038  1
  Mn3.30+  Mn135  1  0.33042538  0.50409639  0.49967171  1
  Mn3.30+  Mn136  1  0.33318794  0.83323691  0.00102675  1
  Mn3.30+  Mn137  1  0.33365367  0.82922395  0.49911975  1
  Mn3.30+  Mn138  1  0.67018529  0.16534936  0.00174849  1
  Mn3.30+  Mn139  1  0.66891457  0.16773418  0.50086867  1
  Mn3.30+  Mn140  1  0.66901509  0.50038311  -0.00095489  1
  Mn3.30+  Mn141  1  0.66647882  0.50166358  0.50218119  1
  Mn3.30+  Mn142  1  0.66950440  0.83371636  0.00165503  1
  Mn3.30+  Mn143  1  0.66775642  0.83170530  0.49913771  1
  O2-  O144  1  0.02277893  0.16908480  0.12486476  1
  O2-  O145  1  0.02480092  0.16218427  0.62543576  1
  O2-  O146  1  0.02631670  0.48977967  0.12441902  1
  O2-  O147  1  0.02991893  0.49514870  0.62588256  1
  O2-  O148  1  0.01553384  0.82886369  0.12588574  1
  O2-  O149  1  0.02487152  0.82743192  0.62296490  1
  O2-  O150  1  0.35973270  0.16107042  0.12698021  1
  O2-  O151  1  0.35987039  0.16084943  0.62527314  1
  O2-  O152  1  0.35174676  0.49517042  0.12421996  1
  O2-  O153  1  0.35892575  0.49591019  0.62596977  1
  O2-  O154  1  0.36087261  0.82848057  0.12534478  1
  O2-  O155  1  0.35892270  0.82582598  0.62271672  1
  O2-  O156  1  0.69197101  0.16205967  0.12594518  1
  O2-  O157  1  0.69338490  0.16254660  0.62467977  1
  O2-  O158  1  0.69333547  0.49538587  0.12245966  1
  O2-  O159  1  0.69169158  0.49289416  0.62652413  1
  O2-  O160  1  0.69677109  0.82179710  0.12467852  1
  O2-  O161  1  0.69054090  0.82563124  0.62716582  1
  O2-  O162  1  0.14161370  0.32709494  0.12206341  1
  O2-  O163  1  0.14055818  0.32659554  0.62592914  1
  O2-  O164  1  0.13714404  0.65786067  0.12605607  1
  O2-  O165  1  0.14283071  0.66365185  0.62242237  1
  O2-  O166  1  0.14857015  1.00229575  0.12625450  1
  O2-  O167  1  0.14062772  0.99229257  0.62286771  1
  O2-  O168  1  0.47398146  0.32730551  0.12373815  1
  O2-  O169  1  0.47245754  0.32830858  0.62565962  1
  O2-  O170  1  0.47626751  0.66617351  0.12271469  1
  O2-  O171  1  0.47120717  0.66449471  0.62625634  1
  O2-  O172  1  0.47104364  0.99588948  0.12428249  1
  O2-  O173  1  0.47374852  0.99284247  0.62229151  1
  O2-  O174  1  0.81287792  0.32817232  0.12362847  1
  O2-  O175  1  0.81082175  0.32702187  0.62677492  1
  O2-  O176  1  0.80825711  0.65853768  0.12429668  1
  O2-  O177  1  0.80703679  0.66217613  0.62719035  1
  O2-  O178  1  0.80858087  0.98863398  0.12680905  1
  O2-  O179  1  0.80839119  0.98970787  0.62367311  1
  O2-  O180  1  0.30436859  0.17556683  0.37537302  1
  O2-  O181  1  0.30619309  0.17247996  0.87256859  1
  O2-  O182  1  0.30628004  0.50509515  0.37579140  1
  O2-  O183  1  0.30152915  0.50825283  0.87418883  1
  O2-  O184  1  0.30794429  0.84035872  0.37489243  1
  O2-  O185  1  0.30645783  0.83876383  0.87664031  1
  O2-  O186  1  0.64182415  0.17426387  0.37526869  1
  O2-  O187  1  0.64353440  0.16198149  0.87496579  1
  O2-  O188  1  0.64212208  0.50469555  0.37787278  1
  O2-  O189  1  0.64463256  0.50599760  0.87358907  1
  O2-  O190  1  0.64000423  0.83826862  0.37205924  1
  O2-  O191  1  0.64152734  0.84443314  0.87550941  1
  O2-  O192  1  0.98109696  0.17231232  0.37512372  1
  O2-  O193  1  0.97623985  0.17139734  0.87345851  1
  O2-  O194  1  0.98049182  0.50322955  0.37540064  1
  O2-  O195  1  0.97445288  0.50916886  0.87419849  1
  O2-  O196  1  0.97286317  0.83703976  0.37647699  1
  O2-  O197  1  0.97760610  0.83051810  0.87437868  1
  O2-  O198  1  0.19120805  0.00609999  0.37642613  1
  O2-  O199  1  0.19200243  0.00467687  0.87465356  1
  O2-  O200  1  0.19074752  0.33840254  0.37795362  1
  O2-  O201  1  0.19358429  0.33903367  0.87353698  1
  O2-  O202  1  0.19365024  0.67410278  0.37396417  1
  O2-  O203  1  0.18914279  0.67595038  0.87701167  1
  O2-  O204  1  0.52839659  0.00572436  0.37653425  1
  O2-  O205  1  0.52712942  0.00515974  0.87697826  1
  O2-  O206  1  0.52585891  0.34116288  0.37713923  1
  O2-  O207  1  0.51876637  0.33993277  0.87414803  1
  O2-  O208  1  0.52689923  0.66830772  0.37571689  1
  O2-  O209  1  0.52890804  0.67179076  0.87500637  1
  O2-  O210  1  0.85604544  0.00739979  0.37592154  1
  O2-  O211  1  0.84636812  0.00787565  0.87314256  1
  O2-  O212  1  0.85579614  0.33616316  0.37593507  1
  O2-  O213  1  0.86076448  0.34084773  0.87385295  1
  O2-  O214  1  0.85812328  0.67137415  0.37485200  1
  O2-  O215  1  0.86201179  0.67101695  0.87423481  1
  O2-  O216  1  0.24141803  0.09603693  0.01935558  1
  O2-  O217  1  0.23826378  0.09474255  0.52134607  1
  O2-  O218  1  0.23721276  0.42604544  0.02097470  1
  O2-  O219  1  0.23849607  0.43056408  0.52338074  1
  O2-  O220  1  0.24148617  0.75683725  0.02024147  1
  O2-  O221  1  0.23524650  0.76383098  0.51664056  1
  O2-  O222  1  0.56811801  0.09683516  0.01867799  1
  O2-  O223  1  0.57240589  0.09729788  0.52113535  1
  O2-  O224  1  0.57758869  0.42498175  0.01651578  1
  O2-  O225  1  0.57039444  0.42906171  0.52292061  1
  O2-  O226  1  0.57446212  0.76477072  0.02000894  1
  O2-  O227  1  0.56739629  0.76237451  0.51620958  1
  O2-  O228  1  0.90099373  0.09387326  0.01727392  1
  O2-  O229  1  0.90447020  0.09426733  0.52487686  1
  O2-  O230  1  0.90714526  0.42968729  0.01945900  1
  O2-  O231  1  0.90640405  0.42619022  0.52381186  1
  O2-  O232  1  0.90061447  0.76236378  0.01733126  1
  O2-  O233  1  0.90689078  0.75808370  0.52360522  1
  O2-  O234  1  0.26154861  0.26194226  0.22871530  1
  O2-  O235  1  0.26068038  0.26426015  0.72915292  1
  O2-  O236  1  0.25990756  0.59364032  0.22631438  1
  O2-  O237  1  0.26593360  0.60042460  0.73123408  1
  O2-  O238  1  0.26428122  0.93014394  0.23477004  1
  O2-  O239  1  0.26333027  0.92727321  0.72855678  1
  O2-  O240  1  0.59433881  0.25890124  0.22883474  1
  O2-  O241  1  0.59654647  0.25775412  0.72894775  1
  O2-  O242  1  0.59572684  0.59563256  0.23279267  1
  O2-  O243  1  0.59286471  0.59604471  0.72640754  1
  O2-  O244  1  0.60028076  0.92628823  0.22556353  1
  O2-  O245  1  0.59396528  0.92734315  0.72717289  1
  O2-  O246  1  0.92906508  0.26288478  0.23497006  1
  O2-  O247  1  0.92996246  0.26193129  0.72965131  1
  O2-  O248  1  0.93042553  0.59477214  0.23011805  1
  O2-  O249  1  0.93026154  0.59435175  0.72787330  1
  O2-  O250  1  0.92779569  0.93036442  0.23822948  1
  O2-  O251  1  0.92493804  0.92690260  0.72941245  1
  O2-  O252  1  0.09535309  0.23838239  0.26868395  1
  O2-  O253  1  0.09801263  0.23736507  0.76717711  1
  O2-  O254  1  0.09746499  0.56913488  0.27208936  1
  O2-  O255  1  0.09616345  0.57182556  0.77219621  1
  O2-  O256  1  0.09120221  0.90495272  0.27166883  1
  O2-  O257  1  0.09637943  0.90209449  0.76664843  1
  O2-  O258  1  0.42627658  0.23981350  0.27282294  1
  O2-  O259  1  0.42725610  0.23849756  0.77077984  1
  O2-  O260  1  0.42579938  0.57208570  0.26959749  1
  O2-  O261  1  0.42962652  0.57241346  0.77307197  1
  O2-  O262  1  0.43109049  0.90652993  0.27078948  1
  O2-  O263  1  0.42790125  0.90487331  0.77091942  1
  O2-  O264  1  0.75549991  0.24378613  0.26716796  1
  O2-  O265  1  0.76540675  0.23393010  0.77053072  1
  O2-  O266  1  0.76039669  0.57509373  0.26743798  1
  O2-  O267  1  0.76586030  0.57059090  0.76848558  1
  O2-  O268  1  0.76226447  0.90433758  0.27481389  1
  O2-  O269  1  0.76126393  0.90367049  0.76892742  1
  O2-  O270  1  0.06899063  0.07209947  0.48082759  1
  O2-  O271  1  0.07588775  0.07744172  0.98135835  1
  O2-  O272  1  0.07004926  0.40260307  0.48150635  1
  O2-  O273  1  0.06918413  0.40171822  0.97890547  1
  O2-  O274  1  0.07260407  0.73675520  0.47806026  1
  O2-  O275  1  0.07313686  0.73934041  0.98171886  1
  O2-  O276  1  0.40657945  0.07129265  0.47806532  1
  O2-  O277  1  0.40590234  0.07183357  0.97788340  1
  O2-  O278  1  0.40245467  0.40766756  0.47976201  1
  O2-  O279  1  0.40232196  0.40922447  0.97911150  1
  O2-  O280  1  0.40479447  0.73732733  0.47421486  1
  O2-  O281  1  0.40766130  0.73970519  0.97832798  1
  O2-  O282  1  0.73399238  0.06840537  0.48355105  1
  O2-  O283  1  0.73465435  0.06839671  0.98758496  1
  O2-  O284  1  0.73671272  0.40373655  0.48588754  1
  O2-  O285  1  0.74398691  0.40532479  0.98260433  1
  O2-  O286  1  0.73723635  0.74058519  0.48017622  1
  O2-  O287  1  0.73804581  0.73602556  0.97619611  1
  O2-  O288  1  0.09516802  0.23818138  0.48223653  1
  O2-  O289  1  0.09852160  0.23841417  0.98062462  1
  O2-  O290  1  0.09737437  0.57372797  0.47710917  1
  O2-  O291  1  0.09689115  0.56879412  0.97804576  1
  O2-  O292  1  0.09415702  0.90371448  0.47783874  1
  O2-  O293  1  0.09272636  0.90499202  0.98295022  1
  O2-  O294  1  0.42785952  0.24030486  0.47857856  1
  O2-  O295  1  0.42665087  0.23809651  0.97850018  1
  O2-  O296  1  0.43159513  0.56946113  0.48263481  1
  O2-  O297  1  0.42395846  0.57374245  0.97551655  1
  O2-  O298  1  0.42711755  0.90281895  0.47755371  1
  O2-  O299  1  0.43040285  0.90627519  0.97879940  1
  O2-  O300  1  0.75665599  0.24306991  0.48116550  1
  O2-  O301  1  0.76372199  0.23533814  0.98208085  1
  O2-  O302  1  0.76011704  0.57514691  0.48353612  1
  O2-  O303  1  0.76623573  0.57004211  0.98138597  1
  O2-  O304  1  0.76327993  0.90433795  0.47918775  1
  O2-  O305  1  0.75929426  0.90523359  0.97753239  1
  O2-  O306  1  0.07194871  0.07341308  0.27183658  1
  O2-  O307  1  0.07273081  0.07508089  0.76613874  1
  O2-  O308  1  0.07110698  0.40259704  0.26818548  1
  O2-  O309  1  0.06770738  0.40100897  0.77117116  1
  O2-  O310  1  0.07210252  0.73853094  0.27175622  1
  O2-  O311  1  0.07309560  0.73595081  0.76672570  1
  O2-  O312  1  0.40255040  0.07492219  0.27364207  1
  O2-  O313  1  0.40704397  0.07095179  0.77070260  1
  O2-  O314  1  0.40428735  0.40779937  0.27053524  1
  O2-  O315  1  0.39992456  0.40950568  0.77058818  1
  O2-  O316  1  0.40603452  0.73821264  0.27078672  1
  O2-  O317  1  0.40719014  0.73975635  0.77519437  1
  O2-  O318  1  0.73504211  0.06977350  0.26760865  1
  O2-  O319  1  0.73311968  0.06683464  0.76129753  1
  O2-  O320  1  0.73879274  0.40478619  0.26505510  1
  O2-  O321  1  0.74257307  0.40470832  0.76654453  1
  O2-  O322  1  0.73588920  0.73670986  0.26973287  1
  O2-  O323  1  0.73921197  0.73968104  0.77598660  1
  O2-  O324  1  0.23926893  0.09757585  0.23140012  1
  O2-  O325  1  0.24036316  0.09439265  0.72777427  1
  O2-  O326  1  0.23957782  0.42602648  0.22961253  1
  O2-  O327  1  0.23559946  0.43030856  0.72612378  1
  O2-  O328  1  0.23922177  0.75792961  0.23006294  1
  O2-  O329  1  0.23689243  0.76284992  0.73277743  1
  O2-  O330  1  0.56865439  0.09676823  0.23295570  1
  O2-  O331  1  0.57112317  0.09504474  0.72858913  1
  O2-  O332  1  0.57612323  0.42520157  0.23175098  1
  O2-  O333  1  0.57153733  0.42882968  0.73048943  1
  O2-  O334  1  0.57306836  0.76227740  0.22970109  1
  O2-  O335  1  0.56934369  0.76395734  0.73269027  1
  O2-  O336  1  0.90222199  0.09610449  0.22887809  1
  O2-  O337  1  0.90545010  0.09291424  0.72691430  1
  O2-  O338  1  0.90785431  0.42660111  0.22857216  1
  O2-  O339  1  0.90688438  0.42984177  0.72819116  1
  O2-  O340  1  0.90202739  0.76181091  0.23088479  1
  O2-  O341  1  0.90488347  0.76024768  0.72866962  1
  O2-  O342  1  0.26139482  0.26250606  0.01975028  1
  O2-  O343  1  0.25959081  0.26484732  0.52197998  1
  O2-  O344  1  0.26088652  0.59504650  0.02214329  1
  O2-  O345  1  0.26516446  0.59824665  0.52088279  1
  O2-  O346  1  0.26442172  0.92999059  0.01679606  1
  O2-  O347  1  0.26311292  0.92670171  0.52059136  1
  O2-  O348  1  0.59668105  0.25635276  0.02149881  1
  O2-  O349  1  0.59385755  0.26142387  0.52210562  1
  O2-  O350  1  0.59544305  0.59515454  0.01751510  1
  O2-  O351  1  0.59338599  0.59710479  0.52345074  1
  O2-  O352  1  0.59535970  0.92984758  0.02539848  1
  O2-  O353  1  0.59561569  0.92646651  0.52069263  1
  O2-  O354  1  0.92932089  0.26224570  0.01660826  1
  O2-  O355  1  0.93011880  0.26279020  0.51759448  1
  O2-  O356  1  0.93134013  0.59590720  0.02170558  1
  O2-  O357  1  0.92963066  0.59247980  0.52063669  1
  O2-  O358  1  0.92246843  0.92612327  0.01202086  1
  O2-  O359  1  0.92852993  0.92881809  0.51982115  1
