# generated using pymatgen
data_Sr7Ca15Pr50Mn72O216
_symmetry_space_group_name_H-M   'P 1'
_cell_length_a   16.55851081
_cell_length_b   16.60240459
_cell_length_c   15.59536941
_cell_angle_alpha   89.99858538
_cell_angle_beta   89.99736868
_cell_angle_gamma   90.00102536
_symmetry_Int_Tables_number   1
_chemical_formula_structural   Sr7Ca15Pr50Mn72O216
_chemical_formula_sum   'Sr7 Ca15 Pr50 Mn72 O216'
_cell_volume   4287.34008750
_cell_formula_units_Z   1
loop_
 _symmetry_equiv_pos_site_id
 _symmetry_equiv_pos_as_xyz
  1  'x, y, z'
loop_
 _atom_type_symbol
 _atom_type_oxidation_number
  Sr2+  2.0
  Ca2+  2.0
  Pr3+  3.0
  Mn3.30+  3.3
  O2-  -2.0
loop_
 _atom_site_type_symbol
 _atom_site_label
 _atom_site_symmetry_multiplicity
 _atom_site_fract_x
 _atom_site_fract_y
 _atom_site_fract_z
 _atom_site_occupancy
  Sr2+  Sr0  1  0.66695176  0.01015086  0.12355096  1
  Sr2+  Sr1  1  0.66996990  0.65399138  0.87455638  1
  Sr2+  Sr2  1  0.49980945  0.15814764  0.87463178  1
  Sr2+  Sr3  1  0.83527743  0.15730422  0.37528715  1
  Sr2+  Sr4  1  0.33210462  0.67756316  0.12433645  1
  Sr2+  Sr5  1  1.00251266  0.98986076  0.37483304  1
  Sr2+  Sr6  1  0.50394329  0.82725077  0.87584662  1
  Ca2+  Ca7  1  1.00176927  0.31581728  0.37834211  1
  Ca2+  Ca8  1  0.83633698  0.18202438  0.62427132  1
  Ca2+  Ca9  1  -0.00762127  0.01680632  0.62317038  1
  Ca2+  Ca10  1  -0.00706996  0.01729019  0.12660378  1
  Ca2+  Ca11  1  0.33083422  0.01260415  0.12209667  1
  Ca2+  Ca12  1  0.66766363  0.34392607  0.62567553  1
  Ca2+  Ca13  1  -0.00254656  0.68325200  0.12438627  1
  Ca2+  Ca14  1  0.66498063  0.01524948  0.62657040  1
  Ca2+  Ca15  1  0.34052681  0.31730451  0.87576993  1
  Ca2+  Ca16  1  0.66801546  0.98796526  0.87432550  1
  Ca2+  Ca17  1  0.83540946  0.17684948  0.12612242  1
  Ca2+  Ca18  1  0.82782356  0.48445338  0.87346691  1
  Ca2+  Ca19  1  0.16120241  0.81941682  0.37344577  1
  Ca2+  Ca20  1  -0.00707416  0.34601177  0.62276766  1
  Ca2+  Ca21  1  0.66417846  0.68072193  0.62779962  1
  Pr3+  Pr22  1  0.33204523  0.98786891  0.37432962  1
  Pr3+  Pr23  1  0.16570855  0.82040524  0.87468461  1
  Pr3+  Pr24  1  0.16701592  0.48722787  0.87530699  1
  Pr3+  Pr25  1  0.99952672  0.65343303  0.87516086  1
  Pr3+  Pr26  1  0.83957775  0.84858927  0.12451454  1
  Pr3+  Pr27  1  0.15714061  0.15380182  0.37522988  1
  Pr3+  Pr28  1  0.15967087  0.48383013  0.37482231  1
  Pr3+  Pr29  1  0.16675075  0.51016708  0.62592791  1
  Pr3+  Pr30  1  0.83278331  0.51002636  0.62734345  1
  Pr3+  Pr31  1  0.67317128  0.65353378  0.37560069  1
  Pr3+  Pr32  1  0.33309400  0.65565528  0.37322723  1
  Pr3+  Pr33  1  0.33126725  0.34418663  0.62759223  1
  Pr3+  Pr34  1  0.83906822  0.51477144  0.12283973  1
  Pr3+  Pr35  1  0.33223796  0.01274793  0.62700709  1
  Pr3+  Pr36  1  0.83438229  0.82516830  0.37469562  1
  Pr3+  Pr37  1  0.67327490  0.98947196  0.37574044  1
  Pr3+  Pr38  1  0.49936212  0.15352770  0.37614553  1
  Pr3+  Pr39  1  1.00096586  0.98847133  0.87457240  1
  Pr3+  Pr40  1  0.33243123  0.67946336  0.62499200  1
  Pr3+  Pr41  1  0.67121111  0.31826621  0.37753035  1
  Pr3+  Pr42  1  0.67099259  0.32211406  0.87252433  1
  Pr3+  Pr43  1  0.32810029  0.34309893  0.12324822  1
  Pr3+  Pr44  1  0.16780925  0.51404722  0.12419099  1
  Pr3+  Pr45  1  0.50163335  0.84781970  0.12345736  1
  Pr3+  Pr46  1  0.16394388  0.17824281  0.62515578  1
  Pr3+  Pr47  1  0.16801219  0.84654518  0.62379875  1
  Pr3+  Pr48  1  0.17004797  0.84780873  0.12605538  1
  Pr3+  Pr49  1  0.99778961  0.32105433  0.87125513  1
  Pr3+  Pr50  1  0.16507633  0.15454123  0.87413114  1
  Pr3+  Pr51  1  0.66922760  0.33866997  0.12542980  1
  Pr3+  Pr52  1  0.16620850  0.17491832  0.12517221  1
  Pr3+  Pr53  1  0.49774855  0.48705009  0.87590842  1
  Pr3+  Pr54  1  0.66443976  0.68030948  0.12377172  1
  Pr3+  Pr55  1  0.33363311  0.31886978  0.37620827  1
  Pr3+  Pr56  1  0.33868795  0.98797671  0.87616532  1
  Pr3+  Pr57  1  0.50292753  0.51224766  0.12513373  1
  Pr3+  Pr58  1  0.50856875  0.51431743  0.62494205  1
  Pr3+  Pr59  1  1.00459578  0.65717522  0.37433525  1
  Pr3+  Pr60  1  0.34087997  0.65693815  0.87695608  1
  Pr3+  Pr61  1  0.50678602  0.84785154  0.62608553  1
  Pr3+  Pr62  1  0.49791620  0.48708286  0.37455482  1
  Pr3+  Pr63  1  0.83376755  0.48487005  0.37549335  1
  Pr3+  Pr64  1  0.49903941  0.82293190  0.37441711  1
  Pr3+  Pr65  1  0.82640507  0.82205596  0.87537982  1
  Pr3+  Pr66  1  -0.00579168  0.34134117  0.12637257  1
  Pr3+  Pr67  1  0.50637784  0.18174473  0.62612026  1
  Pr3+  Pr68  1  0.82562739  0.15165811  0.87434393  1
  Pr3+  Pr69  1  0.50168703  0.17568580  0.12371759  1
  Pr3+  Pr70  1  -0.00373065  0.67976200  0.62551272  1
  Pr3+  Pr71  1  0.83480624  0.84807814  0.62531821  1
  Mn3.30+  Mn72  1  0.16570898  0.00013583  0.00060627  1
  Mn3.30+  Mn73  1  0.16366289  -0.00072833  0.50200565  1
  Mn3.30+  Mn74  1  0.16579121  0.33164748  -0.00317997  1
  Mn3.30+  Mn75  1  0.16269163  0.33291018  0.50318964  1
  Mn3.30+  Mn76  1  0.16569399  0.66700603  -0.00017458  1
  Mn3.30+  Mn77  1  0.16647531  0.66687273  0.50036611  1
  Mn3.30+  Mn78  1  0.50040301  0.00152231  -0.00055365  1
  Mn3.30+  Mn79  1  0.50236912  0.00061445  0.50051953  1
  Mn3.30+  Mn80  1  0.49887504  0.33258418  0.00072634  1
  Mn3.30+  Mn81  1  0.50152487  0.33395656  0.50028724  1
  Mn3.30+  Mn82  1  0.50163861  0.66766494  0.00000173  1
  Mn3.30+  Mn83  1  0.50270372  0.66754312  0.49897163  1
  Mn3.30+  Mn84  1  0.83404819  0.00181012  0.00096894  1
  Mn3.30+  Mn85  1  0.83375717  0.00266191  0.50214531  1
  Mn3.30+  Mn86  1  0.83332369  0.33240066  -0.00046230  1
  Mn3.30+  Mn87  1  0.83460392  0.33136979  0.50191592  1
  Mn3.30+  Mn88  1  0.83449728  0.66650084  -0.00002293  1
  Mn3.30+  Mn89  1  0.83330718  0.66695779  0.50134112  1
  Mn3.30+  Mn90  1  -0.00179449  0.16565491  0.24983124  1
  Mn3.30+  Mn91  1  -0.00437045  0.16651267  0.74852424  1
  Mn3.30+  Mn92  1  -0.00007937  0.49969557  0.24929425  1
  Mn3.30+  Mn93  1  -0.00229109  0.49828447  0.75109807  1
  Mn3.30+  Mn94  1  0.00322363  0.83431845  0.24885526  1
  Mn3.30+  Mn95  1  -0.00159382  0.83545876  0.74974802  1
  Mn3.30+  Mn96  1  0.33139676  0.16430220  0.25012975  1
  Mn3.30+  Mn97  1  0.33443539  0.16774730  0.75027120  1
  Mn3.30+  Mn98  1  0.33111851  0.49955515  0.25057799  1
  Mn3.30+  Mn99  1  0.33555591  0.49918066  0.74968071  1
  Mn3.30+  Mn100  1  0.33092599  0.83468510  0.25055292  1
  Mn3.30+  Mn101  1  0.33546977  0.83368942  0.74910336  1
  Mn3.30+  Mn102  1  0.66819850  0.16503329  0.24908675  1
  Mn3.30+  Mn103  1  0.66834944  0.16563625  0.74804527  1
  Mn3.30+  Mn104  1  0.66867008  0.49844433  0.24958671  1
  Mn3.30+  Mn105  1  0.66790900  0.49923964  0.75031420  1
  Mn3.30+  Mn106  1  0.66770571  0.83434209  0.24974293  1
  Mn3.30+  Mn107  1  0.66814778  0.83445278  0.74909624  1
  Mn3.30+  Mn108  1  0.16512521  -0.00076340  0.24803408  1
  Mn3.30+  Mn109  1  0.16451618  0.00014505  0.74907412  1
  Mn3.30+  Mn110  1  0.16308097  0.33198055  0.24956849  1
  Mn3.30+  Mn111  1  0.16616178  0.33283625  0.75089600  1
  Mn3.30+  Mn112  1  0.16555226  0.66811843  0.24813222  1
  Mn3.30+  Mn113  1  0.16721505  0.66583083  0.75065864  1
  Mn3.30+  Mn114  1  0.49915351  0.00060175  0.24942513  1
  Mn3.30+  Mn115  1  0.50345841  0.00163501  0.75083130  1
  Mn3.30+  Mn116  1  0.49863140  0.33178529  0.25042599  1
  Mn3.30+  Mn117  1  0.50116558  0.33422320  0.74998204  1
  Mn3.30+  Mn118  1  0.50085093  0.66741992  0.25022591  1
  Mn3.30+  Mn119  1  0.50321781  0.66788908  0.75071575  1
  Mn3.30+  Mn120  1  0.83595326  0.00227737  0.24995984  1
  Mn3.30+  Mn121  1  0.83145982  0.00204285  0.74692317  1
  Mn3.30+  Mn122  1  0.83483886  0.33072744  0.25196851  1
  Mn3.30+  Mn123  1  0.83328636  0.33278650  0.74680205  1
  Mn3.30+  Mn124  1  0.83707893  0.66758005  0.24965222  1
  Mn3.30+  Mn125  1  0.83057661  0.66570840  0.74917534  1
  Mn3.30+  Mn126  1  -0.00312931  0.16581228  -0.00147780  1
  Mn3.30+  Mn127  1  -0.00313197  0.16684692  0.50267347  1
  Mn3.30+  Mn128  1  -0.00130193  0.49940105  -0.00218748  1
  Mn3.30+  Mn129  1  -0.00130215  0.49797270  0.50139008  1
  Mn3.30+  Mn130  1  0.00061974  0.83443726  0.00003954  1
  Mn3.30+  Mn131  1  0.00134273  0.83588023  0.50055534  1
  Mn3.30+  Mn132  1  0.33315247  0.16588922  -0.00004856  1
  Mn3.30+  Mn133  1  0.33206622  0.16583929  0.50098830  1
  Mn3.30+  Mn134  1  0.33298491  0.49884086  0.00000533  1
  Mn3.30+  Mn135  1  0.33322920  0.49965559  0.50023576  1
  Mn3.30+  Mn136  1  0.33358934  0.83450229  0.00191864  1
  Mn3.30+  Mn137  1  0.33239507  0.83383536  0.49827105  1
  Mn3.30+  Mn138  1  0.66729451  0.16475938  -0.00020263  1
  Mn3.30+  Mn139  1  0.66991062  0.16608465  0.50341425  1
  Mn3.30+  Mn140  1  0.66952170  0.49846607  0.00053215  1
  Mn3.30+  Mn141  1  0.66766916  0.49919215  0.50026250  1
  Mn3.30+  Mn142  1  0.66814626  0.83547086  -0.00042621  1
  Mn3.30+  Mn143  1  0.66763364  0.83338001  0.50111227  1
  O2-  O144  1  0.02227918  0.16653271  0.11982638  1
  O2-  O145  1  0.02246046  0.15972621  0.62800587  1
  O2-  O146  1  0.02593267  0.48815999  0.12191015  1
  O2-  O147  1  0.02405616  0.49376357  0.62690378  1
  O2-  O148  1  0.02703075  0.82485503  0.12142134  1
  O2-  O149  1  0.02545094  0.82596759  0.62651626  1
  O2-  O150  1  0.35728292  0.16072475  0.12666044  1
  O2-  O151  1  0.36066918  0.16142399  0.62385854  1
  O2-  O152  1  0.35755052  0.49136802  0.12788392  1
  O2-  O153  1  0.36259761  0.49263094  0.62619636  1
  O2-  O154  1  0.35813650  0.83041667  0.12725053  1
  O2-  O155  1  0.36084447  0.82777388  0.62203368  1
  O2-  O156  1  0.69124453  0.16903261  0.12487089  1
  O2-  O157  1  0.69356164  0.15869640  0.62546203  1
  O2-  O158  1  0.69460423  0.48996199  0.12571042  1
  O2-  O159  1  0.68884913  0.49004312  0.62199730  1
  O2-  O160  1  0.69299724  0.82836667  0.12619838  1
  O2-  O161  1  0.69073826  0.82345050  0.62279575  1
  O2-  O162  1  0.13860699  0.32548628  0.12064930  1
  O2-  O163  1  0.13636736  0.32899817  0.62772248  1
  O2-  O164  1  0.13912658  0.66083347  0.12042244  1
  O2-  O165  1  0.14064472  0.65871181  0.62669038  1
  O2-  O166  1  0.13686159  0.99562978  0.12092068  1
  O2-  O167  1  0.13690139  0.99269794  0.62703039  1
  O2-  O168  1  0.47139151  0.32571128  0.12835156  1
  O2-  O169  1  0.47529437  0.33179156  0.62315047  1
  O2-  O170  1  0.48190418  0.66072926  0.12703720  1
  O2-  O171  1  0.47594237  0.66181420  0.62326664  1
  O2-  O172  1  0.47334020  0.99727278  0.12796451  1
  O2-  O173  1  0.47551129  0.99593359  0.62386580  1
  O2-  O174  1  0.81380387  0.32694413  0.12716071  1
  O2-  O175  1  0.80793788  0.33008919  0.62388094  1
  O2-  O176  1  0.80846076  0.66217712  0.12640632  1
  O2-  O177  1  0.80620775  0.65890825  0.62506672  1
  O2-  O178  1  0.81554241  0.99465502  0.12568439  1
  O2-  O179  1  0.80505620  0.99269883  0.62472937  1
  O2-  O180  1  0.30348305  0.17138437  0.37725175  1
  O2-  O181  1  0.30907630  0.17232585  0.87371220  1
  O2-  O182  1  0.30515942  0.50568532  0.37399907  1
  O2-  O183  1  0.31067579  0.51033195  0.87228113  1
  O2-  O184  1  0.30368042  0.84088515  0.37578471  1
  O2-  O185  1  0.30987461  0.83929699  0.87511094  1
  O2-  O186  1  0.64268577  0.17088528  0.37647562  1
  O2-  O187  1  0.64858313  0.17597493  0.87340461  1
  O2-  O188  1  0.64190803  0.50622340  0.37455847  1
  O2-  O189  1  0.64231936  0.49714921  0.87869301  1
  O2-  O190  1  0.64353663  0.84028862  0.37551540  1
  O2-  O191  1  0.65446299  0.84154676  0.87539517  1
  O2-  O192  1  0.98618618  0.17055096  0.37890007  1
  O2-  O193  1  0.97085989  0.17135122  0.87268937  1
  O2-  O194  1  0.97592214  0.51120468  0.37639800  1
  O2-  O195  1  0.96980555  0.50600371  0.87457467  1
  O2-  O196  1  0.97812048  0.83245281  0.37822111  1
  O2-  O197  1  0.97197231  0.84102181  0.87294615  1
  O2-  O198  1  0.18937902  0.00852154  0.37687000  1
  O2-  O199  1  0.19368748  0.00503163  0.87432847  1
  O2-  O200  1  0.19063340  0.33632912  0.37797146  1
  O2-  O201  1  0.19811647  0.33825241  0.87424443  1
  O2-  O202  1  0.18954673  0.67180105  0.37788623  1
  O2-  O203  1  0.19540062  0.67127972  0.87416828  1
  O2-  O204  1  0.52815330  0.00470606  0.37602095  1
  O2-  O205  1  0.52434354  0.00216178  0.87201886  1
  O2-  O206  1  0.52598270  0.33766319  0.37475294  1
  O2-  O207  1  0.52614089  0.33881781  0.87491370  1
  O2-  O208  1  0.52924395  0.67323230  0.37383823  1
  O2-  O209  1  0.51921813  0.66638389  0.87520013  1
  O2-  O210  1  0.85239165  -0.00240021  0.37593535  1
  O2-  O211  1  0.85801759  0.00334202  0.87389705  1
  O2-  O212  1  0.85941113  0.33840284  0.37585100  1
  O2-  O213  1  0.85385432  0.33884987  0.87266643  1
  O2-  O214  1  0.86107128  0.67371910  0.37469855  1
  O2-  O215  1  0.85708522  0.67491357  0.87382674  1
  O2-  O216  1  0.23575411  0.09497527  0.01715599  1
  O2-  O217  1  0.23863077  0.09251891  0.52487944  1
  O2-  O218  1  0.23706132  0.42569860  0.02107101  1
  O2-  O219  1  0.23479447  0.42506346  0.52264625  1
  O2-  O220  1  0.23704978  0.76478858  0.01656597  1
  O2-  O221  1  0.23908973  0.75760969  0.52479777  1
  O2-  O222  1  0.57116967  0.09612044  0.01917411  1
  O2-  O223  1  0.56867121  0.09801590  0.51731321  1
  O2-  O224  1  0.57125064  0.42649621  0.02348442  1
  O2-  O225  1  0.56883870  0.43202650  0.51376924  1
  O2-  O226  1  0.57533593  0.75986510  0.02173271  1
  O2-  O227  1  0.56920871  0.76464916  0.51591231  1
  O2-  O228  1  0.90093404  0.09905121  0.01662663  1
  O2-  O229  1  0.90342861  0.09626290  0.52145273  1
  O2-  O230  1  0.90658360  0.42713820  0.02089934  1
  O2-  O231  1  0.90145618  0.43033872  0.51828924  1
  O2-  O232  1  0.90591879  0.76528276  0.01727515  1
  O2-  O233  1  0.90654188  0.76170659  0.52181097  1
  O2-  O234  1  0.25987615  0.26130182  0.22992341  1
  O2-  O235  1  0.25679113  0.25864596  0.72494888  1
  O2-  O236  1  0.25667894  0.59402276  0.23178357  1
  O2-  O237  1  0.26290883  0.59181933  0.72646564  1
  O2-  O238  1  0.26228536  0.93155339  0.22768116  1
  O2-  O239  1  0.25960118  0.92687772  0.72821710  1
  O2-  O240  1  0.59159119  0.25939092  0.23042886  1
  O2-  O241  1  0.59610046  0.26258675  0.72778844  1
  O2-  O242  1  0.59821926  0.59173951  0.22960590  1
  O2-  O243  1  0.59540060  0.59447225  0.72798906  1
  O2-  O244  1  0.58878819  0.92562697  0.23180964  1
  O2-  O245  1  0.59535758  0.92708127  0.72671450  1
  O2-  O246  1  0.92842520  0.26112334  0.23410776  1
  O2-  O247  1  0.92991637  0.26633542  0.73116129  1
  O2-  O248  1  0.93070167  0.59664106  0.22659030  1
  O2-  O249  1  0.92738039  0.59614027  0.72925761  1
  O2-  O250  1  0.93023221  0.92624185  0.22916702  1
  O2-  O251  1  0.92885116  0.93245993  0.72771537  1
  O2-  O252  1  0.09614957  0.23675705  0.26495333  1
  O2-  O253  1  0.09411864  0.23951480  0.77270314  1
  O2-  O254  1  0.09451552  0.56899366  0.26870646  1
  O2-  O255  1  0.09476919  0.57243564  0.77205840  1
  O2-  O256  1  0.10045567  0.90122089  0.26656756  1
  O2-  O257  1  0.09521915  0.90549798  0.77261050  1
  O2-  O258  1  0.42552505  0.23915846  0.27383448  1
  O2-  O259  1  0.42836724  0.24305771  0.76251337  1
  O2-  O260  1  0.42804181  0.57411426  0.27143667  1
  O2-  O261  1  0.42999920  0.57160872  0.76851687  1
  O2-  O262  1  0.42554873  0.90686329  0.27333469  1
  O2-  O263  1  0.42642122  0.90836042  0.76501787  1
  O2-  O264  1  0.75565267  0.24324442  0.26965344  1
  O2-  O265  1  0.76235238  0.23907638  0.76874444  1
  O2-  O266  1  0.76649125  0.57343638  0.27091552  1
  O2-  O267  1  0.76431588  0.56658986  0.76745819  1
  O2-  O268  1  0.76196663  0.90586480  0.26846210  1
  O2-  O269  1  0.76682379  0.90333880  0.76361763  1
  O2-  O270  1  0.07516970  0.07413045  0.48528117  1
  O2-  O271  1  0.07202479  0.07457191  0.97540188  1
  O2-  O272  1  0.07035203  0.40569180  0.47711741  1
  O2-  O273  1  0.07284126  0.40590424  0.97376009  1
  O2-  O274  1  0.07066556  0.73456628  0.48570167  1
  O2-  O275  1  0.07233622  0.74068510  0.97282429  1
  O2-  O276  1  0.40484980  0.07116239  0.47849108  1
  O2-  O277  1  0.40284968  0.07319085  0.98161387  1
  O2-  O278  1  0.40301792  0.40614287  0.47741946  1
  O2-  O279  1  0.40476392  0.40582069  0.97967177  1
  O2-  O280  1  0.40401421  0.73923026  0.47651022  1
  O2-  O281  1  0.40480260  0.74055440  0.98343732  1
  O2-  O282  1  0.73638139  0.07041530  0.48175286  1
  O2-  O283  1  0.73775635  0.07103235  0.97724875  1
  O2-  O284  1  0.73941383  0.40648568  0.47678816  1
  O2-  O285  1  0.73615099  0.40033044  0.98535125  1
  O2-  O286  1  0.74109438  0.74066370  0.47603451  1
  O2-  O287  1  0.74097229  0.73876549  0.98494862  1
  O2-  O288  1  0.09749682  0.23674165  0.48649779  1
  O2-  O289  1  0.09299375  0.23946828  0.97445098  1
  O2-  O290  1  0.09667261  0.57075029  0.48156257  1
  O2-  O291  1  0.09277894  0.57017686  0.97607545  1
  O2-  O292  1  0.09937992  0.89976583  0.48320452  1
  O2-  O293  1  0.09574989  0.90510070  0.97579072  1
  O2-  O294  1  0.42713406  0.23982096  0.47922254  1
  O2-  O295  1  0.42539255  0.24079435  0.98591061  1
  O2-  O296  1  0.43135610  0.57484897  0.47722951  1
  O2-  O297  1  0.42830886  0.57194425  0.98388806  1
  O2-  O298  1  0.42981494  0.90723599  0.47848785  1
  O2-  O299  1  0.42476623  0.90858787  0.98339889  1
  O2-  O300  1  0.75929473  0.24183627  0.48061470  1
  O2-  O301  1  0.75985442  0.23968485  0.98044815  1
  O2-  O302  1  0.76272800  0.57080822  0.47741055  1
  O2-  O303  1  0.76533482  0.56579807  0.98434318  1
  O2-  O304  1  0.76183081  0.90409912  0.48131383  1
  O2-  O305  1  0.76634988  0.90489959  0.98685681  1
  O2-  O306  1  0.07453995  0.07414327  0.26441630  1
  O2-  O307  1  0.07291291  0.07412983  0.77330068  1
  O2-  O308  1  0.06921454  0.40266679  0.27225052  1
  O2-  O309  1  0.07653682  0.40796327  0.77622579  1
  O2-  O310  1  0.07170995  0.73685602  0.26783982  1
  O2-  O311  1  0.07132950  0.73931893  0.77142163  1
  O2-  O312  1  0.40649139  0.07358108  0.27624036  1
  O2-  O313  1  0.40319329  0.07054259  0.76652569  1
  O2-  O314  1  0.40451904  0.40445342  0.27301950  1
  O2-  O315  1  0.40403027  0.40580888  0.77345717  1
  O2-  O316  1  0.40590544  0.74283637  0.27489095  1
  O2-  O317  1  0.40360815  0.73550253  0.76483579  1
  O2-  O318  1  0.73710467  0.07162243  0.26806358  1
  O2-  O319  1  0.73701041  0.06944748  0.77353504  1
  O2-  O320  1  0.73901848  0.40513957  0.27159815  1
  O2-  O321  1  0.73771653  0.40300640  0.76576805  1
  O2-  O322  1  0.74103663  0.73803004  0.27062238  1
  O2-  O323  1  0.74174415  0.74081587  0.76770160  1
  O2-  O324  1  0.23633271  0.09453608  0.23106355  1
  O2-  O325  1  0.23693854  0.09268404  0.72836071  1
  O2-  O326  1  0.23400350  0.42525357  0.22910517  1
  O2-  O327  1  0.23954640  0.42703096  0.72771852  1
  O2-  O328  1  0.23816122  0.76348871  0.23144559  1
  O2-  O329  1  0.23888769  0.76044339  0.72883184  1
  O2-  O330  1  0.56880807  0.09692271  0.23442473  1
  O2-  O331  1  0.57191210  0.09648441  0.72825158  1
  O2-  O332  1  0.56916179  0.42472453  0.22942336  1
  O2-  O333  1  0.56866222  0.43135459  0.73428023  1
  O2-  O334  1  0.57337688  0.76127386  0.22939499  1
  O2-  O335  1  0.57201589  0.76228036  0.73125536  1
  O2-  O336  1  0.90512141  0.09586947  0.23058791  1
  O2-  O337  1  0.89754345  0.09771466  0.73136814  1
  O2-  O338  1  0.90492238  0.43057056  0.23087665  1
  O2-  O339  1  0.90396014  0.42691283  0.73001476  1
  O2-  O340  1  0.90498120  0.76401065  0.23208489  1
  O2-  O341  1  0.90534301  0.76144031  0.72844590  1
  O2-  O342  1  0.25801542  0.25658272  0.02326660  1
  O2-  O343  1  0.26023006  0.26193722  0.52327918  1
  O2-  O344  1  0.25813203  0.58986425  0.01762340  1
  O2-  O345  1  0.26219953  0.59332831  0.52131829  1
  O2-  O346  1  0.26014044  0.92885141  0.02096950  1
  O2-  O347  1  0.26151842  0.92884390  0.52278149  1
  O2-  O348  1  0.59278558  0.26061080  0.02113322  1
  O2-  O349  1  0.59665686  0.26132656  0.52119233  1
  O2-  O350  1  0.59684080  0.59023596  0.02313887  1
  O2-  O351  1  0.59938200  0.59624998  0.52023789  1
  O2-  O352  1  0.59019512  0.92331914  0.01922551  1
  O2-  O353  1  0.59649534  0.92927396  0.52201962  1
  O2-  O354  1  0.93003486  0.26482999  0.01316852  1
  O2-  O355  1  0.92924764  0.26297728  0.52027462  1
  O2-  O356  1  0.93079711  0.59724063  0.02147512  1
  O2-  O357  1  0.92854171  0.59406219  0.52209087  1
  O2-  O358  1  0.93280483  0.93131159  0.01937782  1
  O2-  O359  1  0.92628849  0.92810057  0.52292605  1
