# generated using pymatgen
data_Sr7Ca15Pr50Mn72O216
_symmetry_space_group_name_H-M   'P 1'
_cell_length_a   16.55520230
_cell_length_b   16.60321172
_cell_length_c   15.59015162
_cell_angle_alpha   90.00536527
_cell_angle_beta   89.98885191
_cell_angle_gamma   90.00869199
_symmetry_Int_Tables_number   1
_chemical_formula_structural   Sr7Ca15Pr50Mn72O216
_chemical_formula_sum   'Sr7 Ca15 Pr50 Mn72 O216'
_cell_volume   4285.25748204
_cell_formula_units_Z   1
loop_
 _symmetry_equiv_pos_site_id
 _symmetry_equiv_pos_as_xyz
  1  'x, y, z'
loop_
 _atom_type_symbol
 _atom_type_oxidation_number
  Sr2+  2.0
  Ca2+  2.0
  Pr3+  3.0
  Mn3.30+  3.3
  O2-  -2.0
loop_
 _atom_site_type_symbol
 _atom_site_label
 _atom_site_symmetry_multiplicity
 _atom_site_fract_x
 _atom_site_fract_y
 _atom_site_fract_z
 _atom_site_occupancy
  Sr2+  Sr0  1  0.33636666  0.32379579  0.37446400  1
  Sr2+  Sr1  1  0.67014491  0.65537121  0.37662068  1
  Sr2+  Sr2  1  0.16275997  0.82144053  0.87456920  1
  Sr2+  Sr3  1  -0.00273877  0.00896546  0.62647828  1
  Sr2+  Sr4  1  0.50123437  0.84376519  0.12465661  1
  Sr2+  Sr5  1  0.33479508  0.32636662  0.87540590  1
  Sr2+  Sr6  1  0.33461991  0.99110754  0.37419638  1
  Ca2+  Ca7  1  0.66371066  0.34736399  0.62559557  1
  Ca2+  Ca8  1  0.66204504  0.68042080  0.62404717  1
  Ca2+  Ca9  1  1.00474209  0.98513335  0.87486194  1
  Ca2+  Ca10  1  0.33785386  0.64930381  0.87490761  1
  Ca2+  Ca11  1  0.66979461  0.31995050  0.87346488  1
  Ca2+  Ca12  1  0.49551051  0.48372259  0.87369458  1
  Ca2+  Ca13  1  1.00469445  0.65204665  0.87429412  1
  Ca2+  Ca14  1  0.67044370  0.98609847  0.37375842  1
  Ca2+  Ca15  1  1.00022901  0.31781882  0.37453775  1
  Ca2+  Ca16  1  0.82946914  0.14998114  0.37340946  1
  Ca2+  Ca17  1  0.83755797  0.18220261  0.12736747  1
  Ca2+  Ca18  1  0.83661982  0.84788794  0.12514534  1
  Ca2+  Ca19  1  0.82897567  0.48583419  0.37526676  1
  Ca2+  Ca20  1  0.17040051  0.51452905  0.62662743  1
  Ca2+  Ca21  1  0.16914864  0.18241455  0.12643267  1
  Pr3+  Pr22  1  0.49767225  0.15329995  0.37440129  1
  Pr3+  Pr23  1  0.16158488  0.15396536  0.87639868  1
  Pr3+  Pr24  1  0.33765913  0.65637335  0.37459725  1
  Pr3+  Pr25  1  0.83668211  0.17933257  0.62338565  1
  Pr3+  Pr26  1  1.00473376  0.32181165  0.87482933  1
  Pr3+  Pr27  1  0.49880391  0.48778339  0.37508774  1
  Pr3+  Pr28  1  0.32940808  0.01416320  0.62443275  1
  Pr3+  Pr29  1  -0.00009298  0.67640578  0.62797109  1
  Pr3+  Pr30  1  0.32881193  0.67831816  0.62731421  1
  Pr3+  Pr31  1  0.33498334  0.98961609  0.87584809  1
  Pr3+  Pr32  1  0.16381896  0.82046092  0.37574372  1
  Pr3+  Pr33  1  0.83159944  0.48527183  0.87452462  1
  Pr3+  Pr34  1  0.66510052  0.67983289  0.12467855  1
  Pr3+  Pr35  1  -0.00249201  0.34613383  0.62327428  1
  Pr3+  Pr36  1  0.33032163  0.68016380  0.12241470  1
  Pr3+  Pr37  1  0.33022866  0.34553109  0.12505581  1
  Pr3+  Pr38  1  0.50011686  0.82288848  0.37344169  1
  Pr3+  Pr39  1  0.99941054  0.65452215  0.37591513  1
  Pr3+  Pr40  1  0.16169131  0.48434852  0.37745128  1
  Pr3+  Pr41  1  0.66880525  0.98705399  0.87530708  1
  Pr3+  Pr42  1  0.83645695  0.51174574  0.12561953  1
  Pr3+  Pr43  1  0.16344602  0.15621172  0.37301760  1
  Pr3+  Pr44  1  0.83110521  0.51052390  0.62355160  1
  Pr3+  Pr45  1  -0.00668936  0.01501864  0.12413735  1
  Pr3+  Pr46  1  1.00034642  0.98755943  0.37605250  1
  Pr3+  Pr47  1  0.32847214  0.01565178  0.12569202  1
  Pr3+  Pr48  1  0.50220259  0.17804447  0.12589546  1
  Pr3+  Pr49  1  0.49370011  0.81798893  0.87656272  1
  Pr3+  Pr50  1  0.66837181  0.65291585  0.87363682  1
  Pr3+  Pr51  1  0.50507036  0.18303590  0.62435196  1
  Pr3+  Pr52  1  0.50306509  0.84556525  0.62563730  1
  Pr3+  Pr53  1  0.66663708  0.01176896  0.12644064  1
  Pr3+  Pr54  1  0.83471970  0.82083274  0.87473587  1
  Pr3+  Pr55  1  0.33010348  0.35010713  0.62498616  1
  Pr3+  Pr56  1  0.67304069  0.32101678  0.37652501  1
  Pr3+  Pr57  1  0.50243126  0.51010294  0.12357498  1
  Pr3+  Pr58  1  0.16559850  0.49096100  0.87258566  1
  Pr3+  Pr59  1  0.66477251  0.01293621  0.62368688  1
  Pr3+  Pr60  1  0.16934538  0.84775774  0.62652236  1
  Pr3+  Pr61  1  0.82736571  0.82284166  0.37472156  1
  Pr3+  Pr62  1  0.16741073  0.17863807  0.62370256  1
  Pr3+  Pr63  1  0.16853714  0.51169710  0.12472792  1
  Pr3+  Pr64  1  0.49826693  0.15813034  0.87601120  1
  Pr3+  Pr65  1  -0.00509465  0.68178476  0.12215669  1
  Pr3+  Pr66  1  0.83218044  0.15418599  0.87687386  1
  Pr3+  Pr67  1  0.83374112  0.84454866  0.62478996  1
  Pr3+  Pr68  1  0.50574811  0.51301797  0.62621116  1
  Pr3+  Pr69  1  0.66767959  0.34372960  0.12422963  1
  Pr3+  Pr70  1  0.16900843  0.84656989  0.12345640  1
  Pr3+  Pr71  1  -0.00291761  0.34481983  0.12677932  1
  Mn3.30+  Mn72  1  0.16322436  0.00173669  0.00110549  1
  Mn3.30+  Mn73  1  0.16591085  0.00125883  0.49890106  1
  Mn3.30+  Mn74  1  0.16691003  0.33317503  0.00075602  1
  Mn3.30+  Mn75  1  0.16487846  0.33340544  0.49882181  1
  Mn3.30+  Mn76  1  0.16521915  0.66680860  -0.00285349  1
  Mn3.30+  Mn77  1  0.16695788  0.66495566  0.50065690  1
  Mn3.30+  Mn78  1  0.50054152  0.00035646  0.00120976  1
  Mn3.30+  Mn79  1  0.50073107  0.00027727  0.49886653  1
  Mn3.30+  Mn80  1  0.50129701  0.33364233  -0.00159011  1
  Mn3.30+  Mn81  1  0.50222301  0.33451641  0.50041204  1
  Mn3.30+  Mn82  1  0.49934105  0.66430530  -0.00136497  1
  Mn3.30+  Mn83  1  0.50184243  0.66693047  0.50049084  1
  Mn3.30+  Mn84  1  0.83517356  -0.00056151  -0.00040177  1
  Mn3.30+  Mn85  1  0.83156703  0.00127814  0.49886828  1
  Mn3.30+  Mn86  1  0.83324689  0.33174875  -0.00029039  1
  Mn3.30+  Mn87  1  0.83337411  0.33287031  0.49812296  1
  Mn3.30+  Mn88  1  0.83467972  0.66681286  -0.00275120  1
  Mn3.30+  Mn89  1  0.83098520  0.66502912  0.50233580  1
  Mn3.30+  Mn90  1  -0.00283598  0.16742525  0.25069203  1
  Mn3.30+  Mn91  1  -0.00054031  0.16556979  0.74966962  1
  Mn3.30+  Mn92  1  -0.00172569  0.49881141  0.25341263  1
  Mn3.30+  Mn93  1  0.00050145  0.50071221  0.74743111  1
  Mn3.30+  Mn94  1  -0.00236630  0.83350680  0.24943812  1
  Mn3.30+  Mn95  1  0.00048250  0.83250399  0.75109367  1
  Mn3.30+  Mn96  1  0.33232494  0.16827575  0.25027685  1
  Mn3.30+  Mn97  1  0.33353841  0.16918861  0.75061283  1
  Mn3.30+  Mn98  1  0.33313769  0.50060152  0.25042836  1
  Mn3.30+  Mn99  1  0.33524072  0.50169430  0.75054023  1
  Mn3.30+  Mn100  1  0.33311110  0.83533121  0.24947645  1
  Mn3.30+  Mn101  1  0.33317102  0.83235906  0.75246731  1
  Mn3.30+  Mn102  1  0.67100910  0.16546191  0.25055404  1
  Mn3.30+  Mn103  1  0.66743442  0.16939734  0.75021415  1
  Mn3.30+  Mn104  1  0.66965132  0.49981688  0.25033844  1
  Mn3.30+  Mn105  1  0.66489651  0.49792375  0.75158876  1
  Mn3.30+  Mn106  1  0.66848344  0.83452206  0.24817013  1
  Mn3.30+  Mn107  1  0.66550963  0.83157541  0.75096781  1
  Mn3.30+  Mn108  1  0.16428644  0.00138088  0.24991788  1
  Mn3.30+  Mn109  1  0.16466950  0.00089022  0.75041816  1
  Mn3.30+  Mn110  1  0.16449899  0.33169239  0.25173347  1
  Mn3.30+  Mn111  1  0.16736098  0.33539840  0.74856879  1
  Mn3.30+  Mn112  1  0.16544525  0.66606855  0.24990225  1
  Mn3.30+  Mn113  1  0.16676297  0.66598204  0.75228960  1
  Mn3.30+  Mn114  1  0.50133913  -0.00033584  0.24972626  1
  Mn3.30+  Mn115  1  0.49984475  0.00145525  0.75017929  1
  Mn3.30+  Mn116  1  0.50188667  0.33299331  0.24989034  1
  Mn3.30+  Mn117  1  0.50196299  0.33508238  0.75146525  1
  Mn3.30+  Mn118  1  0.50167213  0.66696468  0.24940213  1
  Mn3.30+  Mn119  1  0.49937359  0.66482845  0.75101984  1
  Mn3.30+  Mn120  1  0.83211972  0.00102401  0.24929702  1
  Mn3.30+  Mn121  1  0.83492617  -0.00037836  0.75193998  1
  Mn3.30+  Mn122  1  0.83516447  0.33192046  0.25306415  1
  Mn3.30+  Mn123  1  0.83102116  0.33274689  0.74889852  1
  Mn3.30+  Mn124  1  0.83283025  0.66692058  0.24966124  1
  Mn3.30+  Mn125  1  0.83292719  0.66474869  0.74991414  1
  Mn3.30+  Mn126  1  -0.00028091  0.16675430  0.00253823  1
  Mn3.30+  Mn127  1  -0.00265201  0.16663543  0.49723560  1
  Mn3.30+  Mn128  1  0.00042665  0.50080878  -0.00096642  1
  Mn3.30+  Mn129  1  -0.00168448  0.49879112  0.49954788  1
  Mn3.30+  Mn130  1  -0.00009532  0.83443062  -0.00102069  1
  Mn3.30+  Mn131  1  -0.00166143  0.83197311  0.50116984  1
  Mn3.30+  Mn132  1  0.33070429  0.16887244  0.00004305  1
  Mn3.30+  Mn133  1  0.33489481  0.16879746  0.49958706  1
  Mn3.30+  Mn134  1  0.33553218  0.50099132  -0.00136005  1
  Mn3.30+  Mn135  1  0.33258323  0.50118810  0.50010317  1
  Mn3.30+  Mn136  1  0.33197106  0.83350598  -0.00095166  1
  Mn3.30+  Mn137  1  0.33403682  0.83403045  0.49975562  1
  Mn3.30+  Mn138  1  0.66903506  0.16766991  0.00075996  1
  Mn3.30+  Mn139  1  0.66914687  0.16669096  0.49852352  1
  Mn3.30+  Mn140  1  0.66593787  0.49770281  -0.00304809  1
  Mn3.30+  Mn141  1  0.66822333  0.49970632  0.50042619  1
  Mn3.30+  Mn142  1  0.66773190  0.83300170  -0.00006997  1
  Mn3.30+  Mn143  1  0.66644045  0.83341582  0.50064990  1
  O2-  O144  1  0.02736360  0.16152759  0.12556483  1
  O2-  O145  1  0.02325886  0.16452325  0.62473161  1
  O2-  O146  1  0.02443978  0.49406486  0.12868271  1
  O2-  O147  1  0.02804986  0.49437860  0.62370481  1
  O2-  O148  1  0.02555842  0.82823884  0.12455125  1
  O2-  O149  1  0.02535848  0.82577051  0.62491672  1
  O2-  O150  1  0.35694664  0.16403218  0.12487815  1
  O2-  O151  1  0.35940623  0.16156421  0.62508752  1
  O2-  O152  1  0.35660507  0.49604801  0.12481462  1
  O2-  O153  1  0.35961780  0.49952180  0.62376700  1
  O2-  O154  1  0.35111753  0.82853712  0.12290552  1
  O2-  O155  1  0.35879931  0.82719367  0.62726528  1
  O2-  O156  1  0.69618278  0.15992437  0.12703016  1
  O2-  O157  1  0.69334905  0.15847322  0.62453758  1
  O2-  O158  1  0.69337628  0.49308386  0.12333461  1
  O2-  O159  1  0.68895008  0.49099143  0.62846440  1
  O2-  O160  1  0.69426977  0.82729294  0.12064122  1
  O2-  O161  1  0.68893231  0.82829047  0.62739098  1
  O2-  O162  1  0.14139378  0.33146456  0.12849504  1
  O2-  O163  1  0.14132125  0.32643026  0.62296103  1
  O2-  O164  1  0.13949650  0.65983393  0.12458074  1
  O2-  O165  1  0.14438475  0.66068598  0.62461246  1
  O2-  O166  1  0.13765057  0.99288104  0.12813103  1
  O2-  O167  1  0.14826904  0.99802422  0.62416835  1
  O2-  O168  1  0.47520335  0.32725408  0.12596195  1
  O2-  O169  1  0.47490961  0.33010362  0.62463821  1
  O2-  O170  1  0.47465662  0.65891560  0.12364366  1
  O2-  O171  1  0.47280004  0.66178278  0.62697995  1
  O2-  O172  1  0.47435310  1.00048349  0.12529689  1
  O2-  O173  1  0.47351202  0.99427496  0.62693679  1
  O2-  O174  1  0.81113578  0.32913290  0.12614733  1
  O2-  O175  1  0.80559407  0.32591929  0.62530736  1
  O2-  O176  1  0.80866148  0.65836386  0.12087287  1
  O2-  O177  1  0.80325727  0.65863406  0.62688410  1
  O2-  O178  1  0.80876724  0.99100193  0.12374533  1
  O2-  O179  1  0.80821543  0.99487802  0.62675426  1
  O2-  O180  1  0.30947480  0.16946897  0.37511465  1
  O2-  O181  1  0.30699959  0.16930373  0.87542726  1
  O2-  O182  1  0.30728366  0.50801814  0.37515294  1
  O2-  O183  1  0.30921200  0.50319767  0.87616999  1
  O2-  O184  1  0.30790590  0.83394494  0.37457060  1
  O2-  O185  1  0.31266235  0.84285731  0.87588633  1
  O2-  O186  1  0.64022214  0.17471539  0.37475823  1
  O2-  O187  1  0.64191135  0.17252421  0.87398767  1
  O2-  O188  1  0.64246767  0.50039880  0.37262029  1
  O2-  O189  1  0.63691772  0.50776001  0.87468720  1
  O2-  O190  1  0.64427038  0.83956581  0.37659129  1
  O2-  O191  1  0.63846265  0.83840105  0.87506880  1
  O2-  O192  1  0.97136228  0.17216356  0.37408299  1
  O2-  O193  1  0.97574330  0.17576782  0.87539574  1
  O2-  O194  1  0.97013509  0.50989923  0.37565572  1
  O2-  O195  1  0.97611438  0.50367820  0.87101646  1
  O2-  O196  1  0.97333110  0.83533070  0.37613636  1
  O2-  O197  1  0.97722242  0.84126594  0.87501019  1
  O2-  O198  1  0.18534177  0.00618851  0.37356973  1
  O2-  O199  1  0.19149658  0.00752083  0.87459587  1
  O2-  O200  1  0.18845831  0.33695240  0.37577530  1
  O2-  O201  1  0.18463821  0.34111608  0.87292305  1
  O2-  O202  1  0.19265695  0.67286781  0.37564097  1
  O2-  O203  1  0.19372795  0.66440432  0.87530928  1
  O2-  O204  1  0.52710361  0.00560497  0.37369367  1
  O2-  O205  1  0.52462353  0.00977047  0.87450674  1
  O2-  O206  1  0.52705888  0.33937525  0.37403216  1
  O2-  O207  1  0.52673353  0.33684109  0.87570794  1
  O2-  O208  1  0.51974299  0.67378235  0.37418675  1
  O2-  O209  1  0.52602638  0.67270671  0.87487222  1
  O2-  O210  1  0.85731479  0.00276603  0.37385895  1
  O2-  O211  1  0.86222618  0.00705775  0.87561219  1
  O2-  O212  1  0.85984156  0.34371472  0.37503866  1
  O2-  O213  1  0.86111125  0.33749295  0.87321545  1
  O2-  O214  1  0.85709077  0.67588961  0.37772733  1
  O2-  O215  1  0.86258458  0.67129897  0.87406859  1
  O2-  O216  1  0.23443758  0.09580601  0.02232115  1
  O2-  O217  1  0.24135771  0.09629173  0.51919671  1
  O2-  O218  1  0.23927581  0.42792340  0.02046689  1
  O2-  O219  1  0.23745515  0.43079687  0.52051769  1
  O2-  O220  1  0.23574058  0.75877440  0.02138512  1
  O2-  O221  1  0.23928105  0.76287287  0.52082544  1
  O2-  O222  1  0.57383841  0.09419414  0.02075182  1
  O2-  O223  1  0.57251798  0.09589898  0.52103363  1
  O2-  O224  1  0.57469686  0.42480356  0.02453895  1
  O2-  O225  1  0.57062764  0.43039472  0.51637578  1
  O2-  O226  1  0.57479351  0.75705421  0.01740647  1
  O2-  O227  1  0.57016273  0.76312485  0.51820703  1
  O2-  O228  1  0.90381795  0.09772746  0.02264882  1
  O2-  O229  1  0.90284251  0.09429666  0.51747735  1
  O2-  O230  1  0.90519405  0.42778282  0.01831744  1
  O2-  O231  1  0.90586279  0.42622854  0.52545935  1
  O2-  O232  1  0.90462504  0.76465819  0.02007663  1
  O2-  O233  1  0.90622191  0.75709128  0.52488222  1
  O2-  O234  1  0.26064335  0.26194061  0.23054144  1
  O2-  O235  1  0.26024494  0.26170590  0.72652938  1
  O2-  O236  1  0.26073590  0.59568212  0.22859171  1
  O2-  O237  1  0.26294031  0.59563440  0.73251410  1
  O2-  O238  1  0.25854924  0.92811902  0.22808180  1
  O2-  O239  1  0.26231924  0.92945130  0.73072201  1
  O2-  O240  1  0.59823772  0.25954000  0.22845155  1
  O2-  O241  1  0.59530954  0.26227887  0.72637238  1
  O2-  O242  1  0.59445559  0.59075874  0.22621719  1
  O2-  O243  1  0.59642016  0.59693552  0.72805207  1
  O2-  O244  1  0.59636846  0.92807099  0.22992819  1
  O2-  O245  1  0.59287086  0.93072264  0.73033131  1
  O2-  O246  1  0.92942740  0.26177802  0.22929681  1
  O2-  O247  1  0.92903549  0.26178062  0.72884732  1
  O2-  O248  1  0.92871533  0.59698647  0.22959604  1
  O2-  O249  1  0.92518415  0.59062885  0.72497689  1
  O2-  O250  1  0.92960749  0.93200184  0.23358018  1
  O2-  O251  1  0.92139236  0.92162396  0.73048594  1
  O2-  O252  1  0.09342125  0.23746373  0.27018674  1
  O2-  O253  1  0.09414092  0.23806259  0.76875447  1
  O2-  O254  1  0.09435818  0.57024356  0.27237174  1
  O2-  O255  1  0.09543059  0.57232665  0.76787717  1
  O2-  O256  1  0.09327115  0.90382268  0.27226648  1
  O2-  O257  1  0.09562445  0.90750158  0.76222766  1
  O2-  O258  1  0.43296874  0.23903266  0.26740916  1
  O2-  O259  1  0.43246647  0.23776173  0.76709992  1
  O2-  O260  1  0.42799886  0.57442135  0.27034729  1
  O2-  O261  1  0.43200825  0.56927234  0.76988001  1
  O2-  O262  1  0.42964657  0.90660679  0.26916076  1
  O2-  O263  1  0.42963461  0.90635626  0.77107604  1
  O2-  O264  1  0.76297941  0.23862660  0.27447922  1
  O2-  O265  1  0.76506312  0.23660785  0.76961853  1
  O2-  O266  1  0.76503874  0.56779141  0.26581507  1
  O2-  O267  1  0.76112333  0.57014632  0.77304877  1
  O2-  O268  1  0.76349424  0.90530579  0.26820714  1
  O2-  O269  1  0.76038645  0.90628068  0.77222695  1
  O2-  O270  1  0.06989812  0.07617929  0.47730051  1
  O2-  O271  1  0.06892274  0.07138049  0.97820701  1
  O2-  O272  1  0.06773243  0.40492788  0.47672308  1
  O2-  O273  1  0.07213275  0.40654124  0.98181206  1
  O2-  O274  1  0.07266987  0.73798645  0.47985888  1
  O2-  O275  1  0.06751384  0.73408840  0.98213228  1
  O2-  O276  1  0.40818010  0.07468805  0.48268119  1
  O2-  O277  1  0.40342549  0.07448297  0.98141868  1
  O2-  O278  1  0.40615546  0.40995974  0.48263914  1
  O2-  O279  1  0.40716272  0.40579138  0.98750060  1
  O2-  O280  1  0.40450718  0.74000970  0.48086078  1
  O2-  O281  1  0.40597382  0.73506846  0.98005380  1
  O2-  O282  1  0.73461501  0.06861587  0.48110677  1
  O2-  O283  1  0.73974414  0.07063040  0.97824041  1
  O2-  O284  1  0.73959995  0.40361743  0.48197483  1
  O2-  O285  1  0.73789113  0.40502953  0.97737038  1
  O2-  O286  1  0.74207974  0.74315407  0.48338914  1
  O2-  O287  1  0.73947537  0.73781449  0.97624185  1
  O2-  O288  1  0.09478670  0.23612151  0.48170192  1
  O2-  O289  1  0.09412849  0.23958729  0.97988739  1
  O2-  O290  1  0.09148744  0.57187833  0.47694692  1
  O2-  O291  1  0.09754535  0.56944432  0.98240823  1
  O2-  O292  1  0.09240785  0.90453432  0.48080725  1
  O2-  O293  1  0.09445461  0.90501577  0.98562209  1
  O2-  O294  1  0.43246918  0.23784322  0.48284834  1
  O2-  O295  1  0.43127507  0.23820272  0.98327717  1
  O2-  O296  1  0.42851952  0.57368948  0.47823290  1
  O2-  O297  1  0.43149082  0.56840332  0.98069275  1
  O2-  O298  1  0.43055134  0.90243608  0.48247584  1
  O2-  O299  1  0.42840607  0.90895794  0.97892691  1
  O2-  O300  1  0.76449763  0.23613194  0.47646559  1
  O2-  O301  1  0.76232238  0.23890540  0.98081203  1
  O2-  O302  1  0.76481620  0.56791703  0.48312565  1
  O2-  O303  1  0.76054146  0.57030402  0.97686997  1
  O2-  O304  1  0.76144707  0.90487516  0.48472460  1
  O2-  O305  1  0.76105438  0.90619114  0.97389118  1
  O2-  O306  1  0.06755340  0.07240040  0.27171989  1
  O2-  O307  1  0.07223041  0.07395765  0.77327313  1
  O2-  O308  1  0.07048394  0.40512310  0.27358298  1
  O2-  O309  1  0.07094060  0.40620457  0.76774830  1
  O2-  O310  1  0.07127886  0.73719341  0.27054495  1
  O2-  O311  1  0.06947263  0.73436377  0.76749870  1
  O2-  O312  1  0.40847400  0.07557388  0.26607857  1
  O2-  O313  1  0.40537322  0.07227233  0.77052346  1
  O2-  O314  1  0.40926770  0.41044100  0.26689247  1
  O2-  O315  1  0.40579930  0.40544228  0.76312014  1
  O2-  O316  1  0.40560934  0.74066144  0.26670325  1
  O2-  O317  1  0.40419787  0.73599037  0.77289052  1
  O2-  O318  1  0.73572180  0.06809346  0.26982955  1
  O2-  O319  1  0.73903599  0.07124988  0.77140016  1
  O2-  O320  1  0.73814362  0.40206036  0.26631121  1
  O2-  O321  1  0.73944644  0.40574419  0.77515372  1
  O2-  O322  1  0.74133538  0.73914254  0.26661213  1
  O2-  O323  1  0.74195302  0.73841956  0.77419751  1
  O2-  O324  1  0.23578613  0.09449303  0.22897388  1
  O2-  O325  1  0.23831226  0.09556485  0.73023295  1
  O2-  O326  1  0.23854388  0.42779728  0.23126869  1
  O2-  O327  1  0.23994529  0.43071189  0.72796825  1
  O2-  O328  1  0.23664134  0.76069602  0.23013894  1
  O2-  O329  1  0.23732764  0.76057116  0.72789540  1
  O2-  O330  1  0.57361035  0.09472287  0.22888721  1
  O2-  O331  1  0.57191025  0.09527318  0.72872286  1
  O2-  O332  1  0.57414226  0.42620973  0.22837337  1
  O2-  O333  1  0.57061460  0.42888543  0.73042780  1
  O2-  O334  1  0.57561660  0.75789086  0.23145906  1
  O2-  O335  1  0.56730666  0.76175926  0.73312572  1
  O2-  O336  1  0.90334256  0.09461760  0.22657044  1
  O2-  O337  1  0.90260019  0.09754527  0.73285248  1
  O2-  O338  1  0.90647357  0.42713917  0.22725682  1
  O2-  O339  1  0.90418002  0.42609977  0.72758358  1
  O2-  O340  1  0.90510864  0.76268762  0.22798335  1
  O2-  O341  1  0.90379440  0.75768569  0.72775711  1
  O2-  O342  1  0.26073323  0.26291237  0.02072651  1
  O2-  O343  1  0.26223431  0.26033145  0.52228352  1
  O2-  O344  1  0.26049018  0.59344022  0.02225153  1
  O2-  O345  1  0.26416916  0.59731404  0.51717843  1
  O2-  O346  1  0.25862919  0.93240541  0.02024968  1
  O2-  O347  1  0.26286908  0.92513988  0.52148664  1
  O2-  O348  1  0.59354950  0.25850420  0.02368104  1
  O2-  O349  1  0.59913707  0.26173751  0.52120010  1
  O2-  O350  1  0.59602247  0.59293763  0.02178702  1
  O2-  O351  1  0.59439032  0.59425673  0.52231702  1
  O2-  O352  1  0.59863651  0.92913811  0.01676191  1
  O2-  O353  1  0.59339737  0.92678348  0.52330442  1
  O2-  O354  1  0.93218021  0.26286716  0.01831686  1
  O2-  O355  1  0.92703925  0.26078734  0.52215282  1
  O2-  O356  1  0.92772311  0.59284607  0.02072434  1
  O2-  O357  1  0.92817271  0.59376392  0.52320110  1
  O2-  O358  1  0.92806840  0.92913329  0.01964609  1
  O2-  O359  1  0.92334282  0.92440648  0.51720530  1
