# generated using pymatgen
data_Sr7Ca15Pr50Mn72O216
_symmetry_space_group_name_H-M   'P 1'
_cell_length_a   16.55991983
_cell_length_b   16.60312743
_cell_length_c   15.59451822
_cell_angle_alpha   90.00648738
_cell_angle_beta   89.99908995
_cell_angle_gamma   89.99921533
_symmetry_Int_Tables_number   1
_chemical_formula_structural   Sr7Ca15Pr50Mn72O216
_chemical_formula_sum   'Sr7 Ca15 Pr50 Mn72 O216'
_cell_volume   4287.65753840
_cell_formula_units_Z   1
loop_
 _symmetry_equiv_pos_site_id
 _symmetry_equiv_pos_as_xyz
  1  'x, y, z'
loop_
 _atom_type_symbol
 _atom_type_oxidation_number
  Sr2+  2.0
  Ca2+  2.0
  Pr3+  3.0
  Mn3.30+  3.3
  O2-  -2.0
loop_
 _atom_site_type_symbol
 _atom_site_label
 _atom_site_symmetry_multiplicity
 _atom_site_fract_x
 _atom_site_fract_y
 _atom_site_fract_z
 _atom_site_occupancy
  Sr2+  Sr0  1  0.50183343  0.50946078  0.62484019  1
  Sr2+  Sr1  1  0.00043210  0.67553849  0.12483558  1
  Sr2+  Sr2  1  0.66784761  0.65563927  0.37639058  1
  Sr2+  Sr3  1  1.00454971  0.31948931  0.87431296  1
  Sr2+  Sr4  1  0.33149302  0.01069036  0.12255465  1
  Sr2+  Sr5  1  0.33211629  0.32318471  0.37568387  1
  Sr2+  Sr6  1  0.33551292  0.32012516  0.87483784  1
  Ca2+  Ca7  1  -0.00208102  0.01565153  0.62544639  1
  Ca2+  Ca8  1  0.66975057  0.31838989  0.87466037  1
  Ca2+  Ca9  1  0.16465112  0.15261245  0.37581730  1
  Ca2+  Ca10  1  0.33354561  0.99217193  0.87476006  1
  Ca2+  Ca11  1  0.83617381  0.85011103  0.62450612  1
  Ca2+  Ca12  1  0.66302407  0.34752313  0.12301349  1
  Ca2+  Ca13  1  0.16404166  0.48531750  0.37364796  1
  Ca2+  Ca14  1  0.49535997  0.15085864  0.87485543  1
  Ca2+  Ca15  1  0.16936921  0.51191191  0.12493286  1
  Ca2+  Ca16  1  0.83478584  0.51260475  0.62501334  1
  Ca2+  Ca17  1  0.16963593  0.18049396  0.62649179  1
  Ca2+  Ca18  1  0.66332308  0.01474776  0.62629404  1
  Ca2+  Ca19  1  0.66634961  0.67796100  0.62354798  1
  Ca2+  Ca20  1  0.65989977  0.01572301  0.12356091  1
  Ca2+  Ca21  1  0.16433323  0.15279124  0.87402457  1
  Pr3+  Pr22  1  0.49804459  0.48494068  0.87381405  1
  Pr3+  Pr23  1  0.83141321  0.15563262  0.87334098  1
  Pr3+  Pr24  1  0.16356146  0.48457248  0.87574805  1
  Pr3+  Pr25  1  0.33130063  0.68003557  0.62542031  1
  Pr3+  Pr26  1  0.32883749  0.01606106  0.62736070  1
  Pr3+  Pr27  1  0.49745728  0.48583949  0.37657622  1
  Pr3+  Pr28  1  1.00352906  0.65028811  0.37420241  1
  Pr3+  Pr29  1  0.83150747  0.15452638  0.37650809  1
  Pr3+  Pr30  1  0.16915799  0.84675787  0.12474168  1
  Pr3+  Pr31  1  0.50390277  0.85117304  0.12497577  1
  Pr3+  Pr32  1  -0.00275360  0.34645978  0.62691201  1
  Pr3+  Pr33  1  0.17196964  0.17742310  0.12445173  1
  Pr3+  Pr34  1  1.00215404  0.65404321  0.87513042  1
  Pr3+  Pr35  1  1.00210950  0.98771287  0.37738091  1
  Pr3+  Pr36  1  0.66485799  0.34633248  0.62702034  1
  Pr3+  Pr37  1  0.50260695  0.17927295  0.12257641  1
  Pr3+  Pr38  1  0.33365988  0.99172195  0.37470495  1
  Pr3+  Pr39  1  1.00222639  0.99086796  0.87248111  1
  Pr3+  Pr40  1  0.66364349  0.67944380  0.12595927  1
  Pr3+  Pr41  1  -0.00713340  0.67899683  0.62503430  1
  Pr3+  Pr42  1  0.49683944  0.82415689  0.87420216  1
  Pr3+  Pr43  1  0.16346580  0.82115040  0.37472612  1
  Pr3+  Pr44  1  0.33113094  0.34290920  0.62594511  1
  Pr3+  Pr45  1  0.67064276  0.98813066  0.37735613  1
  Pr3+  Pr46  1  0.17016802  0.50993544  0.62520162  1
  Pr3+  Pr47  1  -0.00184477  0.01235050  0.12485948  1
  Pr3+  Pr48  1  0.83331307  0.17955302  0.12370966  1
  Pr3+  Pr49  1  0.50194634  0.50989704  0.12499339  1
  Pr3+  Pr50  1  0.33685442  0.65194838  0.37591180  1
  Pr3+  Pr51  1  0.49655955  0.15596516  0.37579356  1
  Pr3+  Pr52  1  0.66934558  0.32268278  0.37505074  1
  Pr3+  Pr53  1  0.49813554  0.82027869  0.37603484  1
  Pr3+  Pr54  1  0.83565315  0.17684042  0.62595401  1
  Pr3+  Pr55  1  0.83534247  0.84633690  0.12553173  1
  Pr3+  Pr56  1  0.82986128  0.81969998  0.37771914  1
  Pr3+  Pr57  1  0.50236051  0.17784170  0.62796322  1
  Pr3+  Pr58  1  0.50524907  0.84710022  0.62544280  1
  Pr3+  Pr59  1  0.33712957  0.65348669  0.87392373  1
  Pr3+  Pr60  1  -0.00071490  0.34580192  0.12293674  1
  Pr3+  Pr61  1  0.16819782  0.84811728  0.62506501  1
  Pr3+  Pr62  1  0.82997789  0.48457604  0.87396376  1
  Pr3+  Pr63  1  0.16604778  0.82475606  0.87492890  1
  Pr3+  Pr64  1  0.66887248  0.98942799  0.87292702  1
  Pr3+  Pr65  1  1.00741771  0.31950743  0.37511816  1
  Pr3+  Pr66  1  0.66909164  0.65429459  0.87302489  1
  Pr3+  Pr67  1  0.83059685  0.48859157  0.37537227  1
  Pr3+  Pr68  1  0.32991341  0.34607743  0.12407741  1
  Pr3+  Pr69  1  0.83517974  0.51239811  0.12431245  1
  Pr3+  Pr70  1  0.83031529  0.82151901  0.87264446  1
  Pr3+  Pr71  1  0.32768847  0.67829026  0.12485596  1
  Mn3.30+  Mn72  1  0.16780496  0.00183227  -0.00279981  1
  Mn3.30+  Mn73  1  0.16508622  0.00308845  0.50209334  1
  Mn3.30+  Mn74  1  0.16692382  0.33126294  -0.00085750  1
  Mn3.30+  Mn75  1  0.16594036  0.33100431  0.49977473  1
  Mn3.30+  Mn76  1  0.16718876  0.66598505  -0.00018161  1
  Mn3.30+  Mn77  1  0.16523861  0.66485162  0.49986426  1
  Mn3.30+  Mn78  1  0.49958810  0.00263787  -0.00159047  1
  Mn3.30+  Mn79  1  0.50135843  0.00072155  0.50123060  1
  Mn3.30+  Mn80  1  0.50207162  0.33081707  -0.00201030  1
  Mn3.30+  Mn81  1  0.50034313  0.33232877  0.50078644  1
  Mn3.30+  Mn82  1  0.49950983  0.66709466  -0.00002659  1
  Mn3.30+  Mn83  1  0.50202011  0.66590759  0.50176717  1
  Mn3.30+  Mn84  1  0.83094728  0.00126647  0.00053067  1
  Mn3.30+  Mn85  1  0.83429579  0.00014371  0.50388628  1
  Mn3.30+  Mn86  1  0.83048191  0.33218589  -0.00060666  1
  Mn3.30+  Mn87  1  0.83545794  0.33452171  0.50086739  1
  Mn3.30+  Mn88  1  0.83332706  0.66697792  -0.00091369  1
  Mn3.30+  Mn89  1  0.83162083  0.66626294  0.50277854  1
  Mn3.30+  Mn90  1  0.00146545  0.16655262  0.25033954  1
  Mn3.30+  Mn91  1  0.00337396  0.16588099  0.74821155  1
  Mn3.30+  Mn92  1  0.00206431  0.49895225  0.24874390  1
  Mn3.30+  Mn93  1  -0.00111845  0.49968270  0.74966176  1
  Mn3.30+  Mn94  1  -0.00096251  0.83252896  0.24982863  1
  Mn3.30+  Mn95  1  -0.00196274  0.83539527  0.74788221  1
  Mn3.30+  Mn96  1  0.33306397  0.16677017  0.25041832  1
  Mn3.30+  Mn97  1  0.33239826  0.16589949  0.75350460  1
  Mn3.30+  Mn98  1  0.33090496  0.49832333  0.25110801  1
  Mn3.30+  Mn99  1  0.33390566  0.49907002  0.74919750  1
  Mn3.30+  Mn100  1  0.33295856  0.83396031  0.25031641  1
  Mn3.30+  Mn101  1  0.33402519  0.83598622  0.74996824  1
  Mn3.30+  Mn102  1  0.66635392  0.16786706  0.24828949  1
  Mn3.30+  Mn103  1  0.66517971  0.16653301  0.75214400  1
  Mn3.30+  Mn104  1  0.66644852  0.49904540  0.24981028  1
  Mn3.30+  Mn105  1  0.66744824  0.50035844  0.74857392  1
  Mn3.30+  Mn106  1  0.66692284  0.83513087  0.25039854  1
  Mn3.30+  Mn107  1  0.66813605  0.83395047  0.74603139  1
  Mn3.30+  Mn108  1  0.16658325  0.00144358  0.25112250  1
  Mn3.30+  Mn109  1  0.16643506  0.00349649  0.74897545  1
  Mn3.30+  Mn110  1  0.16706736  0.33330790  0.25102783  1
  Mn3.30+  Mn111  1  0.16624892  0.32890944  0.75036330  1
  Mn3.30+  Mn112  1  0.16680535  0.66349318  0.25004191  1
  Mn3.30+  Mn113  1  0.16555298  0.66745389  0.74971248  1
  Mn3.30+  Mn114  1  0.50174737  0.00215291  0.24963531  1
  Mn3.30+  Mn115  1  0.49947689  0.00109096  0.75080057  1
  Mn3.30+  Mn116  1  0.50078927  0.33258543  0.24874685  1
  Mn3.30+  Mn117  1  0.50139731  0.33064456  0.75308379  1
  Mn3.30+  Mn118  1  0.49883302  0.66608783  0.25044840  1
  Mn3.30+  Mn119  1  0.50292090  0.66691419  0.74797535  1
  Mn3.30+  Mn120  1  0.83078483  0.00138962  0.24883625  1
  Mn3.30+  Mn121  1  0.83394240  -0.00020439  0.74644924  1
  Mn3.30+  Mn122  1  0.83332293  0.33337889  0.24846096  1
  Mn3.30+  Mn123  1  0.83244236  0.33295836  0.75117322  1
  Mn3.30+  Mn124  1  0.83342054  0.66657333  0.25046416  1
  Mn3.30+  Mn125  1  0.83171587  0.66674057  0.74702435  1
  Mn3.30+  Mn126  1  0.00193233  0.16651531  -0.00119963  1
  Mn3.30+  Mn127  1  0.00311462  0.16611858  0.50191153  1
  Mn3.30+  Mn128  1  0.00081446  0.49959273  0.00075597  1
  Mn3.30+  Mn129  1  0.00017233  0.49907592  0.50045331  1
  Mn3.30+  Mn130  1  -0.00064328  0.83393883  -0.00039784  1
  Mn3.30+  Mn131  1  -0.00222641  0.83401569  0.50223194  1
  Mn3.30+  Mn132  1  0.33456918  0.16505994  -0.00354802  1
  Mn3.30+  Mn133  1  0.33036209  0.16747986  0.49987951  1
  Mn3.30+  Mn134  1  0.33268357  0.49893347  -0.00006260  1
  Mn3.30+  Mn135  1  0.33211573  0.49849835  0.50008024  1
  Mn3.30+  Mn136  1  0.33370472  0.83541024  -0.00089544  1
  Mn3.30+  Mn137  1  0.33314049  0.83456044  0.50044872  1
  Mn3.30+  Mn138  1  0.66453599  0.16789231  -0.00167004  1
  Mn3.30+  Mn139  1  0.66698147  0.16641337  0.50159135  1
  Mn3.30+  Mn140  1  0.66626612  0.49746908  -0.00091072  1
  Mn3.30+  Mn141  1  0.66784993  0.50172567  0.50209130  1
  Mn3.30+  Mn142  1  0.66613652  0.83529881  -0.00038468  1
  Mn3.30+  Mn143  1  0.66861022  0.83309112  0.50389272  1
  O2-  O144  1  0.02619897  0.16039927  0.12507167  1
  O2-  O145  1  0.02691103  0.16146392  0.62327028  1
  O2-  O146  1  0.02582796  0.49505645  0.12431695  1
  O2-  O147  1  0.02582905  0.49794066  0.62440672  1
  O2-  O148  1  0.02476935  0.83384541  0.12302046  1
  O2-  O149  1  0.02654084  0.82420251  0.62427652  1
  O2-  O150  1  0.35713440  0.16488222  0.12274505  1
  O2-  O151  1  0.35884424  0.16321707  0.62623426  1
  O2-  O152  1  0.35785055  0.49721465  0.12601822  1
  O2-  O153  1  0.35138963  0.49412242  0.62599613  1
  O2-  O154  1  0.35842743  0.82669686  0.12572725  1
  O2-  O155  1  0.35867315  0.82878108  0.62473105  1
  O2-  O156  1  0.69115104  0.15708442  0.12478774  1
  O2-  O157  1  0.69087323  0.16125975  0.62656325  1
  O2-  O158  1  0.69134177  0.49382883  0.12267852  1
  O2-  O159  1  0.69458380  0.49120165  0.62551338  1
  O2-  O160  1  0.69181579  0.82628293  0.12317221  1
  O2-  O161  1  0.69465575  0.82253023  0.62495802  1
  O2-  O162  1  0.14258944  0.32352709  0.12461243  1
  O2-  O163  1  0.14153751  0.32684015  0.62488005  1
  O2-  O164  1  0.14947826  0.65888547  0.12467135  1
  O2-  O165  1  0.13811050  0.65881108  0.62418879  1
  O2-  O166  1  0.14214603  0.99448447  0.12369477  1
  O2-  O167  1  0.13906118  0.99216073  0.62426150  1
  O2-  O168  1  0.47463847  0.32929517  0.12434893  1
  O2-  O169  1  0.47665237  0.32604542  0.62748993  1
  O2-  O170  1  0.47209135  0.65967810  0.12577227  1
  O2-  O171  1  0.47432263  0.66714560  0.62529008  1
  O2-  O172  1  0.48094593  0.99923877  0.12351465  1
  O2-  O173  1  0.47376828  0.99577598  0.62392468  1
  O2-  O174  1  0.80501609  0.32684507  0.12234443  1
  O2-  O175  1  0.80882888  0.32462944  0.62491305  1
  O2-  O176  1  0.80793089  0.66138170  0.12338490  1
  O2-  O177  1  0.80803241  0.65474202  0.62563818  1
  O2-  O178  1  0.80241949  0.99387538  0.12665670  1
  O2-  O179  1  0.80468006  0.99778287  0.62528049  1
  O2-  O180  1  0.30865428  0.16511833  0.37737673  1
  O2-  O181  1  0.30516375  0.16906366  0.87427889  1
  O2-  O182  1  0.30680956  0.50449575  0.37598199  1
  O2-  O183  1  0.30849010  0.50507310  0.87274145  1
  O2-  O184  1  0.30807471  0.84097333  0.37632906  1
  O2-  O185  1  0.31075624  0.84041881  0.87277942  1
  O2-  O186  1  0.64134405  0.17504080  0.37466155  1
  O2-  O187  1  0.63925958  0.17320622  0.87492447  1
  O2-  O188  1  0.64206807  0.50063319  0.37660718  1
  O2-  O189  1  0.64037389  0.50913400  0.87527526  1
  O2-  O190  1  0.64188128  0.84097555  0.37766212  1
  O2-  O191  1  0.64119143  0.84004605  0.87474795  1
  O2-  O192  1  0.97435308  0.17165855  0.37530381  1
  O2-  O193  1  0.97535368  0.16305324  0.87557328  1
  O2-  O194  1  0.97516658  0.50090339  0.37560013  1
  O2-  O195  1  0.97578472  0.50457559  0.87539395  1
  O2-  O196  1  0.97425633  0.83893030  0.37810637  1
  O2-  O197  1  0.97401097  0.84042880  0.87388018  1
  O2-  O198  1  0.19007118  0.00468424  0.37869104  1
  O2-  O199  1  0.19063730  0.00479671  0.87332334  1
  O2-  O200  1  0.18369057  0.34339169  0.37464744  1
  O2-  O201  1  0.18620136  0.34036465  0.87577295  1
  O2-  O202  1  0.19342149  0.67491488  0.37642290  1
  O2-  O203  1  0.19334903  0.67583249  0.87415135  1
  O2-  O204  1  0.52673329  0.00678618  0.37721132  1
  O2-  O205  1  0.52552490  -0.00032619  0.87530606  1
  O2-  O206  1  0.52499366  0.33602372  0.37346778  1
  O2-  O207  1  0.52854140  0.34028642  0.87618483  1
  O2-  O208  1  0.51858185  0.67178028  0.37567839  1
  O2-  O209  1  0.52516918  0.67478933  0.87390900  1
  O2-  O210  1  0.85836598  0.00613136  0.37590489  1
  O2-  O211  1  0.85813909  0.00538200  0.87259601  1
  O2-  O212  1  0.86195976  0.33987750  0.37681759  1
  O2-  O213  1  0.85565723  0.33583476  0.87585655  1
  O2-  O214  1  0.85856834  0.67139670  0.37704698  1
  O2-  O215  1  0.85781030  0.67378817  0.87369988  1
  O2-  O216  1  0.23680200  0.09467945  0.01798903  1
  O2-  O217  1  0.23891832  0.09401924  0.52484298  1
  O2-  O218  1  0.23871616  0.42867480  0.02058988  1
  O2-  O219  1  0.23801220  0.42419805  0.52221896  1
  O2-  O220  1  0.23825560  0.76051134  0.02025735  1
  O2-  O221  1  0.23633333  0.76049641  0.52168890  1
  O2-  O222  1  0.57181491  0.09597742  0.01663846  1
  O2-  O223  1  0.56913082  0.09500402  0.51857572  1
  O2-  O224  1  0.57041621  0.43043912  0.01827050  1
  O2-  O225  1  0.57778076  0.42452299  0.51767108  1
  O2-  O226  1  0.57112804  0.76226138  0.02195395  1
  O2-  O227  1  0.57018153  0.76405961  0.51659096  1
  O2-  O228  1  0.90439879  0.09399797  0.02221153  1
  O2-  O229  1  0.90360724  0.09731443  0.51780071  1
  O2-  O230  1  0.90373875  0.42548488  0.02064028  1
  O2-  O231  1  0.90494420  0.42921305  0.52412319  1
  O2-  O232  1  0.90322057  0.76466798  0.01683926  1
  O2-  O233  1  0.90296860  0.76161131  0.52314209  1
  O2-  O234  1  0.26164273  0.26110347  0.22927961  1
  O2-  O235  1  0.26337556  0.26168027  0.72995514  1
  O2-  O236  1  0.26524042  0.59715381  0.23456052  1
  O2-  O237  1  0.25964271  0.59600641  0.72968086  1
  O2-  O238  1  0.25811934  0.92488577  0.23330884  1
  O2-  O239  1  0.25854298  0.92860833  0.72753065  1
  O2-  O240  1  0.59789388  0.26337228  0.22758783  1
  O2-  O241  1  0.59510039  0.25975223  0.72744793  1
  O2-  O242  1  0.59233670  0.59328286  0.22722450  1
  O2-  O243  1  0.59899978  0.59921917  0.73222147  1
  O2-  O244  1  0.59608237  0.93025222  0.23016456  1
  O2-  O245  1  0.59837086  0.92725780  0.72692518  1
  O2-  O246  1  0.92881194  0.26096385  0.22852941  1
  O2-  O247  1  0.92864327  0.25762167  0.72888415  1
  O2-  O248  1  0.92641361  0.59174538  0.23401620  1
  O2-  O249  1  0.92947015  0.59812429  0.73457066  1
  O2-  O250  1  0.92406304  0.92994685  0.22948095  1
  O2-  O251  1  0.93050182  0.92977941  0.72843114  1
  O2-  O252  1  0.09719727  0.23747560  0.27117278  1
  O2-  O253  1  0.09741214  0.23518575  0.76877144  1
  O2-  O254  1  0.09598788  0.57187603  0.27346344  1
  O2-  O255  1  0.09521671  0.57262128  0.77227659  1
  O2-  O256  1  0.09277356  0.90542590  0.27059841  1
  O2-  O257  1  0.09633667  0.90574385  0.76990752  1
  O2-  O258  1  0.43183087  0.23725997  0.26604324  1
  O2-  O259  1  0.43139495  0.23324795  0.76871351  1
  O2-  O260  1  0.42658577  0.57007325  0.27198858  1
  O2-  O261  1  0.42803414  0.57490510  0.77127741  1
  O2-  O262  1  0.42927967  0.90650700  0.26970548  1
  O2-  O263  1  0.43195455  0.90405339  0.76563271  1
  O2-  O264  1  0.76268069  0.23900610  0.27116009  1
  O2-  O265  1  0.76149559  0.23726417  0.76799891  1
  O2-  O266  1  0.76224498  0.56981087  0.26561793  1
  O2-  O267  1  0.76158644  0.57226721  0.77408108  1
  O2-  O268  1  0.76189435  0.90658068  0.27323523  1
  O2-  O269  1  0.76084876  0.90713323  0.77157545  1
  O2-  O270  1  0.07033737  0.07130132  0.47853155  1
  O2-  O271  1  0.06866809  0.06834333  0.98387529  1
  O2-  O272  1  0.06776295  0.40158527  0.48693989  1
  O2-  O273  1  0.07365087  0.40562845  0.98397786  1
  O2-  O274  1  0.07159157  0.73594431  0.47862127  1
  O2-  O275  1  0.07510319  0.74027146  0.97751468  1
  O2-  O276  1  0.40386188  0.07202440  0.48128581  1
  O2-  O277  1  0.40471077  0.07048649  0.97676042  1
  O2-  O278  1  0.40982329  0.40803515  0.48312150  1
  O2-  O279  1  0.40883015  0.40624776  0.98354631  1
  O2-  O280  1  0.40374059  0.73994647  0.48080304  1
  O2-  O281  1  0.40473356  0.73930596  0.97849232  1
  O2-  O282  1  0.73989887  0.07498318  0.47860799  1
  O2-  O283  1  0.73930413  0.07403172  0.97567477  1
  O2-  O284  1  0.74088297  0.40544404  0.47900372  1
  O2-  O285  1  0.73788588  0.40623552  0.97509408  1
  O2-  O286  1  0.74177503  0.74177320  0.47960516  1
  O2-  O287  1  0.73684740  0.73948720  0.97932752  1
  O2-  O288  1  0.09541802  0.23798924  0.47579970  1
  O2-  O289  1  0.09759738  0.23343890  0.98286863  1
  O2-  O290  1  0.09639889  0.56860415  0.47699515  1
  O2-  O291  1  0.09509095  0.57513275  0.97580972  1
  O2-  O292  1  0.09555031  0.90424980  0.48008701  1
  O2-  O293  1  0.09299330  0.90699577  0.97793612  1
  O2-  O294  1  0.42904704  0.23613657  0.48439852  1
  O2-  O295  1  0.43281914  0.23494059  0.98196461  1
  O2-  O296  1  0.42608106  0.57405097  0.47964566  1
  O2-  O297  1  0.42868870  0.57224393  0.97804071  1
  O2-  O298  1  0.43042497  0.90730715  0.47854516  1
  O2-  O299  1  0.43188718  0.90447562  0.98554896  1
  O2-  O300  1  0.76302384  0.24109399  0.47946441  1
  O2-  O301  1  0.76238339  0.23537699  0.98109018  1
  O2-  O302  1  0.76438394  0.57013473  0.48067812  1
  O2-  O303  1  0.75999276  0.57104412  0.97895351  1
  O2-  O304  1  0.76141385  0.90770918  0.47859785  1
  O2-  O305  1  0.76142069  0.90561671  0.97756573  1
  O2-  O306  1  0.06790260  0.06925721  0.26754668  1
  O2-  O307  1  0.07063781  0.07026994  0.76878889  1
  O2-  O308  1  0.06853951  0.40106910  0.26420256  1
  O2-  O309  1  0.07458029  0.40634243  0.76437219  1
  O2-  O310  1  0.07536331  0.73727187  0.27160952  1
  O2-  O311  1  0.07072256  0.73972344  0.77074530  1
  O2-  O312  1  0.40725538  0.07343429  0.27246147  1
  O2-  O313  1  0.39933229  0.06928977  0.76751810  1
  O2-  O314  1  0.40724128  0.40741000  0.26757377  1
  O2-  O315  1  0.41137581  0.40558822  0.76786538  1
  O2-  O316  1  0.40396812  0.73918394  0.27116338  1
  O2-  O317  1  0.40596626  0.73903985  0.76952333  1
  O2-  O318  1  0.73933260  0.07479271  0.27510272  1
  O2-  O319  1  0.73902522  0.07550112  0.77264671  1
  O2-  O320  1  0.74083640  0.40618677  0.27234249  1
  O2-  O321  1  0.73746705  0.40537366  0.77201343  1
  O2-  O322  1  0.74058553  0.74153117  0.26675875  1
  O2-  O323  1  0.73892630  0.74010549  0.77303017  1
  O2-  O324  1  0.23713810  0.09383700  0.23329319  1
  O2-  O325  1  0.23694543  0.09476120  0.72538362  1
  O2-  O326  1  0.23893162  0.42764620  0.22588407  1
  O2-  O327  1  0.23827788  0.42538984  0.73088261  1
  O2-  O328  1  0.23751618  0.76041954  0.22989908  1
  O2-  O329  1  0.23826045  0.76177366  0.72819960  1
  O2-  O330  1  0.57098442  0.09918882  0.23379953  1
  O2-  O331  1  0.57107598  0.09327962  0.73223630  1
  O2-  O332  1  0.57041820  0.42887933  0.23251120  1
  O2-  O333  1  0.57624047  0.42733475  0.73236877  1
  O2-  O334  1  0.57164486  0.76277978  0.23013468  1
  O2-  O335  1  0.57075866  0.76453373  0.73223269  1
  O2-  O336  1  0.90256310  0.09440500  0.22856445  1
  O2-  O337  1  0.90483147  0.09517603  0.73008838  1
  O2-  O338  1  0.90420434  0.42644206  0.22648622  1
  O2-  O339  1  0.90452011  0.42849506  0.72969798  1
  O2-  O340  1  0.90463372  0.76334743  0.23282158  1
  O2-  O341  1  0.90178235  0.76211428  0.72780412  1
  O2-  O342  1  0.26229603  0.26086680  0.02128559  1
  O2-  O343  1  0.26200827  0.26159173  0.52043313  1
  O2-  O344  1  0.26394872  0.59737112  0.01393586  1
  O2-  O345  1  0.26013158  0.59574075  0.52208632  1
  O2-  O346  1  0.25582274  0.92310800  0.01768155  1
  O2-  O347  1  0.26126538  0.92882994  0.52102950  1
  O2-  O348  1  0.59594898  0.26149422  0.02541223  1
  O2-  O349  1  0.59640225  0.26012762  0.52094135  1
  O2-  O350  1  0.59448632  0.59537780  0.02100836  1
  O2-  O351  1  0.59665022  0.59495822  0.52053447  1
  O2-  O352  1  0.59631957  0.92897811  0.02061979  1
  O2-  O353  1  0.59708126  0.92852495  0.52349998  1
  O2-  O354  1  0.92746008  0.25809378  0.02185785  1
  O2-  O355  1  0.93003127  0.26114873  0.52105047  1
  O2-  O356  1  0.92517041  0.59224160  0.01675819  1
  O2-  O357  1  0.93205541  0.59700174  0.51512685  1
  O2-  O358  1  0.92441988  0.92948937  0.02112811  1
  O2-  O359  1  0.92868720  0.93231279  0.52040834  1
