# generated using pymatgen
data_Sr7Ca15Pr50Mn72O216
_symmetry_space_group_name_H-M   'P 1'
_cell_length_a   16.55887139
_cell_length_b   16.60425233
_cell_length_c   15.59400109
_cell_angle_alpha   90.01415140
_cell_angle_beta   89.99140081
_cell_angle_gamma   90.01123359
_symmetry_Int_Tables_number   1
_chemical_formula_structural   Sr7Ca15Pr50Mn72O216
_chemical_formula_sum   'Sr7 Ca15 Pr50 Mn72 O216'
_cell_volume   4287.53414593
_cell_formula_units_Z   1
loop_
 _symmetry_equiv_pos_site_id
 _symmetry_equiv_pos_as_xyz
  1  'x, y, z'
loop_
 _atom_type_symbol
 _atom_type_oxidation_number
  Sr2+  2.0
  Ca2+  2.0
  Pr3+  3.0
  Mn3.30+  3.3
  O2-  -2.0
loop_
 _atom_site_type_symbol
 _atom_site_label
 _atom_site_symmetry_multiplicity
 _atom_site_fract_x
 _atom_site_fract_y
 _atom_site_fract_z
 _atom_site_occupancy
  Sr2+  Sr0  1  0.66410014  0.99113555  0.87598613  1
  Sr2+  Sr1  1  -0.00334813  0.01206386  0.62308754  1
  Sr2+  Sr2  1  0.33965121  0.98947565  0.37648065  1
  Sr2+  Sr3  1  0.16924190  0.50884078  0.12525714  1
  Sr2+  Sr4  1  0.83141043  0.17561335  0.12400513  1
  Sr2+  Sr5  1  1.00226479  0.65708605  0.37489226  1
  Sr2+  Sr6  1  0.49912082  0.15798196  0.37330288  1
  Ca2+  Ca7  1  0.50313431  0.17839159  0.12575995  1
  Ca2+  Ca8  1  0.65848946  0.68446908  0.12660464  1
  Ca2+  Ca9  1  0.33087339  0.01523247  0.62288999  1
  Ca2+  Ca10  1  0.66745554  0.31595377  0.87623006  1
  Ca2+  Ca11  1  0.33838343  0.65135406  0.87577650  1
  Ca2+  Ca12  1  0.83592380  0.17815625  0.62564968  1
  Ca2+  Ca13  1  0.33683978  0.01331586  0.12773116  1
  Ca2+  Ca14  1  0.33450441  0.34603057  0.12598405  1
  Ca2+  Ca15  1  0.66871776  0.65506971  0.37271052  1
  Ca2+  Ca16  1  1.00516418  0.98708381  0.37474907  1
  Ca2+  Ca17  1  0.33112774  0.68227287  0.62539433  1
  Ca2+  Ca18  1  0.66882881  0.31606526  0.37390473  1
  Ca2+  Ca19  1  0.49611398  0.82039590  0.37261992  1
  Ca2+  Ca20  1  0.49823049  0.15209509  0.87741532  1
  Ca2+  Ca21  1  0.50377443  0.84838238  0.12725458  1
  Pr3+  Pr22  1  1.00170229  0.32149112  0.37388105  1
  Pr3+  Pr23  1  0.83385849  0.51174700  0.12506866  1
  Pr3+  Pr24  1  0.82676656  0.48271834  0.87412178  1
  Pr3+  Pr25  1  0.83546928  0.51228331  0.62455963  1
  Pr3+  Pr26  1  0.82786487  0.15289212  0.87506928  1
  Pr3+  Pr27  1  0.83083060  0.81939386  0.37469369  1
  Pr3+  Pr28  1  1.00206216  0.31877526  0.87644854  1
  Pr3+  Pr29  1  0.65960628  0.01453073  0.12418489  1
  Pr3+  Pr30  1  -0.00497979  0.34221901  0.62561189  1
  Pr3+  Pr31  1  0.33122556  0.34403510  0.62435611  1
  Pr3+  Pr32  1  0.33209142  0.67985533  0.12407502  1
  Pr3+  Pr33  1  0.17271290  0.84841252  0.12697695  1
  Pr3+  Pr34  1  0.66288926  0.34310637  0.62376020  1
  Pr3+  Pr35  1  0.16309384  0.48948381  0.37295971  1
  Pr3+  Pr36  1  0.49942153  0.84671468  0.62358600  1
  Pr3+  Pr37  1  -0.00040991  0.67773876  0.12685498  1
  Pr3+  Pr38  1  0.33796018  0.65742620  0.37497459  1
  Pr3+  Pr39  1  0.83668581  0.84606136  0.62394328  1
  Pr3+  Pr40  1  -0.00193398  0.68082239  0.62374595  1
  Pr3+  Pr41  1  0.16587037  0.82322506  0.37439219  1
  Pr3+  Pr42  1  0.17299675  0.18062083  0.12534719  1
  Pr3+  Pr43  1  0.16496804  0.15310219  0.87592068  1
  Pr3+  Pr44  1  0.33567499  0.32152533  0.37238609  1
  Pr3+  Pr45  1  0.16770752  0.48839914  0.87687295  1
  Pr3+  Pr46  1  1.00252307  0.65465770  0.87512553  1
  Pr3+  Pr47  1  0.66583156  0.01277651  0.62537368  1
  Pr3+  Pr48  1  0.50177377  0.51442333  0.62473886  1
  Pr3+  Pr49  1  0.66097359  0.34164581  0.12684002  1
  Pr3+  Pr50  1  0.17165587  0.51650953  0.62485491  1
  Pr3+  Pr51  1  0.49730306  0.48626946  0.87557011  1
  Pr3+  Pr52  1  0.16334596  0.15167547  0.37432644  1
  Pr3+  Pr53  1  0.82841554  0.82335150  0.87498729  1
  Pr3+  Pr54  1  0.16745541  0.82172010  0.87589222  1
  Pr3+  Pr55  1  0.33968377  0.98980503  0.87414513  1
  Pr3+  Pr56  1  0.83232770  0.84380774  0.12574087  1
  Pr3+  Pr57  1  0.66884316  0.65537438  0.87638240  1
  Pr3+  Pr58  1  0.33856517  0.31810648  0.87805495  1
  Pr3+  Pr59  1  0.66309945  0.68014254  0.62327401  1
  Pr3+  Pr60  1  -0.00280447  0.01282980  0.12717692  1
  Pr3+  Pr61  1  1.00241530  0.98825966  0.87615211  1
  Pr3+  Pr62  1  -0.00505855  0.34598382  0.12470312  1
  Pr3+  Pr63  1  0.49640237  0.81895496  0.87692772  1
  Pr3+  Pr64  1  0.16952764  0.17755734  0.62449644  1
  Pr3+  Pr65  1  0.17255221  0.84954933  0.62336901  1
  Pr3+  Pr66  1  0.50067250  0.48837215  0.37454247  1
  Pr3+  Pr67  1  0.82867032  0.15312080  0.37477331  1
  Pr3+  Pr68  1  0.50368824  0.51346603  0.12542647  1
  Pr3+  Pr69  1  0.66464727  0.98864145  0.37355006  1
  Pr3+  Pr70  1  0.49944405  0.17476060  0.62409019  1
  Pr3+  Pr71  1  0.82776329  0.48513927  0.37511504  1
  Mn3.30+  Mn72  1  0.17073607  0.00068341  0.00177969  1
  Mn3.30+  Mn73  1  0.16738870  0.00071859  0.49922919  1
  Mn3.30+  Mn74  1  0.16952240  0.33371779  0.00112943  1
  Mn3.30+  Mn75  1  0.16519908  0.33381503  0.49985294  1
  Mn3.30+  Mn76  1  0.16977857  0.66653522  -0.00099651  1
  Mn3.30+  Mn77  1  0.16892239  0.66863931  0.50065321  1
  Mn3.30+  Mn78  1  0.49840465  0.00066911  0.00167683  1
  Mn3.30+  Mn79  1  0.49844676  0.00002681  0.50004381  1
  Mn3.30+  Mn80  1  0.50011845  0.33014373  0.00021449  1
  Mn3.30+  Mn81  1  0.49996136  0.33283825  0.49871334  1
  Mn3.30+  Mn82  1  0.50029210  0.66719818  0.00112000  1
  Mn3.30+  Mn83  1  0.50045739  0.66884579  0.49858287  1
  Mn3.30+  Mn84  1  0.83171208  -0.00057638  0.00151122  1
  Mn3.30+  Mn85  1  0.83530263  -0.00017871  0.49771242  1
  Mn3.30+  Mn86  1  0.82964706  0.33157181  -0.00036250  1
  Mn3.30+  Mn87  1  0.83080882  0.33075154  0.50025338  1
  Mn3.30+  Mn88  1  0.83129250  0.66671348  0.00223340  1
  Mn3.30+  Mn89  1  0.83179383  0.66548312  0.49745858  1
  Mn3.30+  Mn90  1  -0.00081406  0.16609089  0.25010812  1
  Mn3.30+  Mn91  1  -0.00203653  0.16526079  0.74935159  1
  Mn3.30+  Mn92  1  -0.00134238  0.50109762  0.25007327  1
  Mn3.30+  Mn93  1  0.00016034  0.49922806  0.75067010  1
  Mn3.30+  Mn94  1  0.00109121  0.83410991  0.25002553  1
  Mn3.30+  Mn95  1  0.00080092  0.83418846  0.75069905  1
  Mn3.30+  Mn96  1  0.33591326  0.16593023  0.24756814  1
  Mn3.30+  Mn97  1  0.33419149  0.16617778  0.75091067  1
  Mn3.30+  Mn98  1  0.33410029  0.50031123  0.24952662  1
  Mn3.30+  Mn99  1  0.33414395  0.50159597  0.74979621  1
  Mn3.30+  Mn100  1  0.33838771  0.83598671  0.24897253  1
  Mn3.30+  Mn101  1  0.33357343  0.83272619  0.74975314  1
  Mn3.30+  Mn102  1  0.66433128  0.16676971  0.25044971  1
  Mn3.30+  Mn103  1  0.66636889  0.16686114  0.75015637  1
  Mn3.30+  Mn104  1  0.66653588  0.50068776  0.25025043  1
  Mn3.30+  Mn105  1  0.66556338  0.49833009  0.75000266  1
  Mn3.30+  Mn106  1  0.66288188  0.83182370  0.25100747  1
  Mn3.30+  Mn107  1  0.66580833  0.83402681  0.74956422  1
  Mn3.30+  Mn108  1  0.16929346  0.00063977  0.25030935  1
  Mn3.30+  Mn109  1  0.16894278  0.00088178  0.74897150  1
  Mn3.30+  Mn110  1  0.16861135  0.33390451  0.24854538  1
  Mn3.30+  Mn111  1  0.16638752  0.33331480  0.75097736  1
  Mn3.30+  Mn112  1  0.16826287  0.66718587  0.24885919  1
  Mn3.30+  Mn113  1  0.17047359  0.66815337  0.75147525  1
  Mn3.30+  Mn114  1  0.49786523  -0.00007830  0.24899055  1
  Mn3.30+  Mn115  1  0.49893034  0.00070202  0.74953829  1
  Mn3.30+  Mn116  1  0.49923989  0.33239071  0.24967929  1
  Mn3.30+  Mn117  1  0.50061014  0.33076976  0.75173954  1
  Mn3.30+  Mn118  1  0.50323622  0.66934034  0.25098442  1
  Mn3.30+  Mn119  1  0.49705880  0.66703599  0.74911319  1
  Mn3.30+  Mn120  1  0.83392391  -0.00140882  0.25114524  1
  Mn3.30+  Mn121  1  0.83337251  0.00071875  0.74941730  1
  Mn3.30+  Mn122  1  0.83015558  0.33180934  0.24996189  1
  Mn3.30+  Mn123  1  0.83003435  0.33032623  0.74998870  1
  Mn3.30+  Mn124  1  0.82907953  0.66582455  0.24919380  1
  Mn3.30+  Mn125  1  0.83340561  0.66665521  0.75005528  1
  Mn3.30+  Mn126  1  -0.00025431  0.16608930  0.00117036  1
  Mn3.30+  Mn127  1  -0.00248107  0.16524560  0.49952854  1
  Mn3.30+  Mn128  1  -0.00120293  0.50035697  -0.00078415  1
  Mn3.30+  Mn129  1  0.00022616  0.50012982  0.50034705  1
  Mn3.30+  Mn130  1  0.00083595  0.83290245  0.00135164  1
  Mn3.30+  Mn131  1  0.00118596  0.83503103  0.49838801  1
  Mn3.30+  Mn132  1  0.33702286  0.16607015  0.00349400  1
  Mn3.30+  Mn133  1  0.33328927  0.16635203  0.49906733  1
  Mn3.30+  Mn134  1  0.33454194  0.49953487  0.00070591  1
  Mn3.30+  Mn135  1  0.33349626  0.50227904  0.50016846  1
  Mn3.30+  Mn136  1  0.33602449  0.83458746  0.00174875  1
  Mn3.30+  Mn137  1  0.33575186  0.83433660  0.49968226  1
  Mn3.30+  Mn138  1  0.66275267  0.16746153  -0.00136003  1
  Mn3.30+  Mn139  1  0.66798164  0.16639315  0.50058186  1
  Mn3.30+  Mn140  1  0.66580702  0.49918304  0.00049154  1
  Mn3.30+  Mn141  1  0.66660276  0.49948100  0.49863918  1
  Mn3.30+  Mn142  1  0.66353593  0.83342391  0.00167338  1
  Mn3.30+  Mn143  1  0.66492030  0.83261120  0.49689412  1
  O2-  O144  1  0.02724580  0.16208181  0.12525459  1
  O2-  O145  1  0.02537389  0.16868163  0.62516543  1
  O2-  O146  1  0.01832972  0.49451842  0.12404534  1
  O2-  O147  1  0.02616582  0.49134640  0.62822443  1
  O2-  O148  1  0.02712082  0.82651615  0.12485197  1
  O2-  O149  1  0.02556753  0.82803951  0.62637238  1
  O2-  O150  1  0.36035636  0.15891187  0.12482598  1
  O2-  O151  1  0.35336671  0.16800911  0.62698324  1
  O2-  O152  1  0.35910224  0.49418245  0.12599046  1
  O2-  O153  1  0.35872252  0.49091990  0.62479151  1
  O2-  O154  1  0.36214415  0.82470438  0.12394145  1
  O2-  O155  1  0.35708704  0.82362380  0.62586927  1
  O2-  O156  1  0.68325078  0.16434410  0.12483810  1
  O2-  O157  1  0.69459433  0.16153147  0.62472043  1
  O2-  O158  1  0.69140595  0.48822939  0.12475181  1
  O2-  O159  1  0.69173413  0.49207782  0.62444701  1
  O2-  O160  1  0.68985758  0.82902015  0.12699636  1
  O2-  O161  1  0.69293673  0.82721715  0.62256439  1
  O2-  O162  1  0.13957909  0.32848395  0.12494910  1
  O2-  O163  1  0.13999722  0.32655021  0.62661545  1
  O2-  O164  1  0.14381323  0.66583977  0.12184589  1
  O2-  O165  1  0.14109715  0.66378628  0.62743707  1
  O2-  O166  1  0.14083462  0.99704816  0.12549685  1
  O2-  O167  1  0.14583881  0.99825896  0.62492362  1
  O2-  O168  1  0.47634867  0.32772729  0.12475870  1
  O2-  O169  1  0.47389527  0.32560609  0.62520521  1
  O2-  O170  1  0.47428327  0.65876257  0.12525069  1
  O2-  O171  1  0.47263167  0.66154062  0.62571738  1
  O2-  O172  1  0.47679267  0.99044758  0.12520745  1
  O2-  O173  1  0.47407426  0.99456049  0.62530646  1
  O2-  O174  1  0.80642206  0.33301539  0.12414879  1
  O2-  O175  1  0.80682018  0.32482835  0.62568955  1
  O2-  O176  1  0.80178230  0.65977608  0.12506162  1
  O2-  O177  1  0.80801413  0.66194256  0.62289677  1
  O2-  O178  1  0.80630802  0.99256503  0.12640735  1
  O2-  O179  1  0.80984186  0.99215425  0.62275654  1
  O2-  O180  1  0.30780102  0.17393802  0.37236148  1
  O2-  O181  1  0.30834986  0.17073275  0.87609466  1
  O2-  O182  1  0.30711705  0.50840443  0.37667030  1
  O2-  O183  1  0.31153587  0.50530254  0.87327396  1
  O2-  O184  1  0.30949266  0.83388262  0.37403110  1
  O2-  O185  1  0.30905855  0.84413099  0.87609630  1
  O2-  O186  1  0.64893071  0.16711244  0.37648551  1
  O2-  O187  1  0.63995112  0.17110654  0.87381634  1
  O2-  O188  1  0.64324260  0.51031088  0.37519052  1
  O2-  O189  1  0.64071810  0.50939747  0.87532858  1
  O2-  O190  1  0.63776687  0.84205920  0.37499653  1
  O2-  O191  1  0.64211592  0.83256487  0.87492518  1
  O2-  O192  1  0.97274069  0.17566963  0.37397859  1
  O2-  O193  1  0.97415401  0.16999278  0.87614495  1
  O2-  O194  1  0.97408071  0.50041848  0.37375927  1
  O2-  O195  1  0.97171951  0.50664004  0.87379298  1
  O2-  O196  1  0.97663156  0.83946702  0.37213588  1
  O2-  O197  1  0.97393359  0.83889104  0.87710952  1
  O2-  O198  1  0.18953885  0.00367853  0.37367619  1
  O2-  O199  1  0.19452662  0.00482410  0.87604593  1
  O2-  O200  1  0.19063369  0.34004930  0.37397465  1
  O2-  O201  1  0.19288166  0.33758004  0.87501189  1
  O2-  O202  1  0.19281990  0.67333603  0.37510286  1
  O2-  O203  1  0.19605400  0.67423123  0.87523887  1
  O2-  O204  1  0.52223302  0.00510598  0.37659926  1
  O2-  O205  1  0.51579134  0.00559496  0.87269478  1
  O2-  O206  1  0.52618495  0.34049730  0.37654328  1
  O2-  O207  1  0.52711608  0.34123245  0.87388545  1
  O2-  O208  1  0.52738979  0.67359684  0.37461904  1
  O2-  O209  1  0.52611525  0.67036484  0.87456303  1
  O2-  O210  1  0.86195927  0.00515643  0.37391692  1
  O2-  O211  1  0.85748516  0.00303642  0.87666151  1
  O2-  O212  1  0.85838236  0.33835723  0.37511147  1
  O2-  O213  1  0.85870350  0.33679883  0.87460824  1
  O2-  O214  1  0.85352055  0.67021672  0.37407999  1
  O2-  O215  1  0.85859915  0.67500144  0.87678896  1
  O2-  O216  1  0.23641491  0.09901370  0.01739761  1
  O2-  O217  1  0.23559032  0.09752176  0.51569679  1
  O2-  O218  1  0.23983103  0.42765498  0.01299508  1
  O2-  O219  1  0.23703492  0.42871505  0.52044841  1
  O2-  O220  1  0.24017356  0.76561955  0.01999421  1
  O2-  O221  1  0.23763019  0.76430537  0.51743772  1
  O2-  O222  1  0.56962831  0.09353286  0.02062674  1
  O2-  O223  1  0.57640559  0.09152409  0.52374744  1
  O2-  O224  1  0.57076503  0.42790364  0.02111927  1
  O2-  O225  1  0.57036466  0.42753796  0.52150779  1
  O2-  O226  1  0.56759985  0.76322054  0.01825674  1
  O2-  O227  1  0.57241854  0.75981059  0.52500972  1
  O2-  O228  1  0.90978704  0.08986958  0.01868822  1
  O2-  O229  1  0.90148951  0.09947563  0.51762657  1
  O2-  O230  1  0.90188582  0.42724762  0.01726429  1
  O2-  O231  1  0.90122415  0.42441768  0.52231122  1
  O2-  O232  1  0.90440012  0.75809306  0.02399136  1
  O2-  O233  1  0.90639024  0.75940510  0.51848426  1
  O2-  O234  1  0.26137604  0.26235941  0.22690154  1
  O2-  O235  1  0.26101890  0.26255619  0.73138709  1
  O2-  O236  1  0.26477112  0.59719266  0.23239091  1
  O2-  O237  1  0.26120744  0.59685351  0.72649358  1
  O2-  O238  1  0.26315923  0.92751428  0.22614470  1
  O2-  O239  1  0.26445489  0.92922437  0.72789074  1
  O2-  O240  1  0.59213624  0.26224596  0.23461972  1
  O2-  O241  1  0.59298044  0.25860982  0.72480733  1
  O2-  O242  1  0.59511132  0.59476598  0.22684620  1
  O2-  O243  1  0.59448614  0.59537450  0.72827209  1
  O2-  O244  1  0.59888798  0.93119779  0.23317885  1
  O2-  O245  1  0.59354238  0.92592141  0.72737720  1
  O2-  O246  1  0.93020641  0.26342742  0.23168979  1
  O2-  O247  1  0.92935908  0.26268022  0.73397158  1
  O2-  O248  1  0.92449983  0.59392429  0.22639942  1
  O2-  O249  1  0.92818583  0.59536048  0.72871176  1
  O2-  O250  1  0.92584974  0.92429703  0.22564913  1
  O2-  O251  1  0.92677097  0.92622942  0.73390362  1
  O2-  O252  1  0.09557434  0.23958472  0.27061647  1
  O2-  O253  1  0.09245982  0.23767512  0.77222415  1
  O2-  O254  1  0.09437224  0.57297447  0.26750317  1
  O2-  O255  1  0.09897327  0.57527253  0.77225455  1
  O2-  O256  1  0.09846755  0.90649040  0.26595794  1
  O2-  O257  1  0.09609121  0.90665576  0.77202071  1
  O2-  O258  1  0.42282156  0.24395566  0.27035524  1
  O2-  O259  1  0.42885812  0.23685371  0.77242198  1
  O2-  O260  1  0.43107889  0.57355468  0.27153875  1
  O2-  O261  1  0.43185535  0.56883140  0.76778652  1
  O2-  O262  1  0.43222421  0.90253068  0.26930472  1
  O2-  O263  1  0.42853292  0.90211362  0.76873998  1
  O2-  O264  1  0.76187651  0.23903499  0.26851951  1
  O2-  O265  1  0.76077284  0.23782854  0.77186497  1
  O2-  O266  1  0.76418798  0.56714011  0.26673962  1
  O2-  O267  1  0.76268109  0.57198796  0.76947166  1
  O2-  O268  1  0.76158658  0.90345293  0.27188369  1
  O2-  O269  1  0.76287926  0.90272128  0.76553103  1
  O2-  O270  1  0.06961478  0.07495690  0.47667362  1
  O2-  O271  1  0.07476840  0.07112352  0.97954069  1
  O2-  O272  1  0.07137809  0.40606236  0.47957750  1
  O2-  O273  1  0.07088376  0.40723574  0.97874056  1
  O2-  O274  1  0.07507777  0.74155414  0.48298346  1
  O2-  O275  1  0.07286356  0.73967393  0.97811035  1
  O2-  O276  1  0.40771781  0.07576123  0.48977791  1
  O2-  O277  1  0.40283301  0.07027745  0.98239269  1
  O2-  O278  1  0.40458913  0.40714379  0.47896346  1
  O2-  O279  1  0.40852427  0.40388424  0.97842221  1
  O2-  O280  1  0.40575762  0.73853460  0.48048142  1
  O2-  O281  1  0.40446042  0.73578456  0.97748334  1
  O2-  O282  1  0.74046964  0.06843190  0.47886760  1
  O2-  O283  1  0.73915187  0.07648583  0.98372802  1
  O2-  O284  1  0.73678278  0.40173271  0.47877310  1
  O2-  O285  1  0.73662424  0.40458307  0.97597636  1
  O2-  O286  1  0.73558037  0.73870984  0.47781105  1
  O2-  O287  1  0.74003335  0.73932188  0.97917650  1
  O2-  O288  1  0.09322619  0.23914609  0.47807011  1
  O2-  O289  1  0.09530935  0.23954877  0.97979432  1
  O2-  O290  1  0.10167591  0.57266807  0.48476358  1
  O2-  O291  1  0.09234224  0.57451930  0.97543359  1
  O2-  O292  1  0.09749811  0.90571223  0.48220355  1
  O2-  O293  1  0.09746157  0.90733300  0.98023023  1
  O2-  O294  1  0.42345334  0.24408235  0.48160568  1
  O2-  O295  1  0.42940626  0.23759492  0.97546520  1
  O2-  O296  1  0.43096390  0.57346316  0.47819278  1
  O2-  O297  1  0.43252907  0.56916574  0.98340963  1
  O2-  O298  1  0.43243184  0.90045333  0.48409045  1
  O2-  O299  1  0.42779768  0.90549370  0.97729658  1
  O2-  O300  1  0.76221219  0.23806383  0.47966419  1
  O2-  O301  1  0.76071199  0.23927955  0.97909379  1
  O2-  O302  1  0.76422982  0.56783261  0.48414848  1
  O2-  O303  1  0.76314491  0.57079847  0.97820188  1
  O2-  O304  1  0.76064039  0.90404946  0.47737027  1
  O2-  O305  1  0.76292830  0.90271611  0.98422042  1
  O2-  O306  1  0.07085883  0.07251778  0.27057771  1
  O2-  O307  1  0.07196333  0.07351899  0.77316062  1
  O2-  O308  1  0.07217807  0.40585079  0.26850860  1
  O2-  O309  1  0.07315012  0.40528206  0.77442140  1
  O2-  O310  1  0.07589460  0.74247433  0.26696276  1
  O2-  O311  1  0.07212871  0.73865076  0.77231130  1
  O2-  O312  1  0.40498160  0.07217891  0.26466798  1
  O2-  O313  1  0.40269374  0.07213846  0.76448756  1
  O2-  O314  1  0.40836961  0.40856862  0.27341231  1
  O2-  O315  1  0.40555801  0.40215307  0.76998054  1
  O2-  O316  1  0.40475972  0.73613998  0.26779620  1
  O2-  O317  1  0.40478840  0.73833423  0.77477054  1
  O2-  O318  1  0.74017434  0.07027421  0.26892031  1
  O2-  O319  1  0.73990438  0.07353806  0.76823447  1
  O2-  O320  1  0.73644653  0.40410427  0.27334794  1
  O2-  O321  1  0.73667468  0.40242336  0.77127429  1
  O2-  O322  1  0.73738972  0.73995373  0.27280354  1
  O2-  O323  1  0.73875577  0.73791321  0.76897561  1
  O2-  O324  1  0.23595923  0.09815991  0.23260995  1
  O2-  O325  1  0.23597257  0.09916986  0.73398840  1
  O2-  O326  1  0.23944892  0.42667005  0.23679515  1
  O2-  O327  1  0.23891965  0.42981213  0.72983718  1
  O2-  O328  1  0.24216180  0.76303650  0.22922595  1
  O2-  O329  1  0.23492041  0.76651307  0.73320687  1
  O2-  O330  1  0.57159373  0.09159765  0.22867298  1
  O2-  O331  1  0.57466630  0.09291035  0.72602916  1
  O2-  O332  1  0.57165797  0.42896627  0.23071904  1
  O2-  O333  1  0.56952916  0.42649811  0.72728044  1
  O2-  O334  1  0.56985759  0.76325381  0.22779777  1
  O2-  O335  1  0.57069857  0.75997677  0.72853964  1
  O2-  O336  1  0.90710924  0.09124876  0.22983909  1
  O2-  O337  1  0.90377937  0.09806299  0.73309504  1
  O2-  O338  1  0.90271033  0.42639082  0.23005203  1
  O2-  O339  1  0.90057406  0.42444937  0.72956863  1
  O2-  O340  1  0.90362387  0.75778811  0.22878407  1
  O2-  O341  1  0.90558185  0.76030300  0.72911051  1
  O2-  O342  1  0.26618396  0.26101239  0.02210218  1
  O2-  O343  1  0.25841105  0.26259968  0.51934022  1
  O2-  O344  1  0.26304556  0.59643062  0.01721095  1
  O2-  O345  1  0.26401102  0.59760615  0.52323601  1
  O2-  O346  1  0.26305235  0.93114240  0.02422038  1
  O2-  O347  1  0.26406137  0.92663092  0.52205987  1
  O2-  O348  1  0.59497286  0.26281466  0.01854589  1
  O2-  O349  1  0.59125811  0.25813179  0.52210013  1
  O2-  O350  1  0.59727784  0.59614513  0.02149132  1
  O2-  O351  1  0.59265377  0.59393369  0.52325051  1
  O2-  O352  1  0.59348344  0.92977090  0.01810630  1
  O2-  O353  1  0.59602608  0.92806288  0.52161984  1
  O2-  O354  1  0.92851655  0.26415672  0.01723469  1
  O2-  O355  1  0.92995804  0.26383814  0.51706116  1
  O2-  O356  1  0.92699034  0.59583523  0.02087428  1
  O2-  O357  1  0.92938378  0.59128238  0.52356055  1
  O2-  O358  1  0.92957249  0.92546879  0.02214213  1
  O2-  O359  1  0.92407017  0.92396460  0.51821516  1
