# generated using pymatgen
data_Sr7Ca15Pr50Mn72O216
_symmetry_space_group_name_H-M   'P 1'
_cell_length_a   16.55541191
_cell_length_b   16.59781528
_cell_length_c   15.58979318
_cell_angle_alpha   90.00131963
_cell_angle_beta   90.00843126
_cell_angle_gamma   89.98094198
_symmetry_Int_Tables_number   1
_chemical_formula_structural   Sr7Ca15Pr50Mn72O216
_chemical_formula_sum   'Sr7 Ca15 Pr50 Mn72 O216'
_cell_volume   4283.82028054
_cell_formula_units_Z   1
loop_
 _symmetry_equiv_pos_site_id
 _symmetry_equiv_pos_as_xyz
  1  'x, y, z'
loop_
 _atom_type_symbol
 _atom_type_oxidation_number
  Sr2+  2.0
  Ca2+  2.0
  Pr3+  3.0
  Mn3.30+  3.3
  O2-  -2.0
loop_
 _atom_site_type_symbol
 _atom_site_label
 _atom_site_symmetry_multiplicity
 _atom_site_fract_x
 _atom_site_fract_y
 _atom_site_fract_z
 _atom_site_occupancy
  Sr2+  Sr0  1  0.83322434  0.17420256  0.62830620  1
  Sr2+  Sr1  1  0.33162582  0.34131631  0.12614876  1
  Sr2+  Sr2  1  0.49754434  0.48701521  0.37693891  1
  Sr2+  Sr3  1  0.66550663  0.34284429  0.12277047  1
  Sr2+  Sr4  1  0.67011715  0.31985003  0.87615700  1
  Sr2+  Sr5  1  0.16772405  0.15648081  0.37498292  1
  Sr2+  Sr6  1  0.16756046  0.50962603  0.62537536  1
  Ca2+  Ca7  1  0.83529129  0.51376190  0.12478884  1
  Ca2+  Ca8  1  0.66410497  0.01547799  0.62706667  1
  Ca2+  Ca9  1  0.50339997  0.51292799  0.62484656  1
  Ca2+  Ca10  1  0.33659216  0.98754842  0.37410615  1
  Ca2+  Ca11  1  0.17016297  0.84859365  0.62389456  1
  Ca2+  Ca12  1  0.33558300  0.32115190  0.37440217  1
  Ca2+  Ca13  1  0.83728011  0.51394301  0.62536428  1
  Ca2+  Ca14  1  0.83245128  0.81998179  0.37513498  1
  Ca2+  Ca15  1  1.00426826  0.98891159  0.37761020  1
  Ca2+  Ca16  1  0.67035560  0.99130650  0.87132954  1
  Ca2+  Ca17  1  0.32765781  0.01539647  0.12480662  1
  Ca2+  Ca18  1  0.16424711  0.15219415  0.87537908  1
  Ca2+  Ca19  1  0.82740040  0.15122419  0.87405100  1
  Ca2+  Ca20  1  1.00292972  0.31476503  0.87300275  1
  Ca2+  Ca21  1  0.33506376  0.98668989  0.87681258  1
  Pr3+  Pr22  1  -0.00008372  0.01368147  0.62352367  1
  Pr3+  Pr23  1  0.33024998  0.01079643  0.62489540  1
  Pr3+  Pr24  1  0.49953200  0.48568520  0.87330668  1
  Pr3+  Pr25  1  0.66488358  0.34649373  0.62720261  1
  Pr3+  Pr26  1  0.66587693  0.67620957  0.12580053  1
  Pr3+  Pr27  1  1.00116017  0.65548253  0.37581124  1
  Pr3+  Pr28  1  0.50573727  0.85031901  0.62450331  1
  Pr3+  Pr29  1  1.00037181  0.99332062  0.87256753  1
  Pr3+  Pr30  1  0.33467942  0.31901201  0.87544952  1
  Pr3+  Pr31  1  0.50277542  0.50853233  0.12521063  1
  Pr3+  Pr32  1  0.83596921  0.17975817  0.12205913  1
  Pr3+  Pr33  1  0.49480735  0.82071414  0.37582007  1
  Pr3+  Pr34  1  0.33548996  0.65368919  0.87412252  1
  Pr3+  Pr35  1  1.00257505  0.65501475  0.87457641  1
  Pr3+  Pr36  1  0.83123279  0.15574731  0.37529656  1
  Pr3+  Pr37  1  0.66477914  0.67796315  0.62461802  1
  Pr3+  Pr38  1  -0.00331425  0.68030198  0.12568445  1
  Pr3+  Pr39  1  0.49882560  0.82343917  0.87428255  1
  Pr3+  Pr40  1  0.16837523  0.17744462  0.62629465  1
  Pr3+  Pr41  1  0.17095791  0.51165171  0.12513712  1
  Pr3+  Pr42  1  0.16042062  0.48430050  0.87342209  1
  Pr3+  Pr43  1  0.82967539  0.82547524  0.87455414  1
  Pr3+  Pr44  1  -0.00560618  0.34727180  0.12393209  1
  Pr3+  Pr45  1  0.66669486  0.32116806  0.37400645  1
  Pr3+  Pr46  1  0.16591034  0.82684492  0.37741571  1
  Pr3+  Pr47  1  -0.00591854  0.34654049  0.62614057  1
  Pr3+  Pr48  1  0.16553148  0.48625488  0.37700223  1
  Pr3+  Pr49  1  0.49303930  0.15596117  0.37373075  1
  Pr3+  Pr50  1  0.50196483  0.84648182  0.12577972  1
  Pr3+  Pr51  1  0.17100983  0.84937550  0.12532707  1
  Pr3+  Pr52  1  0.33669501  0.65275718  0.37615582  1
  Pr3+  Pr53  1  -0.00175454  0.01446177  0.12566546  1
  Pr3+  Pr54  1  0.16523197  0.82422146  0.87258491  1
  Pr3+  Pr55  1  0.50500298  0.17708798  0.62571647  1
  Pr3+  Pr56  1  0.66925230  0.65293337  0.37621550  1
  Pr3+  Pr57  1  0.49944872  0.17998670  0.12388856  1
  Pr3+  Pr58  1  0.16925011  0.17896264  0.12374196  1
  Pr3+  Pr59  1  0.66411657  0.01272494  0.12369537  1
  Pr3+  Pr60  1  0.67057924  0.98628272  0.37629890  1
  Pr3+  Pr61  1  0.82824752  0.48672165  0.37604914  1
  Pr3+  Pr62  1  0.82993250  0.48586275  0.87423297  1
  Pr3+  Pr63  1  0.33108131  0.34548237  0.62448706  1
  Pr3+  Pr64  1  0.33097671  0.67748264  0.12592171  1
  Pr3+  Pr65  1  -0.00216636  0.67990816  0.62459802  1
  Pr3+  Pr66  1  0.67035924  0.65471323  0.87393392  1
  Pr3+  Pr67  1  0.83516600  0.84760594  0.62252354  1
  Pr3+  Pr68  1  1.00296084  0.32076540  0.37623268  1
  Pr3+  Pr69  1  0.49805258  0.15136421  0.87673924  1
  Pr3+  Pr70  1  0.83688541  0.84710300  0.12710584  1
  Pr3+  Pr71  1  0.32973829  0.67992087  0.62409756  1
  Mn3.30+  Mn72  1  0.16851853  0.00135131  -0.00202474  1
  Mn3.30+  Mn73  1  0.16744917  0.00010143  0.49854386  1
  Mn3.30+  Mn74  1  0.16374291  0.33135536  -0.00186658  1
  Mn3.30+  Mn75  1  0.16753826  0.33237563  0.50052940  1
  Mn3.30+  Mn76  1  0.16632867  0.66746961  -0.00059808  1
  Mn3.30+  Mn77  1  0.16692322  0.66811113  0.50115345  1
  Mn3.30+  Mn78  1  0.49761509  -0.00083811  0.00012386  1
  Mn3.30+  Mn79  1  0.50057916  0.00118773  0.49887690  1
  Mn3.30+  Mn80  1  0.50048385  0.33262322  -0.00086164  1
  Mn3.30+  Mn81  1  0.49856232  0.33359396  0.50097259  1
  Mn3.30+  Mn82  1  0.50010750  0.66622276  -0.00090297  1
  Mn3.30+  Mn83  1  0.49954163  0.66523974  0.50215002  1
  Mn3.30+  Mn84  1  0.83186538  0.00089862  -0.00116220  1
  Mn3.30+  Mn85  1  0.83462867  0.00002467  0.49858851  1
  Mn3.30+  Mn86  1  0.83486285  0.33292623  -0.00222340  1
  Mn3.30+  Mn87  1  0.83255185  0.33292418  0.50230440  1
  Mn3.30+  Mn88  1  0.83401715  0.66710142  0.00050843  1
  Mn3.30+  Mn89  1  0.83324943  0.66718446  0.50002199  1
  Mn3.30+  Mn90  1  0.00106033  0.16562646  0.25103743  1
  Mn3.30+  Mn91  1  -0.00020971  0.16747231  0.75253208  1
  Mn3.30+  Mn92  1  -0.00102055  0.50053733  0.25005177  1
  Mn3.30+  Mn93  1  -0.00243043  0.49942731  0.74966147  1
  Mn3.30+  Mn94  1  0.00013521  0.83603033  0.25327210  1
  Mn3.30+  Mn95  1  0.00067474  0.83526634  0.74760555  1
  Mn3.30+  Mn96  1  0.33158638  0.16543920  0.25049061  1
  Mn3.30+  Mn97  1  0.33318677  0.16359569  0.75219965  1
  Mn3.30+  Mn98  1  0.33437234  0.49714767  0.25060872  1
  Mn3.30+  Mn99  1  0.33334908  0.49937123  0.74910726  1
  Mn3.30+  Mn100  1  0.33316803  0.83629852  0.24964388  1
  Mn3.30+  Mn101  1  0.33312592  0.83467453  0.74977393  1
  Mn3.30+  Mn102  1  0.66513642  0.16653448  0.24955041  1
  Mn3.30+  Mn103  1  0.66866060  0.16537725  0.75122933  1
  Mn3.30+  Mn104  1  0.66742605  0.49879003  0.24901701  1
  Mn3.30+  Mn105  1  0.66801180  0.49983504  0.74808140  1
  Mn3.30+  Mn106  1  0.66760832  0.83271370  0.25138979  1
  Mn3.30+  Mn107  1  0.66665380  0.83706093  0.74903848  1
  Mn3.30+  Mn108  1  0.16784628  0.00127592  0.25218128  1
  Mn3.30+  Mn109  1  0.16851093  0.00018051  0.75091884  1
  Mn3.30+  Mn110  1  0.16691811  0.33240553  0.25045647  1
  Mn3.30+  Mn111  1  0.16475221  0.33084105  0.75101865  1
  Mn3.30+  Mn112  1  0.16643091  0.66784455  0.25175720  1
  Mn3.30+  Mn113  1  0.16686426  0.66757807  0.74785567  1
  Mn3.30+  Mn114  1  0.49699301  0.00069881  0.24856968  1
  Mn3.30+  Mn115  1  0.50077616  0.00015435  0.75251541  1
  Mn3.30+  Mn116  1  0.49852867  0.33361043  0.24997403  1
  Mn3.30+  Mn117  1  0.50046718  0.33243571  0.75042359  1
  Mn3.30+  Mn118  1  0.49933022  0.66558659  0.24997008  1
  Mn3.30+  Mn119  1  0.50017105  0.66616485  0.74893809  1
  Mn3.30+  Mn120  1  0.83487979  -0.00026141  0.25318218  1
  Mn3.30+  Mn121  1  0.83153655  0.00167885  0.74775612  1
  Mn3.30+  Mn122  1  0.83356478  0.33459390  0.24827468  1
  Mn3.30+  Mn123  1  0.83392902  0.33138280  0.75196947  1
  Mn3.30+  Mn124  1  0.83347701  0.66688069  0.25072382  1
  Mn3.30+  Mn125  1  0.83375969  0.66715503  0.74894453  1
  Mn3.30+  Mn126  1  0.00031318  0.16734701  -0.00404376  1
  Mn3.30+  Mn127  1  0.00026440  0.16624061  0.49987621  1
  Mn3.30+  Mn128  1  -0.00140763  0.49907597  -0.00032466  1
  Mn3.30+  Mn129  1  -0.00208983  0.50104994  0.50128554  1
  Mn3.30+  Mn130  1  0.00036744  0.83553265  -0.00034070  1
  Mn3.30+  Mn131  1  0.00054169  0.83558207  0.49919953  1
  Mn3.30+  Mn132  1  0.33039013  0.16369246  -0.00184527  1
  Mn3.30+  Mn133  1  0.33412183  0.16584829  0.49931281  1
  Mn3.30+  Mn134  1  0.33240747  0.49843898  -0.00081834  1
  Mn3.30+  Mn135  1  0.33491046  0.49865035  0.50183587  1
  Mn3.30+  Mn136  1  0.33344335  0.83546984  -0.00017768  1
  Mn3.30+  Mn137  1  0.33276157  0.83540996  0.50061323  1
  Mn3.30+  Mn138  1  0.66787828  0.16529809  -0.00210351  1
  Mn3.30+  Mn139  1  0.66598023  0.16584612  0.50050177  1
  Mn3.30+  Mn140  1  0.66898910  0.49929801  0.00086358  1
  Mn3.30+  Mn141  1  0.66637158  0.49916531  0.50227056  1
  Mn3.30+  Mn142  1  0.66671047  0.83493282  0.00028652  1
  Mn3.30+  Mn143  1  0.66801475  0.83429940  0.49913772  1
  O2-  O144  1  0.02385922  0.16203988  0.12407839  1
  O2-  O145  1  0.02374331  0.16309990  0.62601999  1
  O2-  O146  1  0.02808638  0.49497285  0.12349303  1
  O2-  O147  1  0.01965198  0.49537772  0.62473532  1
  O2-  O148  1  0.02603962  0.82843875  0.12770790  1
  O2-  O149  1  0.02815838  0.82739011  0.62503844  1
  O2-  O150  1  0.35520184  0.15921819  0.12319115  1
  O2-  O151  1  0.36089251  0.15722297  0.62737366  1
  O2-  O152  1  0.35713207  0.49879740  0.12429894  1
  O2-  O153  1  0.36078825  0.49341915  0.62689747  1
  O2-  O154  1  0.35895166  0.82334495  0.12580773  1
  O2-  O155  1  0.36150165  0.82864801  0.62692514  1
  O2-  O156  1  0.69154800  0.15987773  0.12401209  1
  O2-  O157  1  0.68301502  0.16026658  0.62414289  1
  O2-  O158  1  0.69191055  0.50264880  0.12487695  1
  O2-  O159  1  0.69551749  0.49526898  0.62513942  1
  O2-  O160  1  0.69290790  0.82621291  0.12806716  1
  O2-  O161  1  0.69152489  0.82540810  0.62408755  1
  O2-  O162  1  0.13894274  0.32905187  0.12196342  1
  O2-  O163  1  0.14013343  0.32676854  0.62669106  1
  O2-  O164  1  0.14091586  0.66054330  0.12664861  1
  O2-  O165  1  0.14103210  0.66263013  0.62464026  1
  O2-  O166  1  0.14138834  0.99654617  0.12480987  1
  O2-  O167  1  0.14404038  0.99612465  0.62517903  1
  O2-  O168  1  0.48117157  0.33180397  0.12214502  1
  O2-  O169  1  0.47503597  0.32429487  0.62753043  1
  O2-  O170  1  0.47462720  0.65860784  0.12355116  1
  O2-  O171  1  0.47488537  0.66107907  0.62695755  1
  O2-  O172  1  0.47003417  0.99309582  0.12486035  1
  O2-  O173  1  0.47486284  0.99850622  0.62691691  1
  O2-  O174  1  0.81499620  0.32552615  0.12385653  1
  O2-  O175  1  0.80877237  0.32717872  0.62708897  1
  O2-  O176  1  0.81014068  0.66241788  0.12553107  1
  O2-  O177  1  0.80891227  0.66218552  0.62491488  1
  O2-  O178  1  0.80857618  0.99515657  0.12881131  1
  O2-  O179  1  0.80643001  0.99455066  0.62224956  1
  O2-  O180  1  0.31657244  0.17741816  0.37588034  1
  O2-  O181  1  0.30493399  0.17358672  0.87428731  1
  O2-  O182  1  0.30906509  0.50647073  0.37550332  1
  O2-  O183  1  0.30552556  0.50577464  0.87390776  1
  O2-  O184  1  0.31062231  0.83993478  0.37291847  1
  O2-  O185  1  0.30905663  0.83872026  0.87393939  1
  O2-  O186  1  0.63951082  0.17208193  0.37414347  1
  O2-  O187  1  0.64221584  0.16581052  0.87607694  1
  O2-  O188  1  0.64762936  0.50350614  0.37592220  1
  O2-  O189  1  0.64360562  0.50691815  0.87409346  1
  O2-  O190  1  0.63851252  0.83827700  0.37457142  1
  O2-  O191  1  0.64333341  0.84170820  0.87330161  1
  O2-  O192  1  0.97441080  0.17435536  0.37508587  1
  O2-  O193  1  0.97103773  0.16522226  0.87464182  1
  O2-  O194  1  0.97229520  0.50546591  0.37680578  1
  O2-  O195  1  0.97317596  0.50941155  0.87541481  1
  O2-  O196  1  0.97394567  0.84222425  0.37481208  1
  O2-  O197  1  0.97379961  0.84197308  0.87183032  1
  O2-  O198  1  0.19447141  -0.00246353  0.37452398  1
  O2-  O199  1  0.19281562  0.00392878  0.87494417  1
  O2-  O200  1  0.19094743  0.33892674  0.37730399  1
  O2-  O201  1  0.19154690  0.33918562  0.87457400  1
  O2-  O202  1  0.19320280  0.67587827  0.37597992  1
  O2-  O203  1  0.19131762  0.67486076  0.87265685  1
  O2-  O204  1  0.52690784  0.00584154  0.37158710  1
  O2-  O205  1  0.52832628  0.00155394  0.87708158  1
  O2-  O206  1  0.52289239  0.33019532  0.37701078  1
  O2-  O207  1  0.52026761  0.33779384  0.87374574  1
  O2-  O208  1  0.52402635  0.67270385  0.37645888  1
  O2-  O209  1  0.52612913  0.67412220  0.87347280  1
  O2-  O210  1  0.86178305  0.00952884  0.37451505  1
  O2-  O211  1  0.85595109  -0.00214446  0.87290982  1
  O2-  O212  1  0.85813024  0.33935011  0.37354977  1
  O2-  O213  1  0.86184094  0.34256263  0.87560221  1
  O2-  O214  1  0.85717738  0.67218579  0.37486132  1
  O2-  O215  1  0.85841789  0.67637005  0.87483377  1
  O2-  O216  1  0.23598724  0.09460520  0.01950268  1
  O2-  O217  1  0.24018936  0.09295181  0.52194446  1
  O2-  O218  1  0.23316183  0.42966189  0.01595015  1
  O2-  O219  1  0.24113219  0.42609470  0.51901010  1
  O2-  O220  1  0.23930078  0.76224101  0.02000335  1
  O2-  O221  1  0.23808355  0.76240444  0.52176314  1
  O2-  O222  1  0.56890696  0.09118888  0.02255493  1
  O2-  O223  1  0.56885833  0.09667908  0.51471734  1
  O2-  O224  1  0.57256378  0.43183290  0.01492150  1
  O2-  O225  1  0.57233381  0.42671568  0.52445704  1
  O2-  O226  1  0.57252215  0.76027377  0.02072329  1
  O2-  O227  1  0.57076326  0.76097284  0.52088028  1
  O2-  O228  1  0.90540957  0.09329739  0.02066733  1
  O2-  O229  1  0.90810020  0.09338600  0.51837281  1
  O2-  O230  1  0.90530845  0.43147750  0.02305149  1
  O2-  O231  1  0.90298243  0.42994953  0.52008005  1
  O2-  O232  1  0.90548776  0.76268188  0.02104483  1
  O2-  O233  1  0.90734646  0.76110633  0.52101048  1
  O2-  O234  1  0.25537561  0.25651203  0.23020342  1
  O2-  O235  1  0.26306352  0.25862378  0.72836766  1
  O2-  O236  1  0.26157103  0.59396027  0.23117893  1
  O2-  O237  1  0.26495310  0.59634524  0.73183304  1
  O2-  O238  1  0.26239392  0.92706327  0.22516472  1
  O2-  O239  1  0.26228530  0.92705865  0.73043309  1
  O2-  O240  1  0.59207289  0.25837765  0.23201445  1
  O2-  O241  1  0.59527320  0.25950512  0.72982326  1
  O2-  O242  1  0.59445038  0.59335182  0.23047207  1
  O2-  O243  1  0.59757539  0.59615471  0.73178680  1
  O2-  O244  1  0.59565590  0.92732209  0.22867190  1
  O2-  O245  1  0.59546807  0.92918274  0.72566510  1
  O2-  O246  1  0.92772311  0.26208691  0.23112630  1
  O2-  O247  1  0.93190030  0.26423615  0.73335233  1
  O2-  O248  1  0.93147956  0.59612242  0.23184380  1
  O2-  O249  1  0.93052580  0.59800562  0.73266840  1
  O2-  O250  1  0.92817224  0.92739347  0.22646635  1
  O2-  O251  1  0.92799030  0.92717239  0.72563721  1
  O2-  O252  1  0.09011773  0.24091299  0.26815468  1
  O2-  O253  1  0.09722833  0.23454821  0.77061436  1
  O2-  O254  1  0.09510936  0.57302484  0.27306665  1
  O2-  O255  1  0.09261972  0.57353922  0.77186580  1
  O2-  O256  1  0.09842993  0.90440169  0.26716219  1
  O2-  O257  1  0.09337855  0.90906848  0.77212164  1
  O2-  O258  1  0.42741592  0.23624908  0.26122968  1
  O2-  O259  1  0.42668565  0.23537732  0.77200713  1
  O2-  O260  1  0.42508034  0.57356565  0.26757642  1
  O2-  O261  1  0.42648682  0.57190720  0.77399161  1
  O2-  O262  1  0.43191023  0.90336362  0.26808279  1
  O2-  O263  1  0.43232819  0.90326737  0.76739763  1
  O2-  O264  1  0.76182019  0.24002059  0.26940583  1
  O2-  O265  1  0.76415153  0.23664135  0.77113030  1
  O2-  O266  1  0.76016463  0.57315430  0.27139049  1
  O2-  O267  1  0.76085219  0.57404006  0.77210843  1
  O2-  O268  1  0.76377293  0.90537818  0.27331066  1
  O2-  O269  1  0.76413995  0.90295856  0.76486622  1
  O2-  O270  1  0.07180629  0.07028378  0.48362688  1
  O2-  O271  1  0.06921065  0.06990793  0.98167483  1
  O2-  O272  1  0.07098437  0.40824402  0.48043909  1
  O2-  O273  1  0.06844764  0.40323630  0.97624579  1
  O2-  O274  1  0.07061531  0.74189003  0.47760759  1
  O2-  O275  1  0.07184944  0.74039190  0.97963225  1
  O2-  O276  1  0.40406667  0.07011225  0.47797745  1
  O2-  O277  1  0.40565337  0.07123214  0.97543917  1
  O2-  O278  1  0.40270469  0.39932039  0.48363935  1
  O2-  O279  1  0.40532603  0.40721711  0.97711782  1
  O2-  O280  1  0.40327093  0.74031158  0.48048202  1
  O2-  O281  1  0.40570591  0.73803114  0.97931702  1
  O2-  O282  1  0.73987499  0.07421342  0.47578577  1
  O2-  O283  1  0.73618654  0.06651904  0.98249673  1
  O2-  O284  1  0.73702164  0.40409667  0.48050856  1
  O2-  O285  1  0.74337441  0.40842695  0.98027514  1
  O2-  O286  1  0.73629949  0.73723948  0.48157563  1
  O2-  O287  1  0.73793892  0.74023260  0.97993349  1
  O2-  O288  1  0.09154675  0.24054622  0.48246818  1
  O2-  O289  1  0.09525195  0.23456590  0.97858447  1
  O2-  O290  1  0.09281799  0.57502443  0.47643891  1
  O2-  O291  1  0.09439500  0.57107430  0.97859019  1
  O2-  O292  1  0.09524993  0.90652019  0.48121754  1
  O2-  O293  1  0.09649150  0.90685424  0.97950737  1
  O2-  O294  1  0.43130754  0.23457820  0.48735220  1
  O2-  O295  1  0.42352048  0.23708896  0.98077327  1
  O2-  O296  1  0.42519452  0.57479253  0.48252418  1
  O2-  O297  1  0.42882533  0.57218041  0.97704647  1
  O2-  O298  1  0.43314015  0.90458542  0.48382077  1
  O2-  O299  1  0.43117434  0.90230887  0.98130789  1
  O2-  O300  1  0.75750213  0.23984564  0.47650349  1
  O2-  O301  1  0.76631913  0.23510539  0.98269625  1
  O2-  O302  1  0.76098062  0.57281056  0.47921439  1
  O2-  O303  1  0.76050271  0.57505736  0.97732958  1
  O2-  O304  1  0.76436086  0.90438971  0.47593102  1
  O2-  O305  1  0.76450477  0.90308810  0.98641614  1
  O2-  O306  1  0.06789564  0.06893021  0.26746360  1
  O2-  O307  1  0.07270277  0.07182506  0.76706223  1
  O2-  O308  1  0.07092527  0.40697642  0.27085304  1
  O2-  O309  1  0.06882210  0.40564875  0.77074424  1
  O2-  O310  1  0.07130488  0.74140737  0.27276867  1
  O2-  O311  1  0.07102234  0.74149829  0.77136404  1
  O2-  O312  1  0.40470082  0.07236521  0.27289495  1
  O2-  O313  1  0.40438243  0.06887909  0.77544024  1
  O2-  O314  1  0.40299626  0.40390664  0.26914387  1
  O2-  O315  1  0.40412907  0.40498465  0.77119442  1
  O2-  O316  1  0.40424637  0.73944827  0.27036776  1
  O2-  O317  1  0.40429588  0.73945710  0.77094513  1
  O2-  O318  1  0.73800297  0.07198228  0.27114108  1
  O2-  O319  1  0.73830814  0.07082875  0.76774930  1
  O2-  O320  1  0.73977031  0.40580425  0.27140980  1
  O2-  O321  1  0.74047118  0.40598211  0.76840385  1
  O2-  O322  1  0.73568897  0.73711953  0.26920234  1
  O2-  O323  1  0.73833262  0.74048217  0.77006860  1
  O2-  O324  1  0.23658491  0.09434823  0.23070999  1
  O2-  O325  1  0.24025028  0.09224722  0.72673064  1
  O2-  O326  1  0.23525967  0.43099198  0.23346622  1
  O2-  O327  1  0.24084537  0.42462901  0.73282072  1
  O2-  O328  1  0.23868442  0.76152434  0.22899287  1
  O2-  O329  1  0.23900787  0.76289139  0.72798246  1
  O2-  O330  1  0.56931504  0.09221361  0.22603203  1
  O2-  O331  1  0.56755555  0.09591509  0.73636997  1
  O2-  O332  1  0.57261188  0.42883548  0.23261325  1
  O2-  O333  1  0.57288146  0.43011000  0.72915865  1
  O2-  O334  1  0.57109155  0.75938020  0.22897176  1
  O2-  O335  1  0.57353625  0.76329720  0.72930013  1
  O2-  O336  1  0.90415326  0.09637457  0.22895531  1
  O2-  O337  1  0.91024286  0.08900935  0.73160247  1
  O2-  O338  1  0.90416861  0.42952068  0.22845692  1
  O2-  O339  1  0.90291079  0.43044748  0.72914162  1
  O2-  O340  1  0.90734402  0.76086484  0.22968241  1
  O2-  O341  1  0.90581736  0.76281513  0.72750291  1
  O2-  O342  1  0.25738929  0.25949594  0.01775249  1
  O2-  O343  1  0.26117776  0.25648435  0.52555933  1
  O2-  O344  1  0.26191422  0.59513359  0.01941071  1
  O2-  O345  1  0.26361366  0.59596391  0.51680664  1
  O2-  O346  1  0.26101746  0.92798591  0.02239796  1
  O2-  O347  1  0.26270697  0.92735076  0.51992302  1
  O2-  O348  1  0.58991380  0.25464748  0.01703413  1
  O2-  O349  1  0.59513341  0.26304882  0.52045188  1
  O2-  O350  1  0.59458988  0.59503497  0.01898765  1
  O2-  O351  1  0.59783475  0.59460434  0.51881544  1
  O2-  O352  1  0.59286798  0.92503239  0.02583901  1
  O2-  O353  1  0.59762831  0.93075829  0.52021186  1
  O2-  O354  1  0.92988692  0.26118210  0.02011517  1
  O2-  O355  1  0.92867610  0.26441176  0.51599668  1
  O2-  O356  1  0.93163306  0.59771122  0.01820450  1
  O2-  O357  1  0.93031812  0.59768772  0.51778739  1
  O2-  O358  1  0.92781026  0.92946761  0.02053790  1
  O2-  O359  1  0.92890169  0.92643320  0.52411256  1
