# generated using pymatgen
data_Sr7Ca15Pr50Mn72O216
_symmetry_space_group_name_H-M   'P 1'
_cell_length_a   16.55984698
_cell_length_b   16.60457320
_cell_length_c   15.59219550
_cell_angle_alpha   89.99491837
_cell_angle_beta   89.99986819
_cell_angle_gamma   89.99358143
_symmetry_Int_Tables_number   1
_chemical_formula_structural   Sr7Ca15Pr50Mn72O216
_chemical_formula_sum   'Sr7 Ca15 Pr50 Mn72 O216'
_cell_volume   4287.37334513
_cell_formula_units_Z   1
loop_
 _symmetry_equiv_pos_site_id
 _symmetry_equiv_pos_as_xyz
  1  'x, y, z'
loop_
 _atom_type_symbol
 _atom_type_oxidation_number
  Sr2+  2.0
  Ca2+  2.0
  Pr3+  3.0
  Mn3.30+  3.3
  O2-  -2.0
loop_
 _atom_site_type_symbol
 _atom_site_label
 _atom_site_symmetry_multiplicity
 _atom_site_fract_x
 _atom_site_fract_y
 _atom_site_fract_z
 _atom_site_occupancy
  Sr2+  Sr0  1  0.32959250  0.34302951  0.12370973  1
  Sr2+  Sr1  1  0.33385921  0.99043849  0.87615266  1
  Sr2+  Sr2  1  0.49589245  0.49205146  0.87636800  1
  Sr2+  Sr3  1  0.49711360  0.82326852  0.87464823  1
  Sr2+  Sr4  1  0.50209558  0.84115309  0.62505169  1
  Sr2+  Sr5  1  0.83275293  0.15726521  0.87595178  1
  Sr2+  Sr6  1  -0.00040875  0.34120572  0.12478963  1
  Ca2+  Ca7  1  -0.00164770  0.01638407  0.12575731  1
  Ca2+  Ca8  1  -0.00275118  0.67848922  0.12459417  1
  Ca2+  Ca9  1  0.83546951  0.51519946  0.62552881  1
  Ca2+  Ca10  1  0.82773775  0.48587047  0.87437119  1
  Ca2+  Ca11  1  0.66351108  0.68210029  0.62531914  1
  Ca2+  Ca12  1  0.49599002  0.81621814  0.37557717  1
  Ca2+  Ca13  1  0.33742204  0.32026408  0.87686460  1
  Ca2+  Ca14  1  0.50053755  0.51337931  0.12384651  1
  Ca2+  Ca15  1  0.16998213  0.18248121  0.12381741  1
  Ca2+  Ca16  1  0.33889532  0.98217925  0.37419744  1
  Ca2+  Ca17  1  0.66934198  0.32085862  0.37465853  1
  Ca2+  Ca18  1  -0.00284438  0.01429110  0.62430757  1
  Ca2+  Ca19  1  0.33913393  0.65337167  0.37483052  1
  Ca2+  Ca20  1  0.82711544  0.48370587  0.37504803  1
  Ca2+  Ca21  1  0.33967033  0.65448109  0.87548873  1
  Pr3+  Pr22  1  -0.00657612  0.34882063  0.62530182  1
  Pr3+  Pr23  1  1.00464572  0.98852494  0.87568021  1
  Pr3+  Pr24  1  0.83085020  0.15591508  0.37372650  1
  Pr3+  Pr25  1  0.17149238  0.84688475  0.62397612  1
  Pr3+  Pr26  1  1.00454631  0.98664088  0.37417465  1
  Pr3+  Pr27  1  0.66007633  0.35049266  0.12561027  1
  Pr3+  Pr28  1  1.00158767  0.65237190  0.87669101  1
  Pr3+  Pr29  1  0.99973445  0.32113278  0.87630270  1
  Pr3+  Pr30  1  0.50061068  0.18157400  0.12395617  1
  Pr3+  Pr31  1  -0.00234006  0.67813509  0.62519932  1
  Pr3+  Pr32  1  0.66222025  0.67676306  0.12474017  1
  Pr3+  Pr33  1  0.83905126  0.51351344  0.12430398  1
  Pr3+  Pr34  1  0.33493464  0.67431958  0.12442094  1
  Pr3+  Pr35  1  0.16411956  0.15450056  0.37092363  1
  Pr3+  Pr36  1  0.16594000  0.81927318  0.87558288  1
  Pr3+  Pr37  1  0.82960651  0.82202472  0.87478544  1
  Pr3+  Pr38  1  1.00132635  0.65263262  0.37393561  1
  Pr3+  Pr39  1  0.66209602  0.01123946  0.62494068  1
  Pr3+  Pr40  1  0.66913673  0.65305193  0.87230800  1
  Pr3+  Pr41  1  0.16816581  0.48730018  0.87499857  1
  Pr3+  Pr42  1  0.66475348  0.34623214  0.62457978  1
  Pr3+  Pr43  1  0.83642230  0.17860101  0.62470572  1
  Pr3+  Pr44  1  0.16766073  0.50853325  0.12507095  1
  Pr3+  Pr45  1  0.83955871  0.84695198  0.12580530  1
  Pr3+  Pr46  1  0.66895040  0.98535942  0.37463485  1
  Pr3+  Pr47  1  0.16813302  0.84295520  0.12581246  1
  Pr3+  Pr48  1  0.83655187  0.18146717  0.12516921  1
  Pr3+  Pr49  1  0.16762165  0.81834249  0.37468203  1
  Pr3+  Pr50  1  0.66855732  0.32249409  0.87477198  1
  Pr3+  Pr51  1  0.33307033  0.68059068  0.62555724  1
  Pr3+  Pr52  1  0.32862495  0.01300804  0.12455824  1
  Pr3+  Pr53  1  0.16612222  0.48871487  0.37504199  1
  Pr3+  Pr54  1  0.49487906  0.15684918  0.87573018  1
  Pr3+  Pr55  1  0.83104305  0.81911309  0.37519198  1
  Pr3+  Pr56  1  1.00026046  0.32249389  0.37394048  1
  Pr3+  Pr57  1  0.49828992  0.48881725  0.37439965  1
  Pr3+  Pr58  1  0.66397155  0.01496600  0.12515691  1
  Pr3+  Pr59  1  0.83525361  0.84693585  0.62409919  1
  Pr3+  Pr60  1  0.33355914  0.00843553  0.62569412  1
  Pr3+  Pr61  1  0.16433080  0.15550633  0.87876396  1
  Pr3+  Pr62  1  0.50569792  0.51701246  0.62558132  1
  Pr3+  Pr63  1  0.16905589  0.51313332  0.62487543  1
  Pr3+  Pr64  1  0.50265102  0.17831738  0.62562165  1
  Pr3+  Pr65  1  0.33113471  0.34628317  0.62626073  1
  Pr3+  Pr66  1  0.50189563  0.84536724  0.12550163  1
  Pr3+  Pr67  1  0.66980125  0.98808567  0.87520256  1
  Pr3+  Pr68  1  0.49573350  0.15293815  0.37393295  1
  Pr3+  Pr69  1  0.66994055  0.65293688  0.37758008  1
  Pr3+  Pr70  1  0.16836317  0.17727597  0.62521243  1
  Pr3+  Pr71  1  0.33475161  0.32013754  0.37412646  1
  Mn3.30+  Mn72  1  0.16502428  -0.00035266  0.00324860  1
  Mn3.30+  Mn73  1  0.16832240  -0.00019001  0.49781694  1
  Mn3.30+  Mn74  1  0.16817249  0.33302907  -0.00096145  1
  Mn3.30+  Mn75  1  0.16529729  0.33311646  0.50100323  1
  Mn3.30+  Mn76  1  0.16678826  0.66493784  0.00082803  1
  Mn3.30+  Mn77  1  0.16824649  0.66601651  0.49817167  1
  Mn3.30+  Mn78  1  0.49866234  0.00073762  0.00107270  1
  Mn3.30+  Mn79  1  0.49910917  -0.00287215  0.49768315  1
  Mn3.30+  Mn80  1  0.49720572  0.33765215  0.00030113  1
  Mn3.30+  Mn81  1  0.50128460  0.33355310  0.49863184  1
  Mn3.30+  Mn82  1  0.49895836  0.66567154  -0.00075089  1
  Mn3.30+  Mn83  1  0.50189110  0.66838445  0.49915569  1
  Mn3.30+  Mn84  1  0.83597698  0.00109844  0.00102695  1
  Mn3.30+  Mn85  1  0.83474188  0.00037526  0.49965651  1
  Mn3.30+  Mn86  1  0.83163806  0.33544501  0.00013068  1
  Mn3.30+  Mn87  1  0.83072131  0.33597226  0.49918251  1
  Mn3.30+  Mn88  1  0.83412610  0.66588514  -0.00049208  1
  Mn3.30+  Mn89  1  0.83210609  0.66388965  0.50199551  1
  Mn3.30+  Mn90  1  0.00012430  0.16682993  0.24776540  1
  Mn3.30+  Mn91  1  0.00013043  0.16561929  0.74994425  1
  Mn3.30+  Mn92  1  -0.00245439  0.49981755  0.25006496  1
  Mn3.30+  Mn93  1  -0.00331232  0.50016371  0.75139897  1
  Mn3.30+  Mn94  1  0.00085661  0.83198820  0.24924137  1
  Mn3.30+  Mn95  1  -0.00002997  0.83411702  0.74884684  1
  Mn3.30+  Mn96  1  0.33113110  0.16503897  0.25022924  1
  Mn3.30+  Mn97  1  0.33336957  0.16719369  0.74989344  1
  Mn3.30+  Mn98  1  0.33471283  0.50055139  0.24931326  1
  Mn3.30+  Mn99  1  0.33520564  0.50112435  0.75082464  1
  Mn3.30+  Mn100  1  0.33595532  0.83122005  0.25138935  1
  Mn3.30+  Mn101  1  0.33449595  0.83332219  0.75135893  1
  Mn3.30+  Mn102  1  0.66555311  0.16919311  0.25133582  1
  Mn3.30+  Mn103  1  0.66718629  0.16670111  0.75030022  1
  Mn3.30+  Mn104  1  0.66735831  0.50010514  0.25106694  1
  Mn3.30+  Mn105  1  0.66919536  0.50112854  0.74854861  1
  Mn3.30+  Mn106  1  0.66612587  0.83206800  0.25056170  1
  Mn3.30+  Mn107  1  0.66623169  0.83241352  0.74956661  1
  Mn3.30+  Mn108  1  0.16774530  -0.00049386  0.24925130  1
  Mn3.30+  Mn109  1  0.16565886  -0.00013940  0.74923341  1
  Mn3.30+  Mn110  1  0.16662953  0.33349620  0.24878806  1
  Mn3.30+  Mn111  1  0.16694360  0.33298427  0.75098847  1
  Mn3.30+  Mn112  1  0.16698119  0.66504762  0.24920643  1
  Mn3.30+  Mn113  1  0.16804450  0.66603815  0.75196331  1
  Mn3.30+  Mn114  1  0.49839175  -0.00165850  0.25111655  1
  Mn3.30+  Mn115  1  0.49917520  -0.00085752  0.75019805  1
  Mn3.30+  Mn116  1  0.50032943  0.33548072  0.25048994  1
  Mn3.30+  Mn117  1  0.49807157  0.33545467  0.75087479  1
  Mn3.30+  Mn118  1  0.50004643  0.66593546  0.25136719  1
  Mn3.30+  Mn119  1  0.50091600  0.66809412  0.75075900  1
  Mn3.30+  Mn120  1  0.83536342  0.00027644  0.24953024  1
  Mn3.30+  Mn121  1  0.83536458  0.00104243  0.74942824  1
  Mn3.30+  Mn122  1  0.83011367  0.33566853  0.25101876  1
  Mn3.30+  Mn123  1  0.83204727  0.33571474  0.74976604  1
  Mn3.30+  Mn124  1  0.83398249  0.66486043  0.25039385  1
  Mn3.30+  Mn125  1  0.83262943  0.66506984  0.74836732  1
  Mn3.30+  Mn126  1  0.00009291  0.16607061  0.00234860  1
  Mn3.30+  Mn127  1  0.00028114  0.16631273  0.49975035  1
  Mn3.30+  Mn128  1  -0.00159286  0.49919725  -0.00053405  1
  Mn3.30+  Mn129  1  -0.00438992  0.50026426  0.49917986  1
  Mn3.30+  Mn130  1  -0.00041818  0.83284163  0.00107197  1
  Mn3.30+  Mn131  1  0.00093812  0.83369274  0.50032282  1
  Mn3.30+  Mn132  1  0.33124068  0.16856117  0.00043049  1
  Mn3.30+  Mn133  1  0.33345056  0.16371987  0.49935563  1
  Mn3.30+  Mn134  1  0.33486552  0.49989439  0.00046804  1
  Mn3.30+  Mn135  1  0.33504822  0.50134314  0.49959908  1
  Mn3.30+  Mn136  1  0.33415713  0.83183861  -0.00012801  1
  Mn3.30+  Mn137  1  0.33650372  0.83288541  0.49730257  1
  Mn3.30+  Mn138  1  0.66687126  0.16860646  0.00057698  1
  Mn3.30+  Mn139  1  0.66640120  0.16761491  0.49792449  1
  Mn3.30+  Mn140  1  0.66647594  0.50097709  -0.00139235  1
  Mn3.30+  Mn141  1  0.66977898  0.50016744  0.50147209  1
  Mn3.30+  Mn142  1  0.66740380  0.83272251  0.00070525  1
  Mn3.30+  Mn143  1  0.66496287  0.83170177  0.49915990  1
  O2-  O144  1  0.02566255  0.16330696  0.12638933  1
  O2-  O145  1  0.02425928  0.16212549  0.62359876  1
  O2-  O146  1  0.02315494  0.49521941  0.12369119  1
  O2-  O147  1  0.02555797  0.49705447  0.62573073  1
  O2-  O148  1  0.02466718  0.82173428  0.12800312  1
  O2-  O149  1  0.02838705  0.82422628  0.62542146  1
  O2-  O150  1  0.35729695  0.16150347  0.12818491  1
  O2-  O151  1  0.35916945  0.15773929  0.62336454  1
  O2-  O152  1  0.35786213  0.49755498  0.12754543  1
  O2-  O153  1  0.35959589  0.49267812  0.62376916  1
  O2-  O154  1  0.35844906  0.82404105  0.12713041  1
  O2-  O155  1  0.35137839  0.82945799  0.62285441  1
  O2-  O156  1  0.69215194  0.16267602  0.12779894  1
  O2-  O157  1  0.69191093  0.15947808  0.62505990  1
  O2-  O158  1  0.69422411  0.49859210  0.12516615  1
  O2-  O159  1  0.69551936  0.49108492  0.62393685  1
  O2-  O160  1  0.69395793  0.82643115  0.12641886  1
  O2-  O161  1  0.69076071  0.83159024  0.62521956  1
  O2-  O162  1  0.14913537  0.33506904  0.12551725  1
  O2-  O163  1  0.13877474  0.32733317  0.62506815  1
  O2-  O164  1  0.13791334  0.65847978  0.12536899  1
  O2-  O165  1  0.14153473  0.66192385  0.62499382  1
  O2-  O166  1  0.13831993  0.98915478  0.12658537  1
  O2-  O167  1  0.13943710  0.99418260  0.62180481  1
  O2-  O168  1  0.47891087  0.32814120  0.12660367  1
  O2-  O169  1  0.47434492  0.32678844  0.62388981  1
  O2-  O170  1  0.48009305  0.66147521  0.12582493  1
  O2-  O171  1  0.47745889  0.66495588  0.62371165  1
  O2-  O172  1  0.47461788  0.99580424  0.12766462  1
  O2-  O173  1  0.47790291  0.99902178  0.62161712  1
  O2-  O174  1  0.80577624  0.32916629  0.12693082  1
  O2-  O175  1  0.80901020  0.32476433  0.62407641  1
  O2-  O176  1  0.80671111  0.66092582  0.12492314  1
  O2-  O177  1  0.80655638  0.65994137  0.62480361  1
  O2-  O178  1  0.80747551  0.99475790  0.12653840  1
  O2-  O179  1  0.80674701  0.99637885  0.62180099  1
  O2-  O180  1  0.30768704  0.17239874  0.37562457  1
  O2-  O181  1  0.30898611  0.17241599  0.87238520  1
  O2-  O182  1  0.31012936  0.50685568  0.37623550  1
  O2-  O183  1  0.31042780  0.51093267  0.87292399  1
  O2-  O184  1  0.30881639  0.83971647  0.37347828  1
  O2-  O185  1  0.30843513  0.83751679  0.87682542  1
  O2-  O186  1  0.63936611  0.17419387  0.37329022  1
  O2-  O187  1  0.63988091  0.17223274  0.87394659  1
  O2-  O188  1  0.64115662  0.50715422  0.37715724  1
  O2-  O189  1  0.64576087  0.50464862  0.87322206  1
  O2-  O190  1  0.64106224  0.83824952  0.37220258  1
  O2-  O191  1  0.64963432  0.84052780  0.87593883  1
  O2-  O192  1  0.97550870  0.17247854  0.37452224  1
  O2-  O193  1  0.98199735  0.17038224  0.87582346  1
  O2-  O194  1  0.97050916  0.50592842  0.37619236  1
  O2-  O195  1  0.97070944  0.50561407  0.87459218  1
  O2-  O196  1  0.97445620  0.83925439  0.37417707  1
  O2-  O197  1  0.97327857  0.84117836  0.87247172  1
  O2-  O198  1  0.19682330  0.00747818  0.37316004  1
  O2-  O199  1  0.18425649  0.00617409  0.87786423  1
  O2-  O200  1  0.19014055  0.33947923  0.37717100  1
  O2-  O201  1  0.19438892  0.33826772  0.87241354  1
  O2-  O202  1  0.19514117  0.66919759  0.37374483  1
  O2-  O203  1  0.19511379  0.67103383  0.87608230  1
  O2-  O204  1  0.52684062  0.00775993  0.37310850  1
  O2-  O205  1  0.52494242  0.00781720  0.87762186  1
  O2-  O206  1  0.52710169  0.33981088  0.37535636  1
  O2-  O207  1  0.52487265  0.33494043  0.87369902  1
  O2-  O208  1  0.52561472  0.66940146  0.37561559  1
  O2-  O209  1  0.52368072  0.66717644  0.87519776  1
  O2-  O210  1  0.85979145  0.00554691  0.37483486  1
  O2-  O211  1  0.86021849  0.00001256  0.87696374  1
  O2-  O212  1  0.85732149  0.33852732  0.37611706  1
  O2-  O213  1  0.85556271  0.34026797  0.87282172  1
  O2-  O214  1  0.85905219  0.67361479  0.37702138  1
  O2-  O215  1  0.85948649  0.67641854  0.87361579  1
  O2-  O216  1  0.23703219  0.09248443  0.02175462  1
  O2-  O217  1  0.23847767  0.09340051  0.52267885  1
  O2-  O218  1  0.23619039  0.43138341  0.01396767  1
  O2-  O219  1  0.23734596  0.42657459  0.52070986  1
  O2-  O220  1  0.23787313  0.75918199  0.02266075  1
  O2-  O221  1  0.23812628  0.76194900  0.51835421  1
  O2-  O222  1  0.57355839  0.09677253  0.02195242  1
  O2-  O223  1  0.57120671  0.09514309  0.51808853  1
  O2-  O224  1  0.57101461  0.42947113  0.02251810  1
  O2-  O225  1  0.57290952  0.43031732  0.52191259  1
  O2-  O226  1  0.57304350  0.76021782  0.02146956  1
  O2-  O227  1  0.57458100  0.75952353  0.51477457  1
  O2-  O228  1  0.90481197  0.09406998  0.02260979  1
  O2-  O229  1  0.90448219  0.09700905  0.51731976  1
  O2-  O230  1  0.90283645  0.42793003  0.01821181  1
  O2-  O231  1  0.90333333  0.42873834  0.52409253  1
  O2-  O232  1  0.90300473  0.76430407  0.01733874  1
  O2-  O233  1  0.90422842  0.75982538  0.52144086  1
  O2-  O234  1  0.25790385  0.26044822  0.23844757  1
  O2-  O235  1  0.26045800  0.25738706  0.72383390  1
  O2-  O236  1  0.25894754  0.59161112  0.22670012  1
  O2-  O237  1  0.26039731  0.59185156  0.72517949  1
  O2-  O238  1  0.26154435  0.92536536  0.22686803  1
  O2-  O239  1  0.25796735  0.92663709  0.72852270  1
  O2-  O240  1  0.59286799  0.26083275  0.22752726  1
  O2-  O241  1  0.59313561  0.26045794  0.72867466  1
  O2-  O242  1  0.59978617  0.59716101  0.23539926  1
  O2-  O243  1  0.59908554  0.59386995  0.72780991  1
  O2-  O244  1  0.59564405  0.93017045  0.22806247  1
  O2-  O245  1  0.59797299  0.93042215  0.73530637  1
  O2-  O246  1  0.92225910  0.26045900  0.23361021  1
  O2-  O247  1  0.92766240  0.26120811  0.73094976  1
  O2-  O248  1  0.92952092  0.59758193  0.22878808  1
  O2-  O249  1  0.93124232  0.59821077  0.73192482  1
  O2-  O250  1  0.93260380  0.92775614  0.22868676  1
  O2-  O251  1  0.93010977  0.92793345  0.72531068  1
  O2-  O252  1  0.09096751  0.24212114  0.27126881  1
  O2-  O253  1  0.09574765  0.23913552  0.77079464  1
  O2-  O254  1  0.09449497  0.57227198  0.27295128  1
  O2-  O255  1  0.09425093  0.57152744  0.77143847  1
  O2-  O256  1  0.09711114  0.90455213  0.27344834  1
  O2-  O257  1  0.09453849  0.90385455  0.77113914  1
  O2-  O258  1  0.42608491  0.23786786  0.27121443  1
  O2-  O259  1  0.42914980  0.23819261  0.76633797  1
  O2-  O260  1  0.42975202  0.57198164  0.26931316  1
  O2-  O261  1  0.42819398  0.57203874  0.76013133  1
  O2-  O262  1  0.43313728  0.89972277  0.26771127  1
  O2-  O263  1  0.42465017  0.90850900  0.76390872  1
  O2-  O264  1  0.76115067  0.23836557  0.26987358  1
  O2-  O265  1  0.75702600  0.24057263  0.76723734  1
  O2-  O266  1  0.76406558  0.56959633  0.27195930  1
  O2-  O267  1  0.76375306  0.57300126  0.77360778  1
  O2-  O268  1  0.76307569  0.90540193  0.27074394  1
  O2-  O269  1  0.76359406  0.90623454  0.76736727  1
  O2-  O270  1  0.07598948  0.07270393  0.47512539  1
  O2-  O271  1  0.07188486  0.07263175  0.98116999  1
  O2-  O272  1  0.06769126  0.40728083  0.48043476  1
  O2-  O273  1  0.07431416  0.40611050  0.97515510  1
  O2-  O274  1  0.07271768  0.73857149  0.47742623  1
  O2-  O275  1  0.07390409  0.73931753  0.97682361  1
  O2-  O276  1  0.40468758  0.06892005  0.47743477  1
  O2-  O277  1  0.40729351  0.07682899  0.98432848  1
  O2-  O278  1  0.40506290  0.40451793  0.47904094  1
  O2-  O279  1  0.40205864  0.40387878  0.97931160  1
  O2-  O280  1  0.40195808  0.73552697  0.48170286  1
  O2-  O281  1  0.40266649  0.73579412  0.98453288  1
  O2-  O282  1  0.73795146  0.07283436  0.47664823  1
  O2-  O283  1  0.73793765  0.06968355  0.98385210  1
  O2-  O284  1  0.73410190  0.40076795  0.48067892  1
  O2-  O285  1  0.73381357  0.40504689  0.98305714  1
  O2-  O286  1  0.74183771  0.73926659  0.47911418  1
  O2-  O287  1  0.73940223  0.73664857  0.97930701  1
  O2-  O288  1  0.09465784  0.23870189  0.47866728  1
  O2-  O289  1  0.09230754  0.24179989  0.97995433  1
  O2-  O290  1  0.09377951  0.57196607  0.47910116  1
  O2-  O291  1  0.09467543  0.57171776  0.97668444  1
  O2-  O292  1  0.09861604  0.90626076  0.47589812  1
  O2-  O293  1  0.09394100  0.90364503  0.97960597  1
  O2-  O294  1  0.42677100  0.23671275  0.47890367  1
  O2-  O295  1  0.42947777  0.23978048  0.98351722  1
  O2-  O296  1  0.43364553  0.57091488  0.48418393  1
  O2-  O297  1  0.42506866  0.57408518  0.98723921  1
  O2-  O298  1  0.43012230  0.90288018  0.47744439  1
  O2-  O299  1  0.42655561  0.90511072  0.98975718  1
  O2-  O300  1  0.76385171  0.23664317  0.48212065  1
  O2-  O301  1  0.75692356  0.24163351  0.98217217  1
  O2-  O302  1  0.76297748  0.57042744  0.47570544  1
  O2-  O303  1  0.76426175  0.57167208  0.97818830  1
  O2-  O304  1  0.76194911  0.90497046  0.47908556  1
  O2-  O305  1  0.76385055  0.90606718  0.98281497  1
  O2-  O306  1  0.07393329  0.07180805  0.27328720  1
  O2-  O307  1  0.07388153  0.07300149  0.76944755  1
  O2-  O308  1  0.07259053  0.40820246  0.27348284  1
  O2-  O309  1  0.06883534  0.40637251  0.77090950  1
  O2-  O310  1  0.07398337  0.73967386  0.27431458  1
  O2-  O311  1  0.07120679  0.73882919  0.77302014  1
  O2-  O312  1  0.40425284  0.06834385  0.27130299  1
  O2-  O313  1  0.40782191  0.07626957  0.76769938  1
  O2-  O314  1  0.40622785  0.40643841  0.27516215  1
  O2-  O315  1  0.39992408  0.40160487  0.76654746  1
  O2-  O316  1  0.40286248  0.73424784  0.26869325  1
  O2-  O317  1  0.40098762  0.73794008  0.76534188  1
  O2-  O318  1  0.73651136  0.07392426  0.27115446  1
  O2-  O319  1  0.73662052  0.07039360  0.76842973  1
  O2-  O320  1  0.73221828  0.40238751  0.26854881  1
  O2-  O321  1  0.73484733  0.40414530  0.76736440  1
  O2-  O322  1  0.73969046  0.73619210  0.27174936  1
  O2-  O323  1  0.74207275  0.74064411  0.77047536  1
  O2-  O324  1  0.23587887  0.09426991  0.22521613  1
  O2-  O325  1  0.23968320  0.09304069  0.72929933  1
  O2-  O326  1  0.23691800  0.43031392  0.23711236  1
  O2-  O327  1  0.23697004  0.42828120  0.72826895  1
  O2-  O328  1  0.23781411  0.75918339  0.22890707  1
  O2-  O329  1  0.23722631  0.76200021  0.73044555  1
  O2-  O330  1  0.57123109  0.09643156  0.22924980  1
  O2-  O331  1  0.57327808  0.09494909  0.72976182  1
  O2-  O332  1  0.57149511  0.43323852  0.22852665  1
  O2-  O333  1  0.57201909  0.42635773  0.72630831  1
  O2-  O334  1  0.57233679  0.75940307  0.22820736  1
  O2-  O335  1  0.57695824  0.75962416  0.73573993  1
  O2-  O336  1  0.90389427  0.09617221  0.23148195  1
  O2-  O337  1  0.90485896  0.09379496  0.72943865  1
  O2-  O338  1  0.90107804  0.42911978  0.23247680  1
  O2-  O339  1  0.90551124  0.42921298  0.72576333  1
  O2-  O340  1  0.90227390  0.76311317  0.23414075  1
  O2-  O341  1  0.90558559  0.76197535  0.72690116  1
  O2-  O342  1  0.25697558  0.25731296  0.01615142  1
  O2-  O343  1  0.26211788  0.25883465  0.52120460  1
  O2-  O344  1  0.25780342  0.59143748  0.02436975  1
  O2-  O345  1  0.26051883  0.59236739  0.52364481  1
  O2-  O346  1  0.25825567  0.92465555  0.02392914  1
  O2-  O347  1  0.26133924  0.92753097  0.52039163  1
  O2-  O348  1  0.59234296  0.26364210  0.01954108  1
  O2-  O349  1  0.59323339  0.25968862  0.52284323  1
  O2-  O350  1  0.59879712  0.59652741  0.01504530  1
  O2-  O351  1  0.59914943  0.59543607  0.52190888  1
  O2-  O352  1  0.59509391  0.92884827  0.02173998  1
  O2-  O353  1  0.59774799  0.93225517  0.51477323  1
  O2-  O354  1  0.92376667  0.25842275  0.01596572  1
  O2-  O355  1  0.92750778  0.26378633  0.51883706  1
  O2-  O356  1  0.92873615  0.59819923  0.02067481  1
  O2-  O357  1  0.93064730  0.59731759  0.51963261  1
  O2-  O358  1  0.92991524  0.92941230  0.02383434  1
  O2-  O359  1  0.93017913  0.92810847  0.52141175  1
