# generated using pymatgen
data_Sr7Ca15Pr50Mn72O216
_symmetry_space_group_name_H-M   'P 1'
_cell_length_a   16.55886716
_cell_length_b   16.60646443
_cell_length_c   15.59311927
_cell_angle_alpha   89.99862211
_cell_angle_beta   89.99646062
_cell_angle_gamma   90.01053106
_symmetry_Int_Tables_number   1
_chemical_formula_structural   Sr7Ca15Pr50Mn72O216
_chemical_formula_sum   'Sr7 Ca15 Pr50 Mn72 O216'
_cell_volume   4287.86194632
_cell_formula_units_Z   1
loop_
 _symmetry_equiv_pos_site_id
 _symmetry_equiv_pos_as_xyz
  1  'x, y, z'
loop_
 _atom_type_symbol
 _atom_type_oxidation_number
  Sr2+  2.0
  Ca2+  2.0
  Pr3+  3.0
  Mn3.30+  3.3
  O2-  -2.0
loop_
 _atom_site_type_symbol
 _atom_site_label
 _atom_site_symmetry_multiplicity
 _atom_site_fract_x
 _atom_site_fract_y
 _atom_site_fract_z
 _atom_site_occupancy
  Sr2+  Sr0  1  0.32918575  0.00951237  0.62344895  1
  Sr2+  Sr1  1  0.33159628  0.67749571  0.62534227  1
  Sr2+  Sr2  1  1.00098937  0.65675304  0.87611350  1
  Sr2+  Sr3  1  0.33407044  0.32329915  0.87349973  1
  Sr2+  Sr4  1  0.67007284  0.65486834  0.37306291  1
  Sr2+  Sr5  1  0.66884181  0.32415710  0.87464317  1
  Sr2+  Sr6  1  -0.00464708  0.34521157  0.12530313  1
  Ca2+  Ca7  1  0.16147629  0.14740105  0.37524977  1
  Ca2+  Ca8  1  1.00139289  0.98532843  0.37437260  1
  Ca2+  Ca9  1  0.32809456  0.34759461  0.62547213  1
  Ca2+  Ca10  1  0.16180631  0.15167265  0.87431351  1
  Ca2+  Ca11  1  0.66936272  0.67865207  0.12671964  1
  Ca2+  Ca12  1  0.83796845  0.51242203  0.12498762  1
  Ca2+  Ca13  1  0.33427481  0.98657391  0.37633387  1
  Ca2+  Ca14  1  0.83794618  0.84757096  0.62514191  1
  Ca2+  Ca15  1  0.66628453  0.01318519  0.12495351  1
  Ca2+  Ca16  1  0.83599363  0.84635089  0.12509190  1
  Ca2+  Ca17  1  0.16057327  0.81917741  0.87391959  1
  Ca2+  Ca18  1  0.83290216  0.48533671  0.87783785  1
  Ca2+  Ca19  1  0.83105113  0.48709857  0.37250128  1
  Ca2+  Ca20  1  0.16269860  0.48606442  0.37549593  1
  Ca2+  Ca21  1  1.00487696  0.98309196  0.87553505  1
  Pr3+  Pr22  1  0.50024490  0.84647768  0.62469588  1
  Pr3+  Pr23  1  0.50193153  0.17910859  0.12523523  1
  Pr3+  Pr24  1  0.66748042  0.34645827  0.12394494  1
  Pr3+  Pr25  1  0.66495896  0.34704198  0.62572644  1
  Pr3+  Pr26  1  0.49728751  0.48684124  0.87503204  1
  Pr3+  Pr27  1  0.49919061  0.82170334  0.87577302  1
  Pr3+  Pr28  1  0.32849270  0.01375375  0.12596515  1
  Pr3+  Pr29  1  0.50091161  0.51208686  0.62551197  1
  Pr3+  Pr30  1  0.66407708  0.68037230  0.62394626  1
  Pr3+  Pr31  1  0.49455737  0.15137458  0.37434856  1
  Pr3+  Pr32  1  0.16715188  0.17981662  0.12585459  1
  Pr3+  Pr33  1  0.16742628  0.84640075  0.12191117  1
  Pr3+  Pr34  1  0.83103679  0.82054480  0.37384738  1
  Pr3+  Pr35  1  1.00258021  0.65162002  0.37441005  1
  Pr3+  Pr36  1  1.00517140  0.32001999  0.37420560  1
  Pr3+  Pr37  1  0.83651056  0.51263740  0.62483550  1
  Pr3+  Pr38  1  0.83159671  0.15442607  0.87590926  1
  Pr3+  Pr39  1  0.83222969  0.15359841  0.37378352  1
  Pr3+  Pr40  1  0.83736428  0.17938887  0.62491259  1
  Pr3+  Pr41  1  0.16441893  0.82452915  0.37583240  1
  Pr3+  Pr42  1  0.49763775  0.82201607  0.37453722  1
  Pr3+  Pr43  1  0.83284539  0.82136292  0.87654457  1
  Pr3+  Pr44  1  0.66998304  0.98691198  0.37267004  1
  Pr3+  Pr45  1  -0.00108710  0.34593478  0.62449710  1
  Pr3+  Pr46  1  0.66443687  0.01198598  0.62474071  1
  Pr3+  Pr47  1  0.49875056  0.48893190  0.37496444  1
  Pr3+  Pr48  1  0.49741290  0.17929428  0.62488411  1
  Pr3+  Pr49  1  0.16530207  0.51178676  0.12610848  1
  Pr3+  Pr50  1  0.17083135  0.84626494  0.62798299  1
  Pr3+  Pr51  1  0.17342840  0.17948138  0.62438901  1
  Pr3+  Pr52  1  0.33339538  0.65635898  0.87392478  1
  Pr3+  Pr53  1  0.50626017  0.84833372  0.12538505  1
  Pr3+  Pr54  1  0.16336002  0.48852655  0.87496894  1
  Pr3+  Pr55  1  0.49626287  0.15720526  0.87560994  1
  Pr3+  Pr56  1  -0.00615319  0.67978493  0.12419827  1
  Pr3+  Pr57  1  0.33111529  0.68091174  0.12482937  1
  Pr3+  Pr58  1  -0.00396408  0.01065593  0.12526276  1
  Pr3+  Pr59  1  -0.00187603  0.01007722  0.62456529  1
  Pr3+  Pr60  1  0.67044751  0.32307086  0.37474320  1
  Pr3+  Pr61  1  0.33247046  0.98979075  0.87374838  1
  Pr3+  Pr62  1  0.67093424  0.98825118  0.87699308  1
  Pr3+  Pr63  1  0.83606645  0.17923421  0.12494171  1
  Pr3+  Pr64  1  0.33618289  0.65500584  0.37593897  1
  Pr3+  Pr65  1  0.17070309  0.51249939  0.62403059  1
  Pr3+  Pr66  1  0.33276608  0.32123521  0.37630536  1
  Pr3+  Pr67  1  0.32980619  0.34671791  0.12445710  1
  Pr3+  Pr68  1  0.50751895  0.51534282  0.12434261  1
  Pr3+  Pr69  1  0.67460675  0.65182090  0.87667773  1
  Pr3+  Pr70  1  -0.00337946  0.68266118  0.62583432  1
  Pr3+  Pr71  1  1.00446262  0.32070866  0.87584962  1
  Mn3.30+  Mn72  1  0.16346928  0.00038416  -0.00210709  1
  Mn3.30+  Mn73  1  0.16527126  -0.00012175  0.49715446  1
  Mn3.30+  Mn74  1  0.16586293  0.33268541  0.00043078  1
  Mn3.30+  Mn75  1  0.16779839  0.33248433  0.49841488  1
  Mn3.30+  Mn76  1  0.16453612  0.66755470  0.00022032  1
  Mn3.30+  Mn77  1  0.16658417  0.66612753  0.49891002  1
  Mn3.30+  Mn78  1  0.50116935  0.00135297  0.00056065  1
  Mn3.30+  Mn79  1  0.49789279  0.00003772  0.49974437  1
  Mn3.30+  Mn80  1  0.49962084  0.33380710  -0.00000632  1
  Mn3.30+  Mn81  1  0.49820148  0.33369282  0.50064295  1
  Mn3.30+  Mn82  1  0.50345177  0.66809015  0.00025482  1
  Mn3.30+  Mn83  1  0.50039100  0.66716235  0.49981535  1
  Mn3.30+  Mn84  1  0.83451460  -0.00155194  0.00113691  1
  Mn3.30+  Mn85  1  0.83448695  -0.00126582  0.49953416  1
  Mn3.30+  Mn86  1  0.83430378  0.33527111  -0.00060535  1
  Mn3.30+  Mn87  1  0.83506625  0.33439863  0.49882283  1
  Mn3.30+  Mn88  1  0.83306414  0.66525386  0.00188246  1
  Mn3.30+  Mn89  1  0.83328010  0.66667351  0.49973101  1
  Mn3.30+  Mn90  1  0.00130212  0.16466287  0.25185546  1
  Mn3.30+  Mn91  1  0.00260267  0.16418886  0.75053060  1
  Mn3.30+  Mn92  1  -0.00187523  0.49905714  0.25148510  1
  Mn3.30+  Mn93  1  -0.00049592  0.50053877  0.75106854  1
  Mn3.30+  Mn94  1  -0.00191148  0.83372249  0.25009273  1
  Mn3.30+  Mn95  1  0.00055165  0.83453923  0.75095267  1
  Mn3.30+  Mn96  1  0.33054850  0.16542392  0.25255839  1
  Mn3.30+  Mn97  1  0.33025143  0.16729371  0.75055438  1
  Mn3.30+  Mn98  1  0.33300450  0.50097323  0.25067235  1
  Mn3.30+  Mn99  1  0.33260575  0.49954974  0.74905174  1
  Mn3.30+  Mn100  1  0.33309795  0.83527918  0.24931651  1
  Mn3.30+  Mn101  1  0.33120540  0.83386282  0.75209502  1
  Mn3.30+  Mn102  1  0.66622986  0.16623839  0.24968601  1
  Mn3.30+  Mn103  1  0.66691427  0.16733596  0.75020553  1
  Mn3.30+  Mn104  1  0.67135002  0.50200182  0.24895404  1
  Mn3.30+  Mn105  1  0.66949577  0.50004074  0.75102796  1
  Mn3.30+  Mn106  1  0.66891933  0.83276913  0.24684024  1
  Mn3.30+  Mn107  1  0.66896905  0.83404327  0.74954475  1
  Mn3.30+  Mn108  1  0.16471954  -0.00011535  0.25226310  1
  Mn3.30+  Mn109  1  0.16420789  0.00057018  0.75239230  1
  Mn3.30+  Mn110  1  0.16591461  0.33391742  0.25071326  1
  Mn3.30+  Mn111  1  0.16781757  0.33141363  0.75050676  1
  Mn3.30+  Mn112  1  0.16575777  0.66634316  0.25056478  1
  Mn3.30+  Mn113  1  0.16527469  0.66739518  0.75060007  1
  Mn3.30+  Mn114  1  0.49948361  -0.00012036  0.24968506  1
  Mn3.30+  Mn115  1  0.49985118  0.00139241  0.75031681  1
  Mn3.30+  Mn116  1  0.50014980  0.33396916  0.25056485  1
  Mn3.30+  Mn117  1  0.49762462  0.33358045  0.74829375  1
  Mn3.30+  Mn118  1  0.50238319  0.66769112  0.24935067  1
  Mn3.30+  Mn119  1  0.50163701  0.66738912  0.75072458  1
  Mn3.30+  Mn120  1  0.83349001  -0.00147877  0.24874824  1
  Mn3.30+  Mn121  1  0.83563055  -0.00141104  0.75069947  1
  Mn3.30+  Mn122  1  0.83523083  0.33581281  0.25082558  1
  Mn3.30+  Mn123  1  0.83449265  0.33393443  0.75071753  1
  Mn3.30+  Mn124  1  0.83237617  0.66497575  0.24839720  1
  Mn3.30+  Mn125  1  0.83402862  0.66701832  0.75041971  1
  Mn3.30+  Mn126  1  0.00059630  0.16492758  -0.00146955  1
  Mn3.30+  Mn127  1  0.00337613  0.16406700  0.49883610  1
  Mn3.30+  Mn128  1  -0.00314767  0.49988742  -0.00010027  1
  Mn3.30+  Mn129  1  0.00066754  0.49963216  0.49831634  1
  Mn3.30+  Mn130  1  -0.00025308  0.83380618  -0.00032592  1
  Mn3.30+  Mn131  1  -0.00145497  0.83434457  0.49960399  1
  Mn3.30+  Mn132  1  0.33043338  0.16722414  -0.00167638  1
  Mn3.30+  Mn133  1  0.33003973  0.16529973  0.49774958  1
  Mn3.30+  Mn134  1  0.33418605  0.50140656  0.00148810  1
  Mn3.30+  Mn135  1  0.33096950  0.49891144  0.49843717  1
  Mn3.30+  Mn136  1  0.33262339  0.83457221  -0.00157985  1
  Mn3.30+  Mn137  1  0.33166563  0.83442114  0.50001665  1
  Mn3.30+  Mn138  1  0.66690385  0.16652709  0.00040624  1
  Mn3.30+  Mn139  1  0.66612360  0.16708521  0.49961881  1
  Mn3.30+  Mn140  1  0.67176648  0.50070509  0.00130753  1
  Mn3.30+  Mn141  1  0.66907371  0.50087672  0.49823836  1
  Mn3.30+  Mn142  1  0.66877271  0.83317874  0.00337932  1
  Mn3.30+  Mn143  1  0.66910355  0.83396712  0.50066930  1
  O2-  O144  1  0.02347940  0.15938419  0.12635556  1
  O2-  O145  1  0.02840583  0.15864739  0.62390716  1
  O2-  O146  1  0.02270573  0.50081424  0.12712669  1
  O2-  O147  1  0.02662323  0.49531400  0.62347643  1
  O2-  O148  1  0.02425662  0.82973310  0.12629976  1
  O2-  O149  1  0.02627326  0.83128428  0.62497199  1
  O2-  O150  1  0.35775217  0.16070538  0.12710990  1
  O2-  O151  1  0.35429461  0.16095636  0.62132361  1
  O2-  O152  1  0.36218169  0.49665570  0.12667359  1
  O2-  O153  1  0.35661094  0.49489395  0.62252890  1
  O2-  O154  1  0.36082435  0.82956469  0.12278760  1
  O2-  O155  1  0.35598660  0.83231354  0.62828563  1
  O2-  O156  1  0.69103656  0.16120401  0.12572521  1
  O2-  O157  1  0.69276233  0.16048286  0.62386516  1
  O2-  O158  1  0.69508390  0.49188501  0.12542436  1
  O2-  O159  1  0.69157996  0.49596628  0.62419077  1
  O2-  O160  1  0.69394859  0.82366466  0.12441563  1
  O2-  O161  1  0.69495750  0.82913823  0.62432132  1
  O2-  O162  1  0.14511390  0.32828367  0.12585483  1
  O2-  O163  1  0.14161593  0.32654991  0.62416562  1
  O2-  O164  1  0.14035521  0.66029026  0.12735640  1
  O2-  O165  1  0.14135897  0.66019205  0.62416343  1
  O2-  O166  1  0.14066581  0.99431121  0.12473237  1
  O2-  O167  1  0.14212994  0.99407107  0.62524136  1
  O2-  O168  1  0.47391371  0.32853321  0.12708207  1
  O2-  O169  1  0.47079863  0.32839924  0.62329401  1
  O2-  O170  1  0.47494440  0.66300023  0.12409302  1
  O2-  O171  1  0.48170679  0.66139855  0.62523513  1
  O2-  O172  1  0.47261116  0.99643872  0.12497391  1
  O2-  O173  1  0.47967801  0.99465955  0.62560823  1
  O2-  O174  1  0.81078986  0.32503489  0.12652113  1
  O2-  O175  1  0.81012091  0.32666732  0.62409079  1
  O2-  O176  1  0.80930522  0.65493630  0.12533650  1
  O2-  O177  1  0.80693537  0.65834091  0.62515293  1
  O2-  O178  1  0.80767420  0.99440177  0.12585261  1
  O2-  O179  1  0.80753438  0.99417370  0.62503122  1
  O2-  O180  1  0.30326724  0.17626451  0.37462290  1
  O2-  O181  1  0.30549723  0.16909634  0.87729852  1
  O2-  O182  1  0.30575206  0.50758971  0.37306040  1
  O2-  O183  1  0.30920387  0.50754388  0.87713241  1
  O2-  O184  1  0.30953927  0.83914049  0.37198946  1
  O2-  O185  1  0.30538455  0.83994457  0.87704207  1
  O2-  O186  1  0.63977740  0.17376952  0.37528596  1
  O2-  O187  1  0.64168526  0.16746687  0.87516106  1
  O2-  O188  1  0.64205981  0.49800891  0.37452399  1
  O2-  O189  1  0.64092314  0.50461812  0.87554795  1
  O2-  O190  1  0.64197934  0.83960128  0.37447511  1
  O2-  O191  1  0.64257219  0.83998754  0.87699392  1
  O2-  O192  1  0.97463632  0.17275472  0.37591795  1
  O2-  O193  1  0.97421098  0.17378100  0.87363761  1
  O2-  O194  1  0.97237800  0.50433311  0.37656763  1
  O2-  O195  1  0.97577277  0.49991619  0.87304067  1
  O2-  O196  1  0.97479343  0.83789354  0.37399979  1
  O2-  O197  1  0.97564649  0.83730463  0.87479273  1
  O2-  O198  1  0.19270730  0.00083814  0.37287314  1
  O2-  O199  1  0.19072201  0.00934612  0.87687984  1
  O2-  O200  1  0.19075751  0.34300764  0.37344813  1
  O2-  O201  1  0.18512857  0.34178198  0.87675906  1
  O2-  O202  1  0.19264145  0.67705505  0.37281997  1
  O2-  O203  1  0.18930495  0.67040482  0.87655718  1
  O2-  O204  1  0.52595177  0.00216653  0.37457004  1
  O2-  O205  1  0.52687968  0.00767412  0.87519129  1
  O2-  O206  1  0.52639551  0.33977729  0.37507867  1
  O2-  O207  1  0.51898188  0.33736458  0.87374664  1
  O2-  O208  1  0.51953640  0.67277036  0.37524070  1
  O2-  O209  1  0.52953095  0.67286797  0.87556171  1
  O2-  O210  1  0.85888172  0.00626329  0.37411721  1
  O2-  O211  1  0.86131067  0.00678339  0.87502645  1
  O2-  O212  1  0.85935249  0.33984954  0.37626003  1
  O2-  O213  1  0.85922497  0.33775645  0.87265298  1
  O2-  O214  1  0.85926495  0.67527215  0.37557909  1
  O2-  O215  1  0.85252134  0.67602110  0.87473434  1
  O2-  O216  1  0.23785298  0.09370177  0.02398433  1
  O2-  O217  1  0.23318575  0.09578345  0.51565030  1
  O2-  O218  1  0.23996540  0.42904163  0.02191509  1
  O2-  O219  1  0.23791103  0.42721282  0.51938027  1
  O2-  O220  1  0.24106475  0.75931239  0.02318027  1
  O2-  O221  1  0.23601974  0.76232700  0.51698362  1
  O2-  O222  1  0.56981453  0.09577244  0.01956199  1
  O2-  O223  1  0.56977331  0.09441408  0.51935819  1
  O2-  O224  1  0.57439833  0.42977393  0.02015009  1
  O2-  O225  1  0.57129499  0.42833630  0.52192257  1
  O2-  O226  1  0.56966333  0.76501492  0.01763685  1
  O2-  O227  1  0.57440972  0.76359943  0.52097899  1
  O2-  O228  1  0.90439256  0.09432605  0.02192699  1
  O2-  O229  1  0.90450753  0.09447928  0.52108994  1
  O2-  O230  1  0.90309305  0.42999876  0.01768954  1
  O2-  O231  1  0.90760214  0.42686565  0.52348289  1
  O2-  O232  1  0.90269932  0.76050595  0.02151930  1
  O2-  O233  1  0.90524571  0.76248472  0.52233954  1
  O2-  O234  1  0.26296781  0.26173441  0.22949279  1
  O2-  O235  1  0.26100004  0.26217894  0.72692804  1
  O2-  O236  1  0.26290198  0.59551462  0.22823688  1
  O2-  O237  1  0.25917697  0.59241664  0.73360879  1
  O2-  O238  1  0.26028895  0.92646928  0.22596403  1
  O2-  O239  1  0.25833805  0.92858510  0.73522534  1
  O2-  O240  1  0.59441034  0.26166914  0.22894981  1
  O2-  O241  1  0.59069328  0.26122746  0.72572024  1
  O2-  O242  1  0.59721528  0.59272064  0.22721907  1
  O2-  O243  1  0.59761190  0.59361877  0.73079080  1
  O2-  O244  1  0.59797052  0.92864619  0.22736647  1
  O2-  O245  1  0.59640747  0.92717012  0.73040115  1
  O2-  O246  1  0.92532525  0.25803429  0.23510450  1
  O2-  O247  1  0.93121320  0.25888157  0.72860063  1
  O2-  O248  1  0.93231245  0.59863490  0.23546047  1
  O2-  O249  1  0.92764672  0.59390103  0.72604634  1
  O2-  O250  1  0.92742861  0.92707743  0.23050266  1
  O2-  O251  1  0.92852110  0.92785534  0.73010295  1
  O2-  O252  1  0.09488804  0.23504756  0.27121352  1
  O2-  O253  1  0.09611250  0.23677281  0.77064603  1
  O2-  O254  1  0.09516254  0.56941011  0.27262813  1
  O2-  O255  1  0.09629270  0.56926469  0.76696491  1
  O2-  O256  1  0.09665327  0.90282606  0.26687237  1
  O2-  O257  1  0.09682414  0.90304096  0.76952496  1
  O2-  O258  1  0.42668480  0.23782432  0.27164750  1
  O2-  O259  1  0.42942539  0.23671901  0.76581822  1
  O2-  O260  1  0.42772155  0.57212687  0.27036636  1
  O2-  O261  1  0.42882602  0.57485567  0.77062624  1
  O2-  O262  1  0.43102045  0.90362825  0.26682329  1
  O2-  O263  1  0.42846206  0.90790216  0.77226456  1
  O2-  O264  1  0.76146143  0.24021375  0.27150173  1
  O2-  O265  1  0.76415186  0.23627676  0.76666626  1
  O2-  O266  1  0.76502117  0.56904213  0.27128886  1
  O2-  O267  1  0.76343168  0.57091931  0.77176648  1
  O2-  O268  1  0.76080494  0.90683989  0.27279152  1
  O2-  O269  1  0.76223064  0.90711006  0.77404703  1
  O2-  O270  1  0.06797863  0.06685683  0.47936045  1
  O2-  O271  1  0.06760760  0.06725883  0.98221452  1
  O2-  O272  1  0.07078459  0.40112925  0.48291357  1
  O2-  O273  1  0.07169428  0.40681189  0.98106150  1
  O2-  O274  1  0.06996448  0.73881702  0.48026442  1
  O2-  O275  1  0.07258060  0.73918947  0.98755275  1
  O2-  O276  1  0.40342303  0.07389448  0.47456699  1
  O2-  O277  1  0.40303863  0.07350621  0.97949126  1
  O2-  O278  1  0.40561419  0.40847609  0.47477998  1
  O2-  O279  1  0.40830470  0.40922507  0.98350195  1
  O2-  O280  1  0.40579665  0.74215318  0.47958954  1
  O2-  O281  1  0.40484517  0.74074960  0.97762949  1
  O2-  O282  1  0.73741452  0.07281237  0.47894375  1
  O2-  O283  1  0.74170058  0.07215181  0.97888726  1
  O2-  O284  1  0.73490891  0.40353629  0.48433374  1
  O2-  O285  1  0.73842770  0.40400841  0.98496909  1
  O2-  O286  1  0.74055122  0.73981737  0.48190929  1
  O2-  O287  1  0.73885384  0.73906929  0.97947967  1
  O2-  O288  1  0.09776452  0.23651885  0.47738666  1
  O2-  O289  1  0.09374620  0.23500389  0.98046314  1
  O2-  O290  1  0.09476203  0.57085089  0.47707964  1
  O2-  O291  1  0.09647240  0.56814642  0.98458960  1
  O2-  O292  1  0.09471782  0.90370152  0.48157916  1
  O2-  O293  1  0.09920784  0.90318453  0.98165311  1
  O2-  O294  1  0.42765756  0.23818591  0.47741821  1
  O2-  O295  1  0.42737565  0.23600636  0.98476775  1
  O2-  O296  1  0.42580990  0.57164075  0.47955927  1
  O2-  O297  1  0.43035207  0.57501656  0.97910132  1
  O2-  O298  1  0.42990736  0.90460566  0.48335478  1
  O2-  O299  1  0.42948304  0.90764500  0.97809505  1
  O2-  O300  1  0.76277006  0.23920202  0.47844088  1
  O2-  O301  1  0.76308808  0.23741969  0.98373377  1
  O2-  O302  1  0.76590294  0.56778088  0.48210202  1
  O2-  O303  1  0.76275607  0.57128136  0.97499722  1
  O2-  O304  1  0.76010082  0.90732439  0.47577331  1
  O2-  O305  1  0.76143793  0.90633830  0.97738029  1
  O2-  O306  1  0.06823590  0.06705977  0.26940794  1
  O2-  O307  1  0.06696310  0.06698993  0.76896982  1
  O2-  O308  1  0.07017015  0.40581882  0.26969962  1
  O2-  O309  1  0.07191050  0.40328100  0.76724461  1
  O2-  O310  1  0.07069866  0.73899149  0.27053108  1
  O2-  O311  1  0.07093094  0.73865517  0.76306572  1
  O2-  O312  1  0.40086713  0.07148404  0.27312972  1
  O2-  O313  1  0.40596887  0.07556323  0.77277793  1
  O2-  O314  1  0.40530930  0.40645928  0.27244096  1
  O2-  O315  1  0.40922957  0.41104962  0.76801727  1
  O2-  O316  1  0.40265345  0.74035013  0.26852647  1
  O2-  O317  1  0.40780219  0.74203156  0.77477104  1
  O2-  O318  1  0.73972997  0.07390965  0.27206009  1
  O2-  O319  1  0.74083631  0.07010645  0.76993643  1
  O2-  O320  1  0.73593963  0.40187393  0.26710519  1
  O2-  O321  1  0.73825902  0.40679473  0.76261902  1
  O2-  O322  1  0.74238595  0.74105033  0.26900703  1
  O2-  O323  1  0.73661815  0.73850195  0.76895686  1
  O2-  O324  1  0.23625077  0.09381365  0.22766776  1
  O2-  O325  1  0.23431055  0.09547243  0.73301029  1
  O2-  O326  1  0.24255320  0.42846298  0.22611485  1
  O2-  O327  1  0.23593899  0.42804922  0.73234047  1
  O2-  O328  1  0.23985931  0.76254340  0.22688628  1
  O2-  O329  1  0.23693457  0.75957413  0.73346720  1
  O2-  O330  1  0.56734222  0.09598242  0.23353347  1
  O2-  O331  1  0.57233854  0.09467792  0.72820049  1
  O2-  O332  1  0.57343280  0.42968268  0.22873520  1
  O2-  O333  1  0.57229966  0.42801264  0.72872128  1
  O2-  O334  1  0.57094700  0.76502168  0.23275742  1
  O2-  O335  1  0.57226319  0.76240756  0.72907274  1
  O2-  O336  1  0.90405636  0.09376775  0.22957245  1
  O2-  O337  1  0.90471835  0.09471988  0.72743987  1
  O2-  O338  1  0.90247591  0.43047508  0.23203480  1
  O2-  O339  1  0.90870225  0.42632102  0.72593546  1
  O2-  O340  1  0.90444664  0.76117534  0.22790495  1
  O2-  O341  1  0.90452834  0.76231582  0.72833011  1
  O2-  O342  1  0.26069363  0.25995914  0.02379386  1
  O2-  O343  1  0.26350663  0.26385500  0.51980414  1
  O2-  O344  1  0.26223984  0.59516620  0.02128731  1
  O2-  O345  1  0.25990300  0.59245660  0.51693541  1
  O2-  O346  1  0.26210406  0.92973399  0.02039285  1
  O2-  O347  1  0.25625608  0.92440160  0.51736395  1
  O2-  O348  1  0.59171176  0.26085517  0.02235616  1
  O2-  O349  1  0.59440616  0.26067522  0.52197091  1
  O2-  O350  1  0.59944055  0.59538056  0.02231858  1
  O2-  O351  1  0.59495298  0.59202127  0.51999722  1
  O2-  O352  1  0.59756809  0.92837665  0.02249550  1
  O2-  O353  1  0.59668438  0.92743148  0.52031852  1
  O2-  O354  1  0.92598982  0.25853047  0.01567270  1
  O2-  O355  1  0.93118268  0.25880579  0.52026972  1
  O2-  O356  1  0.92891336  0.59595421  0.01860609  1
  O2-  O357  1  0.92906111  0.59689604  0.52086711  1
  O2-  O358  1  0.92748489  0.92763812  0.01970438  1
  O2-  O359  1  0.92829750  0.92682746  0.51956232  1
