# generated using pymatgen
data_Sr7Ca15Pr50Mn72O216
_symmetry_space_group_name_H-M   'P 1'
_cell_length_a   16.55896088
_cell_length_b   16.60558089
_cell_length_c   15.59428122
_cell_angle_alpha   89.99645458
_cell_angle_beta   89.99996323
_cell_angle_gamma   89.99111847
_symmetry_Int_Tables_number   1
_chemical_formula_structural   Sr7Ca15Pr50Mn72O216
_chemical_formula_sum   'Sr7 Ca15 Pr50 Mn72 O216'
_cell_volume   4287.97760383
_cell_formula_units_Z   1
loop_
 _symmetry_equiv_pos_site_id
 _symmetry_equiv_pos_as_xyz
  1  'x, y, z'
loop_
 _atom_type_symbol
 _atom_type_oxidation_number
  Sr2+  2.0
  Ca2+  2.0
  Pr3+  3.0
  Mn3.30+  3.3
  O2-  -2.0
loop_
 _atom_site_type_symbol
 _atom_site_label
 _atom_site_symmetry_multiplicity
 _atom_site_fract_x
 _atom_site_fract_y
 _atom_site_fract_z
 _atom_site_occupancy
  Sr2+  Sr0  1  0.16265436  0.50939919  0.62430170  1
  Sr2+  Sr1  1  0.33418128  0.00902790  0.12579889  1
  Sr2+  Sr2  1  0.66863992  0.67554195  0.62460166  1
  Sr2+  Sr3  1  -0.00342737  0.67661323  0.62442988  1
  Sr2+  Sr4  1  0.50461071  0.84548760  0.12606815  1
  Sr2+  Sr5  1  0.82988689  0.82537201  0.37697971  1
  Sr2+  Sr6  1  0.67127429  0.32500714  0.37328809  1
  Ca2+  Ca7  1  0.33801132  0.31978630  0.37451652  1
  Ca2+  Ca8  1  -0.00402674  0.35045739  0.62455043  1
  Ca2+  Ca9  1  0.16690819  0.51318648  0.12643323  1
  Ca2+  Ca10  1  0.83891082  0.84930924  0.62346401  1
  Ca2+  Ca11  1  0.83538100  0.18163298  0.12489759  1
  Ca2+  Ca12  1  -0.00259420  0.68062827  0.12645267  1
  Ca2+  Ca13  1  0.83055008  0.15139594  0.87667063  1
  Ca2+  Ca14  1  0.67154809  0.98380364  0.37319569  1
  Ca2+  Ca15  1  -0.00296292  0.34770503  0.12560534  1
  Ca2+  Ca16  1  0.83329000  0.48698066  0.87503515  1
  Ca2+  Ca17  1  -0.00680940  0.01275506  0.62443388  1
  Ca2+  Ca18  1  0.66360622  0.68244057  0.12706630  1
  Ca2+  Ca19  1  0.83129042  0.48537361  0.37404580  1
  Ca2+  Ca20  1  0.66272294  0.01180054  0.12761232  1
  Ca2+  Ca21  1  0.33613407  0.65202999  0.37380711  1
  Pr3+  Pr22  1  0.50109911  0.15508148  0.37499130  1
  Pr3+  Pr23  1  0.49951280  0.15297910  0.87464695  1
  Pr3+  Pr24  1  0.50376900  0.17381094  0.12506321  1
  Pr3+  Pr25  1  0.32951130  0.34778787  0.62278205  1
  Pr3+  Pr26  1  0.99986149  0.32171534  0.87559948  1
  Pr3+  Pr27  1  0.16244653  0.81917236  0.37287948  1
  Pr3+  Pr28  1  0.67524790  0.31789418  0.87598555  1
  Pr3+  Pr29  1  0.16642548  0.48857710  0.37454134  1
  Pr3+  Pr30  1  0.50005519  0.81954886  0.37385069  1
  Pr3+  Pr31  1  0.83905945  0.51119837  0.62239896  1
  Pr3+  Pr32  1  0.32898135  0.34675433  0.12699758  1
  Pr3+  Pr33  1  0.99951855  0.98802596  0.87476325  1
  Pr3+  Pr34  1  0.50441788  0.51338025  0.62380600  1
  Pr3+  Pr35  1  0.83778795  0.51313240  0.12704885  1
  Pr3+  Pr36  1  0.67003762  0.00858317  0.62188594  1
  Pr3+  Pr37  1  0.33083054  0.67892167  0.12750069  1
  Pr3+  Pr38  1  -0.00630482  0.01461502  0.12623652  1
  Pr3+  Pr39  1  0.33620341  0.98844246  0.37378514  1
  Pr3+  Pr40  1  0.84073126  0.18166992  0.62623426  1
  Pr3+  Pr41  1  0.16862379  0.84640955  0.12571491  1
  Pr3+  Pr42  1  0.83043018  0.82060953  0.87417905  1
  Pr3+  Pr43  1  0.50361697  0.84317082  0.62392831  1
  Pr3+  Pr44  1  0.67072731  0.98664011  0.87547171  1
  Pr3+  Pr45  1  0.16597682  0.84324728  0.62414810  1
  Pr3+  Pr46  1  0.16939533  0.17866950  0.12543117  1
  Pr3+  Pr47  1  0.49589605  0.48560532  0.37402914  1
  Pr3+  Pr48  1  0.16230532  0.15379324  0.87552564  1
  Pr3+  Pr49  1  0.33641566  0.98675217  0.87581632  1
  Pr3+  Pr50  1  1.00100449  0.65271584  0.87707278  1
  Pr3+  Pr51  1  0.66672674  0.34404705  0.12631153  1
  Pr3+  Pr52  1  0.16192484  0.48766572  0.87577126  1
  Pr3+  Pr53  1  0.82656496  0.15350681  0.37357827  1
  Pr3+  Pr54  1  0.50672298  0.51565482  0.12607719  1
  Pr3+  Pr55  1  0.49827375  0.48727391  0.87566788  1
  Pr3+  Pr56  1  0.83143417  0.84503853  0.12636497  1
  Pr3+  Pr57  1  0.99932917  0.65384091  0.37324587  1
  Pr3+  Pr58  1  0.49886635  0.82018068  0.87589737  1
  Pr3+  Pr59  1  0.50441320  0.17958825  0.62478116  1
  Pr3+  Pr60  1  0.16402159  0.15564029  0.37493639  1
  Pr3+  Pr61  1  0.32869755  0.01277148  0.62413500  1
  Pr3+  Pr62  1  0.16329714  0.17990978  0.62469417  1
  Pr3+  Pr63  1  0.67186320  0.65156075  0.87716256  1
  Pr3+  Pr64  1  0.66667539  0.34678476  0.62374060  1
  Pr3+  Pr65  1  0.99959855  0.32399624  0.37451033  1
  Pr3+  Pr66  1  0.32728409  0.67662180  0.62285490  1
  Pr3+  Pr67  1  0.67393305  0.65386882  0.37292428  1
  Pr3+  Pr68  1  1.00035123  0.98655594  0.37561053  1
  Pr3+  Pr69  1  0.33494598  0.65304434  0.87668655  1
  Pr3+  Pr70  1  0.33415637  0.32156630  0.87452459  1
  Pr3+  Pr71  1  0.16239418  0.81972822  0.87700768  1
  Mn3.30+  Mn72  1  0.16564259  0.00070078  -0.00001917  1
  Mn3.30+  Mn73  1  0.16386749  -0.00044162  0.50132270  1
  Mn3.30+  Mn74  1  0.16429848  0.33457203  0.00288153  1
  Mn3.30+  Mn75  1  0.16677071  0.33420127  0.49881783  1
  Mn3.30+  Mn76  1  0.16478568  0.66465712  0.00394067  1
  Mn3.30+  Mn77  1  0.16660557  0.66567936  0.49802660  1
  Mn3.30+  Mn78  1  0.50298811  -0.00035180  0.00134852  1
  Mn3.30+  Mn79  1  0.50154078  -0.00082687  0.49909589  1
  Mn3.30+  Mn80  1  0.50112196  0.33234647  0.00048525  1
  Mn3.30+  Mn81  1  0.49986505  0.33265038  0.49859876  1
  Mn3.30+  Mn82  1  0.50248675  0.66732706  0.00114966  1
  Mn3.30+  Mn83  1  0.49952779  0.66560231  0.49829476  1
  Mn3.30+  Mn84  1  0.83112975  0.00259058  0.00241574  1
  Mn3.30+  Mn85  1  0.83372854  -0.00025064  0.49970278  1
  Mn3.30+  Mn86  1  0.83570582  0.33294770  0.00117612  1
  Mn3.30+  Mn87  1  0.83445791  0.33386202  0.49900169  1
  Mn3.30+  Mn88  1  0.83345879  0.66578096  0.00268283  1
  Mn3.30+  Mn89  1  0.83396444  0.66821289  0.49925900  1
  Mn3.30+  Mn90  1  -0.00286339  0.16959950  0.24881541  1
  Mn3.30+  Mn91  1  -0.00244920  0.16666638  0.75114203  1
  Mn3.30+  Mn92  1  0.00046307  0.49988591  0.24781420  1
  Mn3.30+  Mn93  1  -0.00271723  0.49973008  0.75090206  1
  Mn3.30+  Mn94  1  -0.00212792  0.83195773  0.24905676  1
  Mn3.30+  Mn95  1  -0.00286260  0.83361595  0.74842880  1
  Mn3.30+  Mn96  1  0.33404603  0.16728207  0.25084655  1
  Mn3.30+  Mn97  1  0.33236896  0.16685691  0.74901270  1
  Mn3.30+  Mn98  1  0.33273899  0.50010490  0.24949637  1
  Mn3.30+  Mn99  1  0.33251858  0.50017487  0.74990595  1
  Mn3.30+  Mn100  1  0.33353783  0.83261132  0.25060973  1
  Mn3.30+  Mn101  1  0.33297696  0.83241177  0.74959052  1
  Mn3.30+  Mn102  1  0.66882283  0.16534329  0.24883487  1
  Mn3.30+  Mn103  1  0.67054046  0.16507183  0.74959673  1
  Mn3.30+  Mn104  1  0.66956961  0.50045031  0.24966486  1
  Mn3.30+  Mn105  1  0.66899014  0.49942792  0.75129439  1
  Mn3.30+  Mn106  1  0.66655308  0.83398504  0.25060605  1
  Mn3.30+  Mn107  1  0.66870444  0.83213845  0.74710258  1
  Mn3.30+  Mn108  1  0.16599867  0.00086506  0.25043398  1
  Mn3.30+  Mn109  1  0.16358271  -0.00047544  0.74828513  1
  Mn3.30+  Mn110  1  0.16665993  0.33453060  0.25032728  1
  Mn3.30+  Mn111  1  0.16457151  0.33406320  0.74840001  1
  Mn3.30+  Mn112  1  0.16615830  0.66428546  0.24893651  1
  Mn3.30+  Mn113  1  0.16508739  0.66618762  0.74941471  1
  Mn3.30+  Mn114  1  0.50415991  -0.00044004  0.25126950  1
  Mn3.30+  Mn115  1  0.50041705  -0.00080593  0.74794450  1
  Mn3.30+  Mn116  1  0.49879668  0.33191691  0.24974124  1
  Mn3.30+  Mn117  1  0.50188007  0.33328657  0.75040061  1
  Mn3.30+  Mn118  1  0.50139669  0.66686077  0.25108555  1
  Mn3.30+  Mn119  1  0.50037124  0.66616129  0.74969209  1
  Mn3.30+  Mn120  1  0.82887198  0.00111372  0.24803108  1
  Mn3.30+  Mn121  1  0.83536009  0.00059307  0.75050426  1
  Mn3.30+  Mn122  1  0.83510242  0.33308198  0.24754475  1
  Mn3.30+  Mn123  1  0.83527158  0.33389939  0.75192124  1
  Mn3.30+  Mn124  1  0.83339134  0.66737397  0.24843373  1
  Mn3.30+  Mn125  1  0.83396607  0.66650198  0.74995573  1
  Mn3.30+  Mn126  1  -0.00356806  0.16903707  0.00131883  1
  Mn3.30+  Mn127  1  -0.00192582  0.16728321  0.49944531  1
  Mn3.30+  Mn128  1  -0.00061462  0.49959282  0.00380327  1
  Mn3.30+  Mn129  1  -0.00168517  0.49984338  0.49728255  1
  Mn3.30+  Mn130  1  -0.00206905  0.83268374  0.00224228  1
  Mn3.30+  Mn131  1  -0.00274352  0.83286994  0.50072845  1
  Mn3.30+  Mn132  1  0.33340328  0.16654934  0.00003511  1
  Mn3.30+  Mn133  1  0.33314135  0.16780387  0.49983410  1
  Mn3.30+  Mn134  1  0.33173690  0.49954608  0.00223369  1
  Mn3.30+  Mn135  1  0.33323932  0.50038864  0.49782810  1
  Mn3.30+  Mn136  1  0.33295710  0.83334837  0.00180356  1
  Mn3.30+  Mn137  1  0.33370870  0.83170658  0.49788129  1
  Mn3.30+  Mn138  1  0.67081803  0.16474765  0.00174310  1
  Mn3.30+  Mn139  1  0.66872242  0.16615617  0.49954683  1
  Mn3.30+  Mn140  1  0.66977861  0.49968758  0.00083607  1
  Mn3.30+  Mn141  1  0.66882019  0.50030024  0.49828512  1
  Mn3.30+  Mn142  1  0.66591334  0.83296986  0.00076844  1
  Mn3.30+  Mn143  1  0.66925576  0.83282687  0.50142215  1
  O2-  O144  1  0.02694249  0.15993806  0.12469551  1
  O2-  O145  1  0.02135220  0.15681477  0.62388727  1
  O2-  O146  1  0.02757606  0.49035864  0.12602645  1
  O2-  O147  1  0.01341580  0.49562171  0.62286726  1
  O2-  O148  1  0.02505283  0.82981597  0.12509503  1
  O2-  O149  1  0.02421502  0.82982947  0.62484304  1
  O2-  O150  1  0.35793272  0.16532463  0.12299903  1
  O2-  O151  1  0.35988413  0.16032803  0.62440101  1
  O2-  O152  1  0.36200638  0.49386663  0.12470863  1
  O2-  O153  1  0.36028610  0.49587487  0.62350207  1
  O2-  O154  1  0.35362595  0.82711759  0.12605855  1
  O2-  O155  1  0.35943987  0.82450647  0.62216840  1
  O2-  O156  1  0.69276410  0.15674618  0.12367444  1
  O2-  O157  1  0.69541639  0.15834397  0.62535451  1
  O2-  O158  1  0.69266080  0.49240722  0.12333113  1
  O2-  O159  1  0.69224780  0.49545797  0.62421397  1
  O2-  O160  1  0.68805912  0.82543988  0.12443195  1
  O2-  O161  1  0.69423954  0.83057123  0.62669735  1
  O2-  O162  1  0.13919259  0.32361516  0.12575446  1
  O2-  O163  1  0.13906944  0.32806481  0.62449705  1
  O2-  O164  1  0.13931416  0.65848316  0.12532940  1
  O2-  O165  1  0.14870296  0.66824279  0.62357800  1
  O2-  O166  1  0.13972673  0.99678215  0.12683758  1
  O2-  O167  1  0.13682852  0.99226563  0.62574737  1
  O2-  O168  1  0.47330270  0.32458477  0.12467377  1
  O2-  O169  1  0.47432674  0.32838831  0.62557231  1
  O2-  O170  1  0.47550174  0.66273645  0.12539570  1
  O2-  O171  1  0.47201210  0.66136275  0.62314880  1
  O2-  O172  1  0.48287524  1.00515921  0.12517900  1
  O2-  O173  1  0.47186123  0.99270842  0.62329499  1
  O2-  O174  1  0.80952920  0.32666782  0.12339896  1
  O2-  O175  1  0.81016579  0.32909180  0.62743511  1
  O2-  O176  1  0.80438259  0.65939491  0.12400615  1
  O2-  O177  1  0.81601180  0.65587290  0.62574876  1
  O2-  O178  1  0.80406411  0.99197536  0.12431835  1
  O2-  O179  1  0.81354330  0.99802005  0.62550814  1
  O2-  O180  1  0.30795134  0.17236444  0.37782381  1
  O2-  O181  1  0.30679803  0.17282034  0.87423515  1
  O2-  O182  1  0.31007409  0.50806554  0.37290183  1
  O2-  O183  1  0.30677674  0.50492825  0.87819315  1
  O2-  O184  1  0.30682012  0.84162980  0.37503445  1
  O2-  O185  1  0.30737586  0.83846873  0.87654349  1
  O2-  O186  1  0.64449164  0.17367032  0.37662420  1
  O2-  O187  1  0.64277614  0.17124963  0.87371616  1
  O2-  O188  1  0.64122568  0.50443223  0.37435898  1
  O2-  O189  1  0.64126014  0.50305793  0.87805692  1
  O2-  O190  1  0.64452556  0.83788464  0.37716450  1
  O2-  O191  1  0.64273320  0.83929619  0.87192529  1
  O2-  O192  1  0.97180365  0.17521041  0.37380663  1
  O2-  O193  1  0.97250976  0.17416560  0.87842967  1
  O2-  O194  1  0.97334269  0.50501101  0.37100542  1
  O2-  O195  1  0.97526810  0.50532694  0.88027882  1
  O2-  O196  1  0.98006921  0.83818456  0.37401718  1
  O2-  O197  1  0.97467815  0.83940070  0.87676092  1
  O2-  O198  1  0.19100498  0.00591697  0.37545371  1
  O2-  O199  1  0.19212183  0.00536599  0.87215468  1
  O2-  O200  1  0.19581378  0.33884460  0.37436612  1
  O2-  O201  1  0.19079560  0.33849852  0.87550337  1
  O2-  O202  1  0.19364746  0.67170320  0.37294591  1
  O2-  O203  1  0.19131978  0.67125181  0.87762494  1
  O2-  O204  1  0.52840896  0.00665867  0.37829600  1
  O2-  O205  1  0.52547671  0.00368908  0.87266322  1
  O2-  O206  1  0.52146497  0.33750505  0.37357608  1
  O2-  O207  1  0.52909509  0.33947151  0.87527196  1
  O2-  O208  1  0.52804662  0.66943381  0.37532151  1
  O2-  O209  1  0.52559120  0.67049685  0.87608399  1
  O2-  O210  1  0.85749406  0.00577703  0.37329093  1
  O2-  O211  1  0.85679912  0.00421944  0.87726518  1
  O2-  O212  1  0.85570031  0.33605623  0.37175684  1
  O2-  O213  1  0.85718895  0.34235741  0.87713824  1
  O2-  O214  1  0.85647590  0.67315311  0.37275523  1
  O2-  O215  1  0.85823220  0.67412115  0.87748352  1
  O2-  O216  1  0.23617671  0.09692813  0.01601415  1
  O2-  O217  1  0.23648068  0.09321381  0.52257348  1
  O2-  O218  1  0.23640289  0.42889859  0.02305546  1
  O2-  O219  1  0.24190829  0.42717187  0.51907440  1
  O2-  O220  1  0.23614864  0.75873808  0.02204506  1
  O2-  O221  1  0.23925364  0.76287474  0.51856262  1
  O2-  O222  1  0.57094085  0.09772953  0.01291884  1
  O2-  O223  1  0.57226829  0.09362803  0.52332919  1
  O2-  O224  1  0.57167011  0.42783664  0.02202645  1
  O2-  O225  1  0.57216248  0.42625743  0.52000933  1
  O2-  O226  1  0.57162799  0.76377729  0.01214933  1
  O2-  O227  1  0.56786613  0.76208122  0.51645148  1
  O2-  O228  1  0.90525050  0.09588639  0.02485163  1
  O2-  O229  1  0.90160495  0.09911517  0.51464109  1
  O2-  O230  1  0.90430265  0.42968298  0.02182621  1
  O2-  O231  1  0.90466078  0.42747324  0.51435269  1
  O2-  O232  1  0.90229674  0.76293938  0.01964060  1
  O2-  O233  1  0.90434322  0.76480020  0.51943438  1
  O2-  O234  1  0.25948486  0.26100560  0.22821493  1
  O2-  O235  1  0.26084055  0.26096658  0.72846402  1
  O2-  O236  1  0.26248134  0.59375659  0.22848713  1
  O2-  O237  1  0.26420542  0.59649946  0.73470562  1
  O2-  O238  1  0.25615860  0.92630946  0.23259618  1
  O2-  O239  1  0.26152748  0.92697977  0.72783098  1
  O2-  O240  1  0.59484840  0.25709790  0.22600664  1
  O2-  O241  1  0.59772914  0.25915418  0.72850157  1
  O2-  O242  1  0.59674551  0.59580777  0.22841891  1
  O2-  O243  1  0.59137778  0.59128013  0.73329504  1
  O2-  O244  1  0.59720557  0.93006662  0.23370291  1
  O2-  O245  1  0.59502246  0.92686120  0.72672704  1
  O2-  O246  1  0.93241007  0.26535054  0.23038809  1
  O2-  O247  1  0.93135037  0.26532382  0.72975725  1
  O2-  O248  1  0.92996913  0.59588560  0.22708502  1
  O2-  O249  1  0.92669473  0.59492191  0.73738540  1
  O2-  O250  1  0.92489208  0.92999149  0.22960822  1
  O2-  O251  1  0.93209251  0.93311626  0.73417788  1
  O2-  O252  1  0.09616443  0.24014007  0.27301779  1
  O2-  O253  1  0.09377389  0.23705628  0.76987249  1
  O2-  O254  1  0.09465100  0.57273442  0.27351630  1
  O2-  O255  1  0.09256683  0.57368249  0.77160846  1
  O2-  O256  1  0.09317932  0.90708676  0.26918751  1
  O2-  O257  1  0.09519130  0.90425208  0.77217790  1
  O2-  O258  1  0.42872126  0.23680592  0.26959504  1
  O2-  O259  1  0.43056983  0.24080619  0.77098538  1
  O2-  O260  1  0.43264813  0.56960317  0.26626393  1
  O2-  O261  1  0.42735168  0.57152892  0.77170217  1
  O2-  O262  1  0.42936829  0.90975672  0.27290200  1
  O2-  O263  1  0.42698848  0.90508995  0.77021585  1
  O2-  O264  1  0.76324627  0.23667141  0.26405953  1
  O2-  O265  1  0.76678107  0.23768803  0.77130869  1
  O2-  O266  1  0.76481509  0.57148451  0.27156278  1
  O2-  O267  1  0.76050671  0.57061928  0.77254411  1
  O2-  O268  1  0.76068158  0.90435116  0.26411333  1
  O2-  O269  1  0.76210829  0.90753779  0.77062963  1
  O2-  O270  1  0.07050320  0.07521145  0.47544751  1
  O2-  O271  1  0.07026244  0.07316424  0.97915560  1
  O2-  O272  1  0.07448359  0.40857885  0.47625368  1
  O2-  O273  1  0.07265167  0.40633444  0.97680062  1
  O2-  O274  1  0.07400208  0.73979072  0.47634177  1
  O2-  O275  1  0.07353626  0.73877200  0.97909393  1
  O2-  O276  1  0.40492160  0.07186048  0.47945171  1
  O2-  O277  1  0.40809576  0.07284578  0.97597670  1
  O2-  O278  1  0.40372555  0.40558342  0.47917530  1
  O2-  O279  1  0.40245237  0.40628538  0.97871588  1
  O2-  O280  1  0.40516532  0.73684297  0.47570958  1
  O2-  O281  1  0.40465135  0.73918501  0.97955324  1
  O2-  O282  1  0.73630087  0.07096513  0.47915056  1
  O2-  O283  1  0.73792842  0.07112693  0.97704862  1
  O2-  O284  1  0.73935560  0.40488174  0.48712427  1
  O2-  O285  1  0.73649813  0.40131055  0.98419100  1
  O2-  O286  1  0.73676598  0.73612327  0.48193475  1
  O2-  O287  1  0.73881093  0.73930555  0.97835044  1
  O2-  O288  1  0.09361798  0.23840112  0.47878034  1
  O2-  O289  1  0.09530115  0.23851117  0.97846678  1
  O2-  O290  1  0.09212665  0.57329138  0.47650407  1
  O2-  O291  1  0.09456561  0.57194556  0.97844100  1
  O2-  O292  1  0.09562771  0.90445879  0.47913830  1
  O2-  O293  1  0.09244451  0.90636100  0.98032612  1
  O2-  O294  1  0.43107497  0.23762201  0.48282409  1
  O2-  O295  1  0.42757800  0.23941278  0.97563833  1
  O2-  O296  1  0.43039396  0.56923006  0.48072057  1
  O2-  O297  1  0.42940742  0.57155061  0.98038775  1
  O2-  O298  1  0.42696380  0.90480071  0.47752018  1
  O2-  O299  1  0.42776019  0.90850290  0.97870202  1
  O2-  O300  1  0.76656415  0.23653759  0.48592596  1
  O2-  O301  1  0.76358077  0.23764615  0.97797101  1
  O2-  O302  1  0.76123146  0.57144069  0.47785600  1
  O2-  O303  1  0.76412877  0.56967927  0.97741795  1
  O2-  O304  1  0.75925739  0.90977113  0.48746022  1
  O2-  O305  1  0.76071178  0.90346473  0.97955844  1
  O2-  O306  1  0.07026519  0.07356224  0.27121478  1
  O2-  O307  1  0.07097330  0.07414175  0.77438252  1
  O2-  O308  1  0.07486596  0.40696234  0.27526061  1
  O2-  O309  1  0.07233298  0.40808951  0.77180430  1
  O2-  O310  1  0.07427747  0.73794596  0.27025130  1
  O2-  O311  1  0.07155889  0.74099577  0.77359471  1
  O2-  O312  1  0.40827941  0.07353135  0.27337404  1
  O2-  O313  1  0.40387165  0.07206352  0.76998377  1
  O2-  O314  1  0.40171618  0.40499253  0.26957660  1
  O2-  O315  1  0.40584558  0.40663901  0.77180845  1
  O2-  O316  1  0.40585780  0.73649001  0.27246439  1
  O2-  O317  1  0.40483484  0.73840937  0.77197435  1
  O2-  O318  1  0.73731615  0.07147321  0.27458105  1
  O2-  O319  1  0.73661483  0.06859764  0.76696886  1
  O2-  O320  1  0.74082712  0.40522539  0.26151095  1
  O2-  O321  1  0.73631303  0.40072277  0.76697832  1
  O2-  O322  1  0.73663547  0.73762048  0.26560931  1
  O2-  O323  1  0.73913575  0.73715206  0.77302620  1
  O2-  O324  1  0.23726558  0.09665155  0.23439243  1
  O2-  O325  1  0.23479288  0.09291517  0.72682063  1
  O2-  O326  1  0.23675390  0.42853321  0.22650098  1
  O2-  O327  1  0.24219373  0.42584347  0.73152036  1
  O2-  O328  1  0.23501593  0.75811367  0.22818275  1
  O2-  O329  1  0.23838301  0.76205238  0.73159929  1
  O2-  O330  1  0.57084593  0.09780041  0.23516187  1
  O2-  O331  1  0.57093527  0.09330324  0.72863430  1
  O2-  O332  1  0.57144085  0.42677560  0.22916644  1
  O2-  O333  1  0.57228272  0.42698556  0.72879469  1
  O2-  O334  1  0.57099253  0.76264844  0.23854965  1
  O2-  O335  1  0.56847985  0.76276870  0.73290832  1
  O2-  O336  1  0.90184616  0.09537399  0.22813008  1
  O2-  O337  1  0.90353445  0.09729955  0.73455768  1
  O2-  O338  1  0.90669752  0.42812443  0.22989001  1
  O2-  O339  1  0.90214203  0.42922999  0.73353937  1
  O2-  O340  1  0.90442977  0.76024593  0.22705518  1
  O2-  O341  1  0.90153639  0.76768768  0.73415768  1
  O2-  O342  1  0.26026293  0.26370633  0.01943352  1
  O2-  O343  1  0.25903956  0.25882881  0.52460947  1
  O2-  O344  1  0.26462053  0.59632008  0.01935148  1
  O2-  O345  1  0.26271122  0.59469019  0.51660363  1
  O2-  O346  1  0.25722410  0.92533640  0.01745487  1
  O2-  O347  1  0.26191684  0.92700190  0.52160844  1
  O2-  O348  1  0.59874105  0.25762936  0.02087115  1
  O2-  O349  1  0.59558209  0.25763279  0.52474186  1
  O2-  O350  1  0.59793055  0.59490556  0.02134456  1
  O2-  O351  1  0.59172175  0.59148836  0.51869123  1
  O2-  O352  1  0.59840279  0.93197410  0.01551273  1
  O2-  O353  1  0.59222277  0.92377122  0.52415480  1
  O2-  O354  1  0.93351948  0.26698967  0.01900870  1
  O2-  O355  1  0.93112595  0.26397343  0.52139835  1
  O2-  O356  1  0.93088403  0.59616197  0.02436822  1
  O2-  O357  1  0.92620252  0.59435365  0.51272706  1
  O2-  O358  1  0.92495670  0.93026691  0.02166050  1
  O2-  O359  1  0.93146908  0.93303566  0.51532538  1
