# generated using pymatgen
data_Sr7Ca15Pr50Mn72O216
_symmetry_space_group_name_H-M   'P 1'
_cell_length_a   16.55850457
_cell_length_b   16.60412289
_cell_length_c   15.59421757
_cell_angle_alpha   90.00441788
_cell_angle_beta   90.00580090
_cell_angle_gamma   90.00163180
_symmetry_Int_Tables_number   1
_chemical_formula_structural   Sr7Ca15Pr50Mn72O216
_chemical_formula_sum   'Sr7 Ca15 Pr50 Mn72 O216'
_cell_volume   4287.46548245
_cell_formula_units_Z   1
loop_
 _symmetry_equiv_pos_site_id
 _symmetry_equiv_pos_as_xyz
  1  'x, y, z'
loop_
 _atom_type_symbol
 _atom_type_oxidation_number
  Sr2+  2.0
  Ca2+  2.0
  Pr3+  3.0
  Mn3.30+  3.3
  O2-  -2.0
loop_
 _atom_site_type_symbol
 _atom_site_label
 _atom_site_symmetry_multiplicity
 _atom_site_fract_x
 _atom_site_fract_y
 _atom_site_fract_z
 _atom_site_occupancy
  Sr2+  Sr0  1  -0.00036344  0.67383411  0.12601489  1
  Sr2+  Sr1  1  0.16597781  0.83861513  0.12553668  1
  Sr2+  Sr2  1  0.83246614  0.49038336  0.87750979  1
  Sr2+  Sr3  1  0.33540269  0.65554111  0.37443838  1
  Sr2+  Sr4  1  0.83220057  0.82257823  0.87416225  1
  Sr2+  Sr5  1  0.66738342  0.32412230  0.37525872  1
  Sr2+  Sr6  1  0.16744357  0.51068725  0.12445629  1
  Ca2+  Ca7  1  0.32864778  0.01526497  0.62481498  1
  Ca2+  Ca8  1  0.33090379  0.34828267  0.62389712  1
  Ca2+  Ca9  1  0.33740930  0.32141054  0.37639937  1
  Ca2+  Ca10  1  0.50403875  0.51660841  0.12498118  1
  Ca2+  Ca11  1  0.66320825  0.01642302  0.62511578  1
  Ca2+  Ca12  1  0.66718650  0.67811446  0.12345122  1
  Ca2+  Ca13  1  1.00206725  0.31981137  0.87447843  1
  Ca2+  Ca14  1  0.49650366  0.48670476  0.87467704  1
  Ca2+  Ca15  1  1.00554401  0.65047955  0.37230471  1
  Ca2+  Ca16  1  0.17127893  0.85069398  0.62399977  1
  Ca2+  Ca17  1  -0.00155964  0.01457667  0.62581477  1
  Ca2+  Ca18  1  0.83776544  0.51599319  0.12438683  1
  Ca2+  Ca19  1  0.50008228  0.51130987  0.62490391  1
  Ca2+  Ca20  1  0.83742320  0.18139054  0.12580725  1
  Ca2+  Ca21  1  -0.00365576  0.34705374  0.62671988  1
  Pr3+  Pr22  1  0.66645698  0.01162617  0.12441021  1
  Pr3+  Pr23  1  0.83396455  0.81902769  0.37657278  1
  Pr3+  Pr24  1  0.33625336  0.98710009  0.37820622  1
  Pr3+  Pr25  1  0.33420458  0.98660124  0.87162082  1
  Pr3+  Pr26  1  -0.00303905  0.67786865  0.62354980  1
  Pr3+  Pr27  1  0.33499217  0.32270168  0.87408024  1
  Pr3+  Pr28  1  0.83337661  0.15786760  0.87532697  1
  Pr3+  Pr29  1  0.50302291  0.84205796  0.12616988  1
  Pr3+  Pr30  1  0.83679005  0.18157719  0.62494890  1
  Pr3+  Pr31  1  0.16701416  0.48933256  0.37328857  1
  Pr3+  Pr32  1  0.49747665  0.15719822  0.37538016  1
  Pr3+  Pr33  1  0.66769190  0.65337170  0.37359087  1
  Pr3+  Pr34  1  0.66976504  0.98792934  0.37783603  1
  Pr3+  Pr35  1  0.16877453  0.17819699  0.12514237  1
  Pr3+  Pr36  1  0.66338954  0.67611006  0.62616590  1
  Pr3+  Pr37  1  0.83097425  0.48748885  0.37193457  1
  Pr3+  Pr38  1  0.99968708  0.65438450  0.87701812  1
  Pr3+  Pr39  1  0.66937552  0.32415014  0.87518808  1
  Pr3+  Pr40  1  0.49789201  0.15437289  0.87442652  1
  Pr3+  Pr41  1  0.17009694  0.18183849  0.62457582  1
  Pr3+  Pr42  1  0.32881524  0.67752394  0.12606164  1
  Pr3+  Pr43  1  -0.00438888  0.01049231  0.12525540  1
  Pr3+  Pr44  1  0.16042550  0.48406548  0.87673140  1
  Pr3+  Pr45  1  0.49355123  0.48533215  0.37456898  1
  Pr3+  Pr46  1  0.32983090  0.34854314  0.12530427  1
  Pr3+  Pr47  1  0.82964532  0.15608206  0.37490669  1
  Pr3+  Pr48  1  -0.00533521  0.34731835  0.12411110  1
  Pr3+  Pr49  1  0.83666532  0.84972562  0.62616024  1
  Pr3+  Pr50  1  0.83543732  0.50963934  0.62502041  1
  Pr3+  Pr51  1  0.16243940  0.81958152  0.87266137  1
  Pr3+  Pr52  1  0.66610113  0.34864247  0.12579248  1
  Pr3+  Pr53  1  0.83750460  0.83948103  0.12307761  1
  Pr3+  Pr54  1  0.16143947  0.15457584  0.87371951  1
  Pr3+  Pr55  1  0.32980375  0.67831991  0.62371235  1
  Pr3+  Pr56  1  0.32856179  0.01021379  0.12476615  1
  Pr3+  Pr57  1  0.66171492  0.34868384  0.62471501  1
  Pr3+  Pr58  1  1.00276664  0.32196237  0.37602182  1
  Pr3+  Pr59  1  0.33711269  0.65102345  0.87530547  1
  Pr3+  Pr60  1  0.67178821  0.98696813  0.87227747  1
  Pr3+  Pr61  1  0.16286740  0.81652043  0.37706090  1
  Pr3+  Pr62  1  1.00248310  0.98625156  0.87151373  1
  Pr3+  Pr63  1  0.67105045  0.65230904  0.87692385  1
  Pr3+  Pr64  1  0.16634227  0.15468616  0.37591488  1
  Pr3+  Pr65  1  0.16870942  0.50825722  0.62516517  1
  Pr3+  Pr66  1  0.50302684  0.18030683  0.12412224  1
  Pr3+  Pr67  1  1.00421624  0.98746294  0.37830923  1
  Pr3+  Pr68  1  0.50074394  0.17940418  0.62538312  1
  Pr3+  Pr69  1  0.49788173  0.81895288  0.87360390  1
  Pr3+  Pr70  1  0.50296119  0.84801083  0.62361115  1
  Pr3+  Pr71  1  0.49584622  0.81707874  0.37623957  1
  Mn3.30+  Mn72  1  0.16550387  -0.00150505  -0.00016629  1
  Mn3.30+  Mn73  1  0.16803303  -0.00022164  0.50322000  1
  Mn3.30+  Mn74  1  0.16482687  0.33209704  0.00007681  1
  Mn3.30+  Mn75  1  0.16899681  0.33407570  0.49992909  1
  Mn3.30+  Mn76  1  0.16793101  0.66560312  0.00027069  1
  Mn3.30+  Mn77  1  0.16442881  0.66523888  0.50040617  1
  Mn3.30+  Mn78  1  0.50000809  -0.00125280  -0.00076180  1
  Mn3.30+  Mn79  1  0.50043349  0.00158675  0.50219535  1
  Mn3.30+  Mn80  1  0.50066100  0.33736025  0.00012314  1
  Mn3.30+  Mn81  1  0.49689621  0.33433161  0.50136944  1
  Mn3.30+  Mn82  1  0.50189484  0.66391652  0.00054845  1
  Mn3.30+  Mn83  1  0.49864800  0.66364781  0.50182142  1
  Mn3.30+  Mn84  1  0.83309387  0.00050975  -0.00023403  1
  Mn3.30+  Mn85  1  0.83446047  0.00177348  0.50244381  1
  Mn3.30+  Mn86  1  0.83401617  0.33382959  -0.00002260  1
  Mn3.30+  Mn87  1  0.83424581  0.33406556  0.50069352  1
  Mn3.30+  Mn88  1  0.83192591  0.66611569  0.00164528  1
  Mn3.30+  Mn89  1  0.83440911  0.66569834  0.49876173  1
  Mn3.30+  Mn90  1  -0.00117881  0.16660713  0.25024746  1
  Mn3.30+  Mn91  1  0.00016756  0.16818462  0.74773078  1
  Mn3.30+  Mn92  1  -0.00184685  0.50086463  0.24946976  1
  Mn3.30+  Mn93  1  0.00000046  0.49701658  0.75061405  1
  Mn3.30+  Mn94  1  0.00051081  0.83188456  0.25090933  1
  Mn3.30+  Mn95  1  0.00175106  0.83364744  0.74626566  1
  Mn3.30+  Mn96  1  0.33388823  0.16755861  0.25064828  1
  Mn3.30+  Mn97  1  0.33248811  0.16767458  0.74850659  1
  Mn3.30+  Mn98  1  0.33489052  0.49975059  0.24927061  1
  Mn3.30+  Mn99  1  0.33473120  0.49828051  0.74939729  1
  Mn3.30+  Mn100  1  0.33363293  0.83254283  0.25097405  1
  Mn3.30+  Mn101  1  0.33139851  0.83381301  0.74715573  1
  Mn3.30+  Mn102  1  0.66800563  0.16775030  0.24887244  1
  Mn3.30+  Mn103  1  0.66680952  0.16753147  0.74931133  1
  Mn3.30+  Mn104  1  0.66590469  0.50187952  0.24672673  1
  Mn3.30+  Mn105  1  0.66344559  0.49983831  0.75171065  1
  Mn3.30+  Mn106  1  0.66790007  0.83200245  0.25086097  1
  Mn3.30+  Mn107  1  0.66662678  0.83392535  0.74804836  1
  Mn3.30+  Mn108  1  0.16644576  -0.00158453  0.25065284  1
  Mn3.30+  Mn109  1  0.16705120  0.00018529  0.74564559  1
  Mn3.30+  Mn110  1  0.16820500  0.33342699  0.25154137  1
  Mn3.30+  Mn111  1  0.16518789  0.33334333  0.74795770  1
  Mn3.30+  Mn112  1  0.16634003  0.66495021  0.25059242  1
  Mn3.30+  Mn113  1  0.16650561  0.66576457  0.74853594  1
  Mn3.30+  Mn114  1  0.50047825  -0.00021975  0.25033718  1
  Mn3.30+  Mn115  1  0.50015747  0.00044526  0.74789078  1
  Mn3.30+  Mn116  1  0.49886275  0.33466628  0.24899733  1
  Mn3.30+  Mn117  1  0.49839445  0.33637040  0.74940537  1
  Mn3.30+  Mn118  1  0.50158630  0.66469037  0.24750939  1
  Mn3.30+  Mn119  1  0.49909665  0.66329321  0.75024564  1
  Mn3.30+  Mn120  1  0.83344338  -0.00040973  0.25116465  1
  Mn3.30+  Mn121  1  0.83377599  0.00234561  0.74742814  1
  Mn3.30+  Mn122  1  0.83256980  0.33289166  0.24830720  1
  Mn3.30+  Mn123  1  0.83524632  0.33476542  0.75157536  1
  Mn3.30+  Mn124  1  0.83456088  0.66575039  0.25073482  1
  Mn3.30+  Mn125  1  0.83226211  0.66629914  0.74972855  1
  Mn3.30+  Mn126  1  -0.00160742  0.16707230  0.00035310  1
  Mn3.30+  Mn127  1  0.00052829  0.16707223  0.50177312  1
  Mn3.30+  Mn128  1  -0.00269106  0.49927308  0.00044958  1
  Mn3.30+  Mn129  1  0.00060064  0.49871871  0.49950358  1
  Mn3.30+  Mn130  1  0.00002902  0.83230325  -0.00070733  1
  Mn3.30+  Mn131  1  0.00209932  0.83323901  0.50282958  1
  Mn3.30+  Mn132  1  0.33321181  0.16641558  -0.00098223  1
  Mn3.30+  Mn133  1  0.33311393  0.16871029  0.50139381  1
  Mn3.30+  Mn134  1  0.33569325  0.49977959  -0.00025987  1
  Mn3.30+  Mn135  1  0.33442166  0.49857293  0.50158572  1
  Mn3.30+  Mn136  1  0.33316503  0.83219344  -0.00155491  1
  Mn3.30+  Mn137  1  0.33150380  0.83391092  0.50279834  1
  Mn3.30+  Mn138  1  0.66842723  0.16785428  0.00118643  1
  Mn3.30+  Mn139  1  0.66650264  0.16756424  0.50084898  1
  Mn3.30+  Mn140  1  0.66522709  0.50133496  0.00249472  1
  Mn3.30+  Mn141  1  0.66454094  0.49989743  0.49907732  1
  Mn3.30+  Mn142  1  0.66726551  0.83198124  0.00098034  1
  Mn3.30+  Mn143  1  0.66700446  0.83357708  0.50104439  1
  O2-  O144  1  0.02575674  0.15868221  0.12597234  1
  O2-  O145  1  0.02651894  0.15823926  0.62332908  1
  O2-  O146  1  0.01902595  0.49438406  0.12539645  1
  O2-  O147  1  0.02457098  0.49289156  0.62658410  1
  O2-  O148  1  0.01573999  0.83555027  0.12650646  1
  O2-  O149  1  0.02994643  0.82385842  0.62399518  1
  O2-  O150  1  0.35916061  0.15695479  0.12289518  1
  O2-  O151  1  0.35794744  0.15835851  0.62579858  1
  O2-  O152  1  0.36017868  0.49491107  0.12245253  1
  O2-  O153  1  0.35818182  0.49347485  0.62689280  1
  O2-  O154  1  0.35805863  0.82805416  0.12416579  1
  O2-  O155  1  0.35918457  0.82586879  0.62540168  1
  O2-  O156  1  0.69430626  0.15940571  0.12447104  1
  O2-  O157  1  0.69147451  0.16288747  0.62659155  1
  O2-  O158  1  0.69559798  0.49447558  0.12550318  1
  O2-  O159  1  0.69065590  0.49729408  0.62353151  1
  O2-  O160  1  0.69329813  0.82749124  0.12968485  1
  O2-  O161  1  0.69269328  0.82321124  0.62411832  1
  O2-  O162  1  0.14050397  0.32624493  0.12694767  1
  O2-  O163  1  0.13832983  0.33090728  0.62414858  1
  O2-  O164  1  0.15127789  0.66744317  0.12411505  1
  O2-  O165  1  0.13990695  0.65484991  0.62492747  1
  O2-  O166  1  0.14125617  0.99741301  0.12703344  1
  O2-  O167  1  0.13941025  0.99624700  0.62397553  1
  O2-  O168  1  0.47245234  0.32577553  0.12369424  1
  O2-  O169  1  0.47208849  0.32563502  0.62612970  1
  O2-  O170  1  0.47274328  0.66417650  0.12303164  1
  O2-  O171  1  0.47431906  0.65769785  0.62737602  1
  O2-  O172  1  0.47264555  0.99171948  0.12579265  1
  O2-  O173  1  0.47058056  0.99533287  0.62588229  1
  O2-  O174  1  0.80921163  0.32317760  0.12443140  1
  O2-  O175  1  0.80725922  0.33065101  0.62638074  1
  O2-  O176  1  0.80982362  0.66808870  0.12755398  1
  O2-  O177  1  0.80771580  0.65859673  0.62349981  1
  O2-  O178  1  0.80901782  0.98769744  0.12762958  1
  O2-  O179  1  0.80504313  0.99750215  0.62457231  1
  O2-  O180  1  0.30960015  0.17455955  0.37716537  1
  O2-  O181  1  0.30635574  0.17363467  0.87402795  1
  O2-  O182  1  0.31135250  0.50349668  0.37664129  1
  O2-  O183  1  0.30571298  0.50311141  0.87408103  1
  O2-  O184  1  0.30918397  0.83902201  0.37971527  1
  O2-  O185  1  0.30705343  0.83841284  0.86979521  1
  O2-  O186  1  0.64241179  0.16808116  0.37392598  1
  O2-  O187  1  0.64156785  0.17407557  0.87500396  1
  O2-  O188  1  0.63868555  0.50526197  0.37316343  1
  O2-  O189  1  0.63869367  0.50424084  0.87818880  1
  O2-  O190  1  0.63942074  0.84000186  0.37672108  1
  O2-  O191  1  0.64118735  0.84052434  0.87092338  1
  O2-  O192  1  0.97408844  0.17316027  0.37695386  1
  O2-  O193  1  0.97765596  0.17241447  0.87378895  1
  O2-  O194  1  0.97513984  0.50228235  0.37342000  1
  O2-  O195  1  0.98177599  0.50709794  0.87445665  1
  O2-  O196  1  0.97627057  0.84187316  0.37892707  1
  O2-  O197  1  0.98192228  0.83777522  0.87039530  1
  O2-  O198  1  0.19225057  0.00630526  0.37655385  1
  O2-  O199  1  0.19019898  0.00616432  0.87185162  1
  O2-  O200  1  0.19520408  0.33936890  0.37488450  1
  O2-  O201  1  0.19059852  0.33396534  0.87360511  1
  O2-  O202  1  0.18641391  0.66806075  0.37730722  1
  O2-  O203  1  0.19241781  0.67158034  0.87227388  1
  O2-  O204  1  0.52640376  0.00795510  0.37519251  1
  O2-  O205  1  0.52781994  0.00472367  0.87285029  1
  O2-  O206  1  0.51889423  0.33669057  0.37423229  1
  O2-  O207  1  0.52595755  0.34049768  0.87573195  1
  O2-  O208  1  0.52323954  0.66998869  0.37431783  1
  O2-  O209  1  0.52699174  0.67395142  0.87510843  1
  O2-  O210  1  0.86011115  0.00798942  0.37678279  1
  O2-  O211  1  0.85860420  0.00796264  0.87205661  1
  O2-  O212  1  0.85790683  0.33802388  0.37438863  1
  O2-  O213  1  0.85905148  0.33383485  0.87488543  1
  O2-  O214  1  0.86269509  0.67174621  0.37734466  1
  O2-  O215  1  0.85486737  0.66871683  0.87234448  1
  O2-  O216  1  0.23670070  0.09296492  0.01945234  1
  O2-  O217  1  0.23697176  0.09754970  0.51748600  1
  O2-  O218  1  0.24074392  0.42464530  0.01604429  1
  O2-  O219  1  0.23789175  0.42952658  0.51930245  1
  O2-  O220  1  0.24263087  0.75956062  0.01431682  1
  O2-  O221  1  0.23430448  0.76055616  0.52149138  1
  O2-  O222  1  0.57329255  0.09451480  0.02025152  1
  O2-  O223  1  0.56953175  0.09533026  0.52040633  1
  O2-  O224  1  0.57209903  0.42878079  0.02644865  1
  O2-  O225  1  0.56946234  0.42792905  0.52065776  1
  O2-  O226  1  0.56894232  0.76314227  0.01760783  1
  O2-  O227  1  0.56952408  0.75868148  0.52052181  1
  O2-  O228  1  0.90393930  0.09539438  0.02166888  1
  O2-  O229  1  0.90328777  0.09704593  0.51939398  1
  O2-  O230  1  0.90243149  0.42536587  0.02349144  1
  O2-  O231  1  0.90504579  0.42830039  0.51698208  1
  O2-  O232  1  0.90566014  0.76053903  0.01501449  1
  O2-  O233  1  0.90333629  0.76243276  0.52303475  1
  O2-  O234  1  0.26127154  0.25803606  0.22602231  1
  O2-  O235  1  0.26128859  0.26409405  0.72695181  1
  O2-  O236  1  0.26416087  0.59205873  0.23223474  1
  O2-  O237  1  0.26284614  0.59426617  0.72928647  1
  O2-  O238  1  0.26470296  0.92960597  0.23430437  1
  O2-  O239  1  0.26312403  0.93307608  0.72979688  1
  O2-  O240  1  0.59241677  0.26137174  0.22637331  1
  O2-  O241  1  0.59330093  0.26285899  0.72998539  1
  O2-  O242  1  0.59867533  0.59912537  0.22911566  1
  O2-  O243  1  0.59542782  0.59651693  0.73279074  1
  O2-  O244  1  0.59660885  0.92699002  0.22925984  1
  O2-  O245  1  0.59491558  0.92894271  0.72533745  1
  O2-  O246  1  0.93171760  0.26232506  0.23255889  1
  O2-  O247  1  0.92878255  0.25991902  0.72589396  1
  O2-  O248  1  0.92355588  0.59221348  0.23339323  1
  O2-  O249  1  0.92854318  0.59281830  0.72975454  1
  O2-  O250  1  0.92756029  0.92888611  0.23399108  1
  O2-  O251  1  0.92885564  0.92950105  0.72715815  1
  O2-  O252  1  0.09655241  0.23936697  0.27231271  1
  O2-  O253  1  0.09769437  0.23585818  0.76557583  1
  O2-  O254  1  0.09315972  0.57166081  0.26871709  1
  O2-  O255  1  0.09597048  0.57083660  0.76991029  1
  O2-  O256  1  0.09355659  0.90597232  0.27439466  1
  O2-  O257  1  0.09601234  0.90611252  0.76915169  1
  O2-  O258  1  0.43026482  0.23585262  0.26512218  1
  O2-  O259  1  0.42906822  0.24006683  0.77233602  1
  O2-  O260  1  0.43254232  0.56955524  0.26580070  1
  O2-  O261  1  0.42680012  0.57153803  0.77478399  1
  O2-  O262  1  0.42887509  0.90561245  0.27293305  1
  O2-  O263  1  0.42998308  0.90542133  0.77014901  1
  O2-  O264  1  0.76317162  0.23821799  0.26852794  1
  O2-  O265  1  0.76278547  0.24112759  0.77012291  1
  O2-  O266  1  0.75957121  0.57521836  0.27470756  1
  O2-  O267  1  0.75628217  0.57231087  0.76721257  1
  O2-  O268  1  0.76101789  0.90601113  0.27596644  1
  O2-  O269  1  0.76030856  0.90878804  0.76611006  1
  O2-  O270  1  0.07392720  0.07414694  0.47744566  1
  O2-  O271  1  0.06891988  0.07079580  0.97951340  1
  O2-  O272  1  0.07596702  0.40619291  0.47568734  1
  O2-  O273  1  0.07101927  0.40299985  0.98051735  1
  O2-  O274  1  0.06878973  0.73521812  0.47870387  1
  O2-  O275  1  0.07595047  0.73977983  0.97803441  1
  O2-  O276  1  0.40652840  0.07445926  0.47754410  1
  O2-  O277  1  0.40479869  0.07247260  0.97690310  1
  O2-  O278  1  0.40407199  0.40444747  0.47824652  1
  O2-  O279  1  0.40345974  0.40368023  0.98010923  1
  O2-  O280  1  0.40752064  0.73954577  0.48485409  1
  O2-  O281  1  0.40663306  0.73760206  0.97797902  1
  O2-  O282  1  0.74037693  0.07310713  0.47849751  1
  O2-  O283  1  0.73950466  0.07147823  0.97870147  1
  O2-  O284  1  0.73894770  0.40990722  0.48298570  1
  O2-  O285  1  0.73414715  0.40323311  0.98389266  1
  O2-  O286  1  0.74016261  0.73766458  0.47816585  1
  O2-  O287  1  0.73705858  0.73926542  0.98262971  1
  O2-  O288  1  0.09674728  0.23940185  0.47797854  1
  O2-  O289  1  0.09621923  0.23405155  0.98429999  1
  O2-  O290  1  0.09517050  0.56849649  0.48171943  1
  O2-  O291  1  0.09455273  0.57472916  0.97981993  1
  O2-  O292  1  0.09760805  0.90619858  0.47846496  1
  O2-  O293  1  0.09438350  0.90672995  0.97776053  1
  O2-  O294  1  0.43020666  0.23643578  0.48332103  1
  O2-  O295  1  0.42930805  0.23983646  0.97875445  1
  O2-  O296  1  0.43010089  0.56919709  0.48345794  1
  O2-  O297  1  0.42969990  0.57205301  0.97548643  1
  O2-  O298  1  0.43182790  0.90701602  0.47956658  1
  O2-  O299  1  0.42675666  0.90384360  0.97697148  1
  O2-  O300  1  0.76520492  0.23867092  0.48432498  1
  O2-  O301  1  0.76067027  0.24095334  0.97723106  1
  O2-  O302  1  0.76139449  0.57273012  0.47684490  1
  O2-  O303  1  0.75653658  0.57529502  0.98198175  1
  O2-  O304  1  0.76529782  0.90702997  0.48012266  1
  O2-  O305  1  0.75864530  0.90895046  0.98185641  1
  O2-  O306  1  0.07089972  0.07267602  0.27177093  1
  O2-  O307  1  0.07189744  0.07266414  0.77087463  1
  O2-  O308  1  0.07259375  0.40546146  0.27032204  1
  O2-  O309  1  0.07188277  0.40380904  0.77387810  1
  O2-  O310  1  0.07251630  0.74137581  0.27170153  1
  O2-  O311  1  0.07181570  0.73563408  0.77010498  1
  O2-  O312  1  0.40418839  0.07310852  0.27180832  1
  O2-  O313  1  0.40731250  0.07362798  0.77399303  1
  O2-  O314  1  0.40311053  0.40297584  0.26927972  1
  O2-  O315  1  0.40370331  0.40474752  0.77179394  1
  O2-  O316  1  0.41006061  0.74075245  0.26669135  1
  O2-  O317  1  0.40555741  0.73706622  0.76982574  1
  O2-  O318  1  0.73885823  0.06944922  0.27076415  1
  O2-  O319  1  0.74025130  0.07577838  0.77308784  1
  O2-  O320  1  0.73921453  0.40820015  0.26684560  1
  O2-  O321  1  0.73374522  0.40444101  0.76638055  1
  O2-  O322  1  0.74096724  0.74093468  0.27654052  1
  O2-  O323  1  0.73473224  0.73805182  0.76667980  1
  O2-  O324  1  0.23913110  0.09427574  0.23100895  1
  O2-  O325  1  0.23527391  0.09702457  0.73120529  1
  O2-  O326  1  0.24031242  0.42517465  0.23044554  1
  O2-  O327  1  0.23542380  0.42927826  0.73424180  1
  O2-  O328  1  0.24311432  0.75890768  0.23698275  1
  O2-  O329  1  0.23585127  0.76105619  0.72587332  1
  O2-  O330  1  0.57259470  0.09339371  0.22697958  1
  O2-  O331  1  0.56930937  0.09550618  0.73162451  1
  O2-  O332  1  0.57048596  0.42934139  0.22805843  1
  O2-  O333  1  0.57052138  0.42802641  0.72568629  1
  O2-  O334  1  0.57163999  0.76278682  0.23381086  1
  O2-  O335  1  0.56949538  0.76192017  0.72832710  1
  O2-  O336  1  0.90291118  0.09373290  0.22874064  1
  O2-  O337  1  0.90424632  0.09759120  0.73092741  1
  O2-  O338  1  0.90396047  0.42648967  0.22983115  1
  O2-  O339  1  0.90384243  0.42786621  0.72966312  1
  O2-  O340  1  0.90258863  0.76470503  0.23643514  1
  O2-  O341  1  0.90763661  0.76071220  0.72537866  1
  O2-  O342  1  0.26165953  0.25956375  0.02184909  1
  O2-  O343  1  0.26095442  0.26173502  0.52486428  1
  O2-  O344  1  0.26603564  0.59556570  0.01494210  1
  O2-  O345  1  0.26073907  0.59204571  0.52293543  1
  O2-  O346  1  0.26387857  0.92995342  0.01478634  1
  O2-  O347  1  0.26426650  0.93279559  0.52023931  1
  O2-  O348  1  0.59415489  0.26277919  0.02131172  1
  O2-  O349  1  0.59198784  0.26161890  0.52234173  1
  O2-  O350  1  0.59672073  0.59830315  0.02169129  1
  O2-  O351  1  0.59721822  0.59642316  0.51675932  1
  O2-  O352  1  0.59482000  0.92582127  0.02192845  1
  O2-  O353  1  0.59525991  0.93024299  0.52268930  1
  O2-  O354  1  0.92964869  0.26016990  0.01981712  1
  O2-  O355  1  0.93165848  0.26175671  0.52170861  1
  O2-  O356  1  0.92472948  0.59440191  0.01357617  1
  O2-  O357  1  0.92568373  0.59245622  0.52312768  1
  O2-  O358  1  0.92631508  0.92953156  0.01588295  1
  O2-  O359  1  0.92948549  0.93041644  0.52389169  1
