# generated using pymatgen
data_Sr7Ca15Pr50Mn72O216
_symmetry_space_group_name_H-M   'P 1'
_cell_length_a   16.56001731
_cell_length_b   16.60400512
_cell_length_c   15.59225744
_cell_angle_alpha   90.00678042
_cell_angle_beta   89.99812628
_cell_angle_gamma   89.98511305
_symmetry_Int_Tables_number   1
_chemical_formula_structural   Sr7Ca15Pr50Mn72O216
_chemical_formula_sum   'Sr7 Ca15 Pr50 Mn72 O216'
_cell_volume   4287.28765697
_cell_formula_units_Z   1
loop_
 _symmetry_equiv_pos_site_id
 _symmetry_equiv_pos_as_xyz
  1  'x, y, z'
loop_
 _atom_type_symbol
 _atom_type_oxidation_number
  Sr2+  2.0
  Ca2+  2.0
  Pr3+  3.0
  Mn3.30+  3.3
  O2-  -2.0
loop_
 _atom_site_type_symbol
 _atom_site_label
 _atom_site_symmetry_multiplicity
 _atom_site_fract_x
 _atom_site_fract_y
 _atom_site_fract_z
 _atom_site_occupancy
  Sr2+  Sr0  1  -0.00710348  0.01021440  0.12367609  1
  Sr2+  Sr1  1  1.00023676  0.99012585  0.37422234  1
  Sr2+  Sr2  1  0.99897909  0.99292901  0.87559781  1
  Sr2+  Sr3  1  0.16581476  0.51085913  0.62501162  1
  Sr2+  Sr4  1  0.99871564  0.65831766  0.87720427  1
  Sr2+  Sr5  1  0.00070851  0.67716622  0.62550650  1
  Sr2+  Sr6  1  0.83664823  0.84164858  0.12628617  1
  Ca2+  Ca7  1  0.83125316  0.81716607  0.37334558  1
  Ca2+  Ca8  1  0.82939642  0.14815306  0.87835154  1
  Ca2+  Ca9  1  0.83785091  0.18029753  0.12372534  1
  Ca2+  Ca10  1  0.67152429  0.31662857  0.37333296  1
  Ca2+  Ca11  1  0.33736663  0.98736245  0.37675144  1
  Ca2+  Ca12  1  0.66492947  0.34638687  0.62385299  1
  Ca2+  Ca13  1  0.67157270  0.65287594  0.37431932  1
  Ca2+  Ca14  1  -0.00664749  0.34440782  0.12501827  1
  Ca2+  Ca15  1  -0.00686923  0.68328325  0.12459335  1
  Ca2+  Ca16  1  0.66775347  0.34542021  0.12648502  1
  Ca2+  Ca17  1  0.16879393  0.85045734  0.62421483  1
  Ca2+  Ca18  1  0.49835687  0.15075850  0.37514221  1
  Ca2+  Ca19  1  0.33012091  0.01401574  0.62248409  1
  Ca2+  Ca20  1  0.83132919  0.48431367  0.87556787  1
  Ca2+  Ca21  1  0.67300732  0.98516209  0.87473015  1
  Pr3+  Pr22  1  0.16992399  0.17589379  0.62481874  1
  Pr3+  Pr23  1  0.83482039  0.82476781  0.87633688  1
  Pr3+  Pr24  1  0.50760176  0.18072725  0.12643340  1
  Pr3+  Pr25  1  0.83659957  0.84393225  0.62328836  1
  Pr3+  Pr26  1  0.66397827  0.67921228  0.62314748  1
  Pr3+  Pr27  1  0.16265449  0.15478853  0.87507649  1
  Pr3+  Pr28  1  0.83828002  0.51164956  0.12428190  1
  Pr3+  Pr29  1  0.16247261  0.84678098  0.12502418  1
  Pr3+  Pr30  1  0.15865022  0.82326084  0.87302016  1
  Pr3+  Pr31  1  0.16343969  0.82554361  0.37635965  1
  Pr3+  Pr32  1  0.50109985  0.84868331  0.62349322  1
  Pr3+  Pr33  1  0.83528208  0.17828310  0.62582531  1
  Pr3+  Pr34  1  0.66304685  0.01293836  0.62538872  1
  Pr3+  Pr35  1  0.99861832  0.65971316  0.37321412  1
  Pr3+  Pr36  1  0.33066925  0.34629762  0.62423293  1
  Pr3+  Pr37  1  0.16418188  0.15272879  0.37506226  1
  Pr3+  Pr38  1  0.16398572  0.51400832  0.12526271  1
  Pr3+  Pr39  1  0.50467150  0.18051898  0.62358272  1
  Pr3+  Pr40  1  -0.00039108  0.00921537  0.62502040  1
  Pr3+  Pr41  1  0.49947075  0.48554987  0.87582146  1
  Pr3+  Pr42  1  0.50104247  0.15310537  0.87575467  1
  Pr3+  Pr43  1  0.99699610  0.32379475  0.87639840  1
  Pr3+  Pr44  1  0.66769853  0.01174479  0.12451093  1
  Pr3+  Pr45  1  0.67078403  0.98612800  0.37526970  1
  Pr3+  Pr46  1  0.16246085  0.48929944  0.37606807  1
  Pr3+  Pr47  1  0.50266620  0.48709835  0.37443837  1
  Pr3+  Pr48  1  0.83092526  0.15422754  0.37290055  1
  Pr3+  Pr49  1  0.33074780  0.01340136  0.12678906  1
  Pr3+  Pr50  1  0.33126897  0.34546528  0.12581606  1
  Pr3+  Pr51  1  0.83650548  0.51202354  0.62613947  1
  Pr3+  Pr52  1  0.50608566  0.51183727  0.12541787  1
  Pr3+  Pr53  1  0.82676284  0.48548676  0.37485672  1
  Pr3+  Pr54  1  0.50529805  0.84802800  0.12646346  1
  Pr3+  Pr55  1  0.33719543  0.32067294  0.87504286  1
  Pr3+  Pr56  1  0.32479293  0.68113478  0.62435229  1
  Pr3+  Pr57  1  0.49871535  0.82099148  0.87417779  1
  Pr3+  Pr58  1  0.33568508  0.65422006  0.37491448  1
  Pr3+  Pr59  1  0.16404752  0.17712910  0.12521298  1
  Pr3+  Pr60  1  0.66583416  0.67974749  0.12641896  1
  Pr3+  Pr61  1  0.50369507  0.51093169  0.62484870  1
  Pr3+  Pr62  1  0.33520927  0.98724022  0.87400258  1
  Pr3+  Pr63  1  0.67459957  0.65045302  0.87517802  1
  Pr3+  Pr64  1  -0.00290536  0.34675547  0.62427635  1
  Pr3+  Pr65  1  0.33104734  0.68104955  0.12594408  1
  Pr3+  Pr66  1  0.67504060  0.31827231  0.87608505  1
  Pr3+  Pr67  1  1.00085087  0.32153549  0.37353469  1
  Pr3+  Pr68  1  0.16071336  0.48948157  0.87393125  1
  Pr3+  Pr69  1  0.49585718  0.82110019  0.37539052  1
  Pr3+  Pr70  1  0.33411118  0.65426380  0.87527558  1
  Pr3+  Pr71  1  0.33915946  0.31878939  0.37524533  1
  Mn3.30+  Mn72  1  0.16509941  0.00159360  0.00096945  1
  Mn3.30+  Mn73  1  0.16974461  -0.00020169  0.49965796  1
  Mn3.30+  Mn74  1  0.16447427  0.33420606  0.00204520  1
  Mn3.30+  Mn75  1  0.16801262  0.33340009  0.49893842  1
  Mn3.30+  Mn76  1  0.16394740  0.66842064  0.00209087  1
  Mn3.30+  Mn77  1  0.16638160  0.66923254  0.50000822  1
  Mn3.30+  Mn78  1  0.50205374  0.00025461  -0.00129582  1
  Mn3.30+  Mn79  1  0.49756883  0.00194202  0.49928377  1
  Mn3.30+  Mn80  1  0.50402500  0.33268027  0.00150068  1
  Mn3.30+  Mn81  1  0.50401390  0.33161598  0.49772365  1
  Mn3.30+  Mn82  1  0.50142440  0.66654265  -0.00067177  1
  Mn3.30+  Mn83  1  0.49985474  0.66621215  0.49954831  1
  Mn3.30+  Mn84  1  0.83166547  0.00020424  -0.00043636  1
  Mn3.30+  Mn85  1  0.83242493  -0.00168471  0.49889742  1
  Mn3.30+  Mn86  1  0.83330010  0.33156593  0.00175231  1
  Mn3.30+  Mn87  1  0.82919268  0.33219630  0.50027866  1
  Mn3.30+  Mn88  1  0.83500306  0.66531683  -0.00024059  1
  Mn3.30+  Mn89  1  0.83152176  0.66655840  0.49915874  1
  Mn3.30+  Mn90  1  -0.00279601  0.16743272  0.24770110  1
  Mn3.30+  Mn91  1  -0.00131092  0.16690381  0.75126828  1
  Mn3.30+  Mn92  1  -0.00220727  0.50007925  0.24939324  1
  Mn3.30+  Mn93  1  -0.00258986  0.50162510  0.75188191  1
  Mn3.30+  Mn94  1  -0.00354960  0.83384087  0.25228699  1
  Mn3.30+  Mn95  1  0.00107642  0.83430162  0.74718904  1
  Mn3.30+  Mn96  1  0.33636185  0.16578473  0.25088234  1
  Mn3.30+  Mn97  1  0.33517647  0.16542764  0.74920053  1
  Mn3.30+  Mn98  1  0.33371691  0.49961222  0.24950818  1
  Mn3.30+  Mn99  1  0.33306667  0.50023905  0.75080658  1
  Mn3.30+  Mn100  1  0.33296415  0.83582879  0.25031134  1
  Mn3.30+  Mn101  1  0.33077163  0.83508284  0.74910181  1
  Mn3.30+  Mn102  1  0.66777104  0.16786179  0.24992617  1
  Mn3.30+  Mn103  1  0.66904129  0.16597916  0.75059767  1
  Mn3.30+  Mn104  1  0.66860547  0.49781793  0.24990113  1
  Mn3.30+  Mn105  1  0.66848741  0.49704107  0.74942543  1
  Mn3.30+  Mn106  1  0.66842285  0.83185873  0.25206040  1
  Mn3.30+  Mn107  1  0.66649027  0.83340172  0.74981939  1
  Mn3.30+  Mn108  1  0.16640739  0.00076496  0.25065118  1
  Mn3.30+  Mn109  1  0.16853005  0.00027880  0.74852548  1
  Mn3.30+  Mn110  1  0.16537116  0.33369956  0.24876205  1
  Mn3.30+  Mn111  1  0.16718525  0.33383031  0.75089231  1
  Mn3.30+  Mn112  1  0.16494423  0.66908961  0.24896276  1
  Mn3.30+  Mn113  1  0.16519381  0.66845782  0.74903949  1
  Mn3.30+  Mn114  1  0.49955303  0.00187438  0.25204295  1
  Mn3.30+  Mn115  1  0.50020301  0.00069479  0.75023621  1
  Mn3.30+  Mn116  1  0.50452425  0.33148427  0.25167295  1
  Mn3.30+  Mn117  1  0.50364507  0.33244373  0.74938872  1
  Mn3.30+  Mn118  1  0.50206616  0.66631185  0.25167098  1
  Mn3.30+  Mn119  1  0.49959839  0.66625376  0.74952770  1
  Mn3.30+  Mn120  1  0.83365968  -0.00169701  0.25020966  1
  Mn3.30+  Mn121  1  0.83105620  -0.00013639  0.75055908  1
  Mn3.30+  Mn122  1  0.83154649  0.33141401  0.24791032  1
  Mn3.30+  Mn123  1  0.83129446  0.33201247  0.74982362  1
  Mn3.30+  Mn124  1  0.83289875  0.66632983  0.25043023  1
  Mn3.30+  Mn125  1  0.83340493  0.66607003  0.75023187  1
  Mn3.30+  Mn126  1  -0.00467363  0.16794421  -0.00022210  1
  Mn3.30+  Mn127  1  0.00050800  0.16642196  0.50032106  1
  Mn3.30+  Mn128  1  -0.00207080  0.49966352  0.00044686  1
  Mn3.30+  Mn129  1  -0.00250655  0.50228166  0.49918566  1
  Mn3.30+  Mn130  1  -0.00206319  0.83438936  0.00012231  1
  Mn3.30+  Mn131  1  -0.00018945  0.83370042  0.49991762  1
  Mn3.30+  Mn132  1  0.33438856  0.16721788  0.00110823  1
  Mn3.30+  Mn133  1  0.33672325  0.16404146  0.49865444  1
  Mn3.30+  Mn134  1  0.33281297  0.50013718  0.00143849  1
  Mn3.30+  Mn135  1  0.33385437  0.49983231  0.49868003  1
  Mn3.30+  Mn136  1  0.33262904  0.83405859  0.00013422  1
  Mn3.30+  Mn137  1  0.33111057  0.83695239  0.50051323  1
  Mn3.30+  Mn138  1  0.67164720  0.16608008  0.00167229  1
  Mn3.30+  Mn139  1  0.66533941  0.16841832  0.49796556  1
  Mn3.30+  Mn140  1  0.67002172  0.49712414  0.00110106  1
  Mn3.30+  Mn141  1  0.66717397  0.49811051  0.49997317  1
  Mn3.30+  Mn142  1  0.66705355  0.83400585  -0.00038977  1
  Mn3.30+  Mn143  1  0.66749335  0.83140029  0.49789375  1
  O2-  O144  1  0.02164000  0.16526197  0.12428786  1
  O2-  O145  1  0.02493674  0.16236014  0.62543802  1
  O2-  O146  1  0.02327499  0.48797158  0.12624235  1
  O2-  O147  1  0.01621045  0.49415248  0.62537308  1
  O2-  O148  1  0.01858330  0.82892380  0.12802847  1
  O2-  O149  1  0.02458975  0.83485978  0.62359160  1
  O2-  O150  1  0.36273239  0.16180263  0.12535038  1
  O2-  O151  1  0.36087981  0.16040032  0.62327604  1
  O2-  O152  1  0.36095912  0.49493610  0.12538131  1
  O2-  O153  1  0.35890410  0.49544299  0.62401345  1
  O2-  O154  1  0.36206053  0.82839923  0.12347387  1
  O2-  O155  1  0.35947247  0.82538047  0.62461158  1
  O2-  O156  1  0.69523475  0.15708092  0.12487468  1
  O2-  O157  1  0.69199070  0.15887383  0.62477817  1
  O2-  O158  1  0.69299142  0.49225864  0.12482620  1
  O2-  O159  1  0.69190502  0.49160173  0.62520515  1
  O2-  O160  1  0.68508252  0.82861064  0.12630788  1
  O2-  O161  1  0.69106904  0.82782501  0.62227984  1
  O2-  O162  1  0.13721417  0.32554014  0.12525380  1
  O2-  O163  1  0.14263401  0.32553645  0.62388584  1
  O2-  O164  1  0.13687888  0.66221163  0.12641069  1
  O2-  O165  1  0.15063748  0.66278930  0.62334379  1
  O2-  O166  1  0.14582526  0.99713475  0.12573284  1
  O2-  O167  1  0.14414388  1.00108725  0.62440073  1
  O2-  O168  1  0.47512266  0.32870081  0.12594766  1
  O2-  O169  1  0.47416972  0.32903105  0.62243890  1
  O2-  O170  1  0.47555767  0.66041226  0.12633751  1
  O2-  O171  1  0.47110847  0.65904845  0.62578135  1
  O2-  O172  1  0.47479415  0.99567462  0.12486628  1
  O2-  O173  1  0.47290253  0.99651671  0.62556864  1
  O2-  O174  1  0.80751948  0.32571450  0.12589626  1
  O2-  O175  1  0.80599279  0.32523165  0.62454247  1
  O2-  O176  1  0.80834141  0.66055902  0.12458298  1
  O2-  O177  1  0.80726827  0.66127652  0.62548692  1
  O2-  O178  1  0.80969496  0.99472645  0.12634838  1
  O2-  O179  1  0.80619691  0.99292214  0.62299401  1
  O2-  O180  1  0.30752852  0.17457554  0.37404766  1
  O2-  O181  1  0.30808222  0.17382639  0.87736470  1
  O2-  O182  1  0.30771693  0.50429340  0.37220357  1
  O2-  O183  1  0.30662070  0.50487324  0.87891708  1
  O2-  O184  1  0.30804290  0.84073343  0.37599178  1
  O2-  O185  1  0.30367583  0.83980615  0.87610141  1
  O2-  O186  1  0.64069577  0.17221495  0.37516188  1
  O2-  O187  1  0.64235488  0.17388388  0.87555313  1
  O2-  O188  1  0.64449019  0.51024700  0.37510034  1
  O2-  O189  1  0.64224127  0.50349553  0.87530269  1
  O2-  O190  1  0.63844311  0.83874069  0.37585092  1
  O2-  O191  1  0.64146798  0.83751544  0.87508636  1
  O2-  O192  1  0.97602227  0.17320885  0.37507346  1
  O2-  O193  1  0.97275404  0.17513370  0.87433914  1
  O2-  O194  1  0.97202924  0.50820561  0.37340962  1
  O2-  O195  1  0.97447139  0.50030188  0.87595700  1
  O2-  O196  1  0.97544051  0.83249816  0.37689470  1
  O2-  O197  1  0.97992893  0.83696062  0.87111517  1
  O2-  O198  1  0.19460712  0.00470190  0.37408407  1
  O2-  O199  1  0.19189309  0.00569531  0.87562049  1
  O2-  O200  1  0.19387414  0.33988145  0.37358297  1
  O2-  O201  1  0.19428397  0.34063694  0.87776052  1
  O2-  O202  1  0.19344044  0.67613464  0.37273908  1
  O2-  O203  1  0.19135750  0.67420333  0.87775954  1
  O2-  O204  1  0.52681081  0.00466750  0.37490945  1
  O2-  O205  1  0.52895114  0.00473899  0.87462293  1
  O2-  O206  1  0.53053591  0.34080193  0.37467476  1
  O2-  O207  1  0.52852113  0.33685314  0.87733426  1
  O2-  O208  1  0.52721622  0.67296343  0.37506434  1
  O2-  O209  1  0.52837698  0.67303343  0.87284467  1
  O2-  O210  1  0.85117551  0.00854510  0.37646567  1
  O2-  O211  1  0.84993542  0.00161517  0.87270282  1
  O2-  O212  1  0.85760612  0.33632618  0.37528404  1
  O2-  O213  1  0.85417473  0.34060861  0.87486956  1
  O2-  O214  1  0.85440348  0.66653472  0.37520626  1
  O2-  O215  1  0.84849510  0.67580289  0.87395067  1
  O2-  O216  1  0.24073657  0.09524366  0.02115344  1
  O2-  O217  1  0.23810081  0.09744068  0.51720851  1
  O2-  O218  1  0.23640789  0.42636187  0.02536350  1
  O2-  O219  1  0.24183664  0.42490647  0.51768171  1
  O2-  O220  1  0.24070328  0.76209195  0.02503627  1
  O2-  O221  1  0.23778802  0.76526158  0.51997462  1
  O2-  O222  1  0.57293415  0.09736243  0.02055775  1
  O2-  O223  1  0.57237770  0.09439730  0.52184511  1
  O2-  O224  1  0.57026482  0.43026571  0.01805721  1
  O2-  O225  1  0.56975084  0.43046179  0.51757651  1
  O2-  O226  1  0.57080892  0.76100253  0.01998837  1
  O2-  O227  1  0.56905526  0.76063457  0.52221747  1
  O2-  O228  1  0.90110508  0.09695563  0.01561122  1
  O2-  O229  1  0.90589440  0.09260205  0.52135099  1
  O2-  O230  1  0.90359498  0.42662396  0.01892391  1
  O2-  O231  1  0.90093967  0.42439384  0.51916870  1
  O2-  O232  1  0.90522296  0.75776417  0.01199442  1
  O2-  O233  1  0.90275127  0.75979320  0.51707072  1
  O2-  O234  1  0.26404347  0.26008916  0.22855281  1
  O2-  O235  1  0.26378908  0.26023085  0.72966110  1
  O2-  O236  1  0.25868993  0.59723477  0.22847429  1
  O2-  O237  1  0.26363089  0.59907776  0.73675832  1
  O2-  O238  1  0.26102965  0.92638526  0.22663305  1
  O2-  O239  1  0.26640658  0.93338144  0.73158053  1
  O2-  O240  1  0.59705312  0.26115554  0.22482740  1
  O2-  O241  1  0.59741659  0.26242406  0.72877880  1
  O2-  O242  1  0.59616758  0.59129768  0.22699302  1
  O2-  O243  1  0.59657587  0.59263351  0.72887533  1
  O2-  O244  1  0.59403992  0.92915242  0.23118021  1
  O2-  O245  1  0.59152586  0.92687174  0.72665316  1
  O2-  O246  1  0.93061908  0.26620429  0.23434993  1
  O2-  O247  1  0.92786274  0.26209840  0.72772272  1
  O2-  O248  1  0.92983068  0.59443442  0.22715171  1
  O2-  O249  1  0.92293472  0.59194963  0.73117352  1
  O2-  O250  1  0.92557855  0.92776562  0.23686886  1
  O2-  O251  1  0.92510910  0.92660381  0.72743971  1
  O2-  O252  1  0.09555889  0.24057941  0.27127207  1
  O2-  O253  1  0.09537098  0.24215463  0.77167578  1
  O2-  O254  1  0.09546960  0.57415561  0.27154723  1
  O2-  O255  1  0.09498619  0.57355062  0.76898570  1
  O2-  O256  1  0.09675946  0.90479175  0.26623096  1
  O2-  O257  1  0.09743985  0.90837211  0.76488099  1
  O2-  O258  1  0.43169318  0.23681404  0.27208557  1
  O2-  O259  1  0.43007873  0.23828771  0.77048297  1
  O2-  O260  1  0.42892295  0.57325186  0.27180032  1
  O2-  O261  1  0.42894814  0.57184216  0.77326136  1
  O2-  O262  1  0.43122940  0.90489960  0.26807997  1
  O2-  O263  1  0.42709209  0.90359575  0.77212843  1
  O2-  O264  1  0.76262975  0.23666629  0.27088223  1
  O2-  O265  1  0.76505351  0.23341142  0.77117580  1
  O2-  O266  1  0.76454118  0.56773666  0.26504196  1
  O2-  O267  1  0.76071161  0.56781288  0.77024247  1
  O2-  O268  1  0.75804922  0.90340846  0.27405524  1
  O2-  O269  1  0.76227782  0.90127896  0.76597489  1
  O2-  O270  1  0.07668093  0.07506850  0.48270705  1
  O2-  O271  1  0.07547428  0.08049523  0.98093510  1
  O2-  O272  1  0.07032090  0.40925082  0.47934421  1
  O2-  O273  1  0.07353164  0.40763294  0.97611998  1
  O2-  O274  1  0.07384789  0.74103428  0.47673207  1
  O2-  O275  1  0.07744986  0.74405421  0.98327682  1
  O2-  O276  1  0.40506685  0.07093594  0.47669947  1
  O2-  O277  1  0.40744788  0.07135593  0.97857776  1
  O2-  O278  1  0.40889082  0.40336625  0.47818673  1
  O2-  O279  1  0.40595902  0.40452144  0.97965992  1
  O2-  O280  1  0.40275124  0.73955427  0.47870558  1
  O2-  O281  1  0.40299096  0.74094356  0.97771099  1
  O2-  O282  1  0.73645678  0.07189633  0.48128904  1
  O2-  O283  1  0.73328187  0.06693708  0.98183001  1
  O2-  O284  1  0.73631035  0.40341384  0.47603980  1
  O2-  O285  1  0.73746267  0.40186089  0.98273031  1
  O2-  O286  1  0.73500660  0.73237220  0.48200504  1
  O2-  O287  1  0.73539038  0.73755542  0.98313121  1
  O2-  O288  1  0.09558752  0.24130267  0.47818593  1
  O2-  O289  1  0.09503360  0.24170417  0.97754282  1
  O2-  O290  1  0.09394271  0.57787889  0.47583649  1
  O2-  O291  1  0.09728765  0.56913710  0.98444955  1
  O2-  O292  1  0.09726141  0.90784847  0.48242141  1
  O2-  O293  1  0.09690777  0.90670247  0.98568086  1
  O2-  O294  1  0.43138222  0.23741102  0.47735257  1
  O2-  O295  1  0.42967552  0.23905817  0.97985821  1
  O2-  O296  1  0.42922464  0.57223878  0.47701751  1
  O2-  O297  1  0.43033621  0.57428099  0.97841461  1
  O2-  O298  1  0.43026291  0.90298945  0.48215698  1
  O2-  O299  1  0.42694063  0.90472689  0.97742924  1
  O2-  O300  1  0.76396090  0.23501657  0.48157930  1
  O2-  O301  1  0.76393761  0.23611456  0.97679018  1
  O2-  O302  1  0.76237152  0.56719600  0.48564589  1
  O2-  O303  1  0.76358182  0.56900572  0.97939302  1
  O2-  O304  1  0.76107942  0.90245834  0.47764070  1
  O2-  O305  1  0.75842435  0.90379654  0.98053316  1
  O2-  O306  1  0.07754625  0.07810769  0.26870685  1
  O2-  O307  1  0.07628619  0.07660842  0.76725552  1
  O2-  O308  1  0.07211080  0.41035471  0.27583759  1
  O2-  O309  1  0.07179827  0.40730054  0.76946630  1
  O2-  O310  1  0.07459206  0.74205758  0.27252899  1
  O2-  O311  1  0.07537939  0.74212197  0.76899691  1
  O2-  O312  1  0.40271696  0.06862043  0.26889612  1
  O2-  O313  1  0.40802987  0.07356780  0.77537229  1
  O2-  O314  1  0.40864839  0.40183139  0.27039849  1
  O2-  O315  1  0.40743268  0.40425815  0.77108231  1
  O2-  O316  1  0.40345687  0.74044297  0.27063996  1
  O2-  O317  1  0.40248663  0.73975437  0.77203332  1
  O2-  O318  1  0.73609792  0.07063648  0.27008940  1
  O2-  O319  1  0.73367516  0.06709672  0.76590460  1
  O2-  O320  1  0.73747084  0.40349098  0.27288334  1
  O2-  O321  1  0.73643502  0.40170159  0.76828161  1
  O2-  O322  1  0.73459461  0.73362671  0.26722494  1
  O2-  O323  1  0.73550260  0.73556715  0.76627768  1
  O2-  O324  1  0.24056287  0.09648496  0.22792845  1
  O2-  O325  1  0.23891070  0.09713156  0.73310236  1
  O2-  O326  1  0.23757797  0.42661248  0.22670386  1
  O2-  O327  1  0.24133503  0.42499543  0.73214807  1
  O2-  O328  1  0.23816464  0.76171778  0.22663424  1
  O2-  O329  1  0.23801604  0.76566722  0.72954207  1
  O2-  O330  1  0.57334453  0.09429983  0.22808252  1
  O2-  O331  1  0.57172974  0.09768044  0.72960893  1
  O2-  O332  1  0.57024046  0.43042476  0.23247039  1
  O2-  O333  1  0.56981051  0.43057732  0.73289753  1
  O2-  O334  1  0.57059280  0.76179127  0.23021450  1
  O2-  O335  1  0.56979487  0.76118725  0.72745655  1
  O2-  O336  1  0.90242707  0.09943540  0.23422225  1
  O2-  O337  1  0.90583405  0.09054172  0.72726735  1
  O2-  O338  1  0.90027205  0.42829714  0.23388926  1
  O2-  O339  1  0.90469313  0.42342998  0.72898536  1
  O2-  O340  1  0.90574768  0.75623031  0.23799476  1
  O2-  O341  1  0.90235867  0.76300505  0.73283577  1
  O2-  O342  1  0.26005723  0.26214532  0.02262514  1
  O2-  O343  1  0.26584800  0.25877832  0.52029602  1
  O2-  O344  1  0.26034727  0.59669694  0.02271451  1
  O2-  O345  1  0.26305540  0.59938440  0.51237068  1
  O2-  O346  1  0.26378147  0.92805092  0.02096230  1
  O2-  O347  1  0.26394948  0.93050893  0.52197623  1
  O2-  O348  1  0.59923610  0.26093223  0.02297518  1
  O2-  O349  1  0.59558263  0.26142013  0.52528044  1
  O2-  O350  1  0.59964352  0.59208671  0.02038115  1
  O2-  O351  1  0.59389476  0.59121499  0.52408663  1
  O2-  O352  1  0.59232113  0.92663227  0.02261378  1
  O2-  O353  1  0.59274254  0.92898312  0.51979481  1
  O2-  O354  1  0.93066694  0.26657956  0.01718500  1
  O2-  O355  1  0.92769739  0.26134683  0.52054007  1
  O2-  O356  1  0.92933982  0.59237191  0.02432097  1
  O2-  O357  1  0.92428811  0.59314521  0.51799450  1
  O2-  O358  1  0.92298526  0.92651003  0.01146969  1
  O2-  O359  1  0.92656845  0.92677735  0.52228824  1
