# generated using pymatgen
data_Sr7Ca15Pr50Mn72O216
_symmetry_space_group_name_H-M   'P 1'
_cell_length_a   16.55949150
_cell_length_b   16.60341226
_cell_length_c   15.59295557
_cell_angle_alpha   90.00149855
_cell_angle_beta   90.00463483
_cell_angle_gamma   89.99787895
_symmetry_Int_Tables_number   1
_chemical_formula_structural   Sr7Ca15Pr50Mn72O216
_chemical_formula_sum   'Sr7 Ca15 Pr50 Mn72 O216'
_cell_volume   4287.19055642
_cell_formula_units_Z   1
loop_
 _symmetry_equiv_pos_site_id
 _symmetry_equiv_pos_as_xyz
  1  'x, y, z'
loop_
 _atom_type_symbol
 _atom_type_oxidation_number
  Sr2+  2.0
  Ca2+  2.0
  Pr3+  3.0
  Mn3.30+  3.3
  O2-  -2.0
loop_
 _atom_site_type_symbol
 _atom_site_label
 _atom_site_symmetry_multiplicity
 _atom_site_fract_x
 _atom_site_fract_y
 _atom_site_fract_z
 _atom_site_occupancy
  Sr2+  Sr0  1  0.16961887  0.84351968  0.12662375  1
  Sr2+  Sr1  1  0.49668120  0.49435749  0.87431039  1
  Sr2+  Sr2  1  0.33456887  0.67398371  0.62625692  1
  Sr2+  Sr3  1  0.16775167  0.49196860  0.87315252  1
  Sr2+  Sr4  1  0.50097287  0.50849484  0.12490639  1
  Sr2+  Sr5  1  0.33560801  0.65595097  0.87341025  1
  Sr2+  Sr6  1  0.66670966  0.65457262  0.87474107  1
  Ca2+  Ca7  1  0.16970223  0.18161787  0.62409561  1
  Ca2+  Ca8  1  0.16036937  0.48177826  0.37711459  1
  Ca2+  Ca9  1  0.66920904  0.98937882  0.37436643  1
  Ca2+  Ca10  1  0.50101118  0.51520364  0.62598593  1
  Ca2+  Ca11  1  0.82971910  0.15059116  0.37477261  1
  Ca2+  Ca12  1  0.66261346  0.01485703  0.12802846  1
  Ca2+  Ca13  1  0.16170700  0.15203695  0.87440397  1
  Ca2+  Ca14  1  0.66304769  0.34873706  0.12639572  1
  Ca2+  Ca15  1  0.16622180  0.82148625  0.37541563  1
  Ca2+  Ca16  1  0.83716536  0.51488031  0.62301382  1
  Ca2+  Ca17  1  0.49529334  0.14795564  0.37521332  1
  Ca2+  Ca18  1  0.33552970  0.98594973  0.37406949  1
  Ca2+  Ca19  1  0.82914654  0.48421504  0.37594328  1
  Ca2+  Ca20  1  1.00475244  0.98726928  0.87606670  1
  Ca2+  Ca21  1  0.99973868  0.31882042  0.37604632  1
  Pr3+  Pr22  1  0.33438136  0.98867943  0.87525709  1
  Pr3+  Pr23  1  -0.00291802  0.67784815  0.62543635  1
  Pr3+  Pr24  1  0.49772352  0.48857832  0.37658625  1
  Pr3+  Pr25  1  0.16880762  0.51237148  0.62243160  1
  Pr3+  Pr26  1  -0.00173467  0.68008235  0.12515703  1
  Pr3+  Pr27  1  -0.00161865  0.01273054  0.12521988  1
  Pr3+  Pr28  1  0.16384142  0.15498185  0.37591129  1
  Pr3+  Pr29  1  0.82967015  0.82222695  0.37523771  1
  Pr3+  Pr30  1  1.00434457  0.65163085  0.87572962  1
  Pr3+  Pr31  1  1.00636076  0.32049694  0.87484778  1
  Pr3+  Pr32  1  1.00479982  0.65215111  0.37505411  1
  Pr3+  Pr33  1  0.83353022  0.51114007  0.12776592  1
  Pr3+  Pr34  1  0.33663130  0.31830908  0.37561816  1
  Pr3+  Pr35  1  -0.00172666  0.34462870  0.12817680  1
  Pr3+  Pr36  1  0.50427993  0.84797072  0.12465685  1
  Pr3+  Pr37  1  0.66152324  0.67748099  0.12485257  1
  Pr3+  Pr38  1  0.66421641  0.34948466  0.62320030  1
  Pr3+  Pr39  1  0.83224706  0.81947516  0.87493032  1
  Pr3+  Pr40  1  0.32845534  0.01404580  0.62337730  1
  Pr3+  Pr41  1  0.33521193  0.32584657  0.87459113  1
  Pr3+  Pr42  1  0.67115277  0.31911772  0.37188386  1
  Pr3+  Pr43  1  0.67200176  0.65134762  0.37487785  1
  Pr3+  Pr44  1  0.66413809  0.67715848  0.62500272  1
  Pr3+  Pr45  1  0.33098406  0.34641197  0.12736340  1
  Pr3+  Pr46  1  0.33217812  0.67758112  0.12356338  1
  Pr3+  Pr47  1  0.17065011  0.51103221  0.12742836  1
  Pr3+  Pr48  1  0.83629577  0.84759340  0.12536839  1
  Pr3+  Pr49  1  0.49623036  0.15771428  0.87432968  1
  Pr3+  Pr50  1  0.49727386  0.81876998  0.87472338  1
  Pr3+  Pr51  1  0.50228776  0.18008304  0.62211606  1
  Pr3+  Pr52  1  0.83180485  0.15553357  0.87431543  1
  Pr3+  Pr53  1  0.50587843  0.18051369  0.12750343  1
  Pr3+  Pr54  1  0.50072022  0.84417073  0.62506782  1
  Pr3+  Pr55  1  0.66379508  0.01394756  0.62245318  1
  Pr3+  Pr56  1  0.83593786  0.17925081  0.62141868  1
  Pr3+  Pr57  1  0.66656396  0.32630805  0.87745166  1
  Pr3+  Pr58  1  -0.00354616  0.34732978  0.62197067  1
  Pr3+  Pr59  1  0.17258544  0.84365941  0.62370410  1
  Pr3+  Pr60  1  -0.00053452  0.01401294  0.62504320  1
  Pr3+  Pr61  1  1.00281226  0.98632906  0.37515336  1
  Pr3+  Pr62  1  0.49929737  0.82485204  0.37473967  1
  Pr3+  Pr63  1  0.33005724  0.34586824  0.62263008  1
  Pr3+  Pr64  1  0.16889374  0.17898027  0.12565799  1
  Pr3+  Pr65  1  0.82843194  0.48793305  0.87361194  1
  Pr3+  Pr66  1  0.83290944  0.17875483  0.12815012  1
  Pr3+  Pr67  1  0.16490872  0.82034035  0.87605755  1
  Pr3+  Pr68  1  0.32988554  0.01294571  0.12665401  1
  Pr3+  Pr69  1  0.67000815  0.98832373  0.87598762  1
  Pr3+  Pr70  1  0.83744700  0.84620995  0.62490456  1
  Pr3+  Pr71  1  0.33259267  0.65738008  0.37643742  1
  Mn3.30+  Mn72  1  0.16546387  0.00102095  -0.00036532  1
  Mn3.30+  Mn73  1  0.16793703  -0.00017157  0.49822344  1
  Mn3.30+  Mn74  1  0.16690730  0.33275751  -0.00105518  1
  Mn3.30+  Mn75  1  0.16397829  0.33189934  0.49887852  1
  Mn3.30+  Mn76  1  0.16638046  0.66566630  0.00069157  1
  Mn3.30+  Mn77  1  0.16633200  0.66670661  0.49831808  1
  Mn3.30+  Mn78  1  0.50181052  0.00213523  0.00053355  1
  Mn3.30+  Mn79  1  0.49877805  0.00060888  0.49762581  1
  Mn3.30+  Mn80  1  0.50155239  0.33480870  0.00114447  1
  Mn3.30+  Mn81  1  0.50077720  0.33357927  0.49900176  1
  Mn3.30+  Mn82  1  0.49919050  0.66579594  0.00061815  1
  Mn3.30+  Mn83  1  0.50119602  0.66710712  0.49955209  1
  Mn3.30+  Mn84  1  0.83339739  0.00172469  0.00006720  1
  Mn3.30+  Mn85  1  0.83242354  0.00118756  0.49821241  1
  Mn3.30+  Mn86  1  0.83365010  0.33289725  0.00215822  1
  Mn3.30+  Mn87  1  0.83363703  0.33409486  0.49660585  1
  Mn3.30+  Mn88  1  0.83229729  0.66597627  0.00079996  1
  Mn3.30+  Mn89  1  0.83403989  0.66410494  0.49944162  1
  Mn3.30+  Mn90  1  -0.00203969  0.16687955  0.25337306  1
  Mn3.30+  Mn91  1  0.00307528  0.16643466  0.74907797  1
  Mn3.30+  Mn92  1  -0.00013981  0.49754174  0.25363549  1
  Mn3.30+  Mn93  1  -0.00205143  0.49892120  0.74837711  1
  Mn3.30+  Mn94  1  0.00126676  0.83382692  0.25061221  1
  Mn3.30+  Mn95  1  0.00162547  0.83504768  0.75074200  1
  Mn3.30+  Mn96  1  0.33606533  0.16474180  0.25199874  1
  Mn3.30+  Mn97  1  0.32884472  0.16785699  0.75017192  1
  Mn3.30+  Mn98  1  0.33120174  0.49995153  0.25391657  1
  Mn3.30+  Mn99  1  0.33392704  0.49990288  0.74776322  1
  Mn3.30+  Mn100  1  0.33303091  0.83450859  0.25180555  1
  Mn3.30+  Mn101  1  0.33341305  0.83359795  0.74894925  1
  Mn3.30+  Mn102  1  0.66657166  0.16447170  0.25239007  1
  Mn3.30+  Mn103  1  0.66652899  0.16894085  0.74942959  1
  Mn3.30+  Mn104  1  0.66702560  0.49801519  0.25074255  1
  Mn3.30+  Mn105  1  0.66633451  0.50051777  0.74803725  1
  Mn3.30+  Mn106  1  0.66699435  0.83669477  0.24987559  1
  Mn3.30+  Mn107  1  0.66843547  0.83367411  0.74983582  1
  Mn3.30+  Mn108  1  0.16809913  -0.00150089  0.25221021  1
  Mn3.30+  Mn109  1  0.16486587  0.00231692  0.75035981  1
  Mn3.30+  Mn110  1  0.16454702  0.33299695  0.25374288  1
  Mn3.30+  Mn111  1  0.16609791  0.33152551  0.74860716  1
  Mn3.30+  Mn112  1  0.16657099  0.66674306  0.25185002  1
  Mn3.30+  Mn113  1  0.16624930  0.66557768  0.74978040  1
  Mn3.30+  Mn114  1  0.50093907  0.00112526  0.25215811  1
  Mn3.30+  Mn115  1  0.49965049  0.00149286  0.74945342  1
  Mn3.30+  Mn116  1  0.50261491  0.33221405  0.25207805  1
  Mn3.30+  Mn117  1  0.49981337  0.33601482  0.74805199  1
  Mn3.30+  Mn118  1  0.50031956  0.66707555  0.25166767  1
  Mn3.30+  Mn119  1  0.49986165  0.66545261  0.74821325  1
  Mn3.30+  Mn120  1  0.82990865  0.00155954  0.25033422  1
  Mn3.30+  Mn121  1  0.83574487  0.00124609  0.75119453  1
  Mn3.30+  Mn122  1  0.83302025  0.33258618  0.25199517  1
  Mn3.30+  Mn123  1  0.83432021  0.33412935  0.74834324  1
  Mn3.30+  Mn124  1  0.83358085  0.66578788  0.25105411  1
  Mn3.30+  Mn125  1  0.83296154  0.66486167  0.74927279  1
  Mn3.30+  Mn126  1  0.00106138  0.16537774  -0.00061904  1
  Mn3.30+  Mn127  1  0.00006762  0.16769868  0.49859425  1
  Mn3.30+  Mn128  1  -0.00022201  0.49845925  0.00201544  1
  Mn3.30+  Mn129  1  -0.00269151  0.49798522  0.49645674  1
  Mn3.30+  Mn130  1  0.00058248  0.83592235  0.00014126  1
  Mn3.30+  Mn131  1  0.00235754  0.83262242  0.49945457  1
  Mn3.30+  Mn132  1  0.33193014  0.16779821  -0.00110679  1
  Mn3.30+  Mn133  1  0.33344384  0.16481077  0.49910101  1
  Mn3.30+  Mn134  1  0.33385370  0.49997774  0.00014546  1
  Mn3.30+  Mn135  1  0.33142891  0.50030050  0.49834448  1
  Mn3.30+  Mn136  1  0.33401132  0.83402718  0.00118341  1
  Mn3.30+  Mn137  1  0.33272819  0.83431579  0.49795799  1
  Mn3.30+  Mn138  1  0.66638017  0.16756958  0.00151237  1
  Mn3.30+  Mn139  1  0.66667274  0.16629795  0.49546981  1
  Mn3.30+  Mn140  1  0.66550245  0.49890808  -0.00002472  1
  Mn3.30+  Mn141  1  0.66840536  0.50003069  0.50101101  1
  Mn3.30+  Mn142  1  0.66813994  0.83477501  0.00054593  1
  Mn3.30+  Mn143  1  0.66759805  0.83528205  0.49963086  1
  O2-  O144  1  0.02447253  0.16125389  0.12615794  1
  O2-  O145  1  0.02697910  0.16117831  0.62364661  1
  O2-  O146  1  0.02698498  0.49314630  0.12947019  1
  O2-  O147  1  0.02473910  0.49594163  0.62057893  1
  O2-  O148  1  0.01979903  0.82997383  0.12608068  1
  O2-  O149  1  0.02793721  0.82675432  0.62607872  1
  O2-  O150  1  0.36057765  0.16076954  0.12774252  1
  O2-  O151  1  0.35951856  0.16115687  0.62409776  1
  O2-  O152  1  0.35018656  0.49501854  0.12995304  1
  O2-  O153  1  0.35698474  0.49334052  0.62032584  1
  O2-  O154  1  0.35925646  0.82835878  0.12630402  1
  O2-  O155  1  0.35571368  0.83398934  0.62440858  1
  O2-  O156  1  0.69073505  0.15699693  0.12716607  1
  O2-  O157  1  0.69158741  0.16143936  0.62197204  1
  O2-  O158  1  0.68977134  0.49722127  0.12709903  1
  O2-  O159  1  0.69588224  0.49671536  0.62337779  1
  O2-  O160  1  0.69289528  0.82435338  0.12614712  1
  O2-  O161  1  0.69386274  0.82727541  0.62664308  1
  O2-  O162  1  0.14294832  0.32736213  0.12832808  1
  O2-  O163  1  0.14031462  0.32613050  0.62378692  1
  O2-  O164  1  0.14193873  0.65957389  0.12740062  1
  O2-  O165  1  0.14134198  0.66307144  0.62320766  1
  O2-  O166  1  0.14228396  0.99897697  0.12765483  1
  O2-  O167  1  0.14160674  0.98970173  0.62409156  1
  O2-  O168  1  0.47487531  0.32697686  0.12970502  1
  O2-  O169  1  0.47444768  0.32534865  0.62180236  1
  O2-  O170  1  0.47785507  0.66764415  0.13011897  1
  O2-  O171  1  0.48481329  0.66668913  0.62130423  1
  O2-  O172  1  0.47370081  0.99642630  0.12552405  1
  O2-  O173  1  0.47342090  0.99423599  0.62538916  1
  O2-  O174  1  0.80569611  0.32575997  0.12649284  1
  O2-  O175  1  0.80729702  0.32391871  0.62188879  1
  O2-  O176  1  0.80617937  0.66046428  0.12539954  1
  O2-  O177  1  0.80853565  0.66148170  0.62201310  1
  O2-  O178  1  0.80525052  0.99520608  0.12592845  1
  O2-  O179  1  0.80885772  0.99576001  0.62556516  1
  O2-  O180  1  0.30714096  0.17223299  0.37504900  1
  O2-  O181  1  0.30427543  0.17671240  0.87268763  1
  O2-  O182  1  0.30365260  0.50706049  0.37576485  1
  O2-  O183  1  0.31782580  0.49518858  0.87420495  1
  O2-  O184  1  0.30876860  0.84014408  0.37456855  1
  O2-  O185  1  0.31041688  0.84002940  0.87465125  1
  O2-  O186  1  0.63618692  0.17471870  0.37491257  1
  O2-  O187  1  0.64055048  0.17643916  0.87520197  1
  O2-  O188  1  0.64189388  0.50377956  0.37611067  1
  O2-  O189  1  0.64825634  0.49488753  0.87259988  1
  O2-  O190  1  0.64377578  0.84253251  0.37350332  1
  O2-  O191  1  0.64206970  0.84109665  0.87371083  1
  O2-  O192  1  0.97281165  0.17067294  0.37539509  1
  O2-  O193  1  0.97414321  0.17486167  0.87491994  1
  O2-  O194  1  0.96868975  0.50835210  0.37439966  1
  O2-  O195  1  0.97305930  0.50314688  0.87592737  1
  O2-  O196  1  0.97337734  0.83761121  0.37392789  1
  O2-  O197  1  0.97523397  0.84017184  0.87488843  1
  O2-  O198  1  0.19421052  0.00976731  0.37529597  1
  O2-  O199  1  0.19175460  0.00785896  0.87323011  1
  O2-  O200  1  0.19218104  0.33569268  0.37532755  1
  O2-  O201  1  0.19076773  0.33870585  0.87248607  1
  O2-  O202  1  0.18886707  0.67570111  0.37444152  1
  O2-  O203  1  0.18335625  0.67044299  0.87552463  1
  O2-  O204  1  0.52747110  0.00154946  0.37493930  1
  O2-  O205  1  0.52666680  0.00922880  0.87393252  1
  O2-  O206  1  0.52663953  0.34187539  0.37662084  1
  O2-  O207  1  0.52222447  0.33470866  0.87216232  1
  O2-  O208  1  0.52761122  0.67474689  0.37533425  1
  O2-  O209  1  0.51720597  0.67031707  0.87264093  1
  O2-  O210  1  0.85854385  0.00210035  0.37514692  1
  O2-  O211  1  0.86163346  0.00796931  0.87326444  1
  O2-  O212  1  0.85916176  0.34239722  0.37522798  1
  O2-  O213  1  0.86127896  0.34012209  0.87559866  1
  O2-  O214  1  0.86036224  0.67608495  0.37567981  1
  O2-  O215  1  0.86013816  0.67028681  0.87714170  1
  O2-  O216  1  0.23861920  0.09388373  0.02182932  1
  O2-  O217  1  0.23652447  0.09579980  0.52265984  1
  O2-  O218  1  0.23938393  0.42541406  0.02189207  1
  O2-  O219  1  0.23617412  0.42483416  0.52038286  1
  O2-  O220  1  0.24191822  0.75737942  0.01726631  1
  O2-  O221  1  0.23994020  0.76280168  0.51622731  1
  O2-  O222  1  0.56906497  0.09738778  0.01768307  1
  O2-  O223  1  0.57017648  0.09368498  0.52164725  1
  O2-  O224  1  0.57525468  0.42389987  0.01704134  1
  O2-  O225  1  0.57143756  0.43242591  0.52207590  1
  O2-  O226  1  0.57380417  0.76206682  0.01813391  1
  O2-  O227  1  0.57515158  0.76393052  0.51939894  1
  O2-  O228  1  0.90327465  0.09606936  0.02201877  1
  O2-  O229  1  0.90742385  0.09324079  0.52114620  1
  O2-  O230  1  0.90557185  0.42682153  0.02472344  1
  O2-  O231  1  0.90306715  0.42859463  0.52378154  1
  O2-  O232  1  0.90508456  0.76032979  0.01999968  1
  O2-  O233  1  0.90531538  0.76061891  0.52219764  1
  O2-  O234  1  0.26336273  0.25959796  0.23156614  1
  O2-  O235  1  0.26266553  0.26289752  0.72769626  1
  O2-  O236  1  0.26045039  0.59506020  0.23026090  1
  O2-  O237  1  0.25505898  0.58801213  0.73144594  1
  O2-  O238  1  0.26419259  0.92920955  0.23100857  1
  O2-  O239  1  0.26153983  0.93003380  0.73167973  1
  O2-  O240  1  0.59879931  0.26145294  0.22827861  1
  O2-  O241  1  0.59372961  0.26278148  0.72801727  1
  O2-  O242  1  0.59726995  0.59768080  0.23587488  1
  O2-  O243  1  0.59562264  0.59390161  0.72973483  1
  O2-  O244  1  0.59450109  0.92839361  0.22520992  1
  O2-  O245  1  0.59685932  0.92722010  0.72864507  1
  O2-  O246  1  0.92548833  0.25978518  0.22797960  1
  O2-  O247  1  0.92890325  0.26212251  0.72875286  1
  O2-  O248  1  0.92986618  0.59401974  0.22779692  1
  O2-  O249  1  0.92774626  0.59604122  0.73208453  1
  O2-  O250  1  0.92688430  0.92914990  0.23045623  1
  O2-  O251  1  0.92919168  0.92594459  0.72576727  1
  O2-  O252  1  0.09727092  0.23669252  0.26776385  1
  O2-  O253  1  0.09495184  0.23728935  0.77316857  1
  O2-  O254  1  0.09499993  0.56827354  0.27325816  1
  O2-  O255  1  0.08804923  0.57327659  0.76521083  1
  O2-  O256  1  0.09500023  0.90700421  0.27481470  1
  O2-  O257  1  0.09826899  0.90333358  0.76951995  1
  O2-  O258  1  0.43053109  0.23757843  0.27354813  1
  O2-  O259  1  0.42654207  0.23953384  0.76850063  1
  O2-  O260  1  0.42482583  0.57481492  0.27547742  1
  O2-  O261  1  0.42507961  0.57426286  0.75787158  1
  O2-  O262  1  0.43237586  0.90386766  0.26662628  1
  O2-  O263  1  0.42939499  0.90849575  0.77176659  1
  O2-  O264  1  0.76287769  0.23542850  0.27294724  1
  O2-  O265  1  0.76366641  0.24108155  0.77020153  1
  O2-  O266  1  0.76286538  0.57062059  0.27131508  1
  O2-  O267  1  0.76174300  0.57034632  0.76815750  1
  O2-  O268  1  0.76483114  0.90295030  0.26703176  1
  O2-  O269  1  0.76259522  0.90647626  0.77162072  1
  O2-  O270  1  0.07147450  0.07054437  0.47884235  1
  O2-  O271  1  0.06683347  0.07032245  0.98259215  1
  O2-  O272  1  0.06469300  0.40310138  0.48001056  1
  O2-  O273  1  0.06975837  0.40146987  0.98493175  1
  O2-  O274  1  0.06940385  0.73681683  0.48199237  1
  O2-  O275  1  0.07142871  0.73972450  0.98189246  1
  O2-  O276  1  0.40138074  0.06744559  0.48115426  1
  O2-  O277  1  0.40337496  0.07501654  0.97748165  1
  O2-  O278  1  0.40418339  0.40573267  0.47665708  1
  O2-  O279  1  0.40398077  0.40289118  0.98833555  1
  O2-  O280  1  0.40742024  0.74281412  0.47734337  1
  O2-  O281  1  0.40886558  0.74333587  0.98353234  1
  O2-  O282  1  0.73410925  0.07026732  0.48121909  1
  O2-  O283  1  0.73937442  0.07519690  0.97547005  1
  O2-  O284  1  0.73440939  0.40162387  0.48150894  1
  O2-  O285  1  0.74335309  0.40569689  0.98005555  1
  O2-  O286  1  0.74013198  0.73792781  0.47922588  1
  O2-  O287  1  0.74239196  0.74121811  0.98113214  1
  O2-  O288  1  0.09373892  0.23764318  0.47847583  1
  O2-  O289  1  0.09625131  0.23653650  0.98064711  1
  O2-  O290  1  0.09257505  0.56841357  0.47735415  1
  O2-  O291  1  0.08910704  0.57291318  0.98438287  1
  O2-  O292  1  0.09707247  0.90508416  0.47728063  1
  O2-  O293  1  0.09698959  0.90678324  0.97981204  1
  O2-  O294  1  0.42871506  0.23515761  0.47829439  1
  O2-  O295  1  0.42790737  0.24003389  0.98025183  1
  O2-  O296  1  0.42608198  0.57587680  0.47736888  1
  O2-  O297  1  0.42242004  0.57512797  0.99001851  1
  O2-  O298  1  0.43085338  0.90373511  0.48226034  1
  O2-  O299  1  0.43182197  0.90808588  0.97940720  1
  O2-  O300  1  0.76305589  0.23686771  0.47555295  1
  O2-  O301  1  0.76274895  0.23971840  0.97901798  1
  O2-  O302  1  0.76276528  0.57148397  0.47538828  1
  O2-  O303  1  0.76344043  0.56988970  0.98351334  1
  O2-  O304  1  0.76368740  0.90307611  0.48453601  1
  O2-  O305  1  0.76363413  0.90657042  0.97741273  1
  O2-  O306  1  0.07157026  0.07166583  0.27137349  1
  O2-  O307  1  0.06738631  0.06732859  0.76798656  1
  O2-  O308  1  0.06686559  0.40129522  0.27193996  1
  O2-  O309  1  0.06874678  0.40188087  0.76403443  1
  O2-  O310  1  0.07039065  0.73558826  0.26588806  1
  O2-  O311  1  0.07007939  0.74009420  0.77163726  1
  O2-  O312  1  0.40290551  0.06830371  0.27069052  1
  O2-  O313  1  0.40200960  0.07572029  0.77147366  1
  O2-  O314  1  0.40460058  0.40603092  0.27252881  1
  O2-  O315  1  0.40331153  0.40200765  0.76285746  1
  O2-  O316  1  0.40675382  0.74064612  0.27296605  1
  O2-  O317  1  0.41098087  0.74530150  0.76581890  1
  O2-  O318  1  0.73645404  0.07073087  0.27347700  1
  O2-  O319  1  0.73821238  0.07384970  0.77044330  1
  O2-  O320  1  0.73991853  0.40378713  0.26878429  1
  O2-  O321  1  0.73870758  0.40302727  0.76809247  1
  O2-  O322  1  0.73816864  0.73954981  0.27161287  1
  O2-  O323  1  0.74355118  0.74139061  0.76863083  1
  O2-  O324  1  0.23834322  0.09503900  0.22920260  1
  O2-  O325  1  0.23687610  0.09457731  0.72514225  1
  O2-  O326  1  0.23711170  0.42484967  0.23192348  1
  O2-  O327  1  0.23834956  0.42469529  0.72502832  1
  O2-  O328  1  0.24538979  0.75673982  0.23079836  1
  O2-  O329  1  0.23691461  0.76270715  0.73493580  1
  O2-  O330  1  0.56922627  0.09575603  0.23135818  1
  O2-  O331  1  0.57035859  0.09483794  0.72824369  1
  O2-  O332  1  0.57259029  0.42752172  0.23684988  1
  O2-  O333  1  0.57334893  0.42785465  0.72397032  1
  O2-  O334  1  0.57395688  0.76400248  0.23031728  1
  O2-  O335  1  0.57576383  0.76168933  0.73079039  1
  O2-  O336  1  0.90421824  0.09174621  0.22814681  1
  O2-  O337  1  0.90563549  0.09746124  0.72762424  1
  O2-  O338  1  0.90580509  0.42601530  0.22601557  1
  O2-  O339  1  0.90292965  0.42879356  0.72679965  1
  O2-  O340  1  0.90407548  0.76049099  0.22851769  1
  O2-  O341  1  0.90736004  0.76166699  0.73023424  1
  O2-  O342  1  0.26224128  0.26119931  0.02304659  1
  O2-  O343  1  0.26459538  0.26085087  0.51623196  1
  O2-  O344  1  0.25740933  0.59081409  0.02135538  1
  O2-  O345  1  0.25775960  0.59295326  0.51826526  1
  O2-  O346  1  0.26536962  0.93021713  0.01593229  1
  O2-  O347  1  0.26115119  0.92813731  0.52116338  1
  O2-  O348  1  0.59584557  0.26147409  0.02214790  1
  O2-  O349  1  0.59727156  0.26204809  0.52079976  1
  O2-  O350  1  0.59404010  0.59566062  0.01744786  1
  O2-  O351  1  0.60019089  0.59685169  0.51495435  1
  O2-  O352  1  0.59805938  0.92998495  0.02091084  1
  O2-  O353  1  0.59242059  0.92775611  0.52408585  1
  O2-  O354  1  0.92851315  0.26094202  0.02147888  1
  O2-  O355  1  0.92655197  0.26030578  0.52199360  1
  O2-  O356  1  0.92632851  0.59417817  0.02260302  1
  O2-  O357  1  0.93102372  0.59680054  0.51840700  1
  O2-  O358  1  0.92639376  0.92802808  0.02260113  1
  O2-  O359  1  0.93081288  0.92636076  0.52034759  1
