# generated using pymatgen
data_Sr7Ca15Pr50Mn72O216
_symmetry_space_group_name_H-M   'P 1'
_cell_length_a   16.55520991
_cell_length_b   16.59825946
_cell_length_c   15.58877277
_cell_angle_alpha   89.99849491
_cell_angle_beta   90.00224325
_cell_angle_gamma   89.99460306
_symmetry_Int_Tables_number   1
_chemical_formula_structural   Sr7Ca15Pr50Mn72O216
_chemical_formula_sum   'Sr7 Ca15 Pr50 Mn72 O216'
_cell_volume   4283.60251702
_cell_formula_units_Z   1
loop_
 _symmetry_equiv_pos_site_id
 _symmetry_equiv_pos_as_xyz
  1  'x, y, z'
loop_
 _atom_type_symbol
 _atom_type_oxidation_number
  Sr2+  2.0
  Ca2+  2.0
  Pr3+  3.0
  Mn3.30+  3.3
  O2-  -2.0
loop_
 _atom_site_type_symbol
 _atom_site_label
 _atom_site_symmetry_multiplicity
 _atom_site_fract_x
 _atom_site_fract_y
 _atom_site_fract_z
 _atom_site_occupancy
  Sr2+  Sr0  1  0.33181054  0.01044914  0.62431983  1
  Sr2+  Sr1  1  0.33391099  0.65690759  0.87637137  1
  Sr2+  Sr2  1  0.83243574  0.15513476  0.37465623  1
  Sr2+  Sr3  1  0.16842640  0.17855804  0.12498233  1
  Sr2+  Sr4  1  0.83549934  0.51099728  0.62494095  1
  Sr2+  Sr5  1  0.49999749  0.15436850  0.37469757  1
  Sr2+  Sr6  1  0.49817862  0.51017103  0.12488870  1
  Ca2+  Ca7  1  0.33446660  0.65528291  0.37111068  1
  Ca2+  Ca8  1  0.67054650  0.98732508  0.37727669  1
  Ca2+  Ca9  1  0.83734779  0.84900409  0.12681660  1
  Ca2+  Ca10  1  1.00401522  0.31863593  0.87533871  1
  Ca2+  Ca11  1  0.17429731  0.51652845  0.12504181  1
  Ca2+  Ca12  1  0.32944586  0.68131777  0.62455322  1
  Ca2+  Ca13  1  0.32700249  0.35053306  0.12579032  1
  Ca2+  Ca14  1  0.83161263  0.15252249  0.87573927  1
  Ca2+  Ca15  1  0.32955871  0.67811815  0.12537482  1
  Ca2+  Ca16  1  0.16428176  0.81921074  0.37523284  1
  Ca2+  Ca17  1  0.66295273  0.01480473  0.62167852  1
  Ca2+  Ca18  1  1.00438029  0.98254849  0.37451889  1
  Ca2+  Ca19  1  1.00341636  0.31903302  0.37410881  1
  Ca2+  Ca20  1  0.66837122  0.65170285  0.87552648  1
  Ca2+  Ca21  1  1.00521992  0.65131180  0.87510755  1
  Pr3+  Pr22  1  0.83504267  0.17798471  0.62549508  1
  Pr3+  Pr23  1  0.66298524  0.67923856  0.12367669  1
  Pr3+  Pr24  1  0.50208904  0.51460980  0.62516481  1
  Pr3+  Pr25  1  0.17020159  0.84304234  0.12599503  1
  Pr3+  Pr26  1  0.66426331  0.67874038  0.62617074  1
  Pr3+  Pr27  1  0.17000895  0.84470808  0.62423072  1
  Pr3+  Pr28  1  0.33566128  0.32365845  0.87767084  1
  Pr3+  Pr29  1  0.49639589  0.82275590  0.37511208  1
  Pr3+  Pr30  1  0.16204310  0.81572148  0.87470988  1
  Pr3+  Pr31  1  0.33586141  0.98697587  0.87464867  1
  Pr3+  Pr32  1  0.83432762  0.84640906  0.62379276  1
  Pr3+  Pr33  1  0.49479839  0.48925905  0.37308911  1
  Pr3+  Pr34  1  0.83097617  0.82583597  0.37278242  1
  Pr3+  Pr35  1  -0.00241409  0.68138529  0.12455805  1
  Pr3+  Pr36  1  0.49748540  0.15350483  0.87551506  1
  Pr3+  Pr37  1  0.83349203  0.48743065  0.37526351  1
  Pr3+  Pr38  1  0.83895761  0.17896719  0.12445248  1
  Pr3+  Pr39  1  0.33113661  0.34540424  0.62402895  1
  Pr3+  Pr40  1  0.66533238  0.34551565  0.12594638  1
  Pr3+  Pr41  1  0.50139744  0.84760930  0.62523212  1
  Pr3+  Pr42  1  0.16378081  0.15482665  0.87568014  1
  Pr3+  Pr43  1  0.83676071  0.51262895  0.12506619  1
  Pr3+  Pr44  1  0.15976545  0.15323238  0.37444779  1
  Pr3+  Pr45  1  0.99960906  0.98798331  0.87533238  1
  Pr3+  Pr46  1  0.50172681  0.17928670  0.12674778  1
  Pr3+  Pr47  1  0.67201093  0.98834654  0.87380229  1
  Pr3+  Pr48  1  0.16428770  0.48625628  0.37259613  1
  Pr3+  Pr49  1  -0.00356838  0.01235342  0.62312485  1
  Pr3+  Pr50  1  -0.00386442  0.67851199  0.62574524  1
  Pr3+  Pr51  1  -0.00401239  0.01152411  0.12727698  1
  Pr3+  Pr52  1  0.17088202  0.51459285  0.62429981  1
  Pr3+  Pr53  1  0.83482261  0.49056181  0.87464695  1
  Pr3+  Pr54  1  0.33604556  0.32027575  0.37225435  1
  Pr3+  Pr55  1  1.00465061  0.65647631  0.37473668  1
  Pr3+  Pr56  1  0.49685721  0.49040860  0.87695407  1
  Pr3+  Pr57  1  0.66711191  0.00969962  0.12754431  1
  Pr3+  Pr58  1  0.49766433  0.84007882  0.12445804  1
  Pr3+  Pr59  1  0.50391955  0.17763221  0.62323918  1
  Pr3+  Pr60  1  0.66847196  0.65555779  0.37420412  1
  Pr3+  Pr61  1  0.16930535  0.17994620  0.62514835  1
  Pr3+  Pr62  1  0.66934223  0.32104728  0.37367562  1
  Pr3+  Pr63  1  0.66541463  0.34598395  0.62429566  1
  Pr3+  Pr64  1  -0.00379459  0.34644196  0.62464548  1
  Pr3+  Pr65  1  0.32881472  0.01259044  0.12590794  1
  Pr3+  Pr66  1  0.49812871  0.81974598  0.87497849  1
  Pr3+  Pr67  1  0.82841637  0.81678251  0.87663370  1
  Pr3+  Pr68  1  0.00010742  0.34618017  0.12514508  1
  Pr3+  Pr69  1  0.33525915  0.98856448  0.37531854  1
  Pr3+  Pr70  1  0.67175088  0.31987088  0.87625932  1
  Pr3+  Pr71  1  0.16206375  0.48770400  0.87749292  1
  Mn3.30+  Mn72  1  0.16586181  -0.00096534  -0.00036967  1
  Mn3.30+  Mn73  1  0.16544047  -0.00163181  0.49885933  1
  Mn3.30+  Mn74  1  0.16683342  0.33476076  0.00142393  1
  Mn3.30+  Mn75  1  0.16510475  0.33366123  0.49875361  1
  Mn3.30+  Mn76  1  0.16598800  0.66413016  0.00137657  1
  Mn3.30+  Mn77  1  0.16944253  0.66756865  0.49825498  1
  Mn3.30+  Mn78  1  0.50071019  -0.00088478  0.00123640  1
  Mn3.30+  Mn79  1  0.50216805  0.00025522  0.49881079  1
  Mn3.30+  Mn80  1  0.49950627  0.33432702  0.00194708  1
  Mn3.30+  Mn81  1  0.49907581  0.33359379  0.49900346  1
  Mn3.30+  Mn82  1  0.49904480  0.66571140  0.00051999  1
  Mn3.30+  Mn83  1  0.49600301  0.66834257  0.49992432  1
  Mn3.30+  Mn84  1  0.83364305  -0.00031699  0.00007440  1
  Mn3.30+  Mn85  1  0.83188839  0.00036938  0.49833833  1
  Mn3.30+  Mn86  1  0.83634020  0.33283635  -0.00225851  1
  Mn3.30+  Mn87  1  0.83482143  0.33263613  0.49911504  1
  Mn3.30+  Mn88  1  0.83375109  0.66686942  -0.00031056  1
  Mn3.30+  Mn89  1  0.83353939  0.66762334  0.49951019  1
  Mn3.30+  Mn90  1  0.00058173  0.16655321  0.25137281  1
  Mn3.30+  Mn91  1  -0.00095787  0.16712495  0.75197592  1
  Mn3.30+  Mn92  1  0.00356027  0.49978358  0.24843175  1
  Mn3.30+  Mn93  1  0.00046280  0.49990570  0.75104870  1
  Mn3.30+  Mn94  1  0.00082419  0.83424658  0.25065622  1
  Mn3.30+  Mn95  1  -0.00147997  0.83159801  0.75102422  1
  Mn3.30+  Mn96  1  0.33195521  0.16765815  0.24946333  1
  Mn3.30+  Mn97  1  0.33353697  0.16720857  0.74977509  1
  Mn3.30+  Mn98  1  0.33039355  0.50274112  0.24826138  1
  Mn3.30+  Mn99  1  0.33264861  0.50232989  0.75037217  1
  Mn3.30+  Mn100  1  0.33090190  0.83082073  0.25195688  1
  Mn3.30+  Mn101  1  0.33282562  0.83158131  0.74881507  1
  Mn3.30+  Mn102  1  0.66857037  0.16437880  0.25096620  1
  Mn3.30+  Mn103  1  0.66875352  0.16587626  0.75010728  1
  Mn3.30+  Mn104  1  0.66608963  0.50075109  0.24971658  1
  Mn3.30+  Mn105  1  0.66721261  0.50134582  0.75111334  1
  Mn3.30+  Mn106  1  0.66663692  0.83453221  0.24927173  1
  Mn3.30+  Mn107  1  0.66668378  0.83331820  0.75023029  1
  Mn3.30+  Mn108  1  0.16470906  -0.00196910  0.25154003  1
  Mn3.30+  Mn109  1  0.16645939  -0.00074809  0.74998062  1
  Mn3.30+  Mn110  1  0.16720874  0.33402397  0.24837515  1
  Mn3.30+  Mn111  1  0.16518931  0.33431231  0.75113941  1
  Mn3.30+  Mn112  1  0.16925971  0.66664190  0.25052994  1
  Mn3.30+  Mn113  1  0.16598652  0.66482508  0.74981763  1
  Mn3.30+  Mn114  1  0.50036480  -0.00153392  0.25096678  1
  Mn3.30+  Mn115  1  0.50259187  0.00082892  0.74896471  1
  Mn3.30+  Mn116  1  0.49787568  0.33359429  0.24816015  1
  Mn3.30+  Mn117  1  0.50067900  0.33389259  0.75084702  1
  Mn3.30+  Mn118  1  0.49689278  0.66660457  0.24909007  1
  Mn3.30+  Mn119  1  0.49860088  0.66761919  0.75005553  1
  Mn3.30+  Mn120  1  0.83350770  -0.00048860  0.25286765  1
  Mn3.30+  Mn121  1  0.83166845  0.00075362  0.74830348  1
  Mn3.30+  Mn122  1  0.83566290  0.33315310  0.25054458  1
  Mn3.30+  Mn123  1  0.83578223  0.33245920  0.75287834  1
  Mn3.30+  Mn124  1  0.83396971  0.66891396  0.24893606  1
  Mn3.30+  Mn125  1  0.83329232  0.66550020  0.75187340  1
  Mn3.30+  Mn126  1  -0.00014639  0.16772647  -0.00157404  1
  Mn3.30+  Mn127  1  -0.00039770  0.16571877  0.49821368  1
  Mn3.30+  Mn128  1  0.00266343  0.50025978  0.00155429  1
  Mn3.30+  Mn129  1  0.00094016  0.49952236  0.49867482  1
  Mn3.30+  Mn130  1  -0.00229154  0.83216833  -0.00019764  1
  Mn3.30+  Mn131  1  0.00169321  0.83379457  0.49869490  1
  Mn3.30+  Mn132  1  0.33224054  0.16899687  0.00097305  1
  Mn3.30+  Mn133  1  0.33312878  0.16585101  0.49951436  1
  Mn3.30+  Mn134  1  0.33049092  0.50195910  0.00250667  1
  Mn3.30+  Mn135  1  0.33265585  0.50377749  0.49903399  1
  Mn3.30+  Mn136  1  0.33231611  0.83106565  0.00003228  1
  Mn3.30+  Mn137  1  0.33114449  0.83127321  0.49869409  1
  Mn3.30+  Mn138  1  0.66875001  0.16552802  0.00085551  1
  Mn3.30+  Mn139  1  0.66833016  0.16449831  0.49864250  1
  Mn3.30+  Mn140  1  0.66698954  0.50109504  -0.00060885  1
  Mn3.30+  Mn141  1  0.66619509  0.50121656  0.49992520  1
  Mn3.30+  Mn142  1  0.66830575  0.83235659  0.00100555  1
  Mn3.30+  Mn143  1  0.66568274  0.83564804  0.49946397  1
  O2-  O144  1  0.01871724  0.15923281  0.12406406  1
  O2-  O145  1  0.02569815  0.15960147  0.62513066  1
  O2-  O146  1  0.03004197  0.49259322  0.12633212  1
  O2-  O147  1  0.02601782  0.49357757  0.62365431  1
  O2-  O148  1  0.02574644  0.83069688  0.12432938  1
  O2-  O149  1  0.02489787  0.82702431  0.62520299  1
  O2-  O150  1  0.35809753  0.15871565  0.12347257  1
  O2-  O151  1  0.35841719  0.16743797  0.62573814  1
  O2-  O152  1  0.35127903  0.49201360  0.12539317  1
  O2-  O153  1  0.35871768  0.49068361  0.62459012  1
  O2-  O154  1  0.35345346  0.82737434  0.12573286  1
  O2-  O155  1  0.35690979  0.82684827  0.62389541  1
  O2-  O156  1  0.69451514  0.15947728  0.12532574  1
  O2-  O157  1  0.69119516  0.16282142  0.62415188  1
  O2-  O158  1  0.69286732  0.49483599  0.12522765  1
  O2-  O159  1  0.68610270  0.49566899  0.62499836  1
  O2-  O160  1  0.69555549  0.82595937  0.12393901  1
  O2-  O161  1  0.69156796  0.82406488  0.62474440  1
  O2-  O162  1  0.14165839  0.33045105  0.12471868  1
  O2-  O163  1  0.14080388  0.32941096  0.62591935  1
  O2-  O164  1  0.14079647  0.66407535  0.12523939  1
  O2-  O165  1  0.13953311  0.66189942  0.62443209  1
  O2-  O166  1  0.14104608  0.99243461  0.12581484  1
  O2-  O167  1  0.14037123  0.99409924  0.62611679  1
  O2-  O168  1  0.47273232  0.32676108  0.12458606  1
  O2-  O169  1  0.47558960  0.32735744  0.62567629  1
  O2-  O170  1  0.47443763  0.67071658  0.12560806  1
  O2-  O171  1  0.47214029  0.66224564  0.62376762  1
  O2-  O172  1  0.47193013  0.99134382  0.12487605  1
  O2-  O173  1  0.48012839  0.99717298  0.62571239  1
  O2-  O174  1  0.80954787  0.32950892  0.12291860  1
  O2-  O175  1  0.80908563  0.32770082  0.62789191  1
  O2-  O176  1  0.80650422  0.65931572  0.12459641  1
  O2-  O177  1  0.80846287  0.66609361  0.62378449  1
  O2-  O178  1  0.81157554  0.99542988  0.12675085  1
  O2-  O179  1  0.80590423  0.99403598  0.62465115  1
  O2-  O180  1  0.30585572  0.17168135  0.37484901  1
  O2-  O181  1  0.30871312  0.17417069  0.87582150  1
  O2-  O182  1  0.30772930  0.50891809  0.37527263  1
  O2-  O183  1  0.30727773  0.50189897  0.87456773  1
  O2-  O184  1  0.30573097  0.84287326  0.37504577  1
  O2-  O185  1  0.30817902  0.83929989  0.87491960  1
  O2-  O186  1  0.64787336  0.17571605  0.37416912  1
  O2-  O187  1  0.64097984  0.17141649  0.87707952  1
  O2-  O188  1  0.64036390  0.50550146  0.37501023  1
  O2-  O189  1  0.64164242  0.50450894  0.87497618  1
  O2-  O190  1  0.64095035  0.83987584  0.37520973  1
  O2-  O191  1  0.64136092  0.84231751  0.87582061  1
  O2-  O192  1  0.98155036  0.17593918  0.37623886  1
  O2-  O193  1  0.97375603  0.17195112  0.87482800  1
  O2-  O194  1  0.97635774  0.50918446  0.37272286  1
  O2-  O195  1  0.97781616  0.50910361  0.87712759  1
  O2-  O196  1  0.97477039  0.83449332  0.37535857  1
  O2-  O197  1  0.97151259  0.84045968  0.87559561  1
  O2-  O198  1  0.19203426  0.00719460  0.37472940  1
  O2-  O199  1  0.19110149  0.00519607  0.87394349  1
  O2-  O200  1  0.19236054  0.33710460  0.37391046  1
  O2-  O201  1  0.19253253  0.33915615  0.87520574  1
  O2-  O202  1  0.19230004  0.67333612  0.37574945  1
  O2-  O203  1  0.18447568  0.66744588  0.87514550  1
  O2-  O204  1  0.52646346  -0.00414075  0.37283039  1
  O2-  O205  1  0.52812157  0.00569454  0.87602184  1
  O2-  O206  1  0.52421907  0.34014920  0.37402160  1
  O2-  O207  1  0.52610323  0.33926069  0.87586210  1
  O2-  O208  1  0.52552584  0.67236611  0.37533159  1
  O2-  O209  1  0.52594062  0.67149169  0.87521633  1
  O2-  O210  1  0.86072201  -0.00349451  0.37592523  1
  O2-  O211  1  0.85595260  0.00561319  0.87272166  1
  O2-  O212  1  0.85989390  0.34004059  0.37276140  1
  O2-  O213  1  0.86297011  0.34329042  0.87591016  1
  O2-  O214  1  0.85924593  0.67510062  0.37379624  1
  O2-  O215  1  0.86253777  0.67065426  0.87801603  1
  O2-  O216  1  0.24284827  0.09375155  0.01590918  1
  O2-  O217  1  0.23561230  0.09677039  0.51752370  1
  O2-  O218  1  0.23399282  0.43238285  0.01637024  1
  O2-  O219  1  0.23856237  0.42898063  0.51835207  1
  O2-  O220  1  0.23271956  0.76085954  0.01433009  1
  O2-  O221  1  0.23722444  0.76096847  0.52179661  1
  O2-  O222  1  0.56998561  0.09245197  0.02287092  1
  O2-  O223  1  0.57322428  0.09645464  0.51876322  1
  O2-  O224  1  0.57696883  0.42400946  0.01909186  1
  O2-  O225  1  0.57113942  0.42749114  0.52003067  1
  O2-  O226  1  0.57383894  0.76186584  0.02056445  1
  O2-  O227  1  0.56947273  0.76120326  0.52058882  1
  O2-  O228  1  0.90568178  0.09362624  0.01871810  1
  O2-  O229  1  0.90457280  0.09279682  0.52290338  1
  O2-  O230  1  0.90761274  0.42945143  0.02209026  1
  O2-  O231  1  0.90702036  0.42538309  0.51686723  1
  O2-  O232  1  0.90203322  0.76367479  0.02333980  1
  O2-  O233  1  0.90569172  0.76196272  0.52029434  1
  O2-  O234  1  0.26364870  0.26772138  0.23201546  1
  O2-  O235  1  0.26072315  0.26399557  0.73010479  1
  O2-  O236  1  0.26358188  0.59816686  0.22980289  1
  O2-  O237  1  0.26216857  0.59387507  0.72556945  1
  O2-  O238  1  0.26082264  0.92764532  0.22913269  1
  O2-  O239  1  0.25804907  0.92533226  0.73224721  1
  O2-  O240  1  0.59495167  0.25774561  0.22835749  1
  O2-  O241  1  0.59764517  0.26138363  0.73027998  1
  O2-  O242  1  0.59594083  0.59743145  0.23279345  1
  O2-  O243  1  0.59132758  0.59616520  0.72799734  1
  O2-  O244  1  0.59116405  0.92303300  0.22324463  1
  O2-  O245  1  0.59743656  0.92906571  0.72907485  1
  O2-  O246  1  0.92687478  0.26080858  0.22721873  1
  O2-  O247  1  0.92795275  0.25958116  0.72664295  1
  O2-  O248  1  0.93012097  0.59355148  0.22796916  1
  O2-  O249  1  0.93012123  0.59426244  0.73168971  1
  O2-  O250  1  0.92893899  0.92796475  0.23219262  1
  O2-  O251  1  0.92622790  0.92852927  0.72863439  1
  O2-  O252  1  0.09662491  0.23897497  0.26740002  1
  O2-  O253  1  0.09797540  0.23767275  0.76828420  1
  O2-  O254  1  0.09672807  0.57474935  0.27275989  1
  O2-  O255  1  0.09818852  0.56759806  0.76456256  1
  O2-  O256  1  0.09699396  0.90139166  0.27031184  1
  O2-  O257  1  0.09150995  0.90389032  0.77165141  1
  O2-  O258  1  0.42626012  0.23988448  0.26842311  1
  O2-  O259  1  0.42876977  0.24013165  0.77163702  1
  O2-  O260  1  0.42806136  0.57284574  0.26953248  1
  O2-  O261  1  0.43132850  0.56939952  0.76724753  1
  O2-  O262  1  0.42544314  0.90456116  0.26957424  1
  O2-  O263  1  0.43083275  0.90838237  0.77024989  1
  O2-  O264  1  0.75999249  0.24258642  0.26502342  1
  O2-  O265  1  0.76397103  0.23839859  0.77362528  1
  O2-  O266  1  0.76225606  0.57326338  0.27141771  1
  O2-  O267  1  0.76207352  0.57302133  0.77116103  1
  O2-  O268  1  0.76031456  0.90626915  0.26809682  1
  O2-  O269  1  0.76286842  0.90393106  0.77065334  1
  O2-  O270  1  0.06930385  0.06910540  0.47949862  1
  O2-  O271  1  0.07102368  0.07269946  0.97872537  1
  O2-  O272  1  0.07277273  0.40327636  0.47769547  1
  O2-  O273  1  0.07022002  0.40298865  0.97774186  1
  O2-  O274  1  0.07078518  0.73596790  0.48280872  1
  O2-  O275  1  0.06767315  0.73672785  0.98088753  1
  O2-  O276  1  0.40583590  0.07107207  0.48014012  1
  O2-  O277  1  0.40637258  0.07248913  0.97860096  1
  O2-  O278  1  0.40324172  0.40771304  0.47817249  1
  O2-  O279  1  0.40622766  0.40912536  0.97846158  1
  O2-  O280  1  0.40426058  0.73945955  0.47442204  1
  O2-  O281  1  0.41057255  0.74404100  0.98090479  1
  O2-  O282  1  0.73736824  0.06973545  0.48055726  1
  O2-  O283  1  0.73631973  0.06980878  0.98333288  1
  O2-  O284  1  0.73878715  0.40661542  0.47937696  1
  O2-  O285  1  0.74209386  0.40478658  0.97907984  1
  O2-  O286  1  0.73688077  0.74128429  0.47837485  1
  O2-  O287  1  0.73736333  0.73611346  0.97633483  1
  O2-  O288  1  0.09705072  0.23585479  0.48533951  1
  O2-  O289  1  0.09588392  0.23860514  0.97989715  1
  O2-  O290  1  0.09817829  0.57195923  0.47977438  1
  O2-  O291  1  0.09569800  0.57033585  0.98301328  1
  O2-  O292  1  0.09522553  0.90140934  0.48096845  1
  O2-  O293  1  0.09233773  0.90285294  0.97760162  1
  O2-  O294  1  0.42451025  0.24216893  0.48128750  1
  O2-  O295  1  0.42919694  0.23803633  0.97942691  1
  O2-  O296  1  0.43140160  0.56990573  0.48248023  1
  O2-  O297  1  0.42823077  0.57172373  0.98163007  1
  O2-  O298  1  0.42633040  0.90427468  0.48178004  1
  O2-  O299  1  0.42899812  0.90766428  0.97834964  1
  O2-  O300  1  0.75939871  0.24192082  0.48326425  1
  O2-  O301  1  0.76451528  0.23904839  0.97823830  1
  O2-  O302  1  0.76051000  0.57512524  0.47583027  1
  O2-  O303  1  0.76476062  0.57003443  0.98189819  1
  O2-  O304  1  0.76399932  0.90371376  0.48220485  1
  O2-  O305  1  0.76049887  0.90561374  0.97849251  1
  O2-  O306  1  0.07119852  0.06907209  0.27089622  1
  O2-  O307  1  0.07110069  0.07211852  0.77132087  1
  O2-  O308  1  0.07083633  0.40336534  0.27288002  1
  O2-  O309  1  0.07151504  0.40375522  0.77213689  1
  O2-  O310  1  0.06993192  0.73679903  0.26591858  1
  O2-  O311  1  0.06940770  0.73590550  0.77063737  1
  O2-  O312  1  0.40500117  0.06897050  0.26672434  1
  O2-  O313  1  0.40760406  0.07319597  0.77379230  1
  O2-  O314  1  0.40386414  0.40998133  0.27208073  1
  O2-  O315  1  0.40457248  0.40679395  0.77061385  1
  O2-  O316  1  0.40642957  0.74164449  0.27383199  1
  O2-  O317  1  0.40988929  0.74235811  0.77004780  1
  O2-  O318  1  0.73583813  0.06775618  0.26833898  1
  O2-  O319  1  0.73798771  0.07184399  0.76905256  1
  O2-  O320  1  0.74156369  0.40666075  0.27055325  1
  O2-  O321  1  0.74106896  0.40393332  0.77120887  1
  O2-  O322  1  0.73656224  0.74117139  0.27151378  1
  O2-  O323  1  0.73674303  0.73808722  0.77255912  1
  O2-  O324  1  0.24022811  0.09194474  0.23266262  1
  O2-  O325  1  0.23749605  0.09760065  0.73341099  1
  O2-  O326  1  0.23355756  0.43319577  0.23503383  1
  O2-  O327  1  0.23804268  0.42772762  0.72896957  1
  O2-  O328  1  0.23676765  0.76150285  0.23052677  1
  O2-  O329  1  0.23300919  0.75964161  0.73381389  1
  O2-  O330  1  0.57288283  0.09099723  0.22574755  1
  O2-  O331  1  0.56945590  0.09756007  0.73287274  1
  O2-  O332  1  0.57593706  0.42355901  0.23150959  1
  O2-  O333  1  0.57211268  0.42694177  0.72982883  1
  O2-  O334  1  0.57223570  0.76096222  0.23001710  1
  O2-  O335  1  0.57146223  0.76274872  0.72897743  1
  O2-  O336  1  0.90420075  0.09320374  0.23008183  1
  O2-  O337  1  0.90508998  0.09163845  0.72713237  1
  O2-  O338  1  0.90590392  0.42837863  0.22865129  1
  O2-  O339  1  0.90872742  0.42619941  0.73187351  1
  O2-  O340  1  0.90542085  0.76284018  0.22751668  1
  O2-  O341  1  0.90304284  0.76178305  0.72983300  1
  O2-  O342  1  0.26555193  0.26747560  0.01685181  1
  O2-  O343  1  0.25926582  0.26357725  0.52017749  1
  O2-  O344  1  0.26233822  0.59697099  0.02145883  1
  O2-  O345  1  0.26220241  0.59476259  0.52470981  1
  O2-  O346  1  0.26116980  0.92645846  0.01965919  1
  O2-  O347  1  0.25877980  0.92537324  0.51874265  1
  O2-  O348  1  0.59682764  0.25896240  0.02224969  1
  O2-  O349  1  0.59500383  0.26091365  0.51989037  1
  O2-  O350  1  0.59440711  0.59607650  0.01909664  1
  O2-  O351  1  0.59386361  0.59676502  0.51990227  1
  O2-  O352  1  0.59469039  0.92636633  0.02247902  1
  O2-  O353  1  0.59445923  0.92594553  0.52392685  1
  O2-  O354  1  0.92875971  0.26119887  0.02267707  1
  O2-  O355  1  0.92754425  0.25787354  0.52372631  1
  O2-  O356  1  0.92768412  0.59325166  0.02539407  1
  O2-  O357  1  0.93115020  0.59602090  0.51588310  1
  O2-  O358  1  0.93013944  0.93017118  0.01730661  1
  O2-  O359  1  0.92688735  0.92619999  0.52271845  1
