# generated using pymatgen
data_Sr7Ca15Pr50Mn72O216
_symmetry_space_group_name_H-M   'P 1'
_cell_length_a   16.55779216
_cell_length_b   16.60479804
_cell_length_c   15.59359416
_cell_angle_alpha   89.99855113
_cell_angle_beta   90.00083342
_cell_angle_gamma   90.00916527
_symmetry_Int_Tables_number   1
_chemical_formula_structural   Sr7Ca15Pr50Mn72O216
_chemical_formula_sum   'Sr7 Ca15 Pr50 Mn72 O216'
_cell_volume   4287.28392840
_cell_formula_units_Z   1
loop_
 _symmetry_equiv_pos_site_id
 _symmetry_equiv_pos_as_xyz
  1  'x, y, z'
loop_
 _atom_type_symbol
 _atom_type_oxidation_number
  Sr2+  2.0
  Ca2+  2.0
  Pr3+  3.0
  Mn3.30+  3.3
  O2-  -2.0
loop_
 _atom_site_type_symbol
 _atom_site_label
 _atom_site_symmetry_multiplicity
 _atom_site_fract_x
 _atom_site_fract_y
 _atom_site_fract_z
 _atom_site_occupancy
  Sr2+  Sr0  1  0.66653432  0.32345266  0.87388172  1
  Sr2+  Sr1  1  0.33200290  0.34504145  0.62530046  1
  Sr2+  Sr2  1  0.33291434  0.00892595  0.12723946  1
  Sr2+  Sr3  1  0.50164955  0.50910454  0.62550719  1
  Sr2+  Sr4  1  0.66505771  0.67279153  0.62598931  1
  Sr2+  Sr5  1  0.33046650  0.34506280  0.12491978  1
  Sr2+  Sr6  1  0.83251364  0.84486085  0.12781627  1
  Ca2+  Ca7  1  0.66255935  0.01414159  0.12567666  1
  Ca2+  Ca8  1  0.17221772  0.18343654  0.62458426  1
  Ca2+  Ca9  1  0.49710145  0.15180807  0.87538872  1
  Ca2+  Ca10  1  0.83034735  0.81671927  0.37414759  1
  Ca2+  Ca11  1  0.33484501  0.65350299  0.37584332  1
  Ca2+  Ca12  1  0.33896877  0.98062717  0.37395898  1
  Ca2+  Ca13  1  0.17195113  0.51580164  0.12561494  1
  Ca2+  Ca14  1  1.00245109  0.65191196  0.87598289  1
  Ca2+  Ca15  1  0.49442779  0.81501926  0.37466976  1
  Ca2+  Ca16  1  0.83395561  0.51610599  0.62629582  1
  Ca2+  Ca17  1  0.66894090  0.65294487  0.87243621  1
  Ca2+  Ca18  1  0.16478790  0.81595956  0.37265861  1
  Ca2+  Ca19  1  0.66039318  0.35100900  0.62756831  1
  Ca2+  Ca20  1  0.33569506  0.65077073  0.87492684  1
  Ca2+  Ca21  1  1.00249799  0.65463293  0.37347033  1
  Pr3+  Pr22  1  0.82962861  0.15474717  0.87377738  1
  Pr3+  Pr23  1  0.16518857  0.49107378  0.37405747  1
  Pr3+  Pr24  1  0.32800281  0.67763527  0.12605071  1
  Pr3+  Pr25  1  0.50244772  0.17706061  0.12399605  1
  Pr3+  Pr26  1  0.16471409  0.48872259  0.87587195  1
  Pr3+  Pr27  1  0.83203539  0.49276222  0.37579668  1
  Pr3+  Pr28  1  0.66851547  0.32301924  0.37708107  1
  Pr3+  Pr29  1  0.50538726  0.18227839  0.62645853  1
  Pr3+  Pr30  1  0.82905113  0.49007256  0.87344067  1
  Pr3+  Pr31  1  1.00401611  0.98375674  0.37503624  1
  Pr3+  Pr32  1  1.00188821  0.32187607  0.87387968  1
  Pr3+  Pr33  1  0.50047814  0.51309463  0.12460930  1
  Pr3+  Pr34  1  0.66683209  0.99110954  0.87603399  1
  Pr3+  Pr35  1  0.16384409  0.81837836  0.87718970  1
  Pr3+  Pr36  1  0.33030482  0.01361465  0.62220727  1
  Pr3+  Pr37  1  -0.00186118  0.67982552  0.12537311  1
  Pr3+  Pr38  1  0.66301145  0.68081431  0.12397432  1
  Pr3+  Pr39  1  0.49631222  0.81704679  0.87564873  1
  Pr3+  Pr40  1  -0.00068663  0.34690881  0.12487441  1
  Pr3+  Pr41  1  0.67050579  0.98306305  0.37430611  1
  Pr3+  Pr42  1  0.83359351  0.18234857  0.62499854  1
  Pr3+  Pr43  1  0.49418852  0.15086466  0.37632947  1
  Pr3+  Pr44  1  0.83082108  0.15474625  0.37628750  1
  Pr3+  Pr45  1  0.66263208  0.34618936  0.12354950  1
  Pr3+  Pr46  1  0.49894590  0.49066302  0.87283026  1
  Pr3+  Pr47  1  -0.00183593  0.01124981  0.12667803  1
  Pr3+  Pr48  1  0.66324250  0.01002787  0.62391264  1
  Pr3+  Pr49  1  0.49634316  0.49115818  0.37717239  1
  Pr3+  Pr50  1  0.17053110  0.51462603  0.62468806  1
  Pr3+  Pr51  1  0.17009482  0.84623194  0.12776232  1
  Pr3+  Pr52  1  0.33209993  0.67552160  0.62413339  1
  Pr3+  Pr53  1  -0.00510330  0.67690700  0.62421396  1
  Pr3+  Pr54  1  1.00320146  0.32285525  0.37572027  1
  Pr3+  Pr55  1  -0.00080952  0.01362857  0.62322561  1
  Pr3+  Pr56  1  0.17328479  0.17809720  0.12531509  1
  Pr3+  Pr57  1  -0.00293667  0.35079723  0.62489230  1
  Pr3+  Pr58  1  0.33611472  0.32271728  0.37619274  1
  Pr3+  Pr59  1  0.83378950  0.17633119  0.12505464  1
  Pr3+  Pr60  1  1.00326068  0.98745214  0.87477950  1
  Pr3+  Pr61  1  0.16672212  0.15495530  0.87231128  1
  Pr3+  Pr62  1  0.33988221  0.31871349  0.87383321  1
  Pr3+  Pr63  1  0.83568949  0.51318455  0.12339148  1
  Pr3+  Pr64  1  0.16765594  0.15458695  0.37717922  1
  Pr3+  Pr65  1  0.50399570  0.84875447  0.12792808  1
  Pr3+  Pr66  1  0.50330302  0.83953611  0.62188670  1
  Pr3+  Pr67  1  0.82914282  0.81868338  0.87620301  1
  Pr3+  Pr68  1  0.33887834  0.98833397  0.87579975  1
  Pr3+  Pr69  1  0.66720639  0.65750421  0.37638134  1
  Pr3+  Pr70  1  0.17027254  0.84281507  0.62257801  1
  Pr3+  Pr71  1  0.83434544  0.84202677  0.62226958  1
  Mn3.30+  Mn72  1  0.16835797  -0.00038671  0.00009801  1
  Mn3.30+  Mn73  1  0.16926190  -0.00237941  0.49775931  1
  Mn3.30+  Mn74  1  0.16836116  0.33457030  -0.00018128  1
  Mn3.30+  Mn75  1  0.16745396  0.33389758  0.50113597  1
  Mn3.30+  Mn76  1  0.16582203  0.66509538  -0.00042151  1
  Mn3.30+  Mn77  1  0.16505501  0.66823038  0.49645546  1
  Mn3.30+  Mn78  1  0.50175499  0.00085447  0.00101747  1
  Mn3.30+  Mn79  1  0.49775191  -0.00423167  0.49808707  1
  Mn3.30+  Mn80  1  0.49917652  0.33285816  -0.00069628  1
  Mn3.30+  Mn81  1  0.50221834  0.33437157  0.50124812  1
  Mn3.30+  Mn82  1  0.49779783  0.66631932  -0.00120224  1
  Mn3.30+  Mn83  1  0.49860750  0.66635656  0.49894169  1
  Mn3.30+  Mn84  1  0.83291041  -0.00034710  0.00189535  1
  Mn3.30+  Mn85  1  0.83398258  -0.00153352  0.49893110  1
  Mn3.30+  Mn86  1  0.83308195  0.33326212  -0.00023241  1
  Mn3.30+  Mn87  1  0.83196495  0.33743301  0.50244992  1
  Mn3.30+  Mn88  1  0.83322276  0.66750847  -0.00126117  1
  Mn3.30+  Mn89  1  0.83417399  0.66713768  0.49873664  1
  Mn3.30+  Mn90  1  0.00169854  0.16658359  0.25131861  1
  Mn3.30+  Mn91  1  0.00123859  0.16811061  0.74691965  1
  Mn3.30+  Mn92  1  0.00195290  0.50180948  0.24836404  1
  Mn3.30+  Mn93  1  -0.00161682  0.50246489  0.75092877  1
  Mn3.30+  Mn94  1  -0.00003705  0.83160165  0.25308992  1
  Mn3.30+  Mn95  1  0.00048699  0.83204137  0.75013001  1
  Mn3.30+  Mn96  1  0.33398402  0.16472393  0.25119896  1
  Mn3.30+  Mn97  1  0.33434734  0.16611177  0.74821617  1
  Mn3.30+  Mn98  1  0.33139965  0.50085324  0.24934285  1
  Mn3.30+  Mn99  1  0.33251884  0.50083893  0.75046368  1
  Mn3.30+  Mn100  1  0.33380447  0.83152227  0.25408591  1
  Mn3.30+  Mn101  1  0.33370794  0.83139338  0.75013367  1
  Mn3.30+  Mn102  1  0.66593443  0.16570512  0.25087104  1
  Mn3.30+  Mn103  1  0.66563268  0.16730935  0.75048963  1
  Mn3.30+  Mn104  1  0.66593785  0.50164793  0.24963222  1
  Mn3.30+  Mn105  1  0.66699729  0.50094902  0.74885244  1
  Mn3.30+  Mn106  1  0.66590917  0.83384871  0.25121991  1
  Mn3.30+  Mn107  1  0.66622915  0.83149584  0.75105539  1
  Mn3.30+  Mn108  1  0.16984365  -0.00225267  0.25414935  1
  Mn3.30+  Mn109  1  0.16829868  -0.00022721  0.74757599  1
  Mn3.30+  Mn110  1  0.16789567  0.33508619  0.24955218  1
  Mn3.30+  Mn111  1  0.16778667  0.33352390  0.74932235  1
  Mn3.30+  Mn112  1  0.16581977  0.66648945  0.25180236  1
  Mn3.30+  Mn113  1  0.16511106  0.66692073  0.75242880  1
  Mn3.30+  Mn114  1  0.50034599  -0.00158711  0.25204065  1
  Mn3.30+  Mn115  1  0.49954874  -0.00107812  0.74884648  1
  Mn3.30+  Mn116  1  0.49963328  0.33357831  0.24966460  1
  Mn3.30+  Mn117  1  0.50194903  0.33338414  0.75055752  1
  Mn3.30+  Mn118  1  0.49616899  0.66785854  0.25068545  1
  Mn3.30+  Mn119  1  0.49996357  0.66514531  0.75146471  1
  Mn3.30+  Mn120  1  0.83266618  -0.00135332  0.25029950  1
  Mn3.30+  Mn121  1  0.83395384  -0.00080127  0.74868720  1
  Mn3.30+  Mn122  1  0.83357768  0.33403330  0.25040218  1
  Mn3.30+  Mn123  1  0.83085790  0.33648930  0.74738947  1
  Mn3.30+  Mn124  1  0.83437866  0.66843692  0.25089026  1
  Mn3.30+  Mn125  1  0.83269239  0.66650566  0.75068046  1
  Mn3.30+  Mn126  1  0.00131555  0.16682219  -0.00052578  1
  Mn3.30+  Mn127  1  0.00183212  0.16791557  0.50161016  1
  Mn3.30+  Mn128  1  0.00166222  0.50148384  0.00077435  1
  Mn3.30+  Mn129  1  -0.00119971  0.50276001  0.49935426  1
  Mn3.30+  Mn130  1  -0.00125844  0.83266551  0.00032696  1
  Mn3.30+  Mn131  1  0.00175889  0.83067169  0.49646361  1
  Mn3.30+  Mn132  1  0.33511375  0.16513839  -0.00020060  1
  Mn3.30+  Mn133  1  0.33256103  0.16605995  0.50094163  1
  Mn3.30+  Mn134  1  0.33109713  0.50031267  0.00012123  1
  Mn3.30+  Mn135  1  0.33244103  0.50164997  0.50036721  1
  Mn3.30+  Mn136  1  0.33327399  0.83159472  0.00033769  1
  Mn3.30+  Mn137  1  0.33383412  0.83104871  0.49577406  1
  Mn3.30+  Mn138  1  0.66599719  0.16591510  -0.00093502  1
  Mn3.30+  Mn139  1  0.66557712  0.16699538  0.50012223  1
  Mn3.30+  Mn140  1  0.66677939  0.50219409  -0.00077902  1
  Mn3.30+  Mn141  1  0.66677425  0.50055370  0.50178800  1
  Mn3.30+  Mn142  1  0.66537988  0.83467695  0.00002658  1
  Mn3.30+  Mn143  1  0.66681145  0.83097093  0.49779485  1
  O2-  O144  1  0.02893682  0.15968764  0.12637467  1
  O2-  O145  1  0.02924321  0.16215662  0.62391253  1
  O2-  O146  1  0.02984517  0.49359628  0.12469559  1
  O2-  O147  1  0.02679216  0.49858056  0.62648017  1
  O2-  O148  1  0.02578822  0.82972837  0.12738885  1
  O2-  O149  1  0.02652046  0.82435607  0.62274555  1
  O2-  O150  1  0.35719645  0.16442032  0.12784540  1
  O2-  O151  1  0.36099848  0.16147011  0.62424764  1
  O2-  O152  1  0.35720018  0.49978617  0.12484831  1
  O2-  O153  1  0.35009124  0.50369022  0.62605989  1
  O2-  O154  1  0.35886831  0.82506403  0.12704353  1
  O2-  O155  1  0.35876726  0.82457338  0.62480176  1
  O2-  O156  1  0.69091149  0.16051543  0.12718739  1
  O2-  O157  1  0.69162715  0.15610061  0.62347703  1
  O2-  O158  1  0.69114214  0.49570332  0.12574758  1
  O2-  O159  1  0.69155663  0.49582165  0.62429318  1
  O2-  O160  1  0.68348322  0.82638733  0.12526115  1
  O2-  O161  1  0.68973726  0.83084413  0.62585152  1
  O2-  O162  1  0.14191691  0.32331367  0.12312966  1
  O2-  O163  1  0.14140104  0.32905286  0.62453453  1
  O2-  O164  1  0.14155860  0.66169811  0.12491465  1
  O2-  O165  1  0.13966511  0.66403031  0.62548009  1
  O2-  O166  1  0.14220257  0.99535667  0.12951481  1
  O2-  O167  1  0.14125964  0.98872607  0.62339398  1
  O2-  O168  1  0.48034599  0.32663920  0.12415285  1
  O2-  O169  1  0.48120801  0.32940229  0.62504466  1
  O2-  O170  1  0.47262858  0.66179384  0.12447761  1
  O2-  O171  1  0.47664283  0.66985710  0.62598103  1
  O2-  O172  1  0.48109792  0.99669211  0.12752968  1
  O2-  O173  1  0.47425572  0.98821497  0.62177438  1
  O2-  O174  1  0.80726273  0.32610195  0.12640824  1
  O2-  O175  1  0.80235495  0.32764223  0.62410426  1
  O2-  O176  1  0.80754522  0.66145928  0.12454158  1
  O2-  O177  1  0.81522456  0.66673358  0.62486498  1
  O2-  O178  1  0.80721625  1.00230860  0.12894532  1
  O2-  O179  1  0.80780934  0.99109998  0.62377223  1
  O2-  O180  1  0.31161625  0.17467842  0.37612475  1
  O2-  O181  1  0.31058148  0.16677339  0.87200084  1
  O2-  O182  1  0.30970337  0.50404546  0.37445714  1
  O2-  O183  1  0.30808206  0.50513425  0.87525394  1
  O2-  O184  1  0.30521955  0.83964853  0.37516009  1
  O2-  O185  1  0.30745134  0.84246413  0.87353372  1
  O2-  O186  1  0.63919135  0.17527717  0.37671368  1
  O2-  O187  1  0.64107452  0.16438761  0.87332401  1
  O2-  O188  1  0.64169959  0.50645767  0.37203691  1
  O2-  O189  1  0.64445016  0.50683824  0.87780090  1
  O2-  O190  1  0.63811808  0.83599845  0.37311855  1
  O2-  O191  1  0.63962702  0.84445879  0.87552385  1
  O2-  O192  1  0.97433989  0.17384403  0.37749734  1
  O2-  O193  1  0.97355160  0.17226014  0.87155295  1
  O2-  O194  1  0.97542157  0.50331666  0.37204473  1
  O2-  O195  1  0.97357413  0.50341282  0.87607637  1
  O2-  O196  1  0.97059582  0.83972403  0.37487234  1
  O2-  O197  1  0.97333597  0.84258120  0.87495582  1
  O2-  O198  1  0.19754733  0.00917084  0.37661129  1
  O2-  O199  1  0.19391139  0.00634265  0.87029917  1
  O2-  O200  1  0.19094429  0.34212812  0.37634084  1
  O2-  O201  1  0.19306780  0.33994610  0.87575208  1
  O2-  O202  1  0.19335432  0.66989404  0.37426778  1
  O2-  O203  1  0.19397228  0.67246874  0.87578094  1
  O2-  O204  1  0.52735934  0.00606522  0.37588956  1
  O2-  O205  1  0.52256812  0.00475132  0.87512733  1
  O2-  O206  1  0.52433264  0.33969581  0.37488957  1
  O2-  O207  1  0.51763185  0.34175141  0.87661410  1
  O2-  O208  1  0.52331624  0.66767851  0.37277948  1
  O2-  O209  1  0.52627641  0.66992316  0.87708126  1
  O2-  O210  1  0.86029189  0.00940420  0.37555827  1
  O2-  O211  1  0.86010741  0.00725386  0.87247811  1
  O2-  O212  1  0.85982170  0.34137195  0.37539139  1
  O2-  O213  1  0.85869796  0.33914870  0.87339759  1
  O2-  O214  1  0.85860744  0.66705954  0.37309319  1
  O2-  O215  1  0.86021416  0.67147880  0.87619513  1
  O2-  O216  1  0.23792285  0.09642275  0.01596421  1
  O2-  O217  1  0.23759035  0.09619775  0.52317045  1
  O2-  O218  1  0.23359682  0.43176288  0.01793291  1
  O2-  O219  1  0.23496711  0.43048191  0.51637943  1
  O2-  O220  1  0.23585844  0.76070030  0.02129524  1
  O2-  O221  1  0.23911765  0.75945532  0.52172095  1
  O2-  O222  1  0.57314687  0.09518388  0.01972814  1
  O2-  O223  1  0.56901743  0.09390147  0.52039209  1
  O2-  O224  1  0.57345112  0.42795311  0.02011529  1
  O2-  O225  1  0.57541287  0.42634166  0.51355701  1
  O2-  O226  1  0.56716701  0.76271146  0.01923377  1
  O2-  O227  1  0.57082448  0.75958933  0.51470927  1
  O2-  O228  1  0.90687991  0.09492306  0.02066540  1
  O2-  O229  1  0.90512239  0.09466012  0.52239740  1
  O2-  O230  1  0.90892329  0.42751064  0.02236559  1
  O2-  O231  1  0.90396434  0.43076825  0.52277293  1
  O2-  O232  1  0.90620175  0.76070389  0.01894623  1
  O2-  O233  1  0.90695486  0.76102101  0.52043301  1
  O2-  O234  1  0.25912940  0.26012553  0.23545173  1
  O2-  O235  1  0.26262105  0.25962763  0.73646384  1
  O2-  O236  1  0.26056105  0.59469362  0.23123312  1
  O2-  O237  1  0.25697274  0.59573810  0.73003300  1
  O2-  O238  1  0.25924803  0.92325798  0.23097263  1
  O2-  O239  1  0.26284617  0.92768756  0.72717617  1
  O2-  O240  1  0.59724001  0.26130692  0.23038327  1
  O2-  O241  1  0.59712471  0.25873145  0.72733400  1
  O2-  O242  1  0.59363048  0.59560340  0.22826981  1
  O2-  O243  1  0.59208708  0.59260192  0.73664168  1
  O2-  O244  1  0.59803084  0.93105928  0.23096158  1
  O2-  O245  1  0.59483654  0.92744261  0.72955340  1
  O2-  O246  1  0.92858929  0.26102516  0.22928067  1
  O2-  O247  1  0.92622335  0.26483810  0.72673780  1
  O2-  O248  1  0.92717500  0.59092336  0.22489651  1
  O2-  O249  1  0.92920420  0.59573313  0.73210995  1
  O2-  O250  1  0.93182119  0.93114523  0.23307178  1
  O2-  O251  1  0.93011797  0.92764117  0.72713222  1
  O2-  O252  1  0.09436099  0.23911430  0.27236555  1
  O2-  O253  1  0.09319338  0.24148355  0.77247379  1
  O2-  O254  1  0.09432386  0.57353450  0.27077462  1
  O2-  O255  1  0.09550579  0.57174749  0.77027111  1
  O2-  O256  1  0.09544813  0.90430422  0.27368205  1
  O2-  O257  1  0.09606024  0.90450296  0.77095407  1
  O2-  O258  1  0.42771732  0.23787181  0.27130330  1
  O2-  O259  1  0.43011234  0.23631282  0.76969599  1
  O2-  O260  1  0.42988067  0.56945441  0.26604592  1
  O2-  O261  1  0.42561708  0.57315781  0.77048244  1
  O2-  O262  1  0.43200487  0.90050205  0.26838236  1
  O2-  O263  1  0.42792578  0.90313836  0.77090105  1
  O2-  O264  1  0.76095779  0.23863184  0.27205057  1
  O2-  O265  1  0.76423520  0.23509609  0.76654271  1
  O2-  O266  1  0.76016120  0.57275239  0.26927349  1
  O2-  O267  1  0.76190690  0.57367067  0.76865557  1
  O2-  O268  1  0.76274760  0.90611402  0.27528047  1
  O2-  O269  1  0.76109885  0.90474458  0.77062307  1
  O2-  O270  1  0.07488242  0.06812710  0.47888645  1
  O2-  O271  1  0.07294769  0.07277473  0.97803402  1
  O2-  O272  1  0.07005596  0.40660146  0.48143057  1
  O2-  O273  1  0.07112513  0.40399962  0.97845018  1
  O2-  O274  1  0.06953685  0.73521141  0.47761766  1
  O2-  O275  1  0.07175319  0.73808358  0.97973573  1
  O2-  O276  1  0.40433716  0.06654484  0.47951835  1
  O2-  O277  1  0.40746827  0.07030749  0.98198022  1
  O2-  O278  1  0.40822300  0.40692053  0.47969301  1
  O2-  O279  1  0.40314170  0.40787104  0.97975582  1
  O2-  O280  1  0.40102560  0.73568500  0.48060712  1
  O2-  O281  1  0.40243303  0.73655019  0.97712335  1
  O2-  O282  1  0.73661867  0.07301791  0.47863023  1
  O2-  O283  1  0.74118089  0.07379950  0.97810341  1
  O2-  O284  1  0.74158273  0.40925770  0.47395585  1
  O2-  O285  1  0.74247560  0.40871954  0.98415663  1
  O2-  O286  1  0.74119960  0.73964318  0.47793176  1
  O2-  O287  1  0.73459163  0.74059862  0.97876008  1
  O2-  O288  1  0.09392970  0.24260973  0.47674068  1
  O2-  O289  1  0.09435481  0.23900231  0.97668781  1
  O2-  O290  1  0.09580584  0.57164061  0.48151134  1
  O2-  O291  1  0.09403958  0.57256895  0.97814099  1
  O2-  O292  1  0.09671107  0.90137793  0.47581814  1
  O2-  O293  1  0.09389557  0.90551641  0.98007066  1
  O2-  O294  1  0.42959577  0.23877889  0.48134277  1
  O2-  O295  1  0.42756320  0.23652359  0.97869777  1
  O2-  O296  1  0.42648166  0.57388994  0.48139309  1
  O2-  O297  1  0.42945920  0.56979591  0.98222443  1
  O2-  O298  1  0.43061798  0.89868485  0.47908097  1
  O2-  O299  1  0.42941823  0.90453122  0.98206142  1
  O2-  O300  1  0.76249780  0.24014202  0.47830809  1
  O2-  O301  1  0.76275340  0.23513970  0.98290275  1
  O2-  O302  1  0.75920497  0.57490323  0.47835037  1
  O2-  O303  1  0.76317714  0.57232281  0.98252465  1
  O2-  O304  1  0.76277789  0.90458288  0.47782012  1
  O2-  O305  1  0.76160647  0.90808037  0.97711976  1
  O2-  O306  1  0.07367799  0.07156139  0.27375198  1
  O2-  O307  1  0.07362070  0.07053513  0.76943533  1
  O2-  O308  1  0.07063101  0.40493751  0.26989810  1
  O2-  O309  1  0.06934549  0.40663939  0.76988965  1
  O2-  O310  1  0.07022131  0.73661371  0.26876558  1
  O2-  O311  1  0.07135859  0.73776186  0.77390163  1
  O2-  O312  1  0.40683063  0.07017617  0.27417853  1
  O2-  O313  1  0.40281585  0.06810108  0.76447085  1
  O2-  O314  1  0.40526659  0.40762918  0.27105955  1
  O2-  O315  1  0.40527240  0.40782420  0.76994523  1
  O2-  O316  1  0.39998516  0.73434411  0.27081132  1
  O2-  O317  1  0.40336009  0.73726515  0.77275403  1
  O2-  O318  1  0.73962184  0.07470994  0.27579538  1
  O2-  O319  1  0.73890643  0.07185473  0.76884335  1
  O2-  O320  1  0.73883080  0.40660936  0.27010173  1
  O2-  O321  1  0.74292348  0.40949447  0.77145157  1
  O2-  O322  1  0.73528279  0.73858557  0.26713790  1
  O2-  O323  1  0.73888146  0.74072764  0.77478137  1
  O2-  O324  1  0.23675945  0.09731575  0.23428681  1
  O2-  O325  1  0.23743648  0.09494935  0.72546013  1
  O2-  O326  1  0.23511685  0.43164574  0.23262803  1
  O2-  O327  1  0.23495128  0.43045542  0.73376223  1
  O2-  O328  1  0.23700672  0.75911878  0.22785393  1
  O2-  O329  1  0.23715612  0.76182265  0.73018260  1
  O2-  O330  1  0.56998754  0.09843595  0.23473569  1
  O2-  O331  1  0.57286774  0.09168463  0.72603776  1
  O2-  O332  1  0.57351836  0.42907803  0.22902530  1
  O2-  O333  1  0.57537219  0.42701856  0.73765590  1
  O2-  O334  1  0.56902883  0.75943176  0.22912654  1
  O2-  O335  1  0.56868578  0.76421237  0.73622843  1
  O2-  O336  1  0.90705239  0.09523668  0.23035153  1
  O2-  O337  1  0.90662959  0.09545380  0.72594709  1
  O2-  O338  1  0.90670308  0.42795356  0.22717451  1
  O2-  O339  1  0.90535269  0.43053437  0.72689062  1
  O2-  O340  1  0.90846565  0.75801209  0.22963665  1
  O2-  O341  1  0.90392239  0.76258176  0.73076217  1
  O2-  O342  1  0.25921791  0.25968560  0.01438480  1
  O2-  O343  1  0.25940386  0.26301190  0.51403467  1
  O2-  O344  1  0.26104690  0.59498725  0.01913781  1
  O2-  O345  1  0.25634083  0.59581531  0.52016080  1
  O2-  O346  1  0.25930895  0.92442874  0.01775973  1
  O2-  O347  1  0.26244065  0.92569439  0.52277985  1
  O2-  O348  1  0.59582665  0.25851982  0.02169397  1
  O2-  O349  1  0.59719040  0.26174792  0.52138109  1
  O2-  O350  1  0.59182247  0.59433225  0.02385262  1
  O2-  O351  1  0.59338530  0.59329300  0.51182105  1
  O2-  O352  1  0.59622631  0.93046035  0.02040125  1
  O2-  O353  1  0.59573369  0.92770353  0.51873448  1
  O2-  O354  1  0.92938932  0.26051119  0.02076001  1
  O2-  O355  1  0.92491708  0.26579185  0.52263535  1
  O2-  O356  1  0.92836970  0.59191179  0.02379537  1
  O2-  O357  1  0.92752449  0.59485300  0.51788642  1
  O2-  O358  1  0.92972181  0.93174345  0.01846159  1
  O2-  O359  1  0.93225152  0.92674012  0.52085723  1
