# generated using pymatgen
data_Sr7Ca15Pr50Mn72O216
_symmetry_space_group_name_H-M   'P 1'
_cell_length_a   16.55928585
_cell_length_b   16.60448172
_cell_length_c   15.59363779
_cell_angle_alpha   89.99479134
_cell_angle_beta   89.99657867
_cell_angle_gamma   90.00766756
_symmetry_Int_Tables_number   1
_chemical_formula_structural   Sr7Ca15Pr50Mn72O216
_chemical_formula_sum   'Sr7 Ca15 Pr50 Mn72 O216'
_cell_volume   4287.60099472
_cell_formula_units_Z   1
loop_
 _symmetry_equiv_pos_site_id
 _symmetry_equiv_pos_as_xyz
  1  'x, y, z'
loop_
 _atom_type_symbol
 _atom_type_oxidation_number
  Sr2+  2.0
  Ca2+  2.0
  Pr3+  3.0
  Mn3.30+  3.3
  O2-  -2.0
loop_
 _atom_site_type_symbol
 _atom_site_label
 _atom_site_symmetry_multiplicity
 _atom_site_fract_x
 _atom_site_fract_y
 _atom_site_fract_z
 _atom_site_occupancy
  Sr2+  Sr0  1  0.49828075  0.15923168  0.37187740  1
  Sr2+  Sr1  1  0.83654706  0.84237864  0.62552564  1
  Sr2+  Sr2  1  0.83564252  0.17681563  0.62518761  1
  Sr2+  Sr3  1  0.66706527  0.32310490  0.37254674  1
  Sr2+  Sr4  1  -0.00028946  0.34362298  0.12818913  1
  Sr2+  Sr5  1  0.49841763  0.82232839  0.87833216  1
  Sr2+  Sr6  1  0.16540314  0.15994377  0.37457603  1
  Ca2+  Ca7  1  0.83030959  0.81824386  0.37506416  1
  Ca2+  Ca8  1  0.33235956  0.68026249  0.12507676  1
  Ca2+  Ca9  1  0.50533287  0.18416931  0.12610358  1
  Ca2+  Ca10  1  0.50173154  0.84291196  0.12546630  1
  Ca2+  Ca11  1  1.00490279  0.64987540  0.37429676  1
  Ca2+  Ca12  1  0.50519974  0.51665192  0.12650073  1
  Ca2+  Ca13  1  0.66034652  0.34806869  0.12739725  1
  Ca2+  Ca14  1  0.82820234  0.81595021  0.87518712  1
  Ca2+  Ca15  1  0.16211023  0.15249983  0.87539941  1
  Ca2+  Ca16  1  1.00415128  0.31897694  0.37423483  1
  Ca2+  Ca17  1  0.17172889  0.51632527  0.12834606  1
  Ca2+  Ca18  1  0.16082039  0.48389324  0.37308077  1
  Ca2+  Ca19  1  0.16954694  0.51366265  0.62172367  1
  Ca2+  Ca20  1  0.66144505  0.68327739  0.12676614  1
  Ca2+  Ca21  1  0.16926725  0.18159424  0.62346071  1
  Pr3+  Pr22  1  0.50226612  0.18091951  0.62500729  1
  Pr3+  Pr23  1  -0.00254443  0.67700223  0.62274767  1
  Pr3+  Pr24  1  0.50446634  0.84659270  0.62500646  1
  Pr3+  Pr25  1  0.83041143  0.15323425  0.87489498  1
  Pr3+  Pr26  1  0.67150510  0.98127551  0.87505818  1
  Pr3+  Pr27  1  0.83108434  0.48806322  0.87652213  1
  Pr3+  Pr28  1  0.16857069  0.18016045  0.12516519  1
  Pr3+  Pr29  1  0.83456463  0.48555417  0.37332104  1
  Pr3+  Pr30  1  0.16420151  0.48995198  0.87680405  1
  Pr3+  Pr31  1  0.33531682  0.65235370  0.37225462  1
  Pr3+  Pr32  1  0.49671108  0.15368309  0.87749937  1
  Pr3+  Pr33  1  0.33842613  0.65467270  0.87780264  1
  Pr3+  Pr34  1  0.16499888  0.81910713  0.87625443  1
  Pr3+  Pr35  1  -0.00079133  0.67369753  0.12763568  1
  Pr3+  Pr36  1  0.32946418  0.67937919  0.62417385  1
  Pr3+  Pr37  1  0.99986060  0.65501245  0.87576261  1
  Pr3+  Pr38  1  0.66550530  0.34554330  0.62308458  1
  Pr3+  Pr39  1  0.67063154  0.98941385  0.37461979  1
  Pr3+  Pr40  1  0.83356679  0.50935142  0.12779440  1
  Pr3+  Pr41  1  0.65979672  0.01218556  0.12442048  1
  Pr3+  Pr42  1  0.49668462  0.48969766  0.87781085  1
  Pr3+  Pr43  1  0.49742738  0.82173802  0.37195610  1
  Pr3+  Pr44  1  0.33595675  0.01080707  0.12370542  1
  Pr3+  Pr45  1  0.32554727  0.34738467  0.62320048  1
  Pr3+  Pr46  1  1.00209136  0.98930729  0.37528770  1
  Pr3+  Pr47  1  1.00190424  0.98513499  0.87528796  1
  Pr3+  Pr48  1  0.67051798  0.65472319  0.37145185  1
  Pr3+  Pr49  1  0.33497188  0.98681952  0.87579682  1
  Pr3+  Pr50  1  0.33637458  0.99144255  0.37397072  1
  Pr3+  Pr51  1  0.83717704  0.50939840  0.62222059  1
  Pr3+  Pr52  1  0.16760982  0.84579259  0.62431149  1
  Pr3+  Pr53  1  -0.00300231  0.01257432  0.12569265  1
  Pr3+  Pr54  1  1.00416955  0.31903570  0.87685542  1
  Pr3+  Pr55  1  0.49645970  0.48556727  0.37127126  1
  Pr3+  Pr56  1  0.32992426  0.34756050  0.12712936  1
  Pr3+  Pr57  1  0.00083963  0.34340647  0.62151250  1
  Pr3+  Pr58  1  0.83073537  0.15834207  0.37525615  1
  Pr3+  Pr59  1  -0.00334289  0.01441612  0.62483721  1
  Pr3+  Pr60  1  0.16998912  0.84411499  0.12570856  1
  Pr3+  Pr61  1  0.83439363  0.84298744  0.12553639  1
  Pr3+  Pr62  1  0.16195109  0.81904480  0.37387770  1
  Pr3+  Pr63  1  0.66627940  0.01305107  0.62560886  1
  Pr3+  Pr64  1  0.66912584  0.65733613  0.87875956  1
  Pr3+  Pr65  1  0.33545552  0.31919611  0.37341896  1
  Pr3+  Pr66  1  0.32875823  0.01574298  0.62593649  1
  Pr3+  Pr67  1  0.33491430  0.32072745  0.87616157  1
  Pr3+  Pr68  1  0.66635671  0.68004485  0.62260268  1
  Pr3+  Pr69  1  0.83467769  0.18030062  0.12506096  1
  Pr3+  Pr70  1  0.66898691  0.32187254  0.87725999  1
  Pr3+  Pr71  1  0.50189731  0.51292304  0.62287370  1
  Mn3.30+  Mn72  1  0.16654601  0.00058681  0.00006520  1
  Mn3.30+  Mn73  1  0.16618554  0.00194590  0.49978536  1
  Mn3.30+  Mn74  1  0.16753016  0.33540779  0.00163253  1
  Mn3.30+  Mn75  1  0.16460674  0.33424262  0.49828157  1
  Mn3.30+  Mn76  1  0.16926621  0.66545711  0.00277581  1
  Mn3.30+  Mn77  1  0.16494660  0.66358015  0.49793619  1
  Mn3.30+  Mn78  1  0.50093478  -0.00105257  0.00079212  1
  Mn3.30+  Mn79  1  0.49996745  0.00173662  0.49947419  1
  Mn3.30+  Mn80  1  0.50083758  0.33522130  0.00245885  1
  Mn3.30+  Mn81  1  0.49767554  0.33344006  0.49931397  1
  Mn3.30+  Mn82  1  0.50122171  0.66763886  0.00494940  1
  Mn3.30+  Mn83  1  0.49955883  0.66682650  0.49761902  1
  Mn3.30+  Mn84  1  0.83189625  -0.00296395  0.00026554  1
  Mn3.30+  Mn85  1  0.83512210  -0.00121490  0.49982920  1
  Mn3.30+  Mn86  1  0.83214897  0.33393038  0.00224079  1
  Mn3.30+  Mn87  1  0.83514320  0.33223486  0.49874057  1
  Mn3.30+  Mn88  1  0.83143235  0.66559471  0.00379952  1
  Mn3.30+  Mn89  1  0.83636550  0.66657791  0.49572633  1
  Mn3.30+  Mn90  1  -0.00014795  0.16824717  0.25043749  1
  Mn3.30+  Mn91  1  0.00309348  0.16675841  0.75030959  1
  Mn3.30+  Mn92  1  0.00365004  0.49925346  0.25044543  1
  Mn3.30+  Mn93  1  0.00194746  0.49868059  0.74887714  1
  Mn3.30+  Mn94  1  -0.00164382  0.83057367  0.25181701  1
  Mn3.30+  Mn95  1  -0.00122765  0.83151976  0.75139082  1
  Mn3.30+  Mn96  1  0.33550637  0.16659196  0.24665178  1
  Mn3.30+  Mn97  1  0.32954139  0.16768590  0.75210040  1
  Mn3.30+  Mn98  1  0.33178745  0.50185481  0.24777870  1
  Mn3.30+  Mn99  1  0.33117161  0.50062699  0.74935208  1
  Mn3.30+  Mn100  1  0.33382669  0.83276289  0.24866999  1
  Mn3.30+  Mn101  1  0.33408073  0.83351335  0.74976285  1
  Mn3.30+  Mn102  1  0.66488933  0.16781790  0.24907486  1
  Mn3.30+  Mn103  1  0.66608139  0.16725637  0.75047578  1
  Mn3.30+  Mn104  1  0.66515750  0.49981325  0.24790159  1
  Mn3.30+  Mn105  1  0.66636909  0.50147083  0.75006767  1
  Mn3.30+  Mn106  1  0.66686630  0.83309681  0.24991549  1
  Mn3.30+  Mn107  1  0.66878385  0.83166620  0.74998354  1
  Mn3.30+  Mn108  1  0.16705528  0.00087708  0.24957187  1
  Mn3.30+  Mn109  1  0.16584128  0.00216331  0.75085176  1
  Mn3.30+  Mn110  1  0.16484779  0.33677311  0.24995790  1
  Mn3.30+  Mn111  1  0.16666535  0.33280451  0.75051720  1
  Mn3.30+  Mn112  1  0.16739569  0.66408359  0.25044243  1
  Mn3.30+  Mn113  1  0.16689032  0.66504154  0.74917468  1
  Mn3.30+  Mn114  1  0.50145216  0.00035186  0.24931347  1
  Mn3.30+  Mn115  1  0.49933939  0.00019362  0.75074906  1
  Mn3.30+  Mn116  1  0.50018765  0.33355822  0.24656039  1
  Mn3.30+  Mn117  1  0.49842873  0.33503291  0.75053275  1
  Mn3.30+  Mn118  1  0.50077964  0.66710836  0.24641736  1
  Mn3.30+  Mn119  1  0.50013704  0.66724797  0.75039984  1
  Mn3.30+  Mn120  1  0.83254133  -0.00171582  0.25010707  1
  Mn3.30+  Mn121  1  0.83476048  -0.00243541  0.75040963  1
  Mn3.30+  Mn122  1  0.83263310  0.33306163  0.24956772  1
  Mn3.30+  Mn123  1  0.83489947  0.33300704  0.74981201  1
  Mn3.30+  Mn124  1  0.83366292  0.66637239  0.25105934  1
  Mn3.30+  Mn125  1  0.83388372  0.66557668  0.74970549  1
  Mn3.30+  Mn126  1  0.00040941  0.16615255  -0.00035355  1
  Mn3.30+  Mn127  1  0.00182266  0.16816517  0.50012018  1
  Mn3.30+  Mn128  1  0.00083414  0.49929923  0.00371592  1
  Mn3.30+  Mn129  1  0.00481945  0.49906999  0.49769261  1
  Mn3.30+  Mn130  1  -0.00136353  0.83114118  0.00086902  1
  Mn3.30+  Mn131  1  -0.00172709  0.83120174  0.49732896  1
  Mn3.30+  Mn132  1  0.33328210  0.16713086  0.00011291  1
  Mn3.30+  Mn133  1  0.33179227  0.16723037  0.50034798  1
  Mn3.30+  Mn134  1  0.33390934  0.50204401  0.00492314  1
  Mn3.30+  Mn135  1  0.32906256  0.49991400  0.49731089  1
  Mn3.30+  Mn136  1  0.33519208  0.83185024  0.00246157  1
  Mn3.30+  Mn137  1  0.33275627  0.83442584  0.49863557  1
  Mn3.30+  Mn138  1  0.66428811  0.16772136  0.00129385  1
  Mn3.30+  Mn139  1  0.66669135  0.16736260  0.49940091  1
  Mn3.30+  Mn140  1  0.66348538  0.50108450  0.00343020  1
  Mn3.30+  Mn141  1  0.66799468  0.50002712  0.49767601  1
  Mn3.30+  Mn142  1  0.66645445  0.83078450  0.00180492  1
  Mn3.30+  Mn143  1  0.66906318  0.83416042  0.49838213  1
  O2-  O144  1  0.02345793  0.16039467  0.12355703  1
  O2-  O145  1  0.02757413  0.16183249  0.62873218  1
  O2-  O146  1  0.02773042  0.50138018  0.12600934  1
  O2-  O147  1  0.02834096  0.49157260  0.62244231  1
  O2-  O148  1  0.02647509  0.82539455  0.12534201  1
  O2-  O149  1  0.02513264  0.82565022  0.62357857  1
  O2-  O150  1  0.36221945  0.16035154  0.12190871  1
  O2-  O151  1  0.35869118  0.16409434  0.62891670  1
  O2-  O152  1  0.36376972  0.49267534  0.12542797  1
  O2-  O153  1  0.35863183  0.49556699  0.62240460  1
  O2-  O154  1  0.35802804  0.82844254  0.12617528  1
  O2-  O155  1  0.35916644  0.82782463  0.62236295  1
  O2-  O156  1  0.69203045  0.15859976  0.12387584  1
  O2-  O157  1  0.68553766  0.16261263  0.62711670  1
  O2-  O158  1  0.69073740  0.49123051  0.12518414  1
  O2-  O159  1  0.69196242  0.49504143  0.62256862  1
  O2-  O160  1  0.69131891  0.83205495  0.12575840  1
  O2-  O161  1  0.68692916  0.82905831  0.62236675  1
  O2-  O162  1  0.14818043  0.32663715  0.12393828  1
  O2-  O163  1  0.14397279  0.32526365  0.62527056  1
  O2-  O164  1  0.14253910  0.66471650  0.12615221  1
  O2-  O165  1  0.14140402  0.66118815  0.62160166  1
  O2-  O166  1  0.14050560  0.99239847  0.12391841  1
  O2-  O167  1  0.13993565  0.99143622  0.62646370  1
  O2-  O168  1  0.47328611  0.32675125  0.12325655  1
  O2-  O169  1  0.47190780  0.33069229  0.62682769  1
  O2-  O170  1  0.47219945  0.65929002  0.12673723  1
  O2-  O171  1  0.47393541  0.66077729  0.62149194  1
  O2-  O172  1  0.48054893  0.98849196  0.12409722  1
  O2-  O173  1  0.47484984  0.99404361  0.62551191  1
  O2-  O174  1  0.80475274  0.32889827  0.12322551  1
  O2-  O175  1  0.80948756  0.33471526  0.62551366  1
  O2-  O176  1  0.80499823  0.65748521  0.12751993  1
  O2-  O177  1  0.81016701  0.65742161  0.62080178  1
  O2-  O178  1  0.80489687  0.99115803  0.12392666  1
  O2-  O179  1  0.81027131  0.99638509  0.62511526  1
  O2-  O180  1  0.31619094  0.16771429  0.37235515  1
  O2-  O181  1  0.30384301  0.17288302  0.87583137  1
  O2-  O182  1  0.30489506  0.50558052  0.37374905  1
  O2-  O183  1  0.30845896  0.50718027  0.87779212  1
  O2-  O184  1  0.30702711  0.84235317  0.37510394  1
  O2-  O185  1  0.30874900  0.83691666  0.87626094  1
  O2-  O186  1  0.64872779  0.16391076  0.37396178  1
  O2-  O187  1  0.64042458  0.17359718  0.87514378  1
  O2-  O188  1  0.64077096  0.50633258  0.37346182  1
  O2-  O189  1  0.64057961  0.50860995  0.87757320  1
  O2-  O190  1  0.64073507  0.83907364  0.37578666  1
  O2-  O191  1  0.64771757  0.83105095  0.87606638  1
  O2-  O192  1  0.97579948  0.16945663  0.37200851  1
  O2-  O193  1  0.97434180  0.17062761  0.87622398  1
  O2-  O194  1  0.97628166  0.50719074  0.37405964  1
  O2-  O195  1  0.97544244  0.50631342  0.87757291  1
  O2-  O196  1  0.97169481  0.84285668  0.37360428  1
  O2-  O197  1  0.97184007  0.83614100  0.87872498  1
  O2-  O198  1  0.19202076  0.00267647  0.37363694  1
  O2-  O199  1  0.19195634  0.00550526  0.87615472  1
  O2-  O200  1  0.19266862  0.33921436  0.37289413  1
  O2-  O201  1  0.19286284  0.34470483  0.87805019  1
  O2-  O202  1  0.19326796  0.67424251  0.37456035  1
  O2-  O203  1  0.19361979  0.67058518  0.87764434  1
  O2-  O204  1  0.52466566  0.00355218  0.37563642  1
  O2-  O205  1  0.52544840  0.00633270  0.87570618  1
  O2-  O206  1  0.51632158  0.33780693  0.37274591  1
  O2-  O207  1  0.52520871  0.34209230  0.87533914  1
  O2-  O208  1  0.52583609  0.67295764  0.37386063  1
  O2-  O209  1  0.52465444  0.66680072  0.87731531  1
  O2-  O210  1  0.85849102  0.01105455  0.37466527  1
  O2-  O211  1  0.85838287  0.00657041  0.87672998  1
  O2-  O212  1  0.85947295  0.33574477  0.37494207  1
  O2-  O213  1  0.85830587  0.33957996  0.87604059  1
  O2-  O214  1  0.86132908  0.67318015  0.37354488  1
  O2-  O215  1  0.85551748  0.66887086  0.87854924  1
  O2-  O216  1  0.23887720  0.09226344  0.02380566  1
  O2-  O217  1  0.24006435  0.09570996  0.52381034  1
  O2-  O218  1  0.23941228  0.43184836  0.02299934  1
  O2-  O219  1  0.23707434  0.42793801  0.52273783  1
  O2-  O220  1  0.23635332  0.76388839  0.01809608  1
  O2-  O221  1  0.23660727  0.76118338  0.51984573  1
  O2-  O222  1  0.56988219  0.09837645  0.02057658  1
  O2-  O223  1  0.57220988  0.09264010  0.52346725  1
  O2-  O224  1  0.56721299  0.43439059  0.01808927  1
  O2-  O225  1  0.57115445  0.42661896  0.51921574  1
  O2-  O226  1  0.57024866  0.76227401  0.02318045  1
  O2-  O227  1  0.57134712  0.76229627  0.51889663  1
  O2-  O228  1  0.90231451  0.09131840  0.02102356  1
  O2-  O229  1  0.90932452  0.09251558  0.51788935  1
  O2-  O230  1  0.90264631  0.42939979  0.01890046  1
  O2-  O231  1  0.90776988  0.42780463  0.51865112  1
  O2-  O232  1  0.90569362  0.75556258  0.02571712  1
  O2-  O233  1  0.90920696  0.75687423  0.52007139  1
  O2-  O234  1  0.26007542  0.26136996  0.23115501  1
  O2-  O235  1  0.26452427  0.26592685  0.73358340  1
  O2-  O236  1  0.26736422  0.59900841  0.22967296  1
  O2-  O237  1  0.26269414  0.59700163  0.73105767  1
  O2-  O238  1  0.26217723  0.92736845  0.22761705  1
  O2-  O239  1  0.25918388  0.92919916  0.73077537  1
  O2-  O240  1  0.59441428  0.26219412  0.22913763  1
  O2-  O241  1  0.59243366  0.26423968  0.72978370  1
  O2-  O242  1  0.59721760  0.59951897  0.23130405  1
  O2-  O243  1  0.59454078  0.59500999  0.72721060  1
  O2-  O244  1  0.59785954  0.93146562  0.23592562  1
  O2-  O245  1  0.59704356  0.92713163  0.73166931  1
  O2-  O246  1  0.92179580  0.25614392  0.22933529  1
  O2-  O247  1  0.93368104  0.26239367  0.73405072  1
  O2-  O248  1  0.92694730  0.59113874  0.22891375  1
  O2-  O249  1  0.92870274  0.59148276  0.72928059  1
  O2-  O250  1  0.92732780  0.92636246  0.22732854  1
  O2-  O251  1  0.93238073  0.92852462  0.73310812  1
  O2-  O252  1  0.09310901  0.24020207  0.26197756  1
  O2-  O253  1  0.09577389  0.23889432  0.77642884  1
  O2-  O254  1  0.09846784  0.57121898  0.26940809  1
  O2-  O255  1  0.09332603  0.57335855  0.77231899  1
  O2-  O256  1  0.09201926  0.90340592  0.26985244  1
  O2-  O257  1  0.09455721  0.90359305  0.77231009  1
  O2-  O258  1  0.42344220  0.24295982  0.26510830  1
  O2-  O259  1  0.42709548  0.23782555  0.77291455  1
  O2-  O260  1  0.42827552  0.57303266  0.27353858  1
  O2-  O261  1  0.42822800  0.57138195  0.76848005  1
  O2-  O262  1  0.42658673  0.90722940  0.27159862  1
  O2-  O263  1  0.42635817  0.90862727  0.76799282  1
  O2-  O264  1  0.76229954  0.23591988  0.26572270  1
  O2-  O265  1  0.76025250  0.24103882  0.77266950  1
  O2-  O266  1  0.76352562  0.57322114  0.27269449  1
  O2-  O267  1  0.76149774  0.57164281  0.76966529  1
  O2-  O268  1  0.76417191  0.90533545  0.27290243  1
  O2-  O269  1  0.76223373  0.90382425  0.77263549  1
  O2-  O270  1  0.07155030  0.06871309  0.48272946  1
  O2-  O271  1  0.07015305  0.06868754  0.98254690  1
  O2-  O272  1  0.06907866  0.40136262  0.47936949  1
  O2-  O273  1  0.07245524  0.40774322  0.97810419  1
  O2-  O274  1  0.07164890  0.73652080  0.47692104  1
  O2-  O275  1  0.07208595  0.73852532  0.97906438  1
  O2-  O276  1  0.40292205  0.06899020  0.48634095  1
  O2-  O277  1  0.40313465  0.07359797  0.97763155  1
  O2-  O278  1  0.40221197  0.40700381  0.47870080  1
  O2-  O279  1  0.40395128  0.40580161  0.97914323  1
  O2-  O280  1  0.40435549  0.73976316  0.47729069  1
  O2-  O281  1  0.40421567  0.73731614  0.98280403  1
  O2-  O282  1  0.74062346  0.07154623  0.48356046  1
  O2-  O283  1  0.73712687  0.06971468  0.97834445  1
  O2-  O284  1  0.74310528  0.40813904  0.48169010  1
  O2-  O285  1  0.73857418  0.40771264  0.97679692  1
  O2-  O286  1  0.73655358  0.73748848  0.48123924  1
  O2-  O287  1  0.73816680  0.73751267  0.98473275  1
  O2-  O288  1  0.09300457  0.24094524  0.48328864  1
  O2-  O289  1  0.09672046  0.23921408  0.97974923  1
  O2-  O290  1  0.09801296  0.56880649  0.47813986  1
  O2-  O291  1  0.09372737  0.57560244  0.97914838  1
  O2-  O292  1  0.09373535  0.90287907  0.47977539  1
  O2-  O293  1  0.09536832  0.90515987  0.97846049  1
  O2-  O294  1  0.42509355  0.23998954  0.48545688  1
  O2-  O295  1  0.42769650  0.24164664  0.97548565  1
  O2-  O296  1  0.42766092  0.57117123  0.47724647  1
  O2-  O297  1  0.42793682  0.57341719  0.97877805  1
  O2-  O298  1  0.42979476  0.90681657  0.47920293  1
  O2-  O299  1  0.42193939  0.90966566  0.98160834  1
  O2-  O300  1  0.76140411  0.23955563  0.48256421  1
  O2-  O301  1  0.76047969  0.23732411  0.97865625  1
  O2-  O302  1  0.76357464  0.57375729  0.47589994  1
  O2-  O303  1  0.76087330  0.57114768  0.98021691  1
  O2-  O304  1  0.76106763  0.90690879  0.47533612  1
  O2-  O305  1  0.76453642  0.90206145  0.97826230  1
  O2-  O306  1  0.06955702  0.07066771  0.26495315  1
  O2-  O307  1  0.07060126  0.06937750  0.77168285  1
  O2-  O308  1  0.07057382  0.40465172  0.27218910  1
  O2-  O309  1  0.07169095  0.40428512  0.77181790  1
  O2-  O310  1  0.07013707  0.73685969  0.27203991  1
  O2-  O311  1  0.07347994  0.73806891  0.77165217  1
  O2-  O312  1  0.40494657  0.06771280  0.26359267  1
  O2-  O313  1  0.40179269  0.07412939  0.77171140  1
  O2-  O314  1  0.40151091  0.40684596  0.26980151  1
  O2-  O315  1  0.40381269  0.40608858  0.77100297  1
  O2-  O316  1  0.40543997  0.74064868  0.27335546  1
  O2-  O317  1  0.40450135  0.73573346  0.76616340  1
  O2-  O318  1  0.73928620  0.07091965  0.26762821  1
  O2-  O319  1  0.73916989  0.07059848  0.77054354  1
  O2-  O320  1  0.74359642  0.40884186  0.26904681  1
  O2-  O321  1  0.73707187  0.40765851  0.77075907  1
  O2-  O322  1  0.73899249  0.73950843  0.26949423  1
  O2-  O323  1  0.73713334  0.73488422  0.76413675  1
  O2-  O324  1  0.24337783  0.09457132  0.22435383  1
  O2-  O325  1  0.23828769  0.09620740  0.72655559  1
  O2-  O326  1  0.23946163  0.42985248  0.22586249  1
  O2-  O327  1  0.23687010  0.43052652  0.72926657  1
  O2-  O328  1  0.23545652  0.76399975  0.23413598  1
  O2-  O329  1  0.23749146  0.76138091  0.72911929  1
  O2-  O330  1  0.57251184  0.09478628  0.22610271  1
  O2-  O331  1  0.56963210  0.09456772  0.73092997  1
  O2-  O332  1  0.56706918  0.43008114  0.23197406  1
  O2-  O333  1  0.57258013  0.43033210  0.72839290  1
  O2-  O334  1  0.56761492  0.76442026  0.23207588  1
  O2-  O335  1  0.57273015  0.75969866  0.72681645  1
  O2-  O336  1  0.90408100  0.09163241  0.22689629  1
  O2-  O337  1  0.90876909  0.09254480  0.73426920  1
  O2-  O338  1  0.90446479  0.42875223  0.23263797  1
  O2-  O339  1  0.90641817  0.42792997  0.73011126  1
  O2-  O340  1  0.90604792  0.75793357  0.22518677  1
  O2-  O341  1  0.90942938  0.75416988  0.73209387  1
  O2-  O342  1  0.26373242  0.26166193  0.02108273  1
  O2-  O343  1  0.26145912  0.26448279  0.51447503  1
  O2-  O344  1  0.26484804  0.59787486  0.02118448  1
  O2-  O345  1  0.26424418  0.59743990  0.51782677  1
  O2-  O346  1  0.25981778  0.92750481  0.02018208  1
  O2-  O347  1  0.26028722  0.92918433  0.52171574  1
  O2-  O348  1  0.59628405  0.26850946  0.01774554  1
  O2-  O349  1  0.59157883  0.26060535  0.52190043  1
  O2-  O350  1  0.59791156  0.59944521  0.02140559  1
  O2-  O351  1  0.59499849  0.59423470  0.51945998  1
  O2-  O352  1  0.60062490  0.92876759  0.01303428  1
  O2-  O353  1  0.59470942  0.92936449  0.52091950  1
  O2-  O354  1  0.92418976  0.25880977  0.01748323  1
  O2-  O355  1  0.92797776  0.26169377  0.51910334  1
  O2-  O356  1  0.92679902  0.59285767  0.02165480  1
  O2-  O357  1  0.92987107  0.58976063  0.52132405  1
  O2-  O358  1  0.92872960  0.92554836  0.02333511  1
  O2-  O359  1  0.93104784  0.92961167  0.51750111  1
