# generated using pymatgen
data_Sr7Ca15Pr50Mn72O216
_symmetry_space_group_name_H-M   'P 1'
_cell_length_a   16.55910056
_cell_length_b   16.60228392
_cell_length_c   15.59438345
_cell_angle_alpha   89.99846444
_cell_angle_beta   89.99725705
_cell_angle_gamma   89.99719623
_symmetry_Int_Tables_number   1
_chemical_formula_structural   Sr7Ca15Pr50Mn72O216
_chemical_formula_sum   'Sr7 Ca15 Pr50 Mn72 O216'
_cell_volume   4287.19056319
_cell_formula_units_Z   1
loop_
 _symmetry_equiv_pos_site_id
 _symmetry_equiv_pos_as_xyz
  1  'x, y, z'
loop_
 _atom_type_symbol
 _atom_type_oxidation_number
  Sr2+  2.0
  Ca2+  2.0
  Pr3+  3.0
  Mn3.30+  3.3
  O2-  -2.0
loop_
 _atom_site_type_symbol
 _atom_site_label
 _atom_site_symmetry_multiplicity
 _atom_site_fract_x
 _atom_site_fract_y
 _atom_site_fract_z
 _atom_site_occupancy
  Sr2+  Sr0  1  0.83419684  0.84693692  0.12568714  1
  Sr2+  Sr1  1  0.33258800  0.00695176  0.12512444  1
  Sr2+  Sr2  1  0.16596367  0.50827330  0.62121771  1
  Sr2+  Sr3  1  0.16636941  0.49157359  0.37700692  1
  Sr2+  Sr4  1  0.66329017  0.68065296  0.12720421  1
  Sr2+  Sr5  1  0.66783061  0.98891081  0.87698639  1
  Sr2+  Sr6  1  1.00308679  0.32588080  0.37816123  1
  Ca2+  Ca7  1  0.33665568  0.98380874  0.87865359  1
  Ca2+  Ca8  1  0.66413749  0.00736617  0.12421435  1
  Ca2+  Ca9  1  0.66142211  0.68077851  0.62307375  1
  Ca2+  Ca10  1  0.66968932  0.65179192  0.37415919  1
  Ca2+  Ca11  1  0.83863463  0.18517789  0.62670866  1
  Ca2+  Ca12  1  0.50474683  0.85175639  0.12628153  1
  Ca2+  Ca13  1  -0.00192475  0.01144495  0.12335882  1
  Ca2+  Ca14  1  0.16615026  0.82141389  0.37096861  1
  Ca2+  Ca15  1  1.00492657  0.31770799  0.87102532  1
  Ca2+  Ca16  1  -0.00195881  0.34933133  0.62524365  1
  Ca2+  Ca17  1  0.33436307  0.98528962  0.37181348  1
  Ca2+  Ca18  1  0.66714975  0.34922348  0.62579199  1
  Ca2+  Ca19  1  1.00256588  0.98520076  0.87842332  1
  Ca2+  Ca20  1  0.16911233  0.85122759  0.12724323  1
  Ca2+  Ca21  1  0.33291074  0.65216535  0.37467475  1
  Pr3+  Pr22  1  -0.00071569  0.67691176  0.62277991  1
  Pr3+  Pr23  1  0.82806401  0.81881810  0.37258691  1
  Pr3+  Pr24  1  0.16605855  0.82467863  0.87863359  1
  Pr3+  Pr25  1  0.50368886  0.51374597  0.12520433  1
  Pr3+  Pr26  1  0.83548878  0.51213908  0.62477922  1
  Pr3+  Pr27  1  0.32830229  0.01100131  0.62413016  1
  Pr3+  Pr28  1  0.33177106  0.34253965  0.12481662  1
  Pr3+  Pr29  1  0.67193011  0.31925946  0.87199827  1
  Pr3+  Pr30  1  -0.00411254  0.68205619  0.12678057  1
  Pr3+  Pr31  1  0.83053874  0.48660804  0.37555859  1
  Pr3+  Pr32  1  1.00251383  0.65539222  0.37393522  1
  Pr3+  Pr33  1  0.83450510  0.17167721  0.12331365  1
  Pr3+  Pr34  1  -0.00458502  0.01449590  0.62661689  1
  Pr3+  Pr35  1  0.50148442  0.84381507  0.62318161  1
  Pr3+  Pr36  1  0.66463974  0.34486175  0.12414720  1
  Pr3+  Pr37  1  0.16780330  0.17410022  0.12490857  1
  Pr3+  Pr38  1  0.49683029  0.14771806  0.87340649  1
  Pr3+  Pr39  1  -0.00237370  0.34381037  0.12405336  1
  Pr3+  Pr40  1  0.33586225  0.65541479  0.87599591  1
  Pr3+  Pr41  1  0.83600683  0.51389620  0.12551201  1
  Pr3+  Pr42  1  0.66505135  0.01173695  0.62587643  1
  Pr3+  Pr43  1  0.16269594  0.14861444  0.87469367  1
  Pr3+  Pr44  1  0.32912334  0.68278725  0.12899697  1
  Pr3+  Pr45  1  0.83157026  0.48657314  0.87474318  1
  Pr3+  Pr46  1  0.32784969  0.67723559  0.62094985  1
  Pr3+  Pr47  1  0.49402342  0.81835455  0.37130401  1
  Pr3+  Pr48  1  0.33399204  0.32394703  0.37628419  1
  Pr3+  Pr49  1  0.16782535  0.18022118  0.62480269  1
  Pr3+  Pr50  1  0.83388749  0.84407890  0.62379425  1
  Pr3+  Pr51  1  0.33028988  0.34777622  0.62489200  1
  Pr3+  Pr52  1  0.83003778  0.82574916  0.87696306  1
  Pr3+  Pr53  1  0.66909542  0.98688759  0.37348879  1
  Pr3+  Pr54  1  1.00457925  0.98674612  0.37349223  1
  Pr3+  Pr55  1  1.00158597  0.65761147  0.87605496  1
  Pr3+  Pr56  1  0.49615835  0.15201777  0.37629683  1
  Pr3+  Pr57  1  0.83394569  0.15129562  0.87256505  1
  Pr3+  Pr58  1  0.49850550  0.48979873  0.37410001  1
  Pr3+  Pr59  1  0.16866620  0.84341203  0.62284746  1
  Pr3+  Pr60  1  0.67312807  0.32164689  0.37730118  1
  Pr3+  Pr61  1  0.33692807  0.31883154  0.87338163  1
  Pr3+  Pr62  1  0.16354948  0.15578981  0.37496261  1
  Pr3+  Pr63  1  0.50516032  0.51594951  0.62505527  1
  Pr3+  Pr64  1  0.16930320  0.51155917  0.12765638  1
  Pr3+  Pr65  1  0.83278589  0.15500312  0.37718987  1
  Pr3+  Pr66  1  0.49636244  0.82487863  0.87946227  1
  Pr3+  Pr67  1  0.49788885  0.48805250  0.87574595  1
  Pr3+  Pr68  1  0.16155524  0.48527666  0.87369595  1
  Pr3+  Pr69  1  0.50527225  0.17162978  0.12432819  1
  Pr3+  Pr70  1  0.50529052  0.18220202  0.62599650  1
  Pr3+  Pr71  1  0.66818046  0.65849822  0.87611250  1
  Mn3.30+  Mn72  1  0.16571774  -0.00164042  0.00114121  1
  Mn3.30+  Mn73  1  0.16678426  -0.00143469  0.49786154  1
  Mn3.30+  Mn74  1  0.16593458  0.33079947  -0.00166326  1
  Mn3.30+  Mn75  1  0.16528658  0.33424205  0.50114102  1
  Mn3.30+  Mn76  1  0.16675947  0.66841844  0.00251994  1
  Mn3.30+  Mn77  1  0.16652549  0.66789689  0.49636244  1
  Mn3.30+  Mn78  1  0.49942778  -0.00156511  0.00111488  1
  Mn3.30+  Mn79  1  0.49795945  -0.00116413  0.49932234  1
  Mn3.30+  Mn80  1  0.50096942  0.33056507  -0.00110466  1
  Mn3.30+  Mn81  1  0.50386026  0.33440606  0.50125571  1
  Mn3.30+  Mn82  1  0.49962307  0.66978282  0.00271778  1
  Mn3.30+  Mn83  1  0.50028132  0.66666019  0.49700853  1
  Mn3.30+  Mn84  1  0.83476108  -0.00069217  0.00095950  1
  Mn3.30+  Mn85  1  0.83365685  0.00086046  0.50015909  1
  Mn3.30+  Mn86  1  0.83578256  0.33107881  -0.00230216  1
  Mn3.30+  Mn87  1  0.83502147  0.33276382  0.50416908  1
  Mn3.30+  Mn88  1  0.83336865  0.66928957  0.00064475  1
  Mn3.30+  Mn89  1  0.82886472  0.66662554  0.50020875  1
  Mn3.30+  Mn90  1  0.00002585  0.16571123  0.24987780  1
  Mn3.30+  Mn91  1  -0.00071799  0.16830262  0.74980039  1
  Mn3.30+  Mn92  1  0.00142667  0.49953541  0.24981490  1
  Mn3.30+  Mn93  1  -0.00063532  0.49982089  0.74976691  1
  Mn3.30+  Mn94  1  0.00145121  0.83583570  0.24891056  1
  Mn3.30+  Mn95  1  -0.00034356  0.83441922  0.75069466  1
  Mn3.30+  Mn96  1  0.33400541  0.16422271  0.25058706  1
  Mn3.30+  Mn97  1  0.33339027  0.16409434  0.74965571  1
  Mn3.30+  Mn98  1  0.33443933  0.50014019  0.25046851  1
  Mn3.30+  Mn99  1  0.33270181  0.50075022  0.75012523  1
  Mn3.30+  Mn100  1  0.33092984  0.83445478  0.25058721  1
  Mn3.30+  Mn101  1  0.33300390  0.83316518  0.74994060  1
  Mn3.30+  Mn102  1  0.66713509  0.16480408  0.25109561  1
  Mn3.30+  Mn103  1  0.66999003  0.16700526  0.74771304  1
  Mn3.30+  Mn104  1  0.66630989  0.50121825  0.25029615  1
  Mn3.30+  Mn105  1  0.66728006  0.50145578  0.74940427  1
  Mn3.30+  Mn106  1  0.66304260  0.83386452  0.24854108  1
  Mn3.30+  Mn107  1  0.66550295  0.83289935  0.74959586  1
  Mn3.30+  Mn108  1  0.16760952  -0.00156814  0.24999029  1
  Mn3.30+  Mn109  1  0.16521754  -0.00209261  0.75124113  1
  Mn3.30+  Mn110  1  0.16607574  0.33259305  0.24997136  1
  Mn3.30+  Mn111  1  0.16521426  0.33248971  0.74976756  1
  Mn3.30+  Mn112  1  0.16642326  0.66977655  0.25083352  1
  Mn3.30+  Mn113  1  0.16676837  0.66668486  0.75021362  1
  Mn3.30+  Mn114  1  0.49951420  -0.00079320  0.25023529  1
  Mn3.30+  Mn115  1  0.49706495  -0.00217328  0.74925552  1
  Mn3.30+  Mn116  1  0.50171732  0.33125554  0.25053394  1
  Mn3.30+  Mn117  1  0.50299900  0.33411587  0.74917628  1
  Mn3.30+  Mn118  1  0.49895722  0.66772066  0.25078731  1
  Mn3.30+  Mn119  1  0.50037737  0.66867918  0.74953882  1
  Mn3.30+  Mn120  1  0.83476046  0.00004268  0.24849724  1
  Mn3.30+  Mn121  1  0.83386707  0.00009089  0.75012994  1
  Mn3.30+  Mn122  1  0.83399768  0.33118940  0.24925267  1
  Mn3.30+  Mn123  1  0.83762067  0.33313482  0.74916981  1
  Mn3.30+  Mn124  1  0.83113238  0.66754943  0.25027427  1
  Mn3.30+  Mn125  1  0.83112596  0.66835549  0.74864199  1
  Mn3.30+  Mn126  1  0.00093192  0.16429684  -0.00180787  1
  Mn3.30+  Mn127  1  -0.00160299  0.16931444  0.50230455  1
  Mn3.30+  Mn128  1  0.00048115  0.49916392  -0.00134282  1
  Mn3.30+  Mn129  1  -0.00030146  0.50024125  0.50118570  1
  Mn3.30+  Mn130  1  0.00017477  0.83693753  0.00236824  1
  Mn3.30+  Mn131  1  0.00072201  0.83373855  0.49807333  1
  Mn3.30+  Mn132  1  0.33365140  0.16314654  -0.00044669  1
  Mn3.30+  Mn133  1  0.33392295  0.16529962  0.49998136  1
  Mn3.30+  Mn134  1  0.33272415  0.49981486  0.00063293  1
  Mn3.30+  Mn135  1  0.33457068  0.50079543  0.49826942  1
  Mn3.30+  Mn136  1  0.33167780  0.83513076  0.00470268  1
  Mn3.30+  Mn137  1  0.33226994  0.83228243  0.49473492  1
  Mn3.30+  Mn138  1  0.66839478  0.16367742  -0.00158804  1
  Mn3.30+  Mn139  1  0.66830470  0.16824688  0.50340770  1
  Mn3.30+  Mn140  1  0.66676602  0.50073270  -0.00088824  1
  Mn3.30+  Mn141  1  0.66661184  0.50145806  0.50153497  1
  Mn3.30+  Mn142  1  0.66401480  0.83575956  0.00333406  1
  Mn3.30+  Mn143  1  0.66517277  0.83051774  0.49815679  1
  O2-  O144  1  0.02400537  0.15775733  0.12220944  1
  O2-  O145  1  0.02639782  0.15829278  0.62698169  1
  O2-  O146  1  0.02493282  0.49337168  0.12113962  1
  O2-  O147  1  0.01623075  0.50165823  0.62638905  1
  O2-  O148  1  0.02740733  0.82710705  0.12643902  1
  O2-  O149  1  0.02418031  0.82649957  0.62391723  1
  O2-  O150  1  0.36068372  0.16443535  0.12720326  1
  O2-  O151  1  0.36110116  0.15835974  0.62636445  1
  O2-  O152  1  0.35948771  0.49158008  0.12455166  1
  O2-  O153  1  0.35958983  0.49716184  0.62417533  1
  O2-  O154  1  0.36118149  0.82770555  0.12833436  1
  O2-  O155  1  0.35763647  0.82419141  0.62060211  1
  O2-  O156  1  0.68818872  0.15886767  0.12312422  1
  O2-  O157  1  0.69468634  0.15706495  0.62513698  1
  O2-  O158  1  0.69175490  0.49308687  0.12192402  1
  O2-  O159  1  0.69220166  0.49378102  0.62646023  1
  O2-  O160  1  0.68526101  0.83341892  0.12687614  1
  O2-  O161  1  0.68980825  0.82541769  0.62132283  1
  O2-  O162  1  0.14249966  0.32531528  0.12183720  1
  O2-  O163  1  0.14275193  0.32801019  0.62696528  1
  O2-  O164  1  0.13907111  0.65738061  0.12522301  1
  O2-  O165  1  0.14434688  0.66772057  0.62277068  1
  O2-  O166  1  0.14009256  0.99964362  0.12602308  1
  O2-  O167  1  0.13936028  0.99138230  0.62451412  1
  O2-  O168  1  0.47594638  0.32254260  0.12218694  1
  O2-  O169  1  0.47388191  0.32999101  0.62520599  1
  O2-  O170  1  0.47263279  0.65849204  0.12608197  1
  O2-  O171  1  0.47223879  0.66418047  0.62238708  1
  O2-  O172  1  0.48234946  1.00670452  0.12690006  1
  O2-  O173  1  0.47236649  0.99312289  0.62331191  1
  O2-  O174  1  0.80715833  0.32394491  0.12177799  1
  O2-  O175  1  0.80734515  0.33106139  0.62693171  1
  O2-  O176  1  0.81414957  0.66135298  0.12562424  1
  O2-  O177  1  0.80293679  0.66135300  0.62442003  1
  O2-  O178  1  0.80806188  1.00604046  0.12681279  1
  O2-  O179  1  0.80842375  0.99089550  0.62304082  1
  O2-  O180  1  0.30814271  0.17738452  0.37494248  1
  O2-  O181  1  0.30740458  0.17368945  0.87173849  1
  O2-  O182  1  0.31675613  0.50024903  0.37354155  1
  O2-  O183  1  0.30677442  0.50664726  0.87711673  1
  O2-  O184  1  0.30651050  0.84253656  0.37329383  1
  O2-  O185  1  0.31063482  0.83683098  0.87783579  1
  O2-  O186  1  0.64094960  0.17549095  0.38054985  1
  O2-  O187  1  0.64212807  0.17253001  0.87141614  1
  O2-  O188  1  0.64285437  0.50286264  0.37685057  1
  O2-  O189  1  0.64134967  0.50783182  0.87530552  1
  O2-  O190  1  0.63894939  0.84171351  0.37410163  1
  O2-  O191  1  0.64132222  0.83328356  0.87760157  1
  O2-  O192  1  0.97618100  0.17099124  0.37866025  1
  O2-  O193  1  0.97611628  0.17552392  0.87284434  1
  O2-  O194  1  0.97452634  0.50518759  0.37612645  1
  O2-  O195  1  0.97490163  0.50989044  0.87567630  1
  O2-  O196  1  0.97218901  0.83882539  0.37464499  1
  O2-  O197  1  0.97494600  0.83719209  0.87467594  1
  O2-  O198  1  0.19315008  0.01052817  0.37609185  1
  O2-  O199  1  0.19459703  0.00159125  0.87331805  1
  O2-  O200  1  0.18910649  0.33169216  0.37590435  1
  O2-  O201  1  0.19363542  0.33701545  0.87477282  1
  O2-  O202  1  0.19070808  0.67478822  0.37289599  1
  O2-  O203  1  0.19266010  0.67550224  0.87863427  1
  O2-  O204  1  0.52551171  0.00423967  0.37729812  1
  O2-  O205  1  0.51806782  -0.00231217  0.87311016  1
  O2-  O206  1  0.52992070  0.34016801  0.37807555  1
  O2-  O207  1  0.52738933  0.33980132  0.87460462  1
  O2-  O208  1  0.52789534  0.66992774  0.37403191  1
  O2-  O209  1  0.52335751  0.67475128  0.87746648  1
  O2-  O210  1  0.85935694  0.00631198  0.37683256  1
  O2-  O211  1  0.85967913  0.00139950  0.87330466  1
  O2-  O212  1  0.85217513  0.33720433  0.37706849  1
  O2-  O213  1  0.86376654  0.34030227  0.87554669  1
  O2-  O214  1  0.85769482  0.66945928  0.37506818  1
  O2-  O215  1  0.85748459  0.67575678  0.87481512  1
  O2-  O216  1  0.23512488  0.09495932  0.01606575  1
  O2-  O217  1  0.23617906  0.09219130  0.52301322  1
  O2-  O218  1  0.23806344  0.42739621  0.02004607  1
  O2-  O219  1  0.24613107  0.42186337  0.51732058  1
  O2-  O220  1  0.23769019  0.76194747  0.02503370  1
  O2-  O221  1  0.23970322  0.76037388  0.51979927  1
  O2-  O222  1  0.56963985  0.09588311  0.01045129  1
  O2-  O223  1  0.57249318  0.09628914  0.52207084  1
  O2-  O224  1  0.57200455  0.42607868  0.02011001  1
  O2-  O225  1  0.57145242  0.43099926  0.52075907  1
  O2-  O226  1  0.56600283  0.76531714  0.01920157  1
  O2-  O227  1  0.56751373  0.76288364  0.51609751  1
  O2-  O228  1  0.90446275  0.09616133  0.01431002  1
  O2-  O229  1  0.90510212  0.09842369  0.52272336  1
  O2-  O230  1  0.90396746  0.42691996  0.02235789  1
  O2-  O231  1  0.90271991  0.43029474  0.51726054  1
  O2-  O232  1  0.90987804  0.76127032  0.01802326  1
  O2-  O233  1  0.90226628  0.75952871  0.51938846  1
  O2-  O234  1  0.26249308  0.26001329  0.22924654  1
  O2-  O235  1  0.26415413  0.26039799  0.72813387  1
  O2-  O236  1  0.25825845  0.59331195  0.22898605  1
  O2-  O237  1  0.26325241  0.59707974  0.73364693  1
  O2-  O238  1  0.25857084  0.92704031  0.23184134  1
  O2-  O239  1  0.26081440  0.92441289  0.72629008  1
  O2-  O240  1  0.59625565  0.26071220  0.22984303  1
  O2-  O241  1  0.59745744  0.26361632  0.72726914  1
  O2-  O242  1  0.59076158  0.59116954  0.23105255  1
  O2-  O243  1  0.59437267  0.59842328  0.72947432  1
  O2-  O244  1  0.59683828  0.93311773  0.23380104  1
  O2-  O245  1  0.59284886  0.92614306  0.72591172  1
  O2-  O246  1  0.92687768  0.25825192  0.22606559  1
  O2-  O247  1  0.93270389  0.26547222  0.72835832  1
  O2-  O248  1  0.92802863  0.59260187  0.22980189  1
  O2-  O249  1  0.92412933  0.59834213  0.73038726  1
  O2-  O250  1  0.93223915  0.93238749  0.23260760  1
  O2-  O251  1  0.92592999  0.92702637  0.72686777  1
  O2-  O252  1  0.09558474  0.23564073  0.26418016  1
  O2-  O253  1  0.09960725  0.23454765  0.76782859  1
  O2-  O254  1  0.09253350  0.57568707  0.26791362  1
  O2-  O255  1  0.09308274  0.57499698  0.77239635  1
  O2-  O256  1  0.09451541  0.90636147  0.27482620  1
  O2-  O257  1  0.09741911  0.90305617  0.76872820  1
  O2-  O258  1  0.42881594  0.23920660  0.27344297  1
  O2-  O259  1  0.43082002  0.23781614  0.76946985  1
  O2-  O260  1  0.42992492  0.57020788  0.26652162  1
  O2-  O261  1  0.42965069  0.57325297  0.77133148  1
  O2-  O262  1  0.42818371  0.90591982  0.26831869  1
  O2-  O263  1  0.42882244  0.90168321  0.76504075  1
  O2-  O264  1  0.76083015  0.23742068  0.26972764  1
  O2-  O265  1  0.76722514  0.24240821  0.77340798  1
  O2-  O266  1  0.76209610  0.56913023  0.26707922  1
  O2-  O267  1  0.76131134  0.57346947  0.77327043  1
  O2-  O268  1  0.76188996  0.90796005  0.27237954  1
  O2-  O269  1  0.76213386  0.90250859  0.76472425  1
  O2-  O270  1  0.07090859  0.07129690  0.48151413  1
  O2-  O271  1  0.07248503  0.07143661  0.97448960  1
  O2-  O272  1  0.07454603  0.40980076  0.48873493  1
  O2-  O273  1  0.07014995  0.40444426  0.97669250  1
  O2-  O274  1  0.06875188  0.73938587  0.48102439  1
  O2-  O275  1  0.07228066  0.73922601  0.98005740  1
  O2-  O276  1  0.40310947  0.07162968  0.47777488  1
  O2-  O277  1  0.40533841  0.07243810  0.97681656  1
  O2-  O278  1  0.40987436  0.40447805  0.47971712  1
  O2-  O279  1  0.40631624  0.40365021  0.97859879  1
  O2-  O280  1  0.40277474  0.73621645  0.47457311  1
  O2-  O281  1  0.40251155  0.73823609  0.98158063  1
  O2-  O282  1  0.73756112  0.07187347  0.47883869  1
  O2-  O283  1  0.74377642  0.07652272  0.97850683  1
  O2-  O284  1  0.73949253  0.40705651  0.48094976  1
  O2-  O285  1  0.74044356  0.40410267  0.97752575  1
  O2-  O286  1  0.73707671  0.73791688  0.47411554  1
  O2-  O287  1  0.73878806  0.74215332  0.98050067  1
  O2-  O288  1  0.09728949  0.23507278  0.48594633  1
  O2-  O289  1  0.09700127  0.23477904  0.98087343  1
  O2-  O290  1  0.08808841  0.57887916  0.48087021  1
  O2-  O291  1  0.09666048  0.57223289  0.97884104  1
  O2-  O292  1  0.09729724  0.90551583  0.47623053  1
  O2-  O293  1  0.09455841  0.90536727  0.97970795  1
  O2-  O294  1  0.43217355  0.24056520  0.48150722  1
  O2-  O295  1  0.43003367  0.23728561  0.97575228  1
  O2-  O296  1  0.43269118  0.57085306  0.48179988  1
  O2-  O297  1  0.42686897  0.57224365  0.97963378  1
  O2-  O298  1  0.42772674  0.90083481  0.48083108  1
  O2-  O299  1  0.42685395  0.90546070  0.98612369  1
  O2-  O300  1  0.76183692  0.23960653  0.48042620  1
  O2-  O301  1  0.76288623  0.23911099  0.97596114  1
  O2-  O302  1  0.76241881  0.56959977  0.48017715  1
  O2-  O303  1  0.76123106  0.57342292  0.97929713  1
  O2-  O304  1  0.75982542  0.90316984  0.47904320  1
  O2-  O305  1  0.76291361  0.90647579  0.98281655  1
  O2-  O306  1  0.07347085  0.07390367  0.27302928  1
  O2-  O307  1  0.06975623  0.06911512  0.77104878  1
  O2-  O308  1  0.07327085  0.40618266  0.26109915  1
  O2-  O309  1  0.07436730  0.40522216  0.77235129  1
  O2-  O310  1  0.06903218  0.73811009  0.26829658  1
  O2-  O311  1  0.07199189  0.73902568  0.77022111  1
  O2-  O312  1  0.40620512  0.07345138  0.27566819  1
  O2-  O313  1  0.40198463  0.06881721  0.77148033  1
  O2-  O314  1  0.40921727  0.40270593  0.26931900  1
  O2-  O315  1  0.40625315  0.40604411  0.77120374  1
  O2-  O316  1  0.40032158  0.73559043  0.27313948  1
  O2-  O317  1  0.40396877  0.73852018  0.77053306  1
  O2-  O318  1  0.73984017  0.07492677  0.27527291  1
  O2-  O319  1  0.74197537  0.07118327  0.76791663  1
  O2-  O320  1  0.73873038  0.40423245  0.26746835  1
  O2-  O321  1  0.74172406  0.40669257  0.77369677  1
  O2-  O322  1  0.73647517  0.74048643  0.27231935  1
  O2-  O323  1  0.73925728  0.74027242  0.77213517  1
  O2-  O324  1  0.23685099  0.09636329  0.23290977  1
  O2-  O325  1  0.23582929  0.09240019  0.72734773  1
  O2-  O326  1  0.24267140  0.42426981  0.22817813  1
  O2-  O327  1  0.24096805  0.42496935  0.73272529  1
  O2-  O328  1  0.23665278  0.76151468  0.22523840  1
  O2-  O329  1  0.23894030  0.76130017  0.73071025  1
  O2-  O330  1  0.57056117  0.09827415  0.23871589  1
  O2-  O331  1  0.56742693  0.09177997  0.72995430  1
  O2-  O332  1  0.57317475  0.42648229  0.22805689  1
  O2-  O333  1  0.57086179  0.43216626  0.73330012  1
  O2-  O334  1  0.56334195  0.76577541  0.23261397  1
  O2-  O335  1  0.56891225  0.76288376  0.73196572  1
  O2-  O336  1  0.90342932  0.09714973  0.23517309  1
  O2-  O337  1  0.90460899  0.09756806  0.72903105  1
  O2-  O338  1  0.90498456  0.42614702  0.22861026  1
  O2-  O339  1  0.90196433  0.43130304  0.73289575  1
  O2-  O340  1  0.90769168  0.76109777  0.23435720  1
  O2-  O341  1  0.90437575  0.76040429  0.72758085  1
  O2-  O342  1  0.26462267  0.25950957  0.01919815  1
  O2-  O343  1  0.26377166  0.25904744  0.52245192  1
  O2-  O344  1  0.26056435  0.59597990  0.02351217  1
  O2-  O345  1  0.26095588  0.59440397  0.51403234  1
  O2-  O346  1  0.25760390  0.92490681  0.01811154  1
  O2-  O347  1  0.26021831  0.92559101  0.52281986  1
  O2-  O348  1  0.59747265  0.25944770  0.01893490  1
  O2-  O349  1  0.59749837  0.26408655  0.52594995  1
  O2-  O350  1  0.59002731  0.59448935  0.01798152  1
  O2-  O351  1  0.59496515  0.59478942  0.52360286  1
  O2-  O352  1  0.59354181  0.92988501  0.02026173  1
  O2-  O353  1  0.59521699  0.92773982  0.52095175  1
  O2-  O354  1  0.92771808  0.25787876  0.02257051  1
  O2-  O355  1  0.92964284  0.26427396  0.52425123  1
  O2-  O356  1  0.92914026  0.59371232  0.01948215  1
  O2-  O357  1  0.92354828  0.59605142  0.52036315  1
  O2-  O358  1  0.93009234  0.93030804  0.01993857  1
  O2-  O359  1  0.92944980  0.92780621  0.52012732  1
