# generated using pymatgen
data_Sr7Ca15Pr50Mn72O216
_symmetry_space_group_name_H-M   'P 1'
_cell_length_a   16.55603019
_cell_length_b   16.60097372
_cell_length_c   15.58954473
_cell_angle_alpha   89.99617055
_cell_angle_beta   89.99860172
_cell_angle_gamma   89.99657277
_symmetry_Int_Tables_number   1
_chemical_formula_structural   Sr7Ca15Pr50Mn72O216
_chemical_formula_sum   'Sr7 Ca15 Pr50 Mn72 O216'
_cell_volume   4284.72745796
_cell_formula_units_Z   1
loop_
 _symmetry_equiv_pos_site_id
 _symmetry_equiv_pos_as_xyz
  1  'x, y, z'
loop_
 _atom_type_symbol
 _atom_type_oxidation_number
  Sr2+  2.0
  Ca2+  2.0
  Pr3+  3.0
  Mn3.30+  3.3
  O2-  -2.0
loop_
 _atom_site_type_symbol
 _atom_site_label
 _atom_site_symmetry_multiplicity
 _atom_site_fract_x
 _atom_site_fract_y
 _atom_site_fract_z
 _atom_site_occupancy
  Sr2+  Sr0  1  0.66642329  0.67574304  0.12536664  1
  Sr2+  Sr1  1  0.33531629  0.32356155  0.87459398  1
  Sr2+  Sr2  1  0.99972292  0.32148862  0.37496600  1
  Sr2+  Sr3  1  0.33183599  0.65909340  0.87542964  1
  Sr2+  Sr4  1  1.00437139  0.98664148  0.87479430  1
  Sr2+  Sr5  1  0.16342091  0.15735708  0.37485999  1
  Sr2+  Sr6  1  0.66862699  0.98885475  0.87494963  1
  Ca2+  Ca7  1  0.83632636  0.84700268  0.12369710  1
  Ca2+  Ca8  1  1.00418065  0.31884195  0.87530227  1
  Ca2+  Ca9  1  1.00352968  0.65151283  0.37528233  1
  Ca2+  Ca10  1  0.83810911  0.18012240  0.12428161  1
  Ca2+  Ca11  1  0.16185769  0.81600161  0.87533759  1
  Ca2+  Ca12  1  1.00533641  0.65511997  0.87469290  1
  Ca2+  Ca13  1  0.83142261  0.15297303  0.37346050  1
  Ca2+  Ca14  1  0.17043107  0.51581143  0.62519098  1
  Ca2+  Ca15  1  0.33141119  0.01447508  0.62505931  1
  Ca2+  Ca16  1  0.33564254  0.65152475  0.37554605  1
  Ca2+  Ca17  1  0.50247450  0.51627854  0.12264446  1
  Ca2+  Ca18  1  0.66074171  0.35145780  0.62527052  1
  Ca2+  Ca19  1  0.50041724  0.51304206  0.62756543  1
  Ca2+  Ca20  1  0.50065116  0.84681588  0.62616660  1
  Ca2+  Ca21  1  0.16842319  0.84602840  0.12044536  1
  Pr3+  Pr22  1  0.33059318  0.67621274  0.62483700  1
  Pr3+  Pr23  1  1.00331935  0.99186009  0.37499710  1
  Pr3+  Pr24  1  0.16276523  0.48832907  0.87307255  1
  Pr3+  Pr25  1  0.66853016  0.01167111  0.12368345  1
  Pr3+  Pr26  1  0.66849258  0.65502303  0.87548565  1
  Pr3+  Pr27  1  0.33121194  0.34808115  0.12442599  1
  Pr3+  Pr28  1  -0.00384183  0.01249333  0.12364006  1
  Pr3+  Pr29  1  0.83664588  0.84567013  0.62482485  1
  Pr3+  Pr30  1  0.83375787  0.51153794  0.62436324  1
  Pr3+  Pr31  1  0.16390175  0.15349998  0.87516793  1
  Pr3+  Pr32  1  0.49750633  0.15327652  0.37542709  1
  Pr3+  Pr33  1  0.66445859  0.34764950  0.12430501  1
  Pr3+  Pr34  1  0.17207837  0.84646436  0.62718757  1
  Pr3+  Pr35  1  0.33430850  0.98801665  0.37662507  1
  Pr3+  Pr36  1  0.16388078  0.48914771  0.37710033  1
  Pr3+  Pr37  1  0.32835832  0.35017300  0.62588897  1
  Pr3+  Pr38  1  0.66782223  0.65244539  0.37392071  1
  Pr3+  Pr39  1  0.16951190  0.17752108  0.62454007  1
  Pr3+  Pr40  1  -0.00564217  0.68262471  0.12541583  1
  Pr3+  Pr41  1  0.32832268  0.68093710  0.12547426  1
  Pr3+  Pr42  1  0.83520811  0.17895088  0.62603733  1
  Pr3+  Pr43  1  0.67344150  0.31903236  0.37725704  1
  Pr3+  Pr44  1  -0.00408622  0.34387000  0.12504608  1
  Pr3+  Pr45  1  0.83347347  0.48892115  0.87492939  1
  Pr3+  Pr46  1  0.65994481  0.68021530  0.62424685  1
  Pr3+  Pr47  1  0.33538594  0.32081780  0.37550982  1
  Pr3+  Pr48  1  0.66896070  0.32277910  0.87269625  1
  Pr3+  Pr49  1  0.49629188  0.15409662  0.87466898  1
  Pr3+  Pr50  1  0.83227510  0.82171661  0.87623174  1
  Pr3+  Pr51  1  0.32926855  0.01054076  0.12513235  1
  Pr3+  Pr52  1  -0.00062781  0.34586588  0.62488017  1
  Pr3+  Pr53  1  0.49432911  0.81712878  0.37560680  1
  Pr3+  Pr54  1  0.49403108  0.48938014  0.87512128  1
  Pr3+  Pr55  1  0.49613059  0.48965228  0.37507369  1
  Pr3+  Pr56  1  0.33586913  0.98743652  0.87391850  1
  Pr3+  Pr57  1  0.50413622  0.17911751  0.12480199  1
  Pr3+  Pr58  1  0.83144552  0.48734919  0.37528052  1
  Pr3+  Pr59  1  0.66343202  0.01144071  0.62637276  1
  Pr3+  Pr60  1  0.83263445  0.15229037  0.87668518  1
  Pr3+  Pr61  1  0.16718551  0.51257266  0.12575748  1
  Pr3+  Pr62  1  0.49710330  0.82059106  0.87433155  1
  Pr3+  Pr63  1  0.67133514  0.98769603  0.37515421  1
  Pr3+  Pr64  1  0.83243892  0.82009891  0.37292347  1
  Pr3+  Pr65  1  0.16734579  0.17874422  0.12536074  1
  Pr3+  Pr66  1  0.50392519  0.18152813  0.62543096  1
  Pr3+  Pr67  1  0.50236482  0.84320614  0.12428978  1
  Pr3+  Pr68  1  -0.00150488  0.01258840  0.62682092  1
  Pr3+  Pr69  1  0.00014006  0.67711545  0.62451679  1
  Pr3+  Pr70  1  0.83712133  0.51248317  0.12559683  1
  Pr3+  Pr71  1  0.16256847  0.81916263  0.37390102  1
  Mn3.30+  Mn72  1  0.16565539  -0.00398258  -0.00030228  1
  Mn3.30+  Mn73  1  0.16867831  0.00008558  0.50077535  1
  Mn3.30+  Mn74  1  0.16509397  0.33365073  -0.00159465  1
  Mn3.30+  Mn75  1  0.16566467  0.33455711  0.50080174  1
  Mn3.30+  Mn76  1  0.16349570  0.66783987  -0.00026165  1
  Mn3.30+  Mn77  1  0.16712178  0.66634895  0.49813414  1
  Mn3.30+  Mn78  1  0.50046184  -0.00066032  -0.00040239  1
  Mn3.30+  Mn79  1  0.49944114  -0.00186933  0.50218870  1
  Mn3.30+  Mn80  1  0.49961099  0.33493943  0.00069891  1
  Mn3.30+  Mn81  1  0.50175055  0.33589267  0.50116884  1
  Mn3.30+  Mn82  1  0.49949043  0.66642699  0.00071704  1
  Mn3.30+  Mn83  1  0.49704126  0.66593601  0.50067364  1
  Mn3.30+  Mn84  1  0.83439348  -0.00191044  0.00049950  1
  Mn3.30+  Mn85  1  0.83400573  0.00095870  0.49929574  1
  Mn3.30+  Mn86  1  0.83478329  0.33257883  -0.00178602  1
  Mn3.30+  Mn87  1  0.83138023  0.33186659  0.50219918  1
  Mn3.30+  Mn88  1  0.83598040  0.66807342  -0.00052738  1
  Mn3.30+  Mn89  1  0.83349392  0.66616992  0.49897873  1
  Mn3.30+  Mn90  1  -0.00253337  0.16630082  0.25040555  1
  Mn3.30+  Mn91  1  0.00116457  0.16743299  0.75094975  1
  Mn3.30+  Mn92  1  0.00053719  0.50067374  0.25173931  1
  Mn3.30+  Mn93  1  0.00106920  0.50040008  0.74916514  1
  Mn3.30+  Mn94  1  0.00040523  0.83414916  0.24885420  1
  Mn3.30+  Mn95  1  0.00307462  0.83130443  0.75136460  1
  Mn3.30+  Mn96  1  0.33353754  0.16618597  0.25043751  1
  Mn3.30+  Mn97  1  0.33391452  0.16684772  0.74895412  1
  Mn3.30+  Mn98  1  0.33400439  0.50243093  0.24937421  1
  Mn3.30+  Mn99  1  0.33234466  0.50198787  0.74971319  1
  Mn3.30+  Mn100  1  0.33044185  0.83220178  0.25071987  1
  Mn3.30+  Mn101  1  0.33344985  0.83354586  0.74901229  1
  Mn3.30+  Mn102  1  0.67002692  0.16679873  0.24925938  1
  Mn3.30+  Mn103  1  0.66697881  0.16837726  0.74990514  1
  Mn3.30+  Mn104  1  0.66427071  0.49988127  0.24902677  1
  Mn3.30+  Mn105  1  0.66440220  0.50030589  0.74909881  1
  Mn3.30+  Mn106  1  0.66743441  0.83266699  0.24855747  1
  Mn3.30+  Mn107  1  0.66526275  0.83339667  0.74979540  1
  Mn3.30+  Mn108  1  0.16574214  -0.00164585  0.24896955  1
  Mn3.30+  Mn109  1  0.16893055  -0.00181498  0.75019336  1
  Mn3.30+  Mn110  1  0.16520062  0.33366325  0.24990250  1
  Mn3.30+  Mn111  1  0.16553389  0.33409222  0.75104034  1
  Mn3.30+  Mn112  1  0.16531106  0.66810536  0.25085311  1
  Mn3.30+  Mn113  1  0.16546406  0.66597569  0.75044103  1
  Mn3.30+  Mn114  1  0.50099897  -0.00124057  0.25025206  1
  Mn3.30+  Mn115  1  0.49858468  -0.00095712  0.74800635  1
  Mn3.30+  Mn116  1  0.50173146  0.33505491  0.25031306  1
  Mn3.30+  Mn117  1  0.50015741  0.33565319  0.74833908  1
  Mn3.30+  Mn118  1  0.49758545  0.66554887  0.24929593  1
  Mn3.30+  Mn119  1  0.49870101  0.66699986  0.74866646  1
  Mn3.30+  Mn120  1  0.83481094  0.00088247  0.24948955  1
  Mn3.30+  Mn121  1  0.83337183  -0.00120843  0.75122116  1
  Mn3.30+  Mn122  1  0.83261106  0.33030030  0.25015924  1
  Mn3.30+  Mn123  1  0.83380334  0.33395362  0.74997704  1
  Mn3.30+  Mn124  1  0.83477808  0.66740231  0.25052011  1
  Mn3.30+  Mn125  1  0.83445980  0.66651560  0.75027897  1
  Mn3.30+  Mn126  1  -0.00041633  0.16689172  -0.00053751  1
  Mn3.30+  Mn127  1  -0.00063632  0.16691796  0.49904048  1
  Mn3.30+  Mn128  1  0.00039643  0.50023962  -0.00197654  1
  Mn3.30+  Mn129  1  0.00142184  0.50085762  0.50108243  1
  Mn3.30+  Mn130  1  0.00203555  0.83268044  -0.00013241  1
  Mn3.30+  Mn131  1  0.00139380  0.83249130  0.49947354  1
  Mn3.30+  Mn132  1  0.33309073  0.16720043  0.00051985  1
  Mn3.30+  Mn133  1  0.33434791  0.16588222  0.50070922  1
  Mn3.30+  Mn134  1  0.33336025  0.50226217  0.00081943  1
  Mn3.30+  Mn135  1  0.33282250  0.50185954  0.50031703  1
  Mn3.30+  Mn136  1  0.33029461  0.83294974  -0.00145879  1
  Mn3.30+  Mn137  1  0.33381815  0.83264847  0.50136570  1
  Mn3.30+  Mn138  1  0.66924326  0.16744406  0.00047541  1
  Mn3.30+  Mn139  1  0.66788175  0.16729708  0.50069911  1
  Mn3.30+  Mn140  1  0.66525595  0.50092244  -0.00031430  1
  Mn3.30+  Mn141  1  0.66335951  0.49944350  0.50204212  1
  Mn3.30+  Mn142  1  0.66830005  0.83262704  0.00143736  1
  Mn3.30+  Mn143  1  0.66438773  0.83320934  0.49955592  1
  O2-  O144  1  0.02358009  0.16261117  0.12291615  1
  O2-  O145  1  0.02422517  0.16205546  0.62583340  1
  O2-  O146  1  0.02250242  0.49211078  0.12402550  1
  O2-  O147  1  0.02747961  0.49377671  0.62470909  1
  O2-  O148  1  0.02773677  0.82833585  0.12596349  1
  O2-  O149  1  0.02681254  0.82586274  0.62347539  1
  O2-  O150  1  0.35984992  0.16002771  0.12603753  1
  O2-  O151  1  0.35980212  0.16166366  0.62241466  1
  O2-  O152  1  0.35980078  0.49528505  0.12584746  1
  O2-  O153  1  0.35830604  0.49735955  0.62296031  1
  O2-  O154  1  0.35774723  0.83003792  0.12603449  1
  O2-  O155  1  0.35961160  0.82254640  0.62351105  1
  O2-  O156  1  0.69463200  0.16227954  0.12328579  1
  O2-  O157  1  0.69148774  0.15866558  0.62454703  1
  O2-  O158  1  0.69322076  0.49533534  0.12440886  1
  O2-  O159  1  0.69039696  0.49869450  0.62643971  1
  O2-  O160  1  0.69233985  0.83110217  0.12628464  1
  O2-  O161  1  0.69234684  0.82812119  0.62275080  1
  O2-  O162  1  0.14101953  0.33007047  0.12368820  1
  O2-  O163  1  0.14284956  0.32563047  0.62730487  1
  O2-  O164  1  0.13804305  0.65944165  0.12621029  1
  O2-  O165  1  0.14345766  0.66321176  0.62331631  1
  O2-  O166  1  0.14135238  0.99139866  0.12379891  1
  O2-  O167  1  0.14215084  0.99428258  0.62558396  1
  O2-  O168  1  0.47448930  0.32429782  0.12730387  1
  O2-  O169  1  0.47240291  0.32670841  0.62480173  1
  O2-  O170  1  0.47364787  0.66362365  0.12734602  1
  O2-  O171  1  0.47473843  0.65755116  0.62413125  1
  O2-  O172  1  0.47412143  0.99348868  0.12532125  1
  O2-  O173  1  0.47321860  0.99354230  0.62410891  1
  O2-  O174  1  0.80800709  0.32785587  0.12516866  1
  O2-  O175  1  0.80298364  0.32668676  0.62648191  1
  O2-  O176  1  0.81557152  0.65911127  0.12603879  1
  O2-  O177  1  0.80493755  0.66103094  0.62400937  1
  O2-  O178  1  0.81086285  0.99092912  0.12531528  1
  O2-  O179  1  0.80865682  0.99403351  0.62533629  1
  O2-  O180  1  0.31414848  0.17207378  0.37533374  1
  O2-  O181  1  0.30895445  0.16816883  0.87681231  1
  O2-  O182  1  0.30797885  0.50396738  0.37443346  1
  O2-  O183  1  0.30818692  0.50269710  0.87711148  1
  O2-  O184  1  0.30642921  0.84168926  0.37632397  1
  O2-  O185  1  0.30597468  0.84001402  0.87407208  1
  O2-  O186  1  0.64046540  0.17132169  0.37678810  1
  O2-  O187  1  0.64009773  0.17434146  0.87541674  1
  O2-  O188  1  0.64127302  0.50264432  0.37551743  1
  O2-  O189  1  0.63983556  0.50461799  0.87358614  1
  O2-  O190  1  0.63968449  0.83958222  0.37532097  1
  O2-  O191  1  0.64200063  0.83254399  0.87522034  1
  O2-  O192  1  0.97448842  0.16261719  0.37685816  1
  O2-  O193  1  0.97688458  0.17217092  0.87499468  1
  O2-  O194  1  0.97482570  0.50600385  0.37784067  1
  O2-  O195  1  0.97538341  0.51082379  0.87323101  1
  O2-  O196  1  0.97520613  0.84371422  0.37647902  1
  O2-  O197  1  0.97549038  0.83427637  0.87425634  1
  O2-  O198  1  0.19012396  0.00249577  0.37604343  1
  O2-  O199  1  0.19256391  0.00755557  0.87481547  1
  O2-  O200  1  0.19127263  0.33970835  0.37460743  1
  O2-  O201  1  0.18763684  0.33928849  0.87447437  1
  O2-  O202  1  0.19484202  0.67319779  0.37376073  1
  O2-  O203  1  0.18345342  0.66953037  0.87631058  1
  O2-  O204  1  0.52700562  0.00505362  0.37568784  1
  O2-  O205  1  0.51946730  0.00594015  0.87447316  1
  O2-  O206  1  0.52915326  0.34213160  0.37418824  1
  O2-  O207  1  0.52460704  0.34065955  0.87399903  1
  O2-  O208  1  0.52376496  0.67050939  0.37534777  1
  O2-  O209  1  0.52412723  0.67296608  0.87345032  1
  O2-  O210  1  0.85902699  0.00778178  0.37532802  1
  O2-  O211  1  0.85400897  0.00319892  0.87443897  1
  O2-  O212  1  0.85054893  0.34154560  0.37621235  1
  O2-  O213  1  0.86232273  0.34201324  0.87243222  1
  O2-  O214  1  0.86063822  0.67157324  0.37496172  1
  O2-  O215  1  0.86215246  0.67370969  0.87426170  1
  O2-  O216  1  0.23878827  0.09264391  0.02196092  1
  O2-  O217  1  0.23918872  0.09344827  0.52000380  1
  O2-  O218  1  0.23883369  0.42789848  0.02132813  1
  O2-  O219  1  0.23928841  0.43021345  0.52098482  1
  O2-  O220  1  0.23844528  0.75971284  0.02201491  1
  O2-  O221  1  0.23720235  0.76198748  0.52020843  1
  O2-  O222  1  0.57381604  0.09439512  0.02099808  1
  O2-  O223  1  0.57206767  0.09579167  0.52125559  1
  O2-  O224  1  0.57098061  0.42681044  0.02184804  1
  O2-  O225  1  0.56727021  0.43159737  0.52150013  1
  O2-  O226  1  0.57154155  0.76239476  0.01768089  1
  O2-  O227  1  0.56727565  0.76179764  0.52042241  1
  O2-  O228  1  0.90614742  0.09520467  0.01888894  1
  O2-  O229  1  0.90669124  0.09280757  0.52512415  1
  O2-  O230  1  0.90401983  0.42876081  0.02016496  1
  O2-  O231  1  0.90430548  0.42559901  0.52192293  1
  O2-  O232  1  0.90444512  0.76344188  0.02214286  1
  O2-  O233  1  0.90516861  0.76079766  0.52057245  1
  O2-  O234  1  0.26084305  0.26151911  0.22937340  1
  O2-  O235  1  0.26187099  0.25988114  0.72766578  1
  O2-  O236  1  0.25903356  0.59547176  0.22699334  1
  O2-  O237  1  0.26000290  0.59516194  0.73055167  1
  O2-  O238  1  0.26385988  0.92949823  0.23344072  1
  O2-  O239  1  0.26500069  0.92941173  0.72660967  1
  O2-  O240  1  0.59643081  0.26278836  0.22971297  1
  O2-  O241  1  0.59632175  0.26443312  0.72859709  1
  O2-  O242  1  0.59420096  0.59382264  0.23643969  1
  O2-  O243  1  0.59634308  0.59909930  0.73308037  1
  O2-  O244  1  0.59540703  0.92836383  0.22844967  1
  O2-  O245  1  0.59298094  0.92840950  0.72991066  1
  O2-  O246  1  0.92679211  0.26109501  0.22985978  1
  O2-  O247  1  0.92543833  0.26133043  0.72659537  1
  O2-  O248  1  0.92842525  0.59223774  0.23010570  1
  O2-  O249  1  0.92544749  0.59209401  0.72438132  1
  O2-  O250  1  0.93122147  0.93106246  0.23322621  1
  O2-  O251  1  0.92945778  0.92384644  0.72787512  1
  O2-  O252  1  0.09189126  0.23790175  0.26206689  1
  O2-  O253  1  0.09700800  0.23737402  0.76834301  1
  O2-  O254  1  0.09813130  0.57216375  0.26950746  1
  O2-  O255  1  0.09551721  0.56999574  0.76633619  1
  O2-  O256  1  0.09407934  0.90599882  0.27277415  1
  O2-  O257  1  0.10128733  0.90002107  0.76641906  1
  O2-  O258  1  0.43243948  0.24109094  0.27154205  1
  O2-  O259  1  0.43256509  0.23699176  0.76676665  1
  O2-  O260  1  0.42721162  0.57231743  0.27037395  1
  O2-  O261  1  0.42928367  0.57325121  0.76874926  1
  O2-  O262  1  0.42761790  0.90365448  0.27110535  1
  O2-  O263  1  0.42679495  0.90655929  0.77247596  1
  O2-  O264  1  0.76108270  0.23820246  0.27410111  1
  O2-  O265  1  0.76400329  0.24053828  0.77379652  1
  O2-  O266  1  0.75979239  0.57020915  0.27104854  1
  O2-  O267  1  0.76224400  0.57325401  0.77221919  1
  O2-  O268  1  0.76263852  0.90820964  0.27391576  1
  O2-  O269  1  0.76318605  0.90240858  0.76574865  1
  O2-  O270  1  0.07087868  0.06921460  0.48659810  1
  O2-  O271  1  0.07560101  0.07271527  0.98340458  1
  O2-  O272  1  0.07295365  0.40827834  0.48177853  1
  O2-  O273  1  0.06859057  0.40524230  0.97797960  1
  O2-  O274  1  0.07092713  0.73821236  0.47729432  1
  O2-  O275  1  0.06604046  0.73316178  0.98416904  1
  O2-  O276  1  0.40896902  0.07233020  0.47753495  1
  O2-  O277  1  0.40507075  0.07302304  0.98103651  1
  O2-  O278  1  0.40305528  0.40546943  0.47844172  1
  O2-  O279  1  0.40640240  0.40741071  0.98395484  1
  O2-  O280  1  0.40259318  0.73662467  0.47710219  1
  O2-  O281  1  0.40670040  0.74357454  0.98359462  1
  O2-  O282  1  0.73575429  0.07086242  0.48240457  1
  O2-  O283  1  0.74030164  0.07534422  0.98247574  1
  O2-  O284  1  0.73838528  0.40635463  0.48233979  1
  O2-  O285  1  0.73811433  0.40675511  0.97892312  1
  O2-  O286  1  0.73707745  0.73927780  0.47789712  1
  O2-  O287  1  0.74137170  0.73917049  0.97733092  1
  O2-  O288  1  0.09214354  0.23878356  0.48736152  1
  O2-  O289  1  0.09658619  0.23635995  0.98280833  1
  O2-  O290  1  0.09589779  0.57447646  0.47960926  1
  O2-  O291  1  0.09717902  0.56686486  0.98428782  1
  O2-  O292  1  0.09675154  0.90462552  0.48131942  1
  O2-  O293  1  0.09899222  0.89961271  0.97983422  1
  O2-  O294  1  0.43202892  0.24066846  0.47914478  1
  O2-  O295  1  0.43258305  0.23741896  0.98354383  1
  O2-  O296  1  0.42781391  0.57126619  0.47910116  1
  O2-  O297  1  0.42785407  0.57302776  0.98220897  1
  O2-  O298  1  0.42706977  0.90521357  0.47648225  1
  O2-  O299  1  0.42702820  0.90559422  0.97942701  1
  O2-  O300  1  0.76332670  0.23553495  0.47871115  1
  O2-  O301  1  0.76102369  0.24189205  0.97413477  1
  O2-  O302  1  0.76050050  0.57173192  0.47835229  1
  O2-  O303  1  0.76310071  0.57363620  0.97842517  1
  O2-  O304  1  0.76340217  0.90571930  0.47845667  1
  O2-  O305  1  0.76142568  0.90335350  0.98204453  1
  O2-  O306  1  0.06941828  0.06944998  0.26353696  1
  O2-  O307  1  0.07639216  0.07203917  0.76602309  1
  O2-  O308  1  0.07443511  0.40945138  0.26846934  1
  O2-  O309  1  0.06792914  0.40400008  0.77102603  1
  O2-  O310  1  0.06906635  0.73741747  0.27357091  1
  O2-  O311  1  0.06864682  0.73390143  0.76530017  1
  O2-  O312  1  0.40744115  0.07096211  0.27092411  1
  O2-  O313  1  0.40628916  0.07346551  0.77017732  1
  O2-  O314  1  0.40636366  0.40430151  0.27185476  1
  O2-  O315  1  0.40616075  0.40759274  0.76623168  1
  O2-  O316  1  0.40003921  0.73788147  0.27110091  1
  O2-  O317  1  0.40779390  0.74213951  0.76874727  1
  O2-  O318  1  0.73718476  0.06896156  0.26695734  1
  O2-  O319  1  0.74117796  0.07621814  0.76713166  1
  O2-  O320  1  0.73638006  0.40429577  0.26797117  1
  O2-  O321  1  0.74139742  0.40744701  0.77208636  1
  O2-  O322  1  0.73938450  0.73982131  0.27393951  1
  O2-  O323  1  0.73999222  0.73781561  0.76964801  1
  O2-  O324  1  0.23723579  0.09014269  0.22693199  1
  O2-  O325  1  0.23855166  0.09518457  0.73144698  1
  O2-  O326  1  0.24160090  0.42848614  0.22914445  1
  O2-  O327  1  0.23642123  0.42806238  0.72903926  1
  O2-  O328  1  0.23403925  0.76358706  0.22740662  1
  O2-  O329  1  0.24025630  0.75945289  0.72926464  1
  O2-  O330  1  0.57416303  0.09552857  0.22907046  1
  O2-  O331  1  0.57074462  0.09412833  0.72930733  1
  O2-  O332  1  0.57040544  0.42925156  0.22511047  1
  O2-  O333  1  0.56934414  0.43032922  0.73078554  1
  O2-  O334  1  0.56607802  0.76227696  0.23450782  1
  O2-  O335  1  0.57126881  0.76161831  0.72729635  1
  O2-  O336  1  0.90432591  0.09411223  0.22533972  1
  O2-  O337  1  0.90688169  0.09346595  0.73110905  1
  O2-  O338  1  0.90364722  0.42583759  0.23131037  1
  O2-  O339  1  0.90452276  0.42812230  0.72641783  1
  O2-  O340  1  0.90562762  0.76609035  0.22991572  1
  O2-  O341  1  0.90466901  0.75949121  0.72635988  1
  O2-  O342  1  0.26110663  0.25914366  0.02396460  1
  O2-  O343  1  0.26225443  0.26259044  0.51935301  1
  O2-  O344  1  0.25847910  0.59395770  0.02410472  1
  O2-  O345  1  0.26192430  0.59565484  0.51825562  1
  O2-  O346  1  0.26424232  0.93000434  0.01807615  1
  O2-  O347  1  0.26364013  0.92848519  0.52251136  1
  O2-  O348  1  0.59663716  0.26146739  0.02061955  1
  O2-  O349  1  0.59824982  0.26337734  0.52150972  1
  O2-  O350  1  0.59458417  0.59350654  0.01436354  1
  O2-  O351  1  0.59628913  0.59849866  0.51537816  1
  O2-  O352  1  0.59366632  0.92566905  0.02205251  1
  O2-  O353  1  0.59649530  0.93031369  0.51918863  1
  O2-  O354  1  0.92867307  0.26172386  0.01869797  1
  O2-  O355  1  0.92490049  0.26005557  0.52427615  1
  O2-  O356  1  0.92835809  0.59319025  0.02156895  1
  O2-  O357  1  0.92644741  0.59108135  0.52375232  1
  O2-  O358  1  0.93171630  0.92619682  0.01883439  1
  O2-  O359  1  0.93013799  0.92641734  0.52174307  1
