# generated using pymatgen
data_Sr7Ca15Pr50Mn72O216
_symmetry_space_group_name_H-M   'P 1'
_cell_length_a   16.55956130
_cell_length_b   16.60349291
_cell_length_c   15.59359560
_cell_angle_alpha   90.00543563
_cell_angle_beta   89.99866843
_cell_angle_gamma   90.00394874
_symmetry_Int_Tables_number   1
_chemical_formula_structural   Sr7Ca15Pr50Mn72O216
_chemical_formula_sum   'Sr7 Ca15 Pr50 Mn72 O216'
_cell_volume   4287.40541752
_cell_formula_units_Z   1
loop_
 _symmetry_equiv_pos_site_id
 _symmetry_equiv_pos_as_xyz
  1  'x, y, z'
loop_
 _atom_type_symbol
 _atom_type_oxidation_number
  Sr2+  2.0
  Ca2+  2.0
  Pr3+  3.0
  Mn3.30+  3.3
  O2-  -2.0
loop_
 _atom_site_type_symbol
 _atom_site_label
 _atom_site_symmetry_multiplicity
 _atom_site_fract_x
 _atom_site_fract_y
 _atom_site_fract_z
 _atom_site_occupancy
  Sr2+  Sr0  1  0.50362050  0.84154057  0.12501596  1
  Sr2+  Sr1  1  0.82930111  0.48875605  0.37586408  1
  Sr2+  Sr2  1  0.50027764  0.48900611  0.37638008  1
  Sr2+  Sr3  1  0.66502840  0.34542665  0.62417356  1
  Sr2+  Sr4  1  0.33614765  0.67238831  0.62390887  1
  Sr2+  Sr5  1  0.49922905  0.16328033  0.37736282  1
  Sr2+  Sr6  1  0.66737125  0.32516973  0.37765887  1
  Ca2+  Ca7  1  1.00388735  0.98344528  0.87305165  1
  Ca2+  Ca8  1  -0.00486061  0.68317393  0.12528335  1
  Ca2+  Ca9  1  0.83646109  0.84559485  0.12397788  1
  Ca2+  Ca10  1  -0.00316943  0.67716905  0.62480890  1
  Ca2+  Ca11  1  0.49873885  0.48743148  0.87194671  1
  Ca2+  Ca12  1  0.83743011  0.51685808  0.12775525  1
  Ca2+  Ca13  1  0.50257126  0.50943536  0.62379363  1
  Ca2+  Ca14  1  0.16780714  0.18317501  0.62475188  1
  Ca2+  Ca15  1  -0.00567413  0.01836168  0.62659684  1
  Ca2+  Ca16  1  0.16388469  0.48457115  0.37696758  1
  Ca2+  Ca17  1  0.16316720  0.48592388  0.87328335  1
  Ca2+  Ca18  1  0.83586498  0.51396591  0.62183080  1
  Ca2+  Ca19  1  0.66749036  0.68006736  0.12754134  1
  Ca2+  Ca20  1  0.83545711  0.18309858  0.62408265  1
  Ca2+  Ca21  1  0.33786785  0.32069512  0.37565573  1
  Pr3+  Pr22  1  0.33703114  0.65006877  0.87401837  1
  Pr3+  Pr23  1  0.67097322  0.65145613  0.37226548  1
  Pr3+  Pr24  1  0.33178908  0.67953256  0.12563138  1
  Pr3+  Pr25  1  -0.00400629  0.01117745  0.12421078  1
  Pr3+  Pr26  1  0.33264714  0.32395681  0.87417340  1
  Pr3+  Pr27  1  0.66585049  0.67036792  0.62286363  1
  Pr3+  Pr28  1  0.16452082  0.15709529  0.37802957  1
  Pr3+  Pr29  1  0.49565519  0.15455367  0.87258158  1
  Pr3+  Pr30  1  0.66637928  0.01401486  0.62621091  1
  Pr3+  Pr31  1  0.33781774  0.98991435  0.37662516  1
  Pr3+  Pr32  1  1.00486097  0.65192476  0.87542611  1
  Pr3+  Pr33  1  0.49865363  0.81800957  0.87555218  1
  Pr3+  Pr34  1  0.33121807  0.34651635  0.12772356  1
  Pr3+  Pr35  1  0.84100710  0.84517756  0.62511526  1
  Pr3+  Pr36  1  0.83064784  0.48882717  0.87485452  1
  Pr3+  Pr37  1  0.50187783  0.17864364  0.12494790  1
  Pr3+  Pr38  1  0.83381676  0.81877238  0.87638833  1
  Pr3+  Pr39  1  0.49945065  0.82087317  0.37403683  1
  Pr3+  Pr40  1  0.66537817  0.00878458  0.12374883  1
  Pr3+  Pr41  1  0.50480607  0.51307931  0.12586875  1
  Pr3+  Pr42  1  1.00130116  0.98726607  0.37759574  1
  Pr3+  Pr43  1  0.66435046  0.34545373  0.12637333  1
  Pr3+  Pr44  1  0.66979618  0.99016332  0.37583524  1
  Pr3+  Pr45  1  0.16934272  0.51346469  0.12499574  1
  Pr3+  Pr46  1  0.16619423  0.84216104  0.62489246  1
  Pr3+  Pr47  1  1.00329362  0.65063259  0.37482797  1
  Pr3+  Pr48  1  0.33386932  0.98552947  0.87256469  1
  Pr3+  Pr49  1  0.33094321  0.34538319  0.62169747  1
  Pr3+  Pr50  1  -0.00559589  0.34782732  0.62504032  1
  Pr3+  Pr51  1  0.33646837  0.65341274  0.37515919  1
  Pr3+  Pr52  1  0.83536915  0.17966876  0.12460726  1
  Pr3+  Pr53  1  0.16873256  0.18056033  0.12525176  1
  Pr3+  Pr54  1  0.67003866  0.98446377  0.87389345  1
  Pr3+  Pr55  1  0.50224048  0.18258496  0.62484833  1
  Pr3+  Pr56  1  0.33085142  0.01229866  0.12461775  1
  Pr3+  Pr57  1  0.83317471  0.15355035  0.87161267  1
  Pr3+  Pr58  1  0.82755484  0.15877664  0.37870930  1
  Pr3+  Pr59  1  0.99925530  0.32373575  0.37640726  1
  Pr3+  Pr60  1  -0.00472458  0.34969106  0.12527063  1
  Pr3+  Pr61  1  0.66751526  0.32194107  0.87380939  1
  Pr3+  Pr62  1  0.16220678  0.82006928  0.87438222  1
  Pr3+  Pr63  1  0.16976976  0.51291085  0.62491534  1
  Pr3+  Pr64  1  0.32779991  0.01515789  0.62519537  1
  Pr3+  Pr65  1  0.16388492  0.81957765  0.37568003  1
  Pr3+  Pr66  1  0.16878041  0.84577807  0.12512263  1
  Pr3+  Pr67  1  0.83076370  0.81938716  0.37309035  1
  Pr3+  Pr68  1  0.15826823  0.15116614  0.87183548  1
  Pr3+  Pr69  1  0.67013367  0.65308657  0.87785305  1
  Pr3+  Pr70  1  1.00408126  0.32260422  0.87386350  1
  Pr3+  Pr71  1  0.50403871  0.84289027  0.62468657  1
  Mn3.30+  Mn72  1  0.16395163  -0.00033748  -0.00145441  1
  Mn3.30+  Mn73  1  0.16435822  0.00142618  0.50294405  1
  Mn3.30+  Mn74  1  0.16564736  0.33512352  0.00022529  1
  Mn3.30+  Mn75  1  0.16602283  0.33356965  0.49897558  1
  Mn3.30+  Mn76  1  0.16538138  0.66517624  0.00036030  1
  Mn3.30+  Mn77  1  0.16611965  0.66450870  0.50026143  1
  Mn3.30+  Mn78  1  0.49983692  -0.00134280  -0.00073856  1
  Mn3.30+  Mn79  1  0.50012846  0.00111745  0.50078435  1
  Mn3.30+  Mn80  1  0.49925557  0.33524160  -0.00085751  1
  Mn3.30+  Mn81  1  0.49820807  0.33590676  0.49919784  1
  Mn3.30+  Mn82  1  0.50287610  0.66459097  0.00052798  1
  Mn3.30+  Mn83  1  0.50064368  0.66387968  0.50024840  1
  Mn3.30+  Mn84  1  0.83548872  -0.00196739  -0.00227816  1
  Mn3.30+  Mn85  1  0.83606896  0.00196003  0.50311064  1
  Mn3.30+  Mn86  1  0.83340417  0.33548941  -0.00051585  1
  Mn3.30+  Mn87  1  0.83223459  0.33508582  0.50309736  1
  Mn3.30+  Mn88  1  0.83587987  0.66653754  0.00400606  1
  Mn3.30+  Mn89  1  0.83539041  0.66523612  0.50030194  1
  Mn3.30+  Mn90  1  -0.00099463  0.16720454  0.25143263  1
  Mn3.30+  Mn91  1  -0.00106681  0.16609124  0.74625529  1
  Mn3.30+  Mn92  1  0.00020035  0.50148268  0.25025301  1
  Mn3.30+  Mn93  1  -0.00043940  0.50181703  0.74901425  1
  Mn3.30+  Mn94  1  -0.00158608  0.83225401  0.24897112  1
  Mn3.30+  Mn95  1  0.00016842  0.83325547  0.74944625  1
  Mn3.30+  Mn96  1  0.33326548  0.16784273  0.25097850  1
  Mn3.30+  Mn97  1  0.32884879  0.16812215  0.74960137  1
  Mn3.30+  Mn98  1  0.33279158  0.49911956  0.25254826  1
  Mn3.30+  Mn99  1  0.33382233  0.49891017  0.74968582  1
  Mn3.30+  Mn100  1  0.33349419  0.83439353  0.25017340  1
  Mn3.30+  Mn101  1  0.33276602  0.83071329  0.74790442  1
  Mn3.30+  Mn102  1  0.66655783  0.16605519  0.25058113  1
  Mn3.30+  Mn103  1  0.66745797  0.16732162  0.74968106  1
  Mn3.30+  Mn104  1  0.67053183  0.49997867  0.24764161  1
  Mn3.30+  Mn105  1  0.66530720  0.49987788  0.75009625  1
  Mn3.30+  Mn106  1  0.66843887  0.83276994  0.24816058  1
  Mn3.30+  Mn107  1  0.66958123  0.83011515  0.74917411  1
  Mn3.30+  Mn108  1  0.16600001  0.00076117  0.25182832  1
  Mn3.30+  Mn109  1  0.16183090  0.00029472  0.74628831  1
  Mn3.30+  Mn110  1  0.16658462  0.33491959  0.25295596  1
  Mn3.30+  Mn111  1  0.16524847  0.33387381  0.74806073  1
  Mn3.30+  Mn112  1  0.16491257  0.66489517  0.24979138  1
  Mn3.30+  Mn113  1  0.16642646  0.66494417  0.74918178  1
  Mn3.30+  Mn114  1  0.50077171  0.00066567  0.25024139  1
  Mn3.30+  Mn115  1  0.49933453  -0.00120921  0.74904137  1
  Mn3.30+  Mn116  1  0.49785676  0.33372845  0.25177101  1
  Mn3.30+  Mn117  1  0.49956846  0.33720692  0.75047415  1
  Mn3.30+  Mn118  1  0.50244329  0.66628705  0.24913551  1
  Mn3.30+  Mn119  1  0.50126982  0.66240300  0.75008727  1
  Mn3.30+  Mn120  1  0.83380318  -0.00033762  0.24949270  1
  Mn3.30+  Mn121  1  0.83762752  0.00032649  0.74979559  1
  Mn3.30+  Mn122  1  0.83220436  0.33526942  0.24977545  1
  Mn3.30+  Mn123  1  0.83378547  0.33506330  0.74880798  1
  Mn3.30+  Mn124  1  0.83559348  0.66710480  0.24606272  1
  Mn3.30+  Mn125  1  0.83590364  0.66476090  0.74952133  1
  Mn3.30+  Mn126  1  -0.00007523  0.16585470  -0.00105281  1
  Mn3.30+  Mn127  1  -0.00146925  0.16724384  0.50304123  1
  Mn3.30+  Mn128  1  -0.00023310  0.50225386  0.00153970  1
  Mn3.30+  Mn129  1  0.00029148  0.50090531  0.49969184  1
  Mn3.30+  Mn130  1  -0.00106578  0.83296737  0.00102186  1
  Mn3.30+  Mn131  1  -0.00015493  0.83207994  0.50087953  1
  Mn3.30+  Mn132  1  0.33091791  0.16688871  -0.00217190  1
  Mn3.30+  Mn133  1  0.33092921  0.16879184  0.50112775  1
  Mn3.30+  Mn134  1  0.33408982  0.49924218  -0.00109778  1
  Mn3.30+  Mn135  1  0.33287581  0.49874385  0.49859840  1
  Mn3.30+  Mn136  1  0.33304696  0.83247231  -0.00052052  1
  Mn3.30+  Mn137  1  0.33334703  0.83269270  0.50146043  1
  Mn3.30+  Mn138  1  0.66683158  0.16539267  -0.00202023  1
  Mn3.30+  Mn139  1  0.66663302  0.16828099  0.50209336  1
  Mn3.30+  Mn140  1  0.66776664  0.50100995  0.00184019  1
  Mn3.30+  Mn141  1  0.66780694  0.49872121  0.50146247  1
  Mn3.30+  Mn142  1  0.66890582  0.83085382  0.00203465  1
  Mn3.30+  Mn143  1  0.66928002  0.83229425  0.50082372  1
  O2-  O144  1  0.02507095  0.15967267  0.12491378  1
  O2-  O145  1  0.02759168  0.16253999  0.62463797  1
  O2-  O146  1  0.02752645  0.49436978  0.12627618  1
  O2-  O147  1  0.02670144  0.49510879  0.62442244  1
  O2-  O148  1  0.02613244  0.83049968  0.12602489  1
  O2-  O149  1  0.02262688  0.82117190  0.62396230  1
  O2-  O150  1  0.35671757  0.15920078  0.12045420  1
  O2-  O151  1  0.35748465  0.16261729  0.62683893  1
  O2-  O152  1  0.35952891  0.49530047  0.12480140  1
  O2-  O153  1  0.35898210  0.49311618  0.62434177  1
  O2-  O154  1  0.35275685  0.83018425  0.12480533  1
  O2-  O155  1  0.35983679  0.82948834  0.62438360  1
  O2-  O156  1  0.69199422  0.15818030  0.12108488  1
  O2-  O157  1  0.69179973  0.16143311  0.62899347  1
  O2-  O158  1  0.69548659  0.49078508  0.12345728  1
  O2-  O159  1  0.69113616  0.50608057  0.62740102  1
  O2-  O160  1  0.69427298  0.83006213  0.12434275  1
  O2-  O161  1  0.69628484  0.82093705  0.62522431  1
  O2-  O162  1  0.13982010  0.32732242  0.12760476  1
  O2-  O163  1  0.13891662  0.32883928  0.62402453  1
  O2-  O164  1  0.13876959  0.66005597  0.12574324  1
  O2-  O165  1  0.13915892  0.66015335  0.62533032  1
  O2-  O166  1  0.14051441  0.99514776  0.12583312  1
  O2-  O167  1  0.13507000  0.98892738  0.62385276  1
  O2-  O168  1  0.47583365  0.32787878  0.12326329  1
  O2-  O169  1  0.47525387  0.32944276  0.62664050  1
  O2-  O170  1  0.47506638  0.66158152  0.12394297  1
  O2-  O171  1  0.48588576  0.65922985  0.62516077  1
  O2-  O172  1  0.47459858  0.99788641  0.12203373  1
  O2-  O173  1  0.47319578  0.99139589  0.62552254  1
  O2-  O174  1  0.80844540  0.32514809  0.12132747  1
  O2-  O175  1  0.81525244  0.32686069  0.62847271  1
  O2-  O176  1  0.80827640  0.65992416  0.12408779  1
  O2-  O177  1  0.81075850  0.66337328  0.62667336  1
  O2-  O178  1  0.80944408  0.99415244  0.12135959  1
  O2-  O179  1  0.80821042  0.99076968  0.62688873  1
  O2-  O180  1  0.30829879  0.17101437  0.37818686  1
  O2-  O181  1  0.30235277  0.17472560  0.87435573  1
  O2-  O182  1  0.30491962  0.50880717  0.37403660  1
  O2-  O183  1  0.30542959  0.50295276  0.87632623  1
  O2-  O184  1  0.30852406  0.84042908  0.37602826  1
  O2-  O185  1  0.30745015  0.83670270  0.87392695  1
  O2-  O186  1  0.65071256  0.16309450  0.37547448  1
  O2-  O187  1  0.63995532  0.17037295  0.87465519  1
  O2-  O188  1  0.65094856  0.50405066  0.37245489  1
  O2-  O189  1  0.64096468  0.50612087  0.87851059  1
  O2-  O190  1  0.64322622  0.84136345  0.37679162  1
  O2-  O191  1  0.64302895  0.83674306  0.87349917  1
  O2-  O192  1  0.97165861  0.17326950  0.37649132  1
  O2-  O193  1  0.97630772  0.17528860  0.87392685  1
  O2-  O194  1  0.97790655  0.50281237  0.37404714  1
  O2-  O195  1  0.97446286  0.50421864  0.87538524  1
  O2-  O196  1  0.97526435  0.83941332  0.37494162  1
  O2-  O197  1  0.97735831  0.83916039  0.87535380  1
  O2-  O198  1  0.19340396  0.00731289  0.37865101  1
  O2-  O199  1  0.19062715  0.00383645  0.87117364  1
  O2-  O200  1  0.19370149  0.33731207  0.37463286  1
  O2-  O201  1  0.18826065  0.34009116  0.87342445  1
  O2-  O202  1  0.19312824  0.67380721  0.37395847  1
  O2-  O203  1  0.19262689  0.67380008  0.87483465  1
  O2-  O204  1  0.52538736  0.00440065  0.37787173  1
  O2-  O205  1  0.52459589  0.00561200  0.87379638  1
  O2-  O206  1  0.51739669  0.33232188  0.37426165  1
  O2-  O207  1  0.52343857  0.34015001  0.87634893  1
  O2-  O208  1  0.52522672  0.67200843  0.37450141  1
  O2-  O209  1  0.52607192  0.67155085  0.87654620  1
  O2-  O210  1  0.85782264  0.00959749  0.37840254  1
  O2-  O211  1  0.86319559  0.00604783  0.87307381  1
  O2-  O212  1  0.85456259  0.33081654  0.37594171  1
  O2-  O213  1  0.85977274  0.34116468  0.87528849  1
  O2-  O214  1  0.85892031  0.67250767  0.37198146  1
  O2-  O215  1  0.86054980  0.67011422  0.87720200  1
  O2-  O216  1  0.23621868  0.09511228  0.01896052  1
  O2-  O217  1  0.23522738  0.09505070  0.52447816  1
  O2-  O218  1  0.23995484  0.42719935  0.02348005  1
  O2-  O219  1  0.23770952  0.42628287  0.52270826  1
  O2-  O220  1  0.23799575  0.76022107  0.02127290  1
  O2-  O221  1  0.23634289  0.76154791  0.51682335  1
  O2-  O222  1  0.57208158  0.09425891  0.01823291  1
  O2-  O223  1  0.57365729  0.09206978  0.52566783  1
  O2-  O224  1  0.57528986  0.42828105  0.02384449  1
  O2-  O225  1  0.56990412  0.42891700  0.51777605  1
  O2-  O226  1  0.57479027  0.76030238  0.01369704  1
  O2-  O227  1  0.57408815  0.76084208  0.51917302  1
  O2-  O228  1  0.90429607  0.09513398  0.01977058  1
  O2-  O229  1  0.90301049  0.09899548  0.52162836  1
  O2-  O230  1  0.90480437  0.43322849  0.02217046  1
  O2-  O231  1  0.90769303  0.42868429  0.52149248  1
  O2-  O232  1  0.90363741  0.76540757  0.01874515  1
  O2-  O233  1  0.90196387  0.76374600  0.51484268  1
  O2-  O234  1  0.25787644  0.25916790  0.22751396  1
  O2-  O235  1  0.26132543  0.26335111  0.73046550  1
  O2-  O236  1  0.26148841  0.59533369  0.22746129  1
  O2-  O237  1  0.26135884  0.59112698  0.73215443  1
  O2-  O238  1  0.26069455  0.92891423  0.23048996  1
  O2-  O239  1  0.25822066  0.93019913  0.72839504  1
  O2-  O240  1  0.59372854  0.25603081  0.22721875  1
  O2-  O241  1  0.58914729  0.26072601  0.73449863  1
  O2-  O242  1  0.59632463  0.59240784  0.22809634  1
  O2-  O243  1  0.59951578  0.59767289  0.73663930  1
  O2-  O244  1  0.59819934  0.92923602  0.23303724  1
  O2-  O245  1  0.59886737  0.92356057  0.72810795  1
  O2-  O246  1  0.92685886  0.26266598  0.22919163  1
  O2-  O247  1  0.93196788  0.26400926  0.73448225  1
  O2-  O248  1  0.93377885  0.59981952  0.23151871  1
  O2-  O249  1  0.93255153  0.59920671  0.73311638  1
  O2-  O250  1  0.93010349  0.93203706  0.23426252  1
  O2-  O251  1  0.93012006  0.92836044  0.72632395  1
  O2-  O252  1  0.09357200  0.23859006  0.27197228  1
  O2-  O253  1  0.09407217  0.23939162  0.77073688  1
  O2-  O254  1  0.09782042  0.56927543  0.27300607  1
  O2-  O255  1  0.09579057  0.57029301  0.77236753  1
  O2-  O256  1  0.09556500  0.90584773  0.27110992  1
  O2-  O257  1  0.09702782  0.90166535  0.76716313  1
  O2-  O258  1  0.42534961  0.23816663  0.26068299  1
  O2-  O259  1  0.42630840  0.24041954  0.77123950  1
  O2-  O260  1  0.42481078  0.57460346  0.26718196  1
  O2-  O261  1  0.42745474  0.57162699  0.77311551  1
  O2-  O262  1  0.42839945  0.90852436  0.27277750  1
  O2-  O263  1  0.42805195  0.90500620  0.77079001  1
  O2-  O264  1  0.76262997  0.23452976  0.26267416  1
  O2-  O265  1  0.75962599  0.24131642  0.77488232  1
  O2-  O266  1  0.76146129  0.57625850  0.26670088  1
  O2-  O267  1  0.76179833  0.57367532  0.77329695  1
  O2-  O268  1  0.76104950  0.90783657  0.27257816  1
  O2-  O269  1  0.76310255  0.90328993  0.77091119  1
  O2-  O270  1  0.07153340  0.07460672  0.47640937  1
  O2-  O271  1  0.07042345  0.06926636  0.97776075  1
  O2-  O272  1  0.07107744  0.40418786  0.48118730  1
  O2-  O273  1  0.06758300  0.40448633  0.98442906  1
  O2-  O274  1  0.07419101  0.73813054  0.47656213  1
  O2-  O275  1  0.07186052  0.74009701  0.97868787  1
  O2-  O276  1  0.39987762  0.07192250  0.48603342  1
  O2-  O277  1  0.40087068  0.07375609  0.97544314  1
  O2-  O278  1  0.39951494  0.40316576  0.48133212  1
  O2-  O279  1  0.40150742  0.40336499  0.98280948  1
  O2-  O280  1  0.40948402  0.74097760  0.47756010  1
  O2-  O281  1  0.40642648  0.73623468  0.98004364  1
  O2-  O282  1  0.73932223  0.06968294  0.48477873  1
  O2-  O283  1  0.74036236  0.07036952  0.97616386  1
  O2-  O284  1  0.74010695  0.40687335  0.48832521  1
  O2-  O285  1  0.73720501  0.40511100  0.97759700  1
  O2-  O286  1  0.73893909  0.73868648  0.47682222  1
  O2-  O287  1  0.74227100  0.73961785  0.97789084  1
  O2-  O288  1  0.09153008  0.24131629  0.47621866  1
  O2-  O289  1  0.09500911  0.23712467  0.98056712  1
  O2-  O290  1  0.09614251  0.57022523  0.47737209  1
  O2-  O291  1  0.09761134  0.56940553  0.97752068  1
  O2-  O292  1  0.09529104  0.90520093  0.47805104  1
  O2-  O293  1  0.09677152  0.90209872  0.98354488  1
  O2-  O294  1  0.42347967  0.24002354  0.48974851  1
  O2-  O295  1  0.42525714  0.23684598  0.97772364  1
  O2-  O296  1  0.42264267  0.57610238  0.48026235  1
  O2-  O297  1  0.42962151  0.56888425  0.97850505  1
  O2-  O298  1  0.42917409  0.90652973  0.47946004  1
  O2-  O299  1  0.42549330  0.90594397  0.97563362  1
  O2-  O300  1  0.76073438  0.23810897  0.48632876  1
  O2-  O301  1  0.75994085  0.23703728  0.97722871  1
  O2-  O302  1  0.76039117  0.57754964  0.48343283  1
  O2-  O303  1  0.76207249  0.57279865  0.97817130  1
  O2-  O304  1  0.76348733  0.90501633  0.48063609  1
  O2-  O305  1  0.76214065  0.90681585  0.97505193  1
  O2-  O306  1  0.07193920  0.07220892  0.27281633  1
  O2-  O307  1  0.06853078  0.07056138  0.77233263  1
  O2-  O308  1  0.07017359  0.40281858  0.26846886  1
  O2-  O309  1  0.06904822  0.40441240  0.76646878  1
  O2-  O310  1  0.07318387  0.73883377  0.27236809  1
  O2-  O311  1  0.07232952  0.73986162  0.77243480  1
  O2-  O312  1  0.40208888  0.07058790  0.26602279  1
  O2-  O313  1  0.39963504  0.07432271  0.77053410  1
  O2-  O314  1  0.39938553  0.40423416  0.26639756  1
  O2-  O315  1  0.40135702  0.40355421  0.76937234  1
  O2-  O316  1  0.40516881  0.74089493  0.26961137  1
  O2-  O317  1  0.41054620  0.73636226  0.77204287  1
  O2-  O318  1  0.73924456  0.07074905  0.26730847  1
  O2-  O319  1  0.73985037  0.06919159  0.77141121  1
  O2-  O320  1  0.73856303  0.40219052  0.26253165  1
  O2-  O321  1  0.73712887  0.40821643  0.77324558  1
  O2-  O322  1  0.74014276  0.74082369  0.27184173  1
  O2-  O323  1  0.74035910  0.73692700  0.77302853  1
  O2-  O324  1  0.23757514  0.09469610  0.22991854  1
  O2-  O325  1  0.23218241  0.09496620  0.72729122  1
  O2-  O326  1  0.23827835  0.42763261  0.22626643  1
  O2-  O327  1  0.23833406  0.42543594  0.72688357  1
  O2-  O328  1  0.23727764  0.76006442  0.23003761  1
  O2-  O329  1  0.23627411  0.76106537  0.73088199  1
  O2-  O330  1  0.57398745  0.09203431  0.22581639  1
  O2-  O331  1  0.57034201  0.09280226  0.72941247  1
  O2-  O332  1  0.57336077  0.42577006  0.22811166  1
  O2-  O333  1  0.56892176  0.43200268  0.73295546  1
  O2-  O334  1  0.57505568  0.76112866  0.23628328  1
  O2-  O335  1  0.57347964  0.76058405  0.73082439  1
  O2-  O336  1  0.90504142  0.09483725  0.22845775  1
  O2-  O337  1  0.90158361  0.10125679  0.72920382  1
  O2-  O338  1  0.90721859  0.42912058  0.22764610  1
  O2-  O339  1  0.90442852  0.43310989  0.72910316  1
  O2-  O340  1  0.90203696  0.76562343  0.22997211  1
  O2-  O341  1  0.90307414  0.76451976  0.73571175  1
  O2-  O342  1  0.26126640  0.26081129  0.02153521  1
  O2-  O343  1  0.25704090  0.26002161  0.52112179  1
  O2-  O344  1  0.26431059  0.59491849  0.02119242  1
  O2-  O345  1  0.25822265  0.59168365  0.51909138  1
  O2-  O346  1  0.25953545  0.92983907  0.01835911  1
  O2-  O347  1  0.26012320  0.92836699  0.52225924  1
  O2-  O348  1  0.59355158  0.26028742  0.01924953  1
  O2-  O349  1  0.58813501  0.25698397  0.51879918  1
  O2-  O350  1  0.59787279  0.59497118  0.02548764  1
  O2-  O351  1  0.59667447  0.59476176  0.51232200  1
  O2-  O352  1  0.59977121  0.92721783  0.01541138  1
  O2-  O353  1  0.59786867  0.92511280  0.52399981  1
  O2-  O354  1  0.92802692  0.26201284  0.01982664  1
  O2-  O355  1  0.92928779  0.26370996  0.51818304  1
  O2-  O356  1  0.93415565  0.59989707  0.01891764  1
  O2-  O357  1  0.93238299  0.59830120  0.51657265  1
  O2-  O358  1  0.93002074  0.92848738  0.01975939  1
  O2-  O359  1  0.92982923  0.93174506  0.52080584  1
