# generated using pymatgen
data_Sr7Ca15Pr50Mn72O216
_symmetry_space_group_name_H-M   'P 1'
_cell_length_a   16.55890455
_cell_length_b   16.60498939
_cell_length_c   15.59342408
_cell_angle_alpha   90.00297482
_cell_angle_beta   89.99780350
_cell_angle_gamma   89.99595599
_symmetry_Int_Tables_number   1
_chemical_formula_structural   Sr7Ca15Pr50Mn72O216
_chemical_formula_sum   'Sr7 Ca15 Pr50 Mn72 O216'
_cell_volume   4287.57463653
_cell_formula_units_Z   1
loop_
 _symmetry_equiv_pos_site_id
 _symmetry_equiv_pos_as_xyz
  1  'x, y, z'
loop_
 _atom_type_symbol
 _atom_type_oxidation_number
  Sr2+  2.0
  Ca2+  2.0
  Pr3+  3.0
  Mn3.30+  3.3
  O2-  -2.0
loop_
 _atom_site_type_symbol
 _atom_site_label
 _atom_site_symmetry_multiplicity
 _atom_site_fract_x
 _atom_site_fract_y
 _atom_site_fract_z
 _atom_site_occupancy
  Sr2+  Sr0  1  0.16673537  0.82368433  0.37404031  1
  Sr2+  Sr1  1  0.50011163  0.84030214  0.62598675  1
  Sr2+  Sr2  1  0.33444299  0.65625655  0.37731837  1
  Sr2+  Sr3  1  0.66463699  0.34302414  0.62481647  1
  Sr2+  Sr4  1  1.00103293  0.98908315  0.37373030  1
  Sr2+  Sr5  1  0.16680353  0.82244959  0.87615054  1
  Sr2+  Sr6  1  0.66800197  0.65910375  0.37619854  1
  Ca2+  Ca7  1  -0.00110603  0.01141518  0.62342917  1
  Ca2+  Ca8  1  0.33950462  0.31544889  0.87495550  1
  Ca2+  Ca9  1  0.32836045  0.34627329  0.62572756  1
  Ca2+  Ca10  1  0.49652230  0.82088817  0.87542968  1
  Ca2+  Ca11  1  0.32565121  0.35006654  0.12437279  1
  Ca2+  Ca12  1  0.17172687  0.51374966  0.12788967  1
  Ca2+  Ca13  1  -0.00147005  0.01247349  0.12635649  1
  Ca2+  Ca14  1  0.16377011  0.48458121  0.37334299  1
  Ca2+  Ca15  1  0.66148456  0.01446647  0.12289134  1
  Ca2+  Ca16  1  0.66548183  0.98560813  0.87653644  1
  Ca2+  Ca17  1  0.50728693  0.85074486  0.12380797  1
  Ca2+  Ca18  1  0.33084077  0.68282326  0.62427601  1
  Ca2+  Ca19  1  0.83135322  0.81914270  0.37449082  1
  Ca2+  Ca20  1  0.49648223  0.15198011  0.87498038  1
  Ca2+  Ca21  1  1.00501967  0.31908838  0.37497756  1
  Pr3+  Pr22  1  0.33261832  0.32380232  0.37501476  1
  Pr3+  Pr23  1  0.17291405  0.51440212  0.62304539  1
  Pr3+  Pr24  1  1.00708804  0.65571310  0.37431485  1
  Pr3+  Pr25  1  0.66187236  0.68242975  0.12598927  1
  Pr3+  Pr26  1  0.16989808  0.18028219  0.62472075  1
  Pr3+  Pr27  1  1.00356292  0.98669042  0.87604737  1
  Pr3+  Pr28  1  0.83613576  0.84931883  0.12687586  1
  Pr3+  Pr29  1  0.83145717  0.48842151  0.37463058  1
  Pr3+  Pr30  1  0.83320753  0.15526701  0.37489346  1
  Pr3+  Pr31  1  0.66772175  0.32192229  0.37538662  1
  Pr3+  Pr32  1  0.16865045  0.84615417  0.12613303  1
  Pr3+  Pr33  1  0.83614300  0.51388702  0.62432436  1
  Pr3+  Pr34  1  0.49549368  0.48939621  0.37472379  1
  Pr3+  Pr35  1  0.33678572  0.65619040  0.87274991  1
  Pr3+  Pr36  1  0.49311146  0.48476576  0.87494928  1
  Pr3+  Pr37  1  0.50119772  0.17950429  0.62668219  1
  Pr3+  Pr38  1  0.66438146  0.67956576  0.62423027  1
  Pr3+  Pr39  1  0.83653973  0.84780412  0.62312614  1
  Pr3+  Pr40  1  0.00034074  0.67944032  0.12551520  1
  Pr3+  Pr41  1  -0.00317267  0.34630120  0.62369433  1
  Pr3+  Pr42  1  0.33936407  0.98561398  0.87600803  1
  Pr3+  Pr43  1  0.33212371  0.00929954  0.62579550  1
  Pr3+  Pr44  1  0.16651136  0.15522841  0.87591860  1
  Pr3+  Pr45  1  1.00634558  0.65516228  0.87553242  1
  Pr3+  Pr46  1  0.16709328  0.48724389  0.87638212  1
  Pr3+  Pr47  1  0.33506460  0.98705440  0.37405568  1
  Pr3+  Pr48  1  0.82763160  0.14978141  0.87508637  1
  Pr3+  Pr49  1  0.49633970  0.81917248  0.37490124  1
  Pr3+  Pr50  1  0.67371069  0.98483978  0.37340921  1
  Pr3+  Pr51  1  0.66264640  0.34568519  0.12457627  1
  Pr3+  Pr52  1  1.00346686  0.31938820  0.87529481  1
  Pr3+  Pr53  1  0.33331254  0.01111312  0.12447065  1
  Pr3+  Pr54  1  0.66551458  0.65683562  0.87406285  1
  Pr3+  Pr55  1  0.82959830  0.82292285  0.87558123  1
  Pr3+  Pr56  1  -0.00100172  0.68046883  0.62432672  1
  Pr3+  Pr57  1  0.50144570  0.17857898  0.12270319  1
  Pr3+  Pr58  1  0.17078719  0.84595122  0.62404767  1
  Pr3+  Pr59  1  0.83612229  0.51430993  0.12577086  1
  Pr3+  Pr60  1  0.66170605  0.01065971  0.62633146  1
  Pr3+  Pr61  1  0.17018567  0.18014213  0.12597134  1
  Pr3+  Pr62  1  0.49955472  0.51097982  0.62482836  1
  Pr3+  Pr63  1  0.49740118  0.15358168  0.37501758  1
  Pr3+  Pr64  1  0.66581555  0.31956536  0.87432436  1
  Pr3+  Pr65  1  0.83603293  0.17712564  0.62537956  1
  Pr3+  Pr66  1  0.83465164  0.17637253  0.12476272  1
  Pr3+  Pr67  1  0.33134163  0.67923128  0.12548187  1
  Pr3+  Pr68  1  0.16107566  0.15624186  0.37446208  1
  Pr3+  Pr69  1  0.49893350  0.51178303  0.12487688  1
  Pr3+  Pr70  1  -0.00096839  0.34655871  0.12637670  1
  Pr3+  Pr71  1  0.83068698  0.48778388  0.87530307  1
  Mn3.30+  Mn72  1  0.16675778  0.00038998  0.00105086  1
  Mn3.30+  Mn73  1  0.16392603  0.00057732  0.50031206  1
  Mn3.30+  Mn74  1  0.17047034  0.33423858  -0.00023773  1
  Mn3.30+  Mn75  1  0.16564133  0.33489418  0.49985995  1
  Mn3.30+  Mn76  1  0.16842187  0.66567965  0.00121096  1
  Mn3.30+  Mn77  1  0.16882905  0.66625948  0.49836853  1
  Mn3.30+  Mn78  1  0.50303116  -0.00099781  -0.00136306  1
  Mn3.30+  Mn79  1  0.50103205  -0.00129055  0.50004076  1
  Mn3.30+  Mn80  1  0.49482759  0.33168541  0.00038473  1
  Mn3.30+  Mn81  1  0.49757109  0.33365836  0.50138779  1
  Mn3.30+  Mn82  1  0.49964217  0.66881301  0.00009734  1
  Mn3.30+  Mn83  1  0.49890749  0.66588443  0.50108069  1
  Mn3.30+  Mn84  1  0.83070199  -0.00031967  0.00166594  1
  Mn3.30+  Mn85  1  0.83471856  -0.00054836  0.49939454  1
  Mn3.30+  Mn86  1  0.83281255  0.33248520  0.00004508  1
  Mn3.30+  Mn87  1  0.83497034  0.33351068  0.49913177  1
  Mn3.30+  Mn88  1  0.83327121  0.66795135  -0.00010267  1
  Mn3.30+  Mn89  1  0.83494158  0.66831764  0.49812702  1
  Mn3.30+  Mn90  1  0.00015942  0.16691346  0.24860620  1
  Mn3.30+  Mn91  1  0.00003348  0.16475167  0.75024612  1
  Mn3.30+  Mn92  1  0.00351381  0.49916306  0.25029177  1
  Mn3.30+  Mn93  1  0.00191291  0.50013745  0.75017219  1
  Mn3.30+  Mn94  1  -0.00021670  0.83476408  0.25099722  1
  Mn3.30+  Mn95  1  0.00077200  0.83494531  0.74945939  1
  Mn3.30+  Mn96  1  0.33289903  0.16820781  0.24959840  1
  Mn3.30+  Mn97  1  0.33475329  0.16743608  0.75076540  1
  Mn3.30+  Mn98  1  0.32970650  0.49931620  0.25069272  1
  Mn3.30+  Mn99  1  0.33292365  0.49825874  0.74876644  1
  Mn3.30+  Mn100  1  0.33646270  0.83306404  0.24811118  1
  Mn3.30+  Mn101  1  0.33475852  0.83294968  0.75066046  1
  Mn3.30+  Mn102  1  0.66587044  0.16541856  0.24858629  1
  Mn3.30+  Mn103  1  0.66386829  0.16450495  0.75251905  1
  Mn3.30+  Mn104  1  0.66625791  0.50150617  0.25064281  1
  Mn3.30+  Mn105  1  0.66492738  0.49895730  0.74976523  1
  Mn3.30+  Mn106  1  0.66767105  0.83463629  0.24870039  1
  Mn3.30+  Mn107  1  0.66490171  0.83476357  0.75228724  1
  Mn3.30+  Mn108  1  0.16479737  0.00043640  0.24897257  1
  Mn3.30+  Mn109  1  0.16587655  0.00060957  0.75019819  1
  Mn3.30+  Mn110  1  0.16618591  0.33594314  0.24936317  1
  Mn3.30+  Mn111  1  0.17006459  0.33349183  0.75127657  1
  Mn3.30+  Mn112  1  0.16805636  0.66419431  0.25090277  1
  Mn3.30+  Mn113  1  0.16935241  0.66756103  0.74927061  1
  Mn3.30+  Mn114  1  0.50349903  -0.00114386  0.24885125  1
  Mn3.30+  Mn115  1  0.50068979  -0.00130102  0.75267665  1
  Mn3.30+  Mn116  1  0.49664068  0.33331853  0.24804599  1
  Mn3.30+  Mn117  1  0.49599413  0.33162721  0.75015452  1
  Mn3.30+  Mn118  1  0.49908017  0.66704245  0.24969354  1
  Mn3.30+  Mn119  1  0.49904146  0.66744082  0.74902814  1
  Mn3.30+  Mn120  1  0.83351896  0.00003098  0.24868277  1
  Mn3.30+  Mn121  1  0.83233262  -0.00094501  0.75043490  1
  Mn3.30+  Mn122  1  0.83464886  0.33330864  0.25066151  1
  Mn3.30+  Mn123  1  0.83309552  0.33290194  0.74990669  1
  Mn3.30+  Mn124  1  0.83382483  0.66866553  0.25076976  1
  Mn3.30+  Mn125  1  0.83431469  0.66774605  0.75104574  1
  Mn3.30+  Mn126  1  -0.00061197  0.16519769  0.00053627  1
  Mn3.30+  Mn127  1  0.00073863  0.16642393  0.50067326  1
  Mn3.30+  Mn128  1  0.00208804  0.50004951  0.00171237  1
  Mn3.30+  Mn129  1  0.00309345  0.49919426  0.49778418  1
  Mn3.30+  Mn130  1  0.00009613  0.83493844  0.00142355  1
  Mn3.30+  Mn131  1  0.00054844  0.83492461  0.49834471  1
  Mn3.30+  Mn132  1  0.33538432  0.16800026  -0.00039299  1
  Mn3.30+  Mn133  1  0.33231595  0.16790590  0.50034723  1
  Mn3.30+  Mn134  1  0.33118997  0.49810752  0.00064765  1
  Mn3.30+  Mn135  1  0.33129406  0.49951600  0.49957701  1
  Mn3.30+  Mn136  1  0.33743190  0.83301559  0.00093956  1
  Mn3.30+  Mn137  1  0.33361556  0.83289619  0.50058046  1
  Mn3.30+  Mn138  1  0.66421352  0.16352103  -0.00162496  1
  Mn3.30+  Mn139  1  0.66580909  0.16637247  0.50019974  1
  Mn3.30+  Mn140  1  0.66508972  0.50047199  -0.00038196  1
  Mn3.30+  Mn141  1  0.66640305  0.50006069  0.50008788  1
  Mn3.30+  Mn142  1  0.66393507  0.83655311  -0.00028389  1
  Mn3.30+  Mn143  1  0.66851602  0.83277206  0.49931122  1
  O2-  O144  1  0.02458390  0.16010198  0.12294802  1
  O2-  O145  1  0.02449065  0.15935387  0.62858951  1
  O2-  O146  1  0.02894824  0.49348040  0.12506503  1
  O2-  O147  1  0.02738080  0.49429293  0.62345185  1
  O2-  O148  1  0.02460279  0.82685172  0.12499267  1
  O2-  O149  1  0.02652031  0.82697508  0.62524768  1
  O2-  O150  1  0.35862072  0.15816132  0.12487305  1
  O2-  O151  1  0.35826988  0.15756403  0.62448890  1
  O2-  O152  1  0.35649003  0.49357139  0.12502377  1
  O2-  O153  1  0.35678410  0.48803259  0.62543553  1
  O2-  O154  1  0.36336148  0.82982963  0.12374673  1
  O2-  O155  1  0.35007998  0.83774214  0.62618990  1
  O2-  O156  1  0.69061848  0.16249301  0.12484320  1
  O2-  O157  1  0.69137350  0.15955856  0.62786690  1
  O2-  O158  1  0.69129598  0.49407636  0.12440086  1
  O2-  O159  1  0.69209670  0.49833138  0.62622509  1
  O2-  O160  1  0.69312844  0.82733454  0.12398325  1
  O2-  O161  1  0.69155269  0.82956385  0.62678274  1
  O2-  O162  1  0.14091276  0.32639857  0.12369847  1
  O2-  O163  1  0.13993253  0.32893828  0.62696883  1
  O2-  O164  1  0.14336322  0.65896196  0.12499211  1
  O2-  O165  1  0.14186987  0.66135224  0.62299732  1
  O2-  O166  1  0.14256904  0.99556090  0.12365884  1
  O2-  O167  1  0.14210431  0.99514869  0.62497225  1
  O2-  O168  1  0.46889901  0.32559234  0.12437728  1
  O2-  O169  1  0.47033165  0.32609835  0.62583973  1
  O2-  O170  1  0.47562851  0.65887724  0.12410585  1
  O2-  O171  1  0.47476560  0.65935976  0.62568923  1
  O2-  O172  1  0.47612080  0.99556430  0.12527993  1
  O2-  O173  1  0.47641965  0.99711098  0.62437225  1
  O2-  O174  1  0.80665725  0.32723998  0.12473482  1
  O2-  O175  1  0.81461487  0.32750788  0.62504712  1
  O2-  O176  1  0.80707794  0.66083411  0.12347522  1
  O2-  O177  1  0.80967051  0.66130654  0.62696547  1
  O2-  O178  1  0.80297164  0.99774567  0.12495136  1
  O2-  O179  1  0.80573549  0.99637314  0.62456135  1
  O2-  O180  1  0.30603384  0.17338912  0.37507120  1
  O2-  O181  1  0.30874242  0.17103629  0.87585035  1
  O2-  O182  1  0.30717293  0.49945704  0.37500029  1
  O2-  O183  1  0.30953390  0.50995506  0.87408296  1
  O2-  O184  1  0.31701761  0.83900586  0.37333140  1
  O2-  O185  1  0.31462526  0.83600041  0.87700823  1
  O2-  O186  1  0.64115788  0.17319347  0.37221111  1
  O2-  O187  1  0.63791039  0.17456315  0.87530009  1
  O2-  O188  1  0.64111339  0.50171314  0.37418380  1
  O2-  O189  1  0.63916846  0.50654989  0.87524578  1
  O2-  O190  1  0.64142506  0.83815031  0.37239407  1
  O2-  O191  1  0.64023872  0.83813795  0.87641482  1
  O2-  O192  1  0.97740625  0.17493770  0.37266325  1
  O2-  O193  1  0.97364909  0.17218307  0.87559751  1
  O2-  O194  1  0.97356683  0.50867798  0.37442419  1
  O2-  O195  1  0.97450895  0.50654668  0.87684851  1
  O2-  O196  1  0.97442274  0.83355094  0.37397616  1
  O2-  O197  1  0.97421177  0.83898792  0.87609091  1
  O2-  O198  1  0.19062683  0.00742644  0.37430252  1
  O2-  O199  1  0.19331955  0.00624806  0.87748691  1
  O2-  O200  1  0.18945174  0.33554959  0.37410947  1
  O2-  O201  1  0.19650562  0.33933376  0.87555350  1
  O2-  O202  1  0.18579200  0.67107937  0.37536121  1
  O2-  O203  1  0.19173371  0.66700718  0.87617166  1
  O2-  O204  1  0.52845078  0.00675415  0.37438974  1
  O2-  O205  1  0.52537434  0.01001137  0.87591266  1
  O2-  O206  1  0.52421782  0.33994503  0.37295912  1
  O2-  O207  1  0.52371657  0.33938713  0.87621635  1
  O2-  O208  1  0.51789678  0.66889931  0.37499515  1
  O2-  O209  1  0.52202735  0.67112344  0.87526464  1
  O2-  O210  1  0.85237918  0.00838317  0.37449155  1
  O2-  O211  1  0.85974277  0.00125762  0.87606791  1
  O2-  O212  1  0.86156643  0.33873046  0.37441927  1
  O2-  O213  1  0.85910911  0.33881684  0.87536543  1
  O2-  O214  1  0.86169537  0.67278813  0.37395453  1
  O2-  O215  1  0.86191738  0.67393416  0.87550303  1
  O2-  O216  1  0.23938599  0.09541377  0.02063988  1
  O2-  O217  1  0.23916994  0.09447231  0.52088297  1
  O2-  O218  1  0.23330983  0.43283514  0.01869969  1
  O2-  O219  1  0.23557292  0.42834526  0.51794210  1
  O2-  O220  1  0.24037371  0.75970596  0.02397387  1
  O2-  O221  1  0.23901645  0.76069930  0.51966307  1
  O2-  O222  1  0.57025718  0.09571021  0.02143253  1
  O2-  O223  1  0.57073068  0.09428780  0.52030524  1
  O2-  O224  1  0.56775533  0.42520923  0.02113577  1
  O2-  O225  1  0.56724768  0.42646120  0.51838246  1
  O2-  O226  1  0.57361532  0.76316087  0.02302650  1
  O2-  O227  1  0.57725922  0.75733119  0.51626016  1
  O2-  O228  1  0.89867411  0.09519486  0.01684456  1
  O2-  O229  1  0.90228603  0.09600296  0.51701702  1
  O2-  O230  1  0.90727743  0.42937944  0.02118263  1
  O2-  O231  1  0.90603666  0.43041014  0.52092284  1
  O2-  O232  1  0.90424126  0.76205914  0.02125075  1
  O2-  O233  1  0.90794594  0.76061930  0.52333747  1
  O2-  O234  1  0.26120225  0.26396908  0.22866614  1
  O2-  O235  1  0.26083300  0.26087454  0.72675821  1
  O2-  O236  1  0.26261555  0.59456899  0.22912411  1
  O2-  O237  1  0.26451244  0.59473810  0.72728363  1
  O2-  O238  1  0.26339626  0.92667542  0.22998723  1
  O2-  O239  1  0.25947176  0.92943194  0.73297732  1
  O2-  O240  1  0.59361966  0.26133826  0.22843087  1
  O2-  O241  1  0.59100274  0.26004054  0.73194919  1
  O2-  O242  1  0.59233494  0.59399934  0.22772780  1
  O2-  O243  1  0.59435757  0.59374392  0.73016570  1
  O2-  O244  1  0.60111707  0.93270172  0.23127405  1
  O2-  O245  1  0.59663932  0.92890458  0.73261006  1
  O2-  O246  1  0.92639869  0.25901234  0.22524069  1
  O2-  O247  1  0.92954961  0.25996372  0.73071794  1
  O2-  O248  1  0.92983844  0.59412885  0.22762441  1
  O2-  O249  1  0.92963481  0.59438209  0.72975044  1
  O2-  O250  1  0.92597909  0.92984245  0.22534652  1
  O2-  O251  1  0.92881482  0.92944990  0.72807472  1
  O2-  O252  1  0.09721669  0.23845348  0.26455166  1
  O2-  O253  1  0.09717688  0.24062013  0.77209269  1
  O2-  O254  1  0.09440979  0.56974616  0.27286752  1
  O2-  O255  1  0.09625381  0.57168807  0.76984661  1
  O2-  O256  1  0.09469305  0.90473791  0.26273389  1
  O2-  O257  1  0.09169277  0.90678382  0.76969429  1
  O2-  O258  1  0.42799302  0.23889089  0.27258490  1
  O2-  O259  1  0.43002335  0.23369868  0.76935084  1
  O2-  O260  1  0.42731502  0.56764228  0.26458390  1
  O2-  O261  1  0.42852469  0.57015262  0.76935905  1
  O2-  O262  1  0.43128271  0.90845728  0.27124373  1
  O2-  O263  1  0.42923130  0.90732227  0.77326657  1
  O2-  O264  1  0.75939767  0.23965659  0.27112481  1
  O2-  O265  1  0.75842799  0.23713598  0.77113373  1
  O2-  O266  1  0.76721878  0.57237273  0.26685749  1
  O2-  O267  1  0.76203430  0.57405157  0.77241305  1
  O2-  O268  1  0.76421891  0.90342380  0.27109050  1
  O2-  O269  1  0.76463493  0.90322226  0.76725034  1
  O2-  O270  1  0.07460099  0.07633501  0.48048522  1
  O2-  O271  1  0.07254746  0.07490689  0.97698151  1
  O2-  O272  1  0.06729617  0.40095890  0.48121830  1
  O2-  O273  1  0.07114396  0.40437659  0.97768006  1
  O2-  O274  1  0.06976295  0.73595375  0.48486686  1
  O2-  O275  1  0.07146176  0.73599776  0.98447970  1
  O2-  O276  1  0.40624081  0.07203437  0.47781747  1
  O2-  O277  1  0.40302929  0.06865206  0.98403056  1
  O2-  O278  1  0.40473140  0.40600523  0.47730991  1
  O2-  O279  1  0.40222836  0.40391555  0.97709526  1
  O2-  O280  1  0.41130683  0.74264955  0.48551711  1
  O2-  O281  1  0.40380747  0.73532896  0.98200560  1
  O2-  O282  1  0.73783013  0.07255496  0.48031415  1
  O2-  O283  1  0.73696609  0.07116134  0.97476232  1
  O2-  O284  1  0.74087471  0.40640531  0.47732420  1
  O2-  O285  1  0.73803733  0.40558148  0.97891318  1
  O2-  O286  1  0.74336144  0.73923068  0.48606202  1
  O2-  O287  1  0.73631084  0.73989385  0.97813529  1
  O2-  O288  1  0.09792425  0.23822541  0.48498703  1
  O2-  O289  1  0.09708176  0.24111354  0.97884524  1
  O2-  O290  1  0.09643711  0.56886920  0.47905523  1
  O2-  O291  1  0.09340503  0.57254208  0.97747836  1
  O2-  O292  1  0.09451964  0.90458983  0.48552149  1
  O2-  O293  1  0.09280005  0.90803814  0.98232290  1
  O2-  O294  1  0.42704073  0.23950293  0.47778799  1
  O2-  O295  1  0.43155133  0.23364458  0.98003120  1
  O2-  O296  1  0.42924054  0.56761061  0.48428196  1
  O2-  O297  1  0.42730625  0.56937877  0.98192356  1
  O2-  O298  1  0.42840496  0.90921945  0.47760552  1
  O2-  O299  1  0.43163269  0.90686174  0.97742876  1
  O2-  O300  1  0.75992751  0.23924113  0.47955767  1
  O2-  O301  1  0.75780401  0.23639370  0.97893513  1
  O2-  O302  1  0.76699585  0.57194330  0.48291790  1
  O2-  O303  1  0.76308710  0.57424978  0.97777000  1
  O2-  O304  1  0.76359528  0.90498136  0.47926161  1
  O2-  O305  1  0.76408826  0.90244630  0.98235269  1
  O2-  O306  1  0.07389960  0.07783773  0.26790765  1
  O2-  O307  1  0.07385383  0.07388961  0.77467861  1
  O2-  O308  1  0.06639089  0.40039290  0.26857147  1
  O2-  O309  1  0.07206942  0.40451960  0.77235079  1
  O2-  O310  1  0.07157119  0.73506707  0.26317455  1
  O2-  O311  1  0.06899071  0.73688619  0.76682864  1
  O2-  O312  1  0.40609491  0.07205445  0.27107820  1
  O2-  O313  1  0.40280636  0.06860137  0.76726688  1
  O2-  O314  1  0.40376579  0.40639153  0.27131338  1
  O2-  O315  1  0.40310248  0.40380517  0.77415370  1
  O2-  O316  1  0.40756810  0.74010080  0.26705428  1
  O2-  O317  1  0.40687398  0.73794399  0.76609885  1
  O2-  O318  1  0.73938521  0.07496042  0.27142784  1
  O2-  O319  1  0.73645855  0.06939539  0.77359959  1
  O2-  O320  1  0.73908721  0.40552288  0.27028846  1
  O2-  O321  1  0.73903091  0.40766642  0.77352137  1
  O2-  O322  1  0.73926981  0.73950007  0.26387193  1
  O2-  O323  1  0.73921631  0.74022607  0.77198398  1
  O2-  O324  1  0.24024057  0.09456402  0.22949461  1
  O2-  O325  1  0.23931453  0.09624572  0.73052167  1
  O2-  O326  1  0.23470089  0.42936648  0.23073184  1
  O2-  O327  1  0.23437145  0.43140034  0.73261085  1
  O2-  O328  1  0.24105137  0.75941746  0.22603656  1
  O2-  O329  1  0.23812532  0.76057427  0.73097710  1
  O2-  O330  1  0.56914223  0.09751409  0.23142647  1
  O2-  O331  1  0.57153373  0.09287197  0.72684369  1
  O2-  O332  1  0.56892808  0.42458459  0.22690462  1
  O2-  O333  1  0.56629200  0.42755224  0.73330199  1
  O2-  O334  1  0.57331412  0.76444132  0.22936753  1
  O2-  O335  1  0.57773476  0.75556790  0.73089550  1
  O2-  O336  1  0.90265967  0.09667543  0.23229946  1
  O2-  O337  1  0.89948251  0.09499420  0.73406490  1
  O2-  O338  1  0.90547227  0.42972425  0.22758652  1
  O2-  O339  1  0.90738102  0.42955081  0.73040207  1
  O2-  O340  1  0.90671477  0.76014592  0.22627123  1
  O2-  O341  1  0.90577144  0.76334760  0.72901880  1
  O2-  O342  1  0.26187588  0.26110796  0.02360173  1
  O2-  O343  1  0.26037311  0.26349148  0.52163323  1
  O2-  O344  1  0.26424752  0.59617386  0.01795257  1
  O2-  O345  1  0.26300532  0.59398955  0.52428387  1
  O2-  O346  1  0.26315746  0.92624766  0.02104051  1
  O2-  O347  1  0.25933988  0.92981962  0.51669494  1
  O2-  O348  1  0.59413849  0.26225333  0.02146717  1
  O2-  O349  1  0.59043897  0.25850728  0.51678577  1
  O2-  O350  1  0.59420424  0.59622611  0.01950220  1
  O2-  O351  1  0.59277513  0.59271623  0.52264537  1
  O2-  O352  1  0.59820327  0.93104991  0.02110681  1
  O2-  O353  1  0.59756149  0.93010772  0.51543014  1
  O2-  O354  1  0.92813010  0.26063962  0.02085161  1
  O2-  O355  1  0.92801335  0.25853336  0.52205760  1
  O2-  O356  1  0.92925308  0.59350609  0.02192141  1
  O2-  O357  1  0.92997054  0.59502509  0.52065265  1
  O2-  O358  1  0.92668879  0.93110658  0.02296429  1
  O2-  O359  1  0.92715640  0.92796549  0.52417177  1
