# generated using pymatgen
data_Sr7Ca15Pr50Mn72O216
_symmetry_space_group_name_H-M   'P 1'
_cell_length_a   16.55971313
_cell_length_b   16.60463584
_cell_length_c   15.59296834
_cell_angle_alpha   89.99317015
_cell_angle_beta   89.99854601
_cell_angle_gamma   89.99658438
_symmetry_Int_Tables_number   1
_chemical_formula_structural   Sr7Ca15Pr50Mn72O216
_chemical_formula_sum   'Sr7 Ca15 Pr50 Mn72 O216'
_cell_volume   4287.56737515
_cell_formula_units_Z   1
loop_
 _symmetry_equiv_pos_site_id
 _symmetry_equiv_pos_as_xyz
  1  'x, y, z'
loop_
 _atom_type_symbol
 _atom_type_oxidation_number
  Sr2+  2.0
  Ca2+  2.0
  Pr3+  3.0
  Mn3.30+  3.3
  O2-  -2.0
loop_
 _atom_site_type_symbol
 _atom_site_label
 _atom_site_symmetry_multiplicity
 _atom_site_fract_x
 _atom_site_fract_y
 _atom_site_fract_z
 _atom_site_occupancy
  Sr2+  Sr0  1  0.66430003  0.34684043  0.62245607  1
  Sr2+  Sr1  1  0.83410494  0.17198366  0.12756397  1
  Sr2+  Sr2  1  0.83205278  0.82257300  0.87687134  1
  Sr2+  Sr3  1  -0.00422144  0.67771599  0.12705924  1
  Sr2+  Sr4  1  0.33184713  0.00968857  0.62437002  1
  Sr2+  Sr5  1  0.33475933  0.01028611  0.12587788  1
  Sr2+  Sr6  1  0.50339486  0.51175484  0.62439763  1
  Ca2+  Ca7  1  0.82955434  0.15207248  0.37339551  1
  Ca2+  Ca8  1  1.00268523  0.65303633  0.37602158  1
  Ca2+  Ca9  1  -0.00852997  0.35197349  0.62404535  1
  Ca2+  Ca10  1  0.83675504  0.51807764  0.62354885  1
  Ca2+  Ca11  1  -0.00458691  0.01218065  0.12558260  1
  Ca2+  Ca12  1  0.50505202  0.85270287  0.12768786  1
  Ca2+  Ca13  1  0.16173564  0.81961408  0.87695429  1
  Ca2+  Ca14  1  0.33639823  0.31819847  0.87336390  1
  Ca2+  Ca15  1  0.66883673  0.65340935  0.37589852  1
  Ca2+  Ca16  1  0.66741088  0.01265561  0.12567392  1
  Ca2+  Ca17  1  0.67379834  0.31724494  0.37669750  1
  Ca2+  Ca18  1  0.49884017  0.82060356  0.37127401  1
  Ca2+  Ca19  1  -0.00468728  0.68141714  0.62317678  1
  Ca2+  Ca20  1  0.83963361  0.84981662  0.12570075  1
  Ca2+  Ca21  1  0.16164320  0.81705817  0.37310662  1
  Pr3+  Pr22  1  0.33523923  0.98605630  0.87656913  1
  Pr3+  Pr23  1  0.50574796  0.17542761  0.12587661  1
  Pr3+  Pr24  1  1.00130594  0.98643127  0.37118799  1
  Pr3+  Pr25  1  0.16781622  0.17568247  0.12597229  1
  Pr3+  Pr26  1  0.32943942  0.68049581  0.12669019  1
  Pr3+  Pr27  1  0.66939819  0.32186177  0.87272776  1
  Pr3+  Pr28  1  1.00036612  0.31917179  0.37675341  1
  Pr3+  Pr29  1  0.49657318  0.15399815  0.87400516  1
  Pr3+  Pr30  1  0.50342840  0.17928770  0.62412376  1
  Pr3+  Pr31  1  0.33470303  0.32152543  0.37688171  1
  Pr3+  Pr32  1  0.16638044  0.51479159  0.62435377  1
  Pr3+  Pr33  1  1.00400692  0.98314157  0.87836711  1
  Pr3+  Pr34  1  0.83117862  0.15281316  0.87527818  1
  Pr3+  Pr35  1  0.33441407  0.65649170  0.37450210  1
  Pr3+  Pr36  1  0.16022963  0.48891581  0.37557118  1
  Pr3+  Pr37  1  0.66479101  0.01092924  0.62502232  1
  Pr3+  Pr38  1  0.33176138  0.67880550  0.62343702  1
  Pr3+  Pr39  1  0.49553691  0.48526247  0.87357929  1
  Pr3+  Pr40  1  0.83113346  0.49057059  0.87397878  1
  Pr3+  Pr41  1  0.66463505  0.68295003  0.12809210  1
  Pr3+  Pr42  1  0.66533044  0.67472369  0.62132929  1
  Pr3+  Pr43  1  0.67128312  0.98571972  0.87800192  1
  Pr3+  Pr44  1  0.33932168  0.98473045  0.37398981  1
  Pr3+  Pr45  1  0.33441097  0.65573261  0.87541040  1
  Pr3+  Pr46  1  1.00181056  0.31917173  0.87277636  1
  Pr3+  Pr47  1  0.67100303  0.65564039  0.87524397  1
  Pr3+  Pr48  1  0.83555212  0.51175393  0.12554006  1
  Pr3+  Pr49  1  0.50155518  0.15548704  0.37648546  1
  Pr3+  Pr50  1  0.83006175  0.48964139  0.37603728  1
  Pr3+  Pr51  1  0.67249920  0.98867156  0.37162166  1
  Pr3+  Pr52  1  -0.00523616  0.34281863  0.12532721  1
  Pr3+  Pr53  1  0.16448986  0.15264717  0.37523599  1
  Pr3+  Pr54  1  0.16775016  0.51385029  0.12564948  1
  Pr3+  Pr55  1  1.00117583  0.65671706  0.87409073  1
  Pr3+  Pr56  1  0.50202884  0.84296634  0.62274392  1
  Pr3+  Pr57  1  0.16818159  0.84678359  0.12668989  1
  Pr3+  Pr58  1  0.50254319  0.51378875  0.12587988  1
  Pr3+  Pr59  1  0.49873898  0.82234186  0.87856987  1
  Pr3+  Pr60  1  0.16937272  0.84402153  0.62351040  1
  Pr3+  Pr61  1  0.16305482  0.48647828  0.87424357  1
  Pr3+  Pr62  1  0.33002048  0.34379261  0.12487475  1
  Pr3+  Pr63  1  0.82988214  0.81667948  0.37261025  1
  Pr3+  Pr64  1  0.16884557  0.17864761  0.62428291  1
  Pr3+  Pr65  1  0.16563241  0.15275468  0.87492289  1
  Pr3+  Pr66  1  0.50158543  0.48959857  0.37710254  1
  Pr3+  Pr67  1  0.83835643  0.18322851  0.62257583  1
  Pr3+  Pr68  1  0.83641591  0.84193004  0.62439138  1
  Pr3+  Pr69  1  -0.00223324  0.00955338  0.62436509  1
  Pr3+  Pr70  1  0.33172157  0.34622191  0.62575998  1
  Pr3+  Pr71  1  0.66488487  0.34426695  0.12754459  1
  Mn3.30+  Mn72  1  0.16644539  -0.00140973  0.00232472  1
  Mn3.30+  Mn73  1  0.16702952  -0.00297333  0.49735804  1
  Mn3.30+  Mn74  1  0.16697817  0.33186576  -0.00195475  1
  Mn3.30+  Mn75  1  0.16278501  0.33412851  0.50292887  1
  Mn3.30+  Mn76  1  0.16550144  0.66848926  0.00015782  1
  Mn3.30+  Mn77  1  0.16237749  0.66799962  0.49933753  1
  Mn3.30+  Mn78  1  0.50254809  -0.00004498  0.00216201  1
  Mn3.30+  Mn79  1  0.50178334  -0.00221836  0.49902261  1
  Mn3.30+  Mn80  1  0.49819328  0.33246310  0.00012461  1
  Mn3.30+  Mn81  1  0.50322506  0.33439257  0.49819134  1
  Mn3.30+  Mn82  1  0.50033936  0.66928899  0.00276674  1
  Mn3.30+  Mn83  1  0.50131757  0.66813308  0.49619968  1
  Mn3.30+  Mn84  1  0.83504522  -0.00182949  0.00306392  1
  Mn3.30+  Mn85  1  0.83380742  -0.00041559  0.49878060  1
  Mn3.30+  Mn86  1  0.83293281  0.33213696  -0.00037702  1
  Mn3.30+  Mn87  1  0.83316533  0.33592763  0.50058504  1
  Mn3.30+  Mn88  1  0.83353741  0.66930066  0.00207602  1
  Mn3.30+  Mn89  1  0.83518652  0.66541288  0.49848068  1
  Mn3.30+  Mn90  1  -0.00222104  0.16436782  0.25131453  1
  Mn3.30+  Mn91  1  0.00014017  0.16642031  0.74827156  1
  Mn3.30+  Mn92  1  -0.00198471  0.50058828  0.25115098  1
  Mn3.30+  Mn93  1  -0.00249763  0.50123274  0.74711363  1
  Mn3.30+  Mn94  1  -0.00084759  0.83190006  0.24970903  1
  Mn3.30+  Mn95  1  0.00181071  0.83125467  0.75015092  1
  Mn3.30+  Mn96  1  0.33468607  0.16579825  0.25064249  1
  Mn3.30+  Mn97  1  0.33281236  0.16658522  0.74925963  1
  Mn3.30+  Mn98  1  0.33323697  0.50007466  0.25130807  1
  Mn3.30+  Mn99  1  0.33226998  0.49999652  0.74937309  1
  Mn3.30+  Mn100  1  0.33464755  0.83369252  0.25009156  1
  Mn3.30+  Mn101  1  0.33172418  0.83305998  0.75142251  1
  Mn3.30+  Mn102  1  0.66970517  0.16665465  0.25092534  1
  Mn3.30+  Mn103  1  0.66722434  0.16695118  0.74933585  1
  Mn3.30+  Mn104  1  0.66707835  0.50043652  0.25171875  1
  Mn3.30+  Mn105  1  0.66685748  0.50081138  0.74792207  1
  Mn3.30+  Mn106  1  0.66649199  0.83458894  0.24912275  1
  Mn3.30+  Mn107  1  0.66750201  0.83193744  0.74985953  1
  Mn3.30+  Mn108  1  0.16699193  -0.00187789  0.25017447  1
  Mn3.30+  Mn109  1  0.16702769  -0.00246930  0.75053516  1
  Mn3.30+  Mn110  1  0.16495123  0.33272416  0.25051566  1
  Mn3.30+  Mn111  1  0.16479756  0.33334100  0.74834711  1
  Mn3.30+  Mn112  1  0.16322427  0.66835571  0.25124561  1
  Mn3.30+  Mn113  1  0.16483693  0.66818886  0.74912247  1
  Mn3.30+  Mn114  1  0.50414664  -0.00065908  0.24968827  1
  Mn3.30+  Mn115  1  0.50013777  -0.00150858  0.74951040  1
  Mn3.30+  Mn116  1  0.50111832  0.33343070  0.25236745  1
  Mn3.30+  Mn117  1  0.49977773  0.33339132  0.74957681  1
  Mn3.30+  Mn118  1  0.50122313  0.67053438  0.25111050  1
  Mn3.30+  Mn119  1  0.50069539  0.66718794  0.75046013  1
  Mn3.30+  Mn120  1  0.83534145  -0.00097677  0.24832477  1
  Mn3.30+  Mn121  1  0.83368510  -0.00132867  0.74976212  1
  Mn3.30+  Mn122  1  0.83130710  0.33105815  0.25189721  1
  Mn3.30+  Mn123  1  0.83452876  0.33694793  0.74695505  1
  Mn3.30+  Mn124  1  0.83303378  0.66695451  0.25103484  1
  Mn3.30+  Mn125  1  0.83496318  0.66710112  0.74859085  1
  Mn3.30+  Mn126  1  -0.00087744  0.16422178  0.00067573  1
  Mn3.30+  Mn127  1  -0.00131225  0.16656447  0.49940592  1
  Mn3.30+  Mn128  1  -0.00081493  0.49969042  -0.00079312  1
  Mn3.30+  Mn129  1  -0.00354923  0.50216329  0.50204454  1
  Mn3.30+  Mn130  1  -0.00026375  0.83230379  0.00254398  1
  Mn3.30+  Mn131  1  0.00141173  0.83047616  0.49714344  1
  Mn3.30+  Mn132  1  0.33380983  0.16678262  0.00038226  1
  Mn3.30+  Mn133  1  0.33338094  0.16580247  0.50057241  1
  Mn3.30+  Mn134  1  0.33281481  0.49862864  -0.00069381  1
  Mn3.30+  Mn135  1  0.33233268  0.50106628  0.50022605  1
  Mn3.30+  Mn136  1  0.33286281  0.83382691  0.00205961  1
  Mn3.30+  Mn137  1  0.33302725  0.83266425  0.49655086  1
  Mn3.30+  Mn138  1  0.66721348  0.16655389  0.00056651  1
  Mn3.30+  Mn139  1  0.67042884  0.16739593  0.49938409  1
  Mn3.30+  Mn140  1  0.66560856  0.50056527  0.00058905  1
  Mn3.30+  Mn141  1  0.66826147  0.50031947  0.49940588  1
  Mn3.30+  Mn142  1  0.66796265  0.83548109  0.00538646  1
  Mn3.30+  Mn143  1  0.66670773  0.83117934  0.49571888  1
  O2-  O144  1  0.02417332  0.16280244  0.12691884  1
  O2-  O145  1  0.02569690  0.15669628  0.62470282  1
  O2-  O146  1  0.02399274  0.49057671  0.12379194  1
  O2-  O147  1  0.02519477  0.49249343  0.62546828  1
  O2-  O148  1  0.02629001  0.82877292  0.12694386  1
  O2-  O149  1  0.02522097  0.82934809  0.62177430  1
  O2-  O150  1  0.36036487  0.16763093  0.12792606  1
  O2-  O151  1  0.35828949  0.16498517  0.62363082  1
  O2-  O152  1  0.35852967  0.49238740  0.12653044  1
  O2-  O153  1  0.35384973  0.49549083  0.62594598  1
  O2-  O154  1  0.36123636  0.82717223  0.12600860  1
  O2-  O155  1  0.35768954  0.82724218  0.62323666  1
  O2-  O156  1  0.68428586  0.16404806  0.12412071  1
  O2-  O157  1  0.69348424  0.15904984  0.62500822  1
  O2-  O158  1  0.69050597  0.49212245  0.12630421  1
  O2-  O159  1  0.69127454  0.50378591  0.62423139  1
  O2-  O160  1  0.69765619  0.82703828  0.12762043  1
  O2-  O161  1  0.69166982  0.82523110  0.62050765  1
  O2-  O162  1  0.13932378  0.32517678  0.12437094  1
  O2-  O163  1  0.13388816  0.32534335  0.62514444  1
  O2-  O164  1  0.14602969  0.66066974  0.12610494  1
  O2-  O165  1  0.13817814  0.66262854  0.62423628  1
  O2-  O166  1  0.13919129  0.99590286  0.12683024  1
  O2-  O167  1  0.14172009  0.99190156  0.62199711  1
  O2-  O168  1  0.47383824  0.32678262  0.12764889  1
  O2-  O169  1  0.47636850  0.32847268  0.62273550  1
  O2-  O170  1  0.47246046  0.65889723  0.12649017  1
  O2-  O171  1  0.47639156  0.66777928  0.62332102  1
  O2-  O172  1  0.48265501  1.00354190  0.12624607  1
  O2-  O173  1  0.48026631  0.99110503  0.62497027  1
  O2-  O174  1  0.80878766  0.33025233  0.12634388  1
  O2-  O175  1  0.81118321  0.32796314  0.62425387  1
  O2-  O176  1  0.80791235  0.65777921  0.12638054  1
  O2-  O177  1  0.80888415  0.66678105  0.62182278  1
  O2-  O178  1  0.80972260  0.99545137  0.12482195  1
  O2-  O179  1  0.80945381  0.99074921  0.62365082  1
  O2-  O180  1  0.30839014  0.17313302  0.37586890  1
  O2-  O181  1  0.30916548  0.17267054  0.87315081  1
  O2-  O182  1  0.30503745  0.50505855  0.37510595  1
  O2-  O183  1  0.30668942  0.50791246  0.87278087  1
  O2-  O184  1  0.30614838  0.83677452  0.37320146  1
  O2-  O185  1  0.30660166  0.83751586  0.87787175  1
  O2-  O186  1  0.64507893  0.16918776  0.37659554  1
  O2-  O187  1  0.64157470  0.17344393  0.87385358  1
  O2-  O188  1  0.64338176  0.50945555  0.37279198  1
  O2-  O189  1  0.64048471  0.50733334  0.87665873  1
  O2-  O190  1  0.63967368  0.84311067  0.37267219  1
  O2-  O191  1  0.64252668  0.83750909  0.87983762  1
  O2-  O192  1  0.97286522  0.17151313  0.37669246  1
  O2-  O193  1  0.97519821  0.17151439  0.87134151  1
  O2-  O194  1  0.97563800  0.50572103  0.37783682  1
  O2-  O195  1  0.97538328  0.50672356  0.87289598  1
  O2-  O196  1  0.97268913  0.84123877  0.37323650  1
  O2-  O197  1  0.98052387  0.83598688  0.87796783  1
  O2-  O198  1  0.19492682  0.00682095  0.37400291  1
  O2-  O199  1  0.19196858  0.00602129  0.87749753  1
  O2-  O200  1  0.19062036  0.33994698  0.37751081  1
  O2-  O201  1  0.19397683  0.33871701  0.87272511  1
  O2-  O202  1  0.19072089  0.66829324  0.37474743  1
  O2-  O203  1  0.19122222  0.67234234  0.87443413  1
  O2-  O204  1  0.52873266  0.00741829  0.37508745  1
  O2-  O205  1  0.52633221  0.00304025  0.87415530  1
  O2-  O206  1  0.52907009  0.34015454  0.37428749  1
  O2-  O207  1  0.52510043  0.33692982  0.87530086  1
  O2-  O208  1  0.52691506  0.67571697  0.37183332  1
  O2-  O209  1  0.52667198  0.67545892  0.87864999  1
  O2-  O210  1  0.85715407  0.00493094  0.37613428  1
  O2-  O211  1  0.85844980  0.00432160  0.87489526  1
  O2-  O212  1  0.85912265  0.34277980  0.37693984  1
  O2-  O213  1  0.85867211  0.34163928  0.87174986  1
  O2-  O214  1  0.86083158  0.66900904  0.37491864  1
  O2-  O215  1  0.85608553  0.66678216  0.87667044  1
  O2-  O216  1  0.23735121  0.09659884  0.01808160  1
  O2-  O217  1  0.23515261  0.09558986  0.51689444  1
  O2-  O218  1  0.23714271  0.42771225  0.02163111  1
  O2-  O219  1  0.23477217  0.42586809  0.52263755  1
  O2-  O220  1  0.24107942  0.76055589  0.02413680  1
  O2-  O221  1  0.23790956  0.75771872  0.52101256  1
  O2-  O222  1  0.57070761  0.09931794  0.01296126  1
  O2-  O223  1  0.57375250  0.09266639  0.52131127  1
  O2-  O224  1  0.56939683  0.42846750  0.01989219  1
  O2-  O225  1  0.57188136  0.42967633  0.51338497  1
  O2-  O226  1  0.57101051  0.76674434  0.02504101  1
  O2-  O227  1  0.57294971  0.76009210  0.52065027  1
  O2-  O228  1  0.90615421  0.09386769  0.01316061  1
  O2-  O229  1  0.90678775  0.09293120  0.52347638  1
  O2-  O230  1  0.90496155  0.42646992  0.01902868  1
  O2-  O231  1  0.90139258  0.43398864  0.51905268  1
  O2-  O232  1  0.90292669  0.76273990  0.02063040  1
  O2-  O233  1  0.90233789  0.76405649  0.51588250  1
  O2-  O234  1  0.26015882  0.26161844  0.23155791  1
  O2-  O235  1  0.25771125  0.26171148  0.72489413  1
  O2-  O236  1  0.26124572  0.59377370  0.23026694  1
  O2-  O237  1  0.25856615  0.59613315  0.72867080  1
  O2-  O238  1  0.26074092  0.92563174  0.23096411  1
  O2-  O239  1  0.26019347  0.92549605  0.73239753  1
  O2-  O240  1  0.59274022  0.26103024  0.22977101  1
  O2-  O241  1  0.59227018  0.25811464  0.73078525  1
  O2-  O242  1  0.59209793  0.59433774  0.22740599  1
  O2-  O243  1  0.59712838  0.59821724  0.73399181  1
  O2-  O244  1  0.60037167  0.93259918  0.22926283  1
  O2-  O245  1  0.59464328  0.92597236  0.73083461  1
  O2-  O246  1  0.93053556  0.26334808  0.23461463  1
  O2-  O247  1  0.92932186  0.26464644  0.72865203  1
  O2-  O248  1  0.92385951  0.58880383  0.23083047  1
  O2-  O249  1  0.93159687  0.59850270  0.73098492  1
  O2-  O250  1  0.93172505  0.92966583  0.23140680  1
  O2-  O251  1  0.93022921  0.92601723  0.73076682  1
  O2-  O252  1  0.09369711  0.23803822  0.27179139  1
  O2-  O253  1  0.09603692  0.23799116  0.77187321  1
  O2-  O254  1  0.09627039  0.56983943  0.26632032  1
  O2-  O255  1  0.09546188  0.57168390  0.77058818  1
  O2-  O256  1  0.09618644  0.90354550  0.27183598  1
  O2-  O257  1  0.09584435  0.90331692  0.77010958  1
  O2-  O258  1  0.42830683  0.24146859  0.27500110  1
  O2-  O259  1  0.42767169  0.23696959  0.76618472  1
  O2-  O260  1  0.42820474  0.57325539  0.27232461  1
  O2-  O261  1  0.42857112  0.57652787  0.77365090  1
  O2-  O262  1  0.42980959  0.90781306  0.27163249  1
  O2-  O263  1  0.42839292  0.90507375  0.77191116  1
  O2-  O264  1  0.76199538  0.23827442  0.27212689  1
  O2-  O265  1  0.76350028  0.24100078  0.76969599  1
  O2-  O266  1  0.76232242  0.57013147  0.26645993  1
  O2-  O267  1  0.76045244  0.57361221  0.77070672  1
  O2-  O268  1  0.76249336  0.90551444  0.27295499  1
  O2-  O269  1  0.75809136  0.90755893  0.76659500  1
  O2-  O270  1  0.07267015  0.06890485  0.47807500  1
  O2-  O271  1  0.07404768  0.07222217  0.97796714  1
  O2-  O272  1  0.07039869  0.40652907  0.47826703  1
  O2-  O273  1  0.07247746  0.40395321  0.97732484  1
  O2-  O274  1  0.06974496  0.73675232  0.47699449  1
  O2-  O275  1  0.07168371  0.73804771  0.98108707  1
  O2-  O276  1  0.41062172  0.07132376  0.47763108  1
  O2-  O277  1  0.40600756  0.07370548  0.97729681  1
  O2-  O278  1  0.40510277  0.40677918  0.47924465  1
  O2-  O279  1  0.40308420  0.40334282  0.97840513  1
  O2-  O280  1  0.40314636  0.73835665  0.48049687  1
  O2-  O281  1  0.40449360  0.73858304  0.97927653  1
  O2-  O282  1  0.73820639  0.06870977  0.48350889  1
  O2-  O283  1  0.74042891  0.07516281  0.97784331  1
  O2-  O284  1  0.73853266  0.40574324  0.47591051  1
  O2-  O285  1  0.73797635  0.40540735  0.97994825  1
  O2-  O286  1  0.73782478  0.73763956  0.47570835  1
  O2-  O287  1  0.73413812  0.73611250  0.98529909  1
  O2-  O288  1  0.09488418  0.23756549  0.47830142  1
  O2-  O289  1  0.09479248  0.23777941  0.97846817  1
  O2-  O290  1  0.09657695  0.56892222  0.48319767  1
  O2-  O291  1  0.09409113  0.57101594  0.98003331  1
  O2-  O292  1  0.09511748  0.90293830  0.47616303  1
  O2-  O293  1  0.09636942  0.90347062  0.98090737  1
  O2-  O294  1  0.42751854  0.24198587  0.47908781  1
  O2-  O295  1  0.42976201  0.23706905  0.98123208  1
  O2-  O296  1  0.42807277  0.57726443  0.47532885  1
  O2-  O297  1  0.42707404  0.57064801  0.97998974  1
  O2-  O298  1  0.43030451  0.90464470  0.47653751  1
  O2-  O299  1  0.42627830  0.90698698  0.97983794  1
  O2-  O300  1  0.76641427  0.23583616  0.48253905  1
  O2-  O301  1  0.75938272  0.24080529  0.97554541  1
  O2-  O302  1  0.76310547  0.57243714  0.48096755  1
  O2-  O303  1  0.75988129  0.57239494  0.98136799  1
  O2-  O304  1  0.76162034  0.90368080  0.47848060  1
  O2-  O305  1  0.75941772  0.90905018  0.98089912  1
  O2-  O306  1  0.07507678  0.07349442  0.27366975  1
  O2-  O307  1  0.07224554  0.06850841  0.77011206  1
  O2-  O308  1  0.07053571  0.40483479  0.27088532  1
  O2-  O309  1  0.07182635  0.40664248  0.77303696  1
  O2-  O310  1  0.06911995  0.73763131  0.27208139  1
  O2-  O311  1  0.07239087  0.73803951  0.76986787  1
  O2-  O312  1  0.40918891  0.07397270  0.27387214  1
  O2-  O313  1  0.40748890  0.07107293  0.77226663  1
  O2-  O314  1  0.40579331  0.40558908  0.27317508  1
  O2-  O315  1  0.40465175  0.40380680  0.77028188  1
  O2-  O316  1  0.40253858  0.73707021  0.26900062  1
  O2-  O317  1  0.40493221  0.73997805  0.77112882  1
  O2-  O318  1  0.74117338  0.07146441  0.26689121  1
  O2-  O319  1  0.73810896  0.07289965  0.77131444  1
  O2-  O320  1  0.73681308  0.40354269  0.27077973  1
  O2-  O321  1  0.73897763  0.40828521  0.77279588  1
  O2-  O322  1  0.73477819  0.73614493  0.27241585  1
  O2-  O323  1  0.73669229  0.73709432  0.76646382  1
  O2-  O324  1  0.23738245  0.09577174  0.23255231  1
  O2-  O325  1  0.23603162  0.09603129  0.73290629  1
  O2-  O326  1  0.23740046  0.42631466  0.22869757  1
  O2-  O327  1  0.23387256  0.42612171  0.72680658  1
  O2-  O328  1  0.23823098  0.75901151  0.22896251  1
  O2-  O329  1  0.23926462  0.75801396  0.72591453  1
  O2-  O330  1  0.57240898  0.09845804  0.23704957  1
  O2-  O331  1  0.57137580  0.09242100  0.72870441  1
  O2-  O332  1  0.57040075  0.42859885  0.22905961  1
  O2-  O333  1  0.57274836  0.42947964  0.73779820  1
  O2-  O334  1  0.57141783  0.76458953  0.22440333  1
  O2-  O335  1  0.57075742  0.76226147  0.73139731  1
  O2-  O336  1  0.90943955  0.09077556  0.23449102  1
  O2-  O337  1  0.90422440  0.09450975  0.72855446  1
  O2-  O338  1  0.90382438  0.42553375  0.23042869  1
  O2-  O339  1  0.90152017  0.43433489  0.73035874  1
  O2-  O340  1  0.89909874  0.76490596  0.23292327  1
  O2-  O341  1  0.90637467  0.76196781  0.73054501  1
  O2-  O342  1  0.26002034  0.25980775  0.02239343  1
  O2-  O343  1  0.25778898  0.26403515  0.52157215  1
  O2-  O344  1  0.26123435  0.59387878  0.01963614  1
  O2-  O345  1  0.25909378  0.59544466  0.52060485  1
  O2-  O346  1  0.25966572  0.92649643  0.02088146  1
  O2-  O347  1  0.26050205  0.92509575  0.51674361  1
  O2-  O348  1  0.59487008  0.26328178  0.01997961  1
  O2-  O349  1  0.59205206  0.25534724  0.51824702  1
  O2-  O350  1  0.59383379  0.59641534  0.02311474  1
  O2-  O351  1  0.59511748  0.59549660  0.51437268  1
  O2-  O352  1  0.59904808  0.93154848  0.01949234  1
  O2-  O353  1  0.59642194  0.92651849  0.52092796  1
  O2-  O354  1  0.92998402  0.26275946  0.01432419  1
  O2-  O355  1  0.92956702  0.26583632  0.52087288  1
  O2-  O356  1  0.92357146  0.59162702  0.01723943  1
  O2-  O357  1  0.93036496  0.59701538  0.52206596  1
  O2-  O358  1  0.93270429  0.92981388  0.01827151  1
  O2-  O359  1  0.92887746  0.92720669  0.51905761  1
