# generated using pymatgen
data_Sr7Ca15Pr50Mn72O216
_symmetry_space_group_name_H-M   'P 1'
_cell_length_a   16.55953150
_cell_length_b   16.60459931
_cell_length_c   15.59410592
_cell_angle_alpha   89.99971092
_cell_angle_beta   89.99217959
_cell_angle_gamma   90.00955549
_symmetry_Int_Tables_number   1
_chemical_formula_structural   Sr7Ca15Pr50Mn72O216
_chemical_formula_sum   'Sr7 Ca15 Pr50 Mn72 O216'
_cell_volume   4287.82365017
_cell_formula_units_Z   1
loop_
 _symmetry_equiv_pos_site_id
 _symmetry_equiv_pos_as_xyz
  1  'x, y, z'
loop_
 _atom_type_symbol
 _atom_type_oxidation_number
  Sr2+  2.0
  Ca2+  2.0
  Pr3+  3.0
  Mn3.30+  3.3
  O2-  -2.0
loop_
 _atom_site_type_symbol
 _atom_site_label
 _atom_site_symmetry_multiplicity
 _atom_site_fract_x
 _atom_site_fract_y
 _atom_site_fract_z
 _atom_site_occupancy
  Sr2+  Sr0  1  0.33862558  0.65718451  0.87625172  1
  Sr2+  Sr1  1  0.66376407  0.01165221  0.62672884  1
  Sr2+  Sr2  1  0.49972908  0.15686282  0.87507339  1
  Sr2+  Sr3  1  0.16966411  0.50890723  0.62535286  1
  Sr2+  Sr4  1  -0.00452458  0.01227244  0.62553699  1
  Sr2+  Sr5  1  0.50111417  0.82666286  0.87629031  1
  Sr2+  Sr6  1  0.50070326  0.17455104  0.12541209  1
  Ca2+  Ca7  1  0.66637866  0.65374093  0.87727151  1
  Ca2+  Ca8  1  -0.00299733  0.34892754  0.12453377  1
  Ca2+  Ca9  1  0.33165462  0.68410351  0.12298001  1
  Ca2+  Ca10  1  0.65833084  0.68441414  0.12257282  1
  Ca2+  Ca11  1  0.50122277  0.84483019  0.12200104  1
  Ca2+  Ca12  1  0.33651816  0.65233174  0.37419552  1
  Ca2+  Ca13  1  0.49989622  0.48871517  0.87594645  1
  Ca2+  Ca14  1  0.66475230  0.98951446  0.87544979  1
  Ca2+  Ca15  1  0.16877641  0.84842882  0.62570653  1
  Ca2+  Ca16  1  0.49735745  0.15129982  0.37637214  1
  Ca2+  Ca17  1  0.82470945  0.14859949  0.87216179  1
  Ca2+  Ca18  1  0.50453167  0.17769562  0.62512871  1
  Ca2+  Ca19  1  0.16287603  0.15078140  0.37579349  1
  Ca2+  Ca20  1  0.83625230  0.17797628  0.62784151  1
  Ca2+  Ca21  1  0.17188587  0.84810377  0.12431473  1
  Pr3+  Pr22  1  0.66929808  0.31804827  0.87517967  1
  Pr3+  Pr23  1  0.66152243  0.34513950  0.12383719  1
  Pr3+  Pr24  1  0.66787163  0.65352721  0.37324300  1
  Pr3+  Pr25  1  0.82898617  0.48783054  0.87581983  1
  Pr3+  Pr26  1  0.66511246  0.98861614  0.37492073  1
  Pr3+  Pr27  1  0.66331566  0.67910390  0.62645650  1
  Pr3+  Pr28  1  0.83834676  0.51250465  0.62544224  1
  Pr3+  Pr29  1  -0.00076908  0.68175277  0.12472603  1
  Pr3+  Pr30  1  0.16736337  0.48869272  0.37449007  1
  Pr3+  Pr31  1  0.83693014  0.18007534  0.12292584  1
  Pr3+  Pr32  1  0.82385940  0.82201133  0.87477808  1
  Pr3+  Pr33  1  0.83108532  0.15381830  0.37671380  1
  Pr3+  Pr34  1  0.16797815  0.17785112  0.62439905  1
  Pr3+  Pr35  1  0.32815700  0.68034891  0.62514778  1
  Pr3+  Pr36  1  0.33894462  0.32507912  0.87440822  1
  Pr3+  Pr37  1  0.49269772  0.81852814  0.37421404  1
  Pr3+  Pr38  1  0.17246461  0.51435934  0.12409067  1
  Pr3+  Pr39  1  0.33950859  0.98608562  0.87544466  1
  Pr3+  Pr40  1  0.17077166  0.17917627  0.12587704  1
  Pr3+  Pr41  1  0.83074065  0.82296968  0.37553814  1
  Pr3+  Pr42  1  0.83536189  0.84808702  0.62492380  1
  Pr3+  Pr43  1  1.00476653  0.98913242  0.37608768  1
  Pr3+  Pr44  1  0.50250705  0.51142579  0.62768192  1
  Pr3+  Pr45  1  1.00385839  0.65382090  0.37308266  1
  Pr3+  Pr46  1  0.99893836  0.98838095  0.87337590  1
  Pr3+  Pr47  1  0.33299490  0.34536416  0.62607291  1
  Pr3+  Pr48  1  0.83452490  0.51365885  0.12420441  1
  Pr3+  Pr49  1  0.66008034  0.01042196  0.12267767  1
  Pr3+  Pr50  1  0.33493847  0.34465510  0.12374600  1
  Pr3+  Pr51  1  0.83230036  0.84691203  0.12585274  1
  Pr3+  Pr52  1  1.00231179  0.31994431  0.87665678  1
  Pr3+  Pr53  1  0.33338243  0.01002357  0.12413890  1
  Pr3+  Pr54  1  0.16577436  0.82122470  0.87485676  1
  Pr3+  Pr55  1  0.33412808  0.98845296  0.37464044  1
  Pr3+  Pr56  1  -0.00301133  0.34325092  0.62506329  1
  Pr3+  Pr57  1  0.83105859  0.48464458  0.37389095  1
  Pr3+  Pr58  1  1.00638647  0.31770578  0.37344912  1
  Pr3+  Pr59  1  0.16459737  0.82072938  0.37413045  1
  Pr3+  Pr60  1  0.16663712  0.48913913  0.87485013  1
  Pr3+  Pr61  1  0.16545416  0.15336877  0.87450870  1
  Pr3+  Pr62  1  -0.00081423  0.68046102  0.62508161  1
  Pr3+  Pr63  1  0.66847227  0.31813750  0.37444482  1
  Pr3+  Pr64  1  -0.00135739  0.01123114  0.12469969  1
  Pr3+  Pr65  1  1.00326834  0.65510962  0.87664465  1
  Pr3+  Pr66  1  0.50452586  0.51635859  0.12288166  1
  Pr3+  Pr67  1  0.33079212  0.01144984  0.62660560  1
  Pr3+  Pr68  1  0.49652063  0.48719642  0.37496037  1
  Pr3+  Pr69  1  0.50093469  0.84586293  0.62675757  1
  Pr3+  Pr70  1  0.33662509  0.31784049  0.37547715  1
  Pr3+  Pr71  1  0.66644182  0.33995572  0.62638495  1
  Mn3.30+  Mn72  1  0.16674390  -0.00146341  -0.00072943  1
  Mn3.30+  Mn73  1  0.16666280  0.00057113  0.50185353  1
  Mn3.30+  Mn74  1  0.16615608  0.33386506  0.00118710  1
  Mn3.30+  Mn75  1  0.16812651  0.33181716  0.49880323  1
  Mn3.30+  Mn76  1  0.17010148  0.66871855  0.00102621  1
  Mn3.30+  Mn77  1  0.16856877  0.66696905  0.49930811  1
  Mn3.30+  Mn78  1  0.50076872  -0.00084845  -0.00065211  1
  Mn3.30+  Mn79  1  0.49921305  0.00176931  0.50046229  1
  Mn3.30+  Mn80  1  0.50112143  0.33416245  -0.00084904  1
  Mn3.30+  Mn81  1  0.50045669  0.32983015  0.50018970  1
  Mn3.30+  Mn82  1  0.50068979  0.66910140  -0.00031546  1
  Mn3.30+  Mn83  1  0.49747460  0.66539048  0.50008509  1
  Mn3.30+  Mn84  1  0.83034091  0.00043233  -0.00079601  1
  Mn3.30+  Mn85  1  0.83315725  0.00222926  0.50120369  1
  Mn3.30+  Mn86  1  0.83435189  0.33228936  0.00035742  1
  Mn3.30+  Mn87  1  0.83414985  0.33085478  0.49988659  1
  Mn3.30+  Mn88  1  0.82940586  0.66817606  0.00187564  1
  Mn3.30+  Mn89  1  0.83344590  0.66674029  0.49887033  1
  Mn3.30+  Mn90  1  0.00174471  0.16725685  0.24807236  1
  Mn3.30+  Mn91  1  -0.00373795  0.16623524  0.75195392  1
  Mn3.30+  Mn92  1  0.00115268  0.49929997  0.24787490  1
  Mn3.30+  Mn93  1  0.00018756  0.50018443  0.75057394  1
  Mn3.30+  Mn94  1  0.00146497  0.83431328  0.24843517  1
  Mn3.30+  Mn95  1  -0.00134682  0.83414566  0.75057575  1
  Mn3.30+  Mn96  1  0.33295454  0.16546750  0.25219493  1
  Mn3.30+  Mn97  1  0.33600663  0.16733778  0.74849752  1
  Mn3.30+  Mn98  1  0.33500572  0.50247491  0.24851611  1
  Mn3.30+  Mn99  1  0.33597573  0.50162123  0.75175337  1
  Mn3.30+  Mn100  1  0.33241997  0.83128068  0.24791059  1
  Mn3.30+  Mn101  1  0.33278089  0.83284571  0.74974380  1
  Mn3.30+  Mn102  1  0.66545156  0.16532484  0.25073026  1
  Mn3.30+  Mn103  1  0.66761292  0.16397360  0.74918588  1
  Mn3.30+  Mn104  1  0.66621358  0.50113210  0.24884352  1
  Mn3.30+  Mn105  1  0.66663688  0.50005145  0.75153077  1
  Mn3.30+  Mn106  1  0.66254071  0.83191067  0.24959774  1
  Mn3.30+  Mn107  1  0.66526544  0.83386969  0.75148975  1
  Mn3.30+  Mn108  1  0.16718740  -0.00006656  0.24964158  1
  Mn3.30+  Mn109  1  0.16607254  -0.00073873  0.74899918  1
  Mn3.30+  Mn110  1  0.16665610  0.33304378  0.24831326  1
  Mn3.30+  Mn111  1  0.16750862  0.33319117  0.75088853  1
  Mn3.30+  Mn112  1  0.17151208  0.66841622  0.24874015  1
  Mn3.30+  Mn113  1  0.16741513  0.66696727  0.74955591  1
  Mn3.30+  Mn114  1  0.49911761  -0.00141667  0.25051667  1
  Mn3.30+  Mn115  1  0.50129608  0.00221574  0.75038411  1
  Mn3.30+  Mn116  1  0.50011629  0.33116119  0.25077580  1
  Mn3.30+  Mn117  1  0.50143267  0.33267032  0.74969056  1
  Mn3.30+  Mn118  1  0.49794579  0.66824561  0.24718350  1
  Mn3.30+  Mn119  1  0.49987716  0.66645423  0.75352175  1
  Mn3.30+  Mn120  1  0.83257518  0.00094183  0.25038329  1
  Mn3.30+  Mn121  1  0.83063555  0.00207852  0.75003227  1
  Mn3.30+  Mn122  1  0.83517421  0.33263269  0.24811878  1
  Mn3.30+  Mn123  1  0.83336318  0.33031499  0.75157594  1
  Mn3.30+  Mn124  1  0.83126980  0.66753243  0.24808127  1
  Mn3.30+  Mn125  1  0.83162759  0.66701082  0.75141240  1
  Mn3.30+  Mn126  1  -0.00165262  0.16695487  -0.00114935  1
  Mn3.30+  Mn127  1  0.00000112  0.16636363  0.50081619  1
  Mn3.30+  Mn128  1  0.00024088  0.50000282  0.00166505  1
  Mn3.30+  Mn129  1  0.00111011  0.49958307  0.49911366  1
  Mn3.30+  Mn130  1  -0.00088212  0.83431870  0.00059516  1
  Mn3.30+  Mn131  1  0.00139564  0.83420889  0.50089777  1
  Mn3.30+  Mn132  1  0.33420949  0.16744911  -0.00013202  1
  Mn3.30+  Mn133  1  0.33500455  0.16563896  0.49994098  1
  Mn3.30+  Mn134  1  0.33740702  0.50282852  -0.00010874  1
  Mn3.30+  Mn135  1  0.33358525  0.50082004  0.49932058  1
  Mn3.30+  Mn136  1  0.33453174  0.83182996  0.00269755  1
  Mn3.30+  Mn137  1  0.33035451  0.83263568  0.49948421  1
  Mn3.30+  Mn138  1  0.66807148  0.16431438  -0.00160961  1
  Mn3.30+  Mn139  1  0.66510449  0.16540134  0.50190814  1
  Mn3.30+  Mn140  1  0.66550784  0.50278401  -0.00147240  1
  Mn3.30+  Mn141  1  0.66717658  0.49840782  0.50091500  1
  Mn3.30+  Mn142  1  0.66412917  0.83194060  0.00019670  1
  Mn3.30+  Mn143  1  0.66415958  0.83349369  0.49944655  1
  O2-  O144  1  0.02725514  0.15776210  0.12290082  1
  O2-  O145  1  0.02372898  0.17003707  0.62841255  1
  O2-  O146  1  0.02719722  0.49487437  0.12391685  1
  O2-  O147  1  0.01916906  0.49255277  0.62399913  1
  O2-  O148  1  0.02763839  0.83075301  0.12417007  1
  O2-  O149  1  0.02515523  0.82719927  0.62370888  1
  O2-  O150  1  0.35084507  0.16129868  0.12636257  1
  O2-  O151  1  0.36178797  0.16009488  0.62444949  1
  O2-  O152  1  0.36067110  0.49092188  0.12540344  1
  O2-  O153  1  0.35771890  0.49473126  0.62621108  1
  O2-  O154  1  0.35911398  0.83069983  0.12751018  1
  O2-  O155  1  0.35651078  0.82877192  0.62283431  1
  O2-  O156  1  0.69269732  0.16004886  0.12654686  1
  O2-  O157  1  0.69400296  0.17005726  0.62494767  1
  O2-  O158  1  0.69195512  0.49152920  0.12400888  1
  O2-  O159  1  0.69506324  0.49175652  0.62436249  1
  O2-  O160  1  0.69016193  0.82891164  0.12721959  1
  O2-  O161  1  0.69107406  0.82588319  0.62390703  1
  O2-  O162  1  0.13852291  0.32689872  0.12516384  1
  O2-  O163  1  0.14166131  0.32728204  0.62583962  1
  O2-  O164  1  0.14118721  0.66005562  0.12475245  1
  O2-  O165  1  0.14145754  0.66118243  0.62400140  1
  O2-  O166  1  0.14158525  0.99379586  0.12150522  1
  O2-  O167  1  0.14503627  0.99568502  0.62620036  1
  O2-  O168  1  0.47951275  0.33056993  0.12720089  1
  O2-  O169  1  0.47650666  0.32459353  0.62340094  1
  O2-  O170  1  0.47218913  0.65989600  0.12601238  1
  O2-  O171  1  0.47369164  0.65917455  0.62490791  1
  O2-  O172  1  0.47798140  0.99368308  0.12662981  1
  O2-  O173  1  0.47458214  0.99350410  0.62389321  1
  O2-  O174  1  0.80549309  0.32699914  0.12480720  1
  O2-  O175  1  0.81156029  0.32635376  0.62686090  1
  O2-  O176  1  0.80219863  0.66134523  0.12604716  1
  O2-  O177  1  0.80803309  0.66035576  0.62317970  1
  O2-  O178  1  0.80620127  0.99578157  0.12680431  1
  O2-  O179  1  0.81361192  0.99402834  0.62369658  1
  O2-  O180  1  0.30378129  0.17042221  0.37533633  1
  O2-  O181  1  0.30854727  0.17451627  0.87457680  1
  O2-  O182  1  0.31100482  0.50599284  0.37144989  1
  O2-  O183  1  0.31017730  0.49951523  0.87650801  1
  O2-  O184  1  0.30639216  0.84100945  0.37453952  1
  O2-  O185  1  0.30935260  0.83827192  0.87575582  1
  O2-  O186  1  0.64123871  0.17136683  0.37428090  1
  O2-  O187  1  0.64820554  0.17188819  0.87398436  1
  O2-  O188  1  0.64117026  0.50538864  0.37560614  1
  O2-  O189  1  0.64279440  0.50644982  0.87540997  1
  O2-  O190  1  0.63822002  0.83827885  0.37465269  1
  O2-  O191  1  0.65163052  0.84308788  0.87491986  1
  O2-  O192  1  0.97525327  0.17059517  0.37172521  1
  O2-  O193  1  0.96985270  0.17264383  0.87728213  1
  O2-  O194  1  0.97474460  0.50608179  0.37355132  1
  O2-  O195  1  0.97366366  0.50671871  0.87786332  1
  O2-  O196  1  0.97575445  0.83825445  0.37389245  1
  O2-  O197  1  0.97037302  0.83736379  0.87807119  1
  O2-  O198  1  0.18987056  0.00629762  0.37706309  1
  O2-  O199  1  0.19405360  0.00585570  0.87465490  1
  O2-  O200  1  0.19251030  0.34084892  0.37174830  1
  O2-  O201  1  0.19365413  0.33860333  0.87651506  1
  O2-  O202  1  0.19460624  0.67399078  0.37340942  1
  O2-  O203  1  0.18697139  0.67368470  0.87652297  1
  O2-  O204  1  0.52162581  0.00459030  0.37565092  1
  O2-  O205  1  0.52097931  0.00144116  0.87393670  1
  O2-  O206  1  0.52561464  0.34141342  0.37546889  1
  O2-  O207  1  0.52418143  0.34131926  0.87408524  1
  O2-  O208  1  0.52483524  0.67037604  0.37461946  1
  O2-  O209  1  0.52617270  0.67311939  0.87506120  1
  O2-  O210  1  0.85995193  0.00510673  0.37467613  1
  O2-  O211  1  0.85557806  0.00115050  0.87600602  1
  O2-  O212  1  0.86148775  0.33706180  0.37115210  1
  O2-  O213  1  0.85963320  0.34216811  0.87665048  1
  O2-  O214  1  0.85935101  0.67343770  0.37317536  1
  O2-  O215  1  0.85957459  0.67346073  0.87802384  1
  O2-  O216  1  0.23644238  0.09449943  0.01823762  1
  O2-  O217  1  0.23999410  0.09361433  0.52450024  1
  O2-  O218  1  0.23982154  0.42802008  0.02106705  1
  O2-  O219  1  0.24287403  0.42545856  0.51557802  1
  O2-  O220  1  0.23502636  0.76501013  0.01872230  1
  O2-  O221  1  0.23470576  0.76386472  0.52202310  1
  O2-  O222  1  0.57455145  0.08981798  0.01923306  1
  O2-  O223  1  0.57122600  0.09808324  0.51841873  1
  O2-  O224  1  0.57463334  0.42839277  0.02080197  1
  O2-  O225  1  0.57204482  0.42560760  0.52192387  1
  O2-  O226  1  0.57073213  0.76219722  0.02223782  1
  O2-  O227  1  0.56861437  0.75872541  0.52051243  1
  O2-  O228  1  0.90577228  0.09203077  0.02290451  1
  O2-  O229  1  0.90209624  0.10010819  0.51653080  1
  O2-  O230  1  0.90277580  0.42882172  0.02045965  1
  O2-  O231  1  0.90348967  0.42679573  0.51792607  1
  O2-  O232  1  0.90290724  0.76103745  0.02505397  1
  O2-  O233  1  0.90501808  0.76022351  0.52016176  1
  O2-  O234  1  0.26145593  0.26262726  0.22862426  1
  O2-  O235  1  0.26109224  0.25853841  0.72735451  1
  O2-  O236  1  0.26307532  0.59564900  0.22506062  1
  O2-  O237  1  0.26413589  0.59447612  0.73299715  1
  O2-  O238  1  0.26283681  0.92943748  0.23180744  1
  O2-  O239  1  0.26119527  0.92772784  0.73302623  1
  O2-  O240  1  0.59938498  0.26311986  0.23381342  1
  O2-  O241  1  0.59792232  0.26164581  0.73474658  1
  O2-  O242  1  0.59587736  0.59996355  0.22920962  1
  O2-  O243  1  0.59525321  0.59231297  0.72630849  1
  O2-  O244  1  0.59648632  0.92841396  0.23406479  1
  O2-  O245  1  0.58935662  0.92289294  0.73052549  1
  O2-  O246  1  0.93143365  0.26267232  0.22630825  1
  O2-  O247  1  0.93177999  0.26527176  0.73484446  1
  O2-  O248  1  0.92848004  0.59504784  0.22765422  1
  O2-  O249  1  0.92884963  0.59584666  0.73015310  1
  O2-  O250  1  0.92656114  0.92867625  0.22935166  1
  O2-  O251  1  0.92568435  0.92657044  0.73433724  1
  O2-  O252  1  0.09646460  0.23599074  0.27138023  1
  O2-  O253  1  0.09388020  0.23924586  0.77344050  1
  O2-  O254  1  0.09838067  0.57383069  0.26993343  1
  O2-  O255  1  0.09338890  0.57354273  0.77285797  1
  O2-  O256  1  0.09412203  0.90780255  0.27225369  1
  O2-  O257  1  0.09137422  0.90687440  0.77414555  1
  O2-  O258  1  0.42527284  0.23703991  0.27399158  1
  O2-  O259  1  0.42440023  0.24454922  0.76981764  1
  O2-  O260  1  0.43327232  0.56874807  0.26715910  1
  O2-  O261  1  0.43394120  0.56823847  0.76843371  1
  O2-  O262  1  0.42506634  0.90544947  0.27304078  1
  O2-  O263  1  0.42363186  0.90820835  0.76492591  1
  O2-  O264  1  0.76397049  0.23764669  0.26954407  1
  O2-  O265  1  0.76258008  0.23901374  0.77264541  1
  O2-  O266  1  0.76141102  0.57042381  0.27177852  1
  O2-  O267  1  0.76542199  0.57038657  0.76692904  1
  O2-  O268  1  0.75938598  0.90486495  0.27162790  1
  O2-  O269  1  0.76343631  0.90238402  0.76255057  1
  O2-  O270  1  0.07102796  0.07272200  0.48240032  1
  O2-  O271  1  0.07124472  0.07238802  0.97705028  1
  O2-  O272  1  0.07235811  0.40593616  0.47824770  1
  O2-  O273  1  0.07615544  0.40616848  0.97673875  1
  O2-  O274  1  0.07216756  0.73742795  0.47760525  1
  O2-  O275  1  0.06895558  0.73983223  0.98098811  1
  O2-  O276  1  0.40172740  0.07031016  0.48052751  1
  O2-  O277  1  0.40332932  0.07151442  0.98499896  1
  O2-  O278  1  0.40682791  0.40353889  0.48081200  1
  O2-  O279  1  0.40431024  0.40542624  0.98377758  1
  O2-  O280  1  0.40084863  0.73738276  0.47932260  1
  O2-  O281  1  0.40514292  0.73913100  0.98669961  1
  O2-  O282  1  0.73771388  0.07338109  0.47673391  1
  O2-  O283  1  0.73691335  0.06699320  0.98188488  1
  O2-  O284  1  0.74000822  0.40438086  0.47789046  1
  O2-  O285  1  0.73888880  0.40421519  0.97924878  1
  O2-  O286  1  0.73742178  0.73931858  0.47785936  1
  O2-  O287  1  0.73749959  0.73853708  0.97761137  1
  O2-  O288  1  0.09631169  0.23710959  0.47880554  1
  O2-  O289  1  0.09514045  0.23827461  0.97736646  1
  O2-  O290  1  0.09557082  0.57465567  0.47481033  1
  O2-  O291  1  0.09657907  0.57404226  0.98055991  1
  O2-  O292  1  0.09404241  0.90737101  0.47744471  1
  O2-  O293  1  0.09273573  0.90846564  0.97385375  1
  O2-  O294  1  0.42765821  0.23823999  0.47466474  1
  O2-  O295  1  0.42299454  0.24459493  0.98280895  1
  O2-  O296  1  0.43112206  0.56876508  0.48259151  1
  O2-  O297  1  0.43511454  0.56869774  0.98251144  1
  O2-  O298  1  0.42490053  0.90366362  0.48015218  1
  O2-  O299  1  0.42325508  0.90923850  0.98292910  1
  O2-  O300  1  0.76083843  0.23986955  0.47661622  1
  O2-  O301  1  0.76638548  0.23633789  0.98051402  1
  O2-  O302  1  0.76335355  0.57204112  0.47798723  1
  O2-  O303  1  0.76384695  0.56952262  0.98201669  1
  O2-  O304  1  0.75977347  0.90685807  0.47856774  1
  O2-  O305  1  0.76450873  0.90136364  0.98840418  1
  O2-  O306  1  0.06926012  0.07027101  0.26630299  1
  O2-  O307  1  0.07167507  0.07519702  0.77317918  1
  O2-  O308  1  0.07466523  0.40657568  0.27203944  1
  O2-  O309  1  0.07239111  0.40688449  0.77248488  1
  O2-  O310  1  0.07211707  0.73758761  0.26970303  1
  O2-  O311  1  0.06870948  0.73965028  0.77053255  1
  O2-  O312  1  0.40284221  0.06985701  0.26670093  1
  O2-  O313  1  0.40175728  0.07133215  0.76778486  1
  O2-  O314  1  0.40488464  0.40392211  0.27083000  1
  O2-  O315  1  0.40609609  0.40546703  0.76457325  1
  O2-  O316  1  0.40241908  0.73738073  0.27442139  1
  O2-  O317  1  0.40499076  0.73910755  0.76069736  1
  O2-  O318  1  0.73994218  0.07321489  0.27364602  1
  O2-  O319  1  0.73556965  0.06855430  0.77045709  1
  O2-  O320  1  0.74007441  0.40344363  0.27087431  1
  O2-  O321  1  0.73991186  0.40434058  0.77144818  1
  O2-  O322  1  0.73780611  0.74144124  0.27402855  1
  O2-  O323  1  0.73691986  0.73615487  0.77016039  1
  O2-  O324  1  0.23806890  0.09262208  0.22856782  1
  O2-  O325  1  0.23901234  0.09583209  0.72999012  1
  O2-  O326  1  0.23999639  0.42891017  0.22798902  1
  O2-  O327  1  0.24282416  0.42491093  0.73432301  1
  O2-  O328  1  0.23414213  0.76623960  0.22965516  1
  O2-  O329  1  0.23631640  0.76290077  0.72936030  1
  O2-  O330  1  0.57641765  0.08965199  0.23232219  1
  O2-  O331  1  0.57000330  0.09673476  0.72935167  1
  O2-  O332  1  0.57348687  0.43051463  0.23077124  1
  O2-  O333  1  0.57488998  0.42377792  0.72607669  1
  O2-  O334  1  0.56505867  0.76484456  0.23232214  1
  O2-  O335  1  0.57310035  0.75816103  0.72623725  1
  O2-  O336  1  0.90634828  0.09689497  0.22855708  1
  O2-  O337  1  0.90178675  0.09707878  0.73387732  1
  O2-  O338  1  0.90204487  0.42860723  0.22988978  1
  O2-  O339  1  0.90474093  0.42753019  0.73098480  1
  O2-  O340  1  0.90571674  0.76146583  0.22815935  1
  O2-  O341  1  0.90317971  0.76092759  0.72882415  1
  O2-  O342  1  0.25828795  0.26196999  0.02188100  1
  O2-  O343  1  0.26435275  0.25895505  0.52215190  1
  O2-  O344  1  0.26363564  0.59376027  0.02257932  1
  O2-  O345  1  0.26235370  0.59683286  0.51689879  1
  O2-  O346  1  0.26189206  0.92851316  0.01825264  1
  O2-  O347  1  0.26194446  0.92926190  0.51814366  1
  O2-  O348  1  0.59901120  0.26232449  0.01452238  1
  O2-  O349  1  0.59859107  0.26352753  0.51661833  1
  O2-  O350  1  0.59568717  0.59673128  0.02330122  1
  O2-  O351  1  0.59658727  0.59306654  0.52100268  1
  O2-  O352  1  0.59473188  0.92580087  0.01859742  1
  O2-  O353  1  0.59039663  0.92547171  0.51749542  1
  O2-  O354  1  0.93078927  0.26364796  0.02383327  1
  O2-  O355  1  0.93244771  0.26435306  0.51447319  1
  O2-  O356  1  0.92618124  0.59734955  0.02318024  1
  O2-  O357  1  0.92972953  0.59436721  0.51968208  1
  O2-  O358  1  0.92696019  0.92858137  0.02133339  1
  O2-  O359  1  0.92471628  0.92551929  0.51540430  1
