# generated using pymatgen
data_Sr7Ca15Pr50Mn72O216
_symmetry_space_group_name_H-M   'P 1'
_cell_length_a   16.55921883
_cell_length_b   16.60468692
_cell_length_c   15.59233655
_cell_angle_alpha   90.00188684
_cell_angle_beta   90.00364773
_cell_angle_gamma   89.98202103
_symmetry_Int_Tables_number   1
_chemical_formula_structural   Sr7Ca15Pr50Mn72O216
_chemical_formula_sum   'Sr7 Ca15 Pr50 Mn72 O216'
_cell_volume   4287.27868223
_cell_formula_units_Z   1
loop_
 _symmetry_equiv_pos_site_id
 _symmetry_equiv_pos_as_xyz
  1  'x, y, z'
loop_
 _atom_type_symbol
 _atom_type_oxidation_number
  Sr2+  2.0
  Ca2+  2.0
  Pr3+  3.0
  Mn3.30+  3.3
  O2-  -2.0
loop_
 _atom_site_type_symbol
 _atom_site_label
 _atom_site_symmetry_multiplicity
 _atom_site_fract_x
 _atom_site_fract_y
 _atom_site_fract_z
 _atom_site_occupancy
  Sr2+  Sr0  1  0.49930186  0.82220273  0.87261594  1
  Sr2+  Sr1  1  0.16725848  0.17452880  0.62297706  1
  Sr2+  Sr2  1  0.82778070  0.49188568  0.87438974  1
  Sr2+  Sr3  1  0.49987866  0.16000718  0.87707004  1
  Sr2+  Sr4  1  0.83292628  0.51061292  0.62575468  1
  Sr2+  Sr5  1  0.50037186  0.49494242  0.87454099  1
  Sr2+  Sr6  1  0.50247097  0.84251214  0.62413740  1
  Ca2+  Ca7  1  0.50485292  0.18619450  0.12488535  1
  Ca2+  Ca8  1  1.00441347  0.98688392  0.37787506  1
  Ca2+  Ca9  1  0.49351087  0.48157224  0.37469854  1
  Ca2+  Ca10  1  0.66336316  0.68071932  0.62933696  1
  Ca2+  Ca11  1  0.16513605  0.48602317  0.87368492  1
  Ca2+  Ca12  1  0.33860583  0.65160258  0.87354401  1
  Ca2+  Ca13  1  0.16386043  0.15047874  0.37622815  1
  Ca2+  Ca14  1  0.66127350  0.34938106  0.12427615  1
  Ca2+  Ca15  1  0.16486655  0.48438029  0.37598843  1
  Ca2+  Ca16  1  0.66929480  0.65177802  0.87104950  1
  Ca2+  Ca17  1  -0.00306514  0.01313100  0.62377827  1
  Ca2+  Ca18  1  0.33404268  0.31897758  0.37449154  1
  Ca2+  Ca19  1  1.00255346  0.98557002  0.87210598  1
  Ca2+  Ca20  1  0.49729193  0.82002035  0.37869262  1
  Ca2+  Ca21  1  0.83698507  0.84945382  0.62561854  1
  Pr3+  Pr22  1  0.33068557  0.01229786  0.62555873  1
  Pr3+  Pr23  1  0.50486627  0.51459655  0.62436985  1
  Pr3+  Pr24  1  0.16868836  0.84736277  0.62539675  1
  Pr3+  Pr25  1  -0.00704810  0.68085706  0.62551889  1
  Pr3+  Pr26  1  1.00536378  0.65165168  0.37606386  1
  Pr3+  Pr27  1  0.16324636  0.15310588  0.87481424  1
  Pr3+  Pr28  1  -0.00096430  0.34554524  0.62418688  1
  Pr3+  Pr29  1  1.00184187  0.65070405  0.87356524  1
  Pr3+  Pr30  1  0.66610215  0.01011611  0.62499865  1
  Pr3+  Pr31  1  0.50095253  0.17829993  0.62517585  1
  Pr3+  Pr32  1  0.16201857  0.82153983  0.37601993  1
  Pr3+  Pr33  1  -0.00127924  0.34741497  0.12621297  1
  Pr3+  Pr34  1  0.83966698  0.17768589  0.62436738  1
  Pr3+  Pr35  1  0.33550866  0.98627974  0.37610766  1
  Pr3+  Pr36  1  0.83606032  0.18204165  0.12626879  1
  Pr3+  Pr37  1  0.83267543  0.51295940  0.12505945  1
  Pr3+  Pr38  1  1.00125847  0.32444895  0.87372068  1
  Pr3+  Pr39  1  0.49561974  0.15623278  0.37304744  1
  Pr3+  Pr40  1  0.16975748  0.51036739  0.62483749  1
  Pr3+  Pr41  1  0.50191209  0.51130220  0.12585328  1
  Pr3+  Pr42  1  0.83538234  0.84563013  0.12446902  1
  Pr3+  Pr43  1  0.33233151  0.67801731  0.12275405  1
  Pr3+  Pr44  1  0.33845247  0.65156743  0.37680944  1
  Pr3+  Pr45  1  0.33781455  0.98958374  0.87355187  1
  Pr3+  Pr46  1  0.83175836  0.15145760  0.37511931  1
  Pr3+  Pr47  1  0.17144663  0.51238583  0.12547457  1
  Pr3+  Pr48  1  0.83337398  0.82291822  0.37707610  1
  Pr3+  Pr49  1  0.33182046  0.01314648  0.12432206  1
  Pr3+  Pr50  1  0.66308537  0.67726374  0.12181602  1
  Pr3+  Pr51  1  0.82797322  0.81951214  0.87243828  1
  Pr3+  Pr52  1  0.66365158  0.34641823  0.62419740  1
  Pr3+  Pr53  1  0.66979031  0.32466859  0.87665812  1
  Pr3+  Pr54  1  0.33334554  0.34615633  0.12585914  1
  Pr3+  Pr55  1  0.66843773  0.98578776  0.37588342  1
  Pr3+  Pr56  1  0.66160513  0.01536057  0.12472126  1
  Pr3+  Pr57  1  0.17031375  0.17984862  0.12721327  1
  Pr3+  Pr58  1  0.82970549  0.15413366  0.87482800  1
  Pr3+  Pr59  1  0.16979502  0.84630294  0.12456895  1
  Pr3+  Pr60  1  1.00613331  0.31961640  0.37603309  1
  Pr3+  Pr61  1  -0.00279879  0.01309970  0.12593766  1
  Pr3+  Pr62  1  0.33725986  0.32302335  0.87557857  1
  Pr3+  Pr63  1  0.66463787  0.65762059  0.37778584  1
  Pr3+  Pr64  1  0.50316159  0.84491065  0.12501578  1
  Pr3+  Pr65  1  0.16382312  0.82013446  0.87389124  1
  Pr3+  Pr66  1  0.33290003  0.67895566  0.62778044  1
  Pr3+  Pr67  1  0.66816488  0.98795584  0.87337236  1
  Pr3+  Pr68  1  -0.00270467  0.67883578  0.12379723  1
  Pr3+  Pr69  1  0.66761622  0.32158842  0.37355772  1
  Pr3+  Pr70  1  0.33041287  0.34426962  0.62422228  1
  Pr3+  Pr71  1  0.83049296  0.48903704  0.37624042  1
  Mn3.30+  Mn72  1  0.16517603  -0.00026911  -0.00097749  1
  Mn3.30+  Mn73  1  0.16427331  0.00098322  0.49977360  1
  Mn3.30+  Mn74  1  0.16722460  0.33408878  -0.00038275  1
  Mn3.30+  Mn75  1  0.16876548  0.33141062  0.49766562  1
  Mn3.30+  Mn76  1  0.16791544  0.66459805  -0.00364445  1
  Mn3.30+  Mn77  1  0.16669161  0.66501002  0.50102533  1
  Mn3.30+  Mn78  1  0.49963358  0.00211148  0.00001075  1
  Mn3.30+  Mn79  1  0.50034381  -0.00104039  0.49944569  1
  Mn3.30+  Mn80  1  0.50148446  0.33522791  0.00082301  1
  Mn3.30+  Mn81  1  0.49716026  0.33379933  0.49803349  1
  Mn3.30+  Mn82  1  0.49841146  0.66661764  -0.00322393  1
  Mn3.30+  Mn83  1  0.50137289  0.66738433  0.50011314  1
  Mn3.30+  Mn84  1  0.83406762  0.00045773  -0.00060499  1
  Mn3.30+  Mn85  1  0.83668833  -0.00165256  0.49998253  1
  Mn3.30+  Mn86  1  0.83200139  0.33510534  0.00242913  1
  Mn3.30+  Mn87  1  0.83428765  0.33336579  0.49839852  1
  Mn3.30+  Mn88  1  0.83121313  0.66659806  -0.00138090  1
  Mn3.30+  Mn89  1  0.83226783  0.66847467  0.50195248  1
  Mn3.30+  Mn90  1  0.00251799  0.16543843  0.25168891  1
  Mn3.30+  Mn91  1  0.00043815  0.16464892  0.74999350  1
  Mn3.30+  Mn92  1  0.00201422  0.49988947  0.25041166  1
  Mn3.30+  Mn93  1  0.00063401  0.49948191  0.75074081  1
  Mn3.30+  Mn94  1  0.00068233  0.83417881  0.25028198  1
  Mn3.30+  Mn95  1  -0.00236257  0.83551786  0.74993933  1
  Mn3.30+  Mn96  1  0.33365127  0.16749463  0.25072743  1
  Mn3.30+  Mn97  1  0.33275221  0.16752427  0.75027293  1
  Mn3.30+  Mn98  1  0.33362488  0.49752098  0.25373694  1
  Mn3.30+  Mn99  1  0.33367742  0.50094037  0.75092712  1
  Mn3.30+  Mn100  1  0.33477712  0.83217129  0.25121620  1
  Mn3.30+  Mn101  1  0.33389234  0.83274605  0.75048647  1
  Mn3.30+  Mn102  1  0.66447898  0.16901718  0.24844870  1
  Mn3.30+  Mn103  1  0.66789117  0.16696040  0.74981228  1
  Mn3.30+  Mn104  1  0.66327560  0.50038832  0.25308126  1
  Mn3.30+  Mn105  1  0.66679333  0.50242040  0.74904699  1
  Mn3.30+  Mn106  1  0.66552290  0.83281652  0.25122278  1
  Mn3.30+  Mn107  1  0.66748371  0.83134050  0.74780749  1
  Mn3.30+  Mn108  1  0.16541057  0.00053605  0.25149654  1
  Mn3.30+  Mn109  1  0.16382062  0.00007610  0.74976709  1
  Mn3.30+  Mn110  1  0.16878820  0.33270623  0.25322121  1
  Mn3.30+  Mn111  1  0.16750117  0.33263708  0.74990615  1
  Mn3.30+  Mn112  1  0.16784023  0.66537875  0.25070948  1
  Mn3.30+  Mn113  1  0.16657347  0.66469114  0.75115246  1
  Mn3.30+  Mn114  1  0.49960443  0.00010204  0.25034457  1
  Mn3.30+  Mn115  1  0.50053467  0.00071665  0.74944474  1
  Mn3.30+  Mn116  1  0.49964059  0.33379150  0.25063024  1
  Mn3.30+  Mn117  1  0.49968582  0.33515681  0.75062768  1
  Mn3.30+  Mn118  1  0.49874253  0.66630152  0.25177355  1
  Mn3.30+  Mn119  1  0.50130184  0.66765870  0.75149551  1
  Mn3.30+  Mn120  1  0.83363777  -0.00030469  0.25066987  1
  Mn3.30+  Mn121  1  0.83724917  -0.00113562  0.74985781  1
  Mn3.30+  Mn122  1  0.83227154  0.33431776  0.25003443  1
  Mn3.30+  Mn123  1  0.83387230  0.33439692  0.74974046  1
  Mn3.30+  Mn124  1  0.83314485  0.66779909  0.25195431  1
  Mn3.30+  Mn125  1  0.83003800  0.66764232  0.74712970  1
  Mn3.30+  Mn126  1  -0.00007722  0.16658594  -0.00051678  1
  Mn3.30+  Mn127  1  0.00264061  0.16391011  0.49931561  1
  Mn3.30+  Mn128  1  0.00119137  0.49929411  -0.00105763  1
  Mn3.30+  Mn129  1  0.00120424  0.49964638  0.49984039  1
  Mn3.30+  Mn130  1  -0.00030211  0.83400823  -0.00233419  1
  Mn3.30+  Mn131  1  -0.00137658  0.83588234  0.50187375  1
  Mn3.30+  Mn132  1  0.33522536  0.16805099  0.00232477  1
  Mn3.30+  Mn133  1  0.33122506  0.16718456  0.49669159  1
  Mn3.30+  Mn134  1  0.33287174  0.50119704  -0.00257557  1
  Mn3.30+  Mn135  1  0.33416314  0.49740567  0.49798540  1
  Mn3.30+  Mn136  1  0.33437719  0.83228136  -0.00163264  1
  Mn3.30+  Mn137  1  0.33358737  0.83257748  0.50044064  1
  Mn3.30+  Mn138  1  0.66544823  0.16934741  0.00176649  1
  Mn3.30+  Mn139  1  0.66687909  0.16637819  0.49919403  1
  Mn3.30+  Mn140  1  0.66588038  0.50011264  0.00002209  1
  Mn3.30+  Mn141  1  0.66399561  0.50211010  0.49854521  1
  Mn3.30+  Mn142  1  0.66641335  0.83235248  -0.00201655  1
  Mn3.30+  Mn143  1  0.66714405  0.83200303  0.50192826  1
  O2-  O144  1  0.02666103  0.16013001  0.12542374  1
  O2-  O145  1  0.01793587  0.15957286  0.62539805  1
  O2-  O146  1  0.02689090  0.49738580  0.12461375  1
  O2-  O147  1  0.02503236  0.49578454  0.62550008  1
  O2-  O148  1  0.02591265  0.82574656  0.12235066  1
  O2-  O149  1  0.02600966  0.82530259  0.62589387  1
  O2-  O150  1  0.36034680  0.16038724  0.12603022  1
  O2-  O151  1  0.35627639  0.16134406  0.62188555  1
  O2-  O152  1  0.35737384  0.49521393  0.12734427  1
  O2-  O153  1  0.36035992  0.49194171  0.62214485  1
  O2-  O154  1  0.35908465  0.82677827  0.12560726  1
  O2-  O155  1  0.35221510  0.82849073  0.62555219  1
  O2-  O156  1  0.69451527  0.16037907  0.12567429  1
  O2-  O157  1  0.69481239  0.16082487  0.62330904  1
  O2-  O158  1  0.68917998  0.49669936  0.12964685  1
  O2-  O159  1  0.68403400  0.49198235  0.62173723  1
  O2-  O160  1  0.69165641  0.82662399  0.12542012  1
  O2-  O161  1  0.69465030  0.82966860  0.62505151  1
  O2-  O162  1  0.14180836  0.32708142  0.12725415  1
  O2-  O163  1  0.14293862  0.33009930  0.62468080  1
  O2-  O164  1  0.14053614  0.66052074  0.12266132  1
  O2-  O165  1  0.13761201  0.65870639  0.62466116  1
  O2-  O166  1  0.14115116  0.99469203  0.12438166  1
  O2-  O167  1  0.14006977  0.99534045  0.62558927  1
  O2-  O168  1  0.47702846  0.33341349  0.12729483  1
  O2-  O169  1  0.47531204  0.32772565  0.62342551  1
  O2-  O170  1  0.47573702  0.66116063  0.12624703  1
  O2-  O171  1  0.47605595  0.66236171  0.62362240  1
  O2-  O172  1  0.47535567  0.99112949  0.12721708  1
  O2-  O173  1  0.47612188  1.00042299  0.62346200  1
  O2-  O174  1  0.80594784  0.32893192  0.12832165  1
  O2-  O175  1  0.80891936  0.32559950  0.62113173  1
  O2-  O176  1  0.80911158  0.66388933  0.12762408  1
  O2-  O177  1  0.80730266  0.66372038  0.62292678  1
  O2-  O178  1  0.80606039  0.99438340  0.12556861  1
  O2-  O179  1  0.80938026  0.99814972  0.62322908  1
  O2-  O180  1  0.30729390  0.17231103  0.37345098  1
  O2-  O181  1  0.30848250  0.17335266  0.87880596  1
  O2-  O182  1  0.30417674  0.50801305  0.37582619  1
  O2-  O183  1  0.30664100  0.50607283  0.87427040  1
  O2-  O184  1  0.30572047  0.83723303  0.37542179  1
  O2-  O185  1  0.30652527  0.84311085  0.87409206  1
  O2-  O186  1  0.64000379  0.17233907  0.37381860  1
  O2-  O187  1  0.64968416  0.17430453  0.87653847  1
  O2-  O188  1  0.63576387  0.51008522  0.37607161  1
  O2-  O189  1  0.65023369  0.50118376  0.87412460  1
  O2-  O190  1  0.63986890  0.83913499  0.37351872  1
  O2-  O191  1  0.64887620  0.84268416  0.87389710  1
  O2-  O192  1  0.97387191  0.17442308  0.37372756  1
  O2-  O193  1  0.97312348  0.17756314  0.87629722  1
  O2-  O194  1  0.97490974  0.50403802  0.37427736  1
  O2-  O195  1  0.97789390  0.50110934  0.87574195  1
  O2-  O196  1  0.97752928  0.83978144  0.37690029  1
  O2-  O197  1  0.97269571  0.83984839  0.87477870  1
  O2-  O198  1  0.19105121  0.00076102  0.37390004  1
  O2-  O199  1  0.19296757  0.00419983  0.87645687  1
  O2-  O200  1  0.19315943  0.34230427  0.37386935  1
  O2-  O201  1  0.19245267  0.33882821  0.87486353  1
  O2-  O202  1  0.19327615  0.67552721  0.37750557  1
  O2-  O203  1  0.19601439  0.67455402  0.87496011  1
  O2-  O204  1  0.52576526  0.00927797  0.37356206  1
  O2-  O205  1  0.52379720  0.00479744  0.87476734  1
  O2-  O206  1  0.52479844  0.33450077  0.37424259  1
  O2-  O207  1  0.52503762  0.33622901  0.87454423  1
  O2-  O208  1  0.52110119  0.67567361  0.37542557  1
  O2-  O209  1  0.52607792  0.66656669  0.87465367  1
  O2-  O210  1  0.86097083  0.00310508  0.37407857  1
  O2-  O211  1  0.86082962  0.00672344  0.87729906  1
  O2-  O212  1  0.86012724  0.33952971  0.37361702  1
  O2-  O213  1  0.85617465  0.33501069  0.87831579  1
  O2-  O214  1  0.86160339  0.67424470  0.37518066  1
  O2-  O215  1  0.85807188  0.67198048  0.87354824  1
  O2-  O216  1  0.23777344  0.09523279  0.02085362  1
  O2-  O217  1  0.24240190  0.08930370  0.51712022  1
  O2-  O218  1  0.23941312  0.42650609  0.02206151  1
  O2-  O219  1  0.23962525  0.42690181  0.52266351  1
  O2-  O220  1  0.23813162  0.76101621  0.02117778  1
  O2-  O221  1  0.23604544  0.75928782  0.52213651  1
  O2-  O222  1  0.57354672  0.09657488  0.02361881  1
  O2-  O223  1  0.57340489  0.09474285  0.52029843  1
  O2-  O224  1  0.57215132  0.42926562  0.02029775  1
  O2-  O225  1  0.56986661  0.42583082  0.51828039  1
  O2-  O226  1  0.57092530  0.75931823  0.02187656  1
  O2-  O227  1  0.57639634  0.76049167  0.51527660  1
  O2-  O228  1  0.90318623  0.09544267  0.02297662  1
  O2-  O229  1  0.90195082  0.09683508  0.51465621  1
  O2-  O230  1  0.90526823  0.42633213  0.02594786  1
  O2-  O231  1  0.90829997  0.42572682  0.51703606  1
  O2-  O232  1  0.90522707  0.76118733  0.01961651  1
  O2-  O233  1  0.90439180  0.76505977  0.52109385  1
  O2-  O234  1  0.26164277  0.25999700  0.22633503  1
  O2-  O235  1  0.26204948  0.26224082  0.73361766  1
  O2-  O236  1  0.26231323  0.59459365  0.22921193  1
  O2-  O237  1  0.25983072  0.59094627  0.72421097  1
  O2-  O238  1  0.26333220  0.92651205  0.22918892  1
  O2-  O239  1  0.25854295  0.92724785  0.72889778  1
  O2-  O240  1  0.59862437  0.26647939  0.23123724  1
  O2-  O241  1  0.59363680  0.26113112  0.72851992  1
  O2-  O242  1  0.59494516  0.59612344  0.22966823  1
  O2-  O243  1  0.59238455  0.59271064  0.72822403  1
  O2-  O244  1  0.59657792  0.92831074  0.22890617  1
  O2-  O245  1  0.59867980  0.92905411  0.73269558  1
  O2-  O246  1  0.93206196  0.25924078  0.22898173  1
  O2-  O247  1  0.92842930  0.26042578  0.72936492  1
  O2-  O248  1  0.92826801  0.59544308  0.22980664  1
  O2-  O249  1  0.92884695  0.59879504  0.73396059  1
  O2-  O250  1  0.92686133  0.92580620  0.22610772  1
  O2-  O251  1  0.93119539  0.93174849  0.72934414  1
  O2-  O252  1  0.09848670  0.23589628  0.27182466  1
  O2-  O253  1  0.09290260  0.23946052  0.77258355  1
  O2-  O254  1  0.09632841  0.57032100  0.27197633  1
  O2-  O255  1  0.09599252  0.57150981  0.77272238  1
  O2-  O256  1  0.09676158  0.90191202  0.26545299  1
  O2-  O257  1  0.09631706  0.90281058  0.76927716  1
  O2-  O258  1  0.43026980  0.23768541  0.26720776  1
  O2-  O259  1  0.42631478  0.24250974  0.76603645  1
  O2-  O260  1  0.42712345  0.56832127  0.27246324  1
  O2-  O261  1  0.42565838  0.57343410  0.76170295  1
  O2-  O262  1  0.42770419  0.90103422  0.27289716  1
  O2-  O263  1  0.42255418  0.91094613  0.76747884  1
  O2-  O264  1  0.76137880  0.23756915  0.27232656  1
  O2-  O265  1  0.76185849  0.23943830  0.76862579  1
  O2-  O266  1  0.76038241  0.57363228  0.27208751  1
  O2-  O267  1  0.75861228  0.57535599  0.76516437  1
  O2-  O268  1  0.76094242  0.90450558  0.27077351  1
  O2-  O269  1  0.76375925  0.90780088  0.76959115  1
  O2-  O270  1  0.07116452  0.07095895  0.47812026  1
  O2-  O271  1  0.06949270  0.07144516  0.97778561  1
  O2-  O272  1  0.07345870  0.40162318  0.48289628  1
  O2-  O273  1  0.06982229  0.40217606  0.98420001  1
  O2-  O274  1  0.07046111  0.73802046  0.48003208  1
  O2-  O275  1  0.07270537  0.73625855  0.97712542  1
  O2-  O276  1  0.40487699  0.07353090  0.47823196  1
  O2-  O277  1  0.40159265  0.07069794  0.98364029  1
  O2-  O278  1  0.40140498  0.40051189  0.47819996  1
  O2-  O279  1  0.40210997  0.40668627  0.98343985  1
  O2-  O280  1  0.40313710  0.73591997  0.48401787  1
  O2-  O281  1  0.40110336  0.73623621  0.98179941  1
  O2-  O282  1  0.74005655  0.07100279  0.47712750  1
  O2-  O283  1  0.73860227  0.07165340  0.98010914  1
  O2-  O284  1  0.73754315  0.40812933  0.47773416  1
  O2-  O285  1  0.73742645  0.40405718  0.98545571  1
  O2-  O286  1  0.74157641  0.74219117  0.47386848  1
  O2-  O287  1  0.73765834  0.73792591  0.97887120  1
  O2-  O288  1  0.09565053  0.23820404  0.47638748  1
  O2-  O289  1  0.09612319  0.23879744  0.98002526  1
  O2-  O290  1  0.09710297  0.57061196  0.47764262  1
  O2-  O291  1  0.09698125  0.57137008  0.97677005  1
  O2-  O292  1  0.09715623  0.90222887  0.48345406  1
  O2-  O293  1  0.09581101  0.90269709  0.98116515  1
  O2-  O294  1  0.43058021  0.23537197  0.48271940  1
  O2-  O295  1  0.42464004  0.24432939  0.98384582  1
  O2-  O296  1  0.42861262  0.56864786  0.47897443  1
  O2-  O297  1  0.42511842  0.57381899  0.98609598  1
  O2-  O298  1  0.42756095  0.90740623  0.47696595  1
  O2-  O299  1  0.42480288  0.90664752  0.98300124  1
  O2-  O300  1  0.76080581  0.23919214  0.47638418  1
  O2-  O301  1  0.76371849  0.23849539  0.98258416  1
  O2-  O302  1  0.75998032  0.57561401  0.47474195  1
  O2-  O303  1  0.75925477  0.57238720  0.99022849  1
  O2-  O304  1  0.76175965  0.90694392  0.47745782  1
  O2-  O305  1  0.76345525  0.90632309  0.98074562  1
  O2-  O306  1  0.06713530  0.06874637  0.26877588  1
  O2-  O307  1  0.07209991  0.07331993  0.77555495  1
  O2-  O308  1  0.07085192  0.40139548  0.26709670  1
  O2-  O309  1  0.07386091  0.40266682  0.76706788  1
  O2-  O310  1  0.07200837  0.73750967  0.26975654  1
  O2-  O311  1  0.06899755  0.73860016  0.77175561  1
  O2-  O312  1  0.40284251  0.07092990  0.27154078  1
  O2-  O313  1  0.40422109  0.07407657  0.76587501  1
  O2-  O314  1  0.40126414  0.40119591  0.26977394  1
  O2-  O315  1  0.40330427  0.40491676  0.76795891  1
  O2-  O316  1  0.40111433  0.73467585  0.26725006  1
  O2-  O317  1  0.40178723  0.73708901  0.76727802  1
  O2-  O318  1  0.73739625  0.07224174  0.27128643  1
  O2-  O319  1  0.74132086  0.07080759  0.77044111  1
  O2-  O320  1  0.73688817  0.41125174  0.27651935  1
  O2-  O321  1  0.73686939  0.40324775  0.76310114  1
  O2-  O322  1  0.73847716  0.74046242  0.27241503  1
  O2-  O323  1  0.73891617  0.73951381  0.77349983  1
  O2-  O324  1  0.23929283  0.09248635  0.22784676  1
  O2-  O325  1  0.23996021  0.09119493  0.73467999  1
  O2-  O326  1  0.23925407  0.42712407  0.22726145  1
  O2-  O327  1  0.24075708  0.42606203  0.72763004  1
  O2-  O328  1  0.23824233  0.76116054  0.22832942  1
  O2-  O329  1  0.23527072  0.75979726  0.72940639  1
  O2-  O330  1  0.57249049  0.09934701  0.22710089  1
  O2-  O331  1  0.57677355  0.09371586  0.72776971  1
  O2-  O332  1  0.56900800  0.43014214  0.23434502  1
  O2-  O333  1  0.57203004  0.42613395  0.72803012  1
  O2-  O334  1  0.57421610  0.76067959  0.22754263  1
  O2-  O335  1  0.57461888  0.75947008  0.73183658  1
  O2-  O336  1  0.90411292  0.09551518  0.22898174  1
  O2-  O337  1  0.90195032  0.09751317  0.73462148  1
  O2-  O338  1  0.90616831  0.42964848  0.22862887  1
  O2-  O339  1  0.91020084  0.42287896  0.73060543  1
  O2-  O340  1  0.90664312  0.76256892  0.22976381  1
  O2-  O341  1  0.90269395  0.76449970  0.72945076  1
  O2-  O342  1  0.26121894  0.26039054  0.02274064  1
  O2-  O343  1  0.26330199  0.26218016  0.51770491  1
  O2-  O344  1  0.25927826  0.59235025  0.02393363  1
  O2-  O345  1  0.26288940  0.59387346  0.52287987  1
  O2-  O346  1  0.26119361  0.92653104  0.02214604  1
  O2-  O347  1  0.26013238  0.92743194  0.52000796  1
  O2-  O348  1  0.59878161  0.26387189  0.01921016  1
  O2-  O349  1  0.59369482  0.26149751  0.52004235  1
  O2-  O350  1  0.59132167  0.59224584  0.02173268  1
  O2-  O351  1  0.59538138  0.59733323  0.52194301  1
  O2-  O352  1  0.59489070  0.92792206  0.01992138  1
  O2-  O353  1  0.60005273  0.92979868  0.51668719  1
  O2-  O354  1  0.92825356  0.26201507  0.02374333  1
  O2-  O355  1  0.93056115  0.25932102  0.51874779  1
  O2-  O356  1  0.92774533  0.59464142  0.01947922  1
  O2-  O357  1  0.92929262  0.59912993  0.51548553  1
  O2-  O358  1  0.92570205  0.92807243  0.02468220  1
  O2-  O359  1  0.93045382  0.93026280  0.52170694  1
