# generated using pymatgen
data_Sr7Ca15Pr50Mn72O216
_symmetry_space_group_name_H-M   'P 1'
_cell_length_a   16.55917974
_cell_length_b   16.60555639
_cell_length_c   15.59135020
_cell_angle_alpha   89.99754559
_cell_angle_beta   90.00015748
_cell_angle_gamma   89.99977805
_symmetry_Int_Tables_number   1
_chemical_formula_structural   Sr7Ca15Pr50Mn72O216
_chemical_formula_sum   'Sr7 Ca15 Pr50 Mn72 O216'
_cell_volume   4287.22205190
_cell_formula_units_Z   1
loop_
 _symmetry_equiv_pos_site_id
 _symmetry_equiv_pos_as_xyz
  1  'x, y, z'
loop_
 _atom_type_symbol
 _atom_type_oxidation_number
  Sr2+  2.0
  Ca2+  2.0
  Pr3+  3.0
  Mn3.30+  3.3
  O2-  -2.0
loop_
 _atom_site_type_symbol
 _atom_site_label
 _atom_site_symmetry_multiplicity
 _atom_site_fract_x
 _atom_site_fract_y
 _atom_site_fract_z
 _atom_site_occupancy
  Sr2+  Sr0  1  0.49756224  0.82698739  0.87672652  1
  Sr2+  Sr1  1  0.16510810  0.50879743  0.12542185  1
  Sr2+  Sr2  1  0.33358409  0.99269011  0.37388000  1
  Sr2+  Sr3  1  1.00174020  0.98899106  0.87653953  1
  Sr2+  Sr4  1  0.49831869  0.49262157  0.87229352  1
  Sr2+  Sr5  1  0.33465267  0.98959166  0.87582598  1
  Sr2+  Sr6  1  0.83211614  0.49289116  0.87432618  1
  Ca2+  Ca7  1  -0.00428192  0.01431731  0.12408697  1
  Ca2+  Ca8  1  0.50128442  0.84862268  0.12308365  1
  Ca2+  Ca9  1  0.82925685  0.82035563  0.87500921  1
  Ca2+  Ca10  1  0.33387655  0.34768978  0.62530326  1
  Ca2+  Ca11  1  0.83084406  0.48667746  0.37516450  1
  Ca2+  Ca12  1  0.49613217  0.15162512  0.37537640  1
  Ca2+  Ca13  1  1.00205719  0.65040333  0.37380684  1
  Ca2+  Ca14  1  0.16523733  0.15023768  0.37581486  1
  Ca2+  Ca15  1  -0.00310514  0.34967186  0.12634882  1
  Ca2+  Ca16  1  0.50144510  0.17928922  0.62294997  1
  Ca2+  Ca17  1  0.50218260  0.51530747  0.62450139  1
  Ca2+  Ca18  1  0.99897288  0.65337131  0.87626762  1
  Ca2+  Ca19  1  0.67339368  0.98159216  0.87496086  1
  Ca2+  Ca20  1  0.67088655  0.65015849  0.37617959  1
  Ca2+  Ca21  1  0.16985008  0.84794189  0.62553788  1
  Pr3+  Pr22  1  0.66348517  0.01124528  0.12282676  1
  Pr3+  Pr23  1  0.00088174  0.01106456  0.62730526  1
  Pr3+  Pr24  1  0.66803650  0.98783414  0.37512731  1
  Pr3+  Pr25  1  0.66904466  0.32033690  0.37571093  1
  Pr3+  Pr26  1  -0.00404388  0.67917518  0.62530655  1
  Pr3+  Pr27  1  -0.00178093  0.34650382  0.62415045  1
  Pr3+  Pr28  1  0.33674265  0.31769104  0.37596085  1
  Pr3+  Pr29  1  0.33820879  0.32455720  0.87432878  1
  Pr3+  Pr30  1  0.33498174  0.00948899  0.12353757  1
  Pr3+  Pr31  1  0.66352243  0.67720787  0.62451854  1
  Pr3+  Pr32  1  1.00623622  0.98837824  0.37421088  1
  Pr3+  Pr33  1  0.66806666  0.65626077  0.87428863  1
  Pr3+  Pr34  1  0.66575851  0.34763932  0.12625955  1
  Pr3+  Pr35  1  0.16546463  0.84444328  0.12461412  1
  Pr3+  Pr36  1  0.16314183  0.48944233  0.87498872  1
  Pr3+  Pr37  1  0.82930303  0.15199402  0.87441869  1
  Pr3+  Pr38  1  0.16302000  0.48716457  0.37460256  1
  Pr3+  Pr39  1  0.83544583  0.51352812  0.62441172  1
  Pr3+  Pr40  1  -0.00453590  0.67693912  0.12459723  1
  Pr3+  Pr41  1  0.32994302  0.34628715  0.12574807  1
  Pr3+  Pr42  1  0.16739645  0.17490895  0.12496706  1
  Pr3+  Pr43  1  0.83223383  0.15283214  0.37556290  1
  Pr3+  Pr44  1  0.66146923  0.34889721  0.62387412  1
  Pr3+  Pr45  1  0.49730133  0.48817117  0.37737446  1
  Pr3+  Pr46  1  0.16923566  0.51222032  0.62403638  1
  Pr3+  Pr47  1  0.49575170  0.82335070  0.37332683  1
  Pr3+  Pr48  1  0.49940499  0.15481375  0.87453732  1
  Pr3+  Pr49  1  0.17484133  0.17909891  0.62447420  1
  Pr3+  Pr50  1  0.16205204  0.81917091  0.37587178  1
  Pr3+  Pr51  1  0.83807478  0.84873918  0.12337030  1
  Pr3+  Pr52  1  0.33289213  0.01099895  0.62623685  1
  Pr3+  Pr53  1  0.84146965  0.18102629  0.12550598  1
  Pr3+  Pr54  1  0.50258324  0.17824912  0.12658495  1
  Pr3+  Pr55  1  0.16509838  0.15179147  0.87463296  1
  Pr3+  Pr56  1  1.00280805  0.32332599  0.87644022  1
  Pr3+  Pr57  1  0.66999203  0.32438848  0.87398578  1
  Pr3+  Pr58  1  0.82992137  0.81833026  0.37491146  1
  Pr3+  Pr59  1  0.83452053  0.84533943  0.62655452  1
  Pr3+  Pr60  1  0.32996228  0.68105181  0.62508019  1
  Pr3+  Pr61  1  1.00468641  0.31880290  0.37374587  1
  Pr3+  Pr62  1  0.50273416  0.51360780  0.12509366  1
  Pr3+  Pr63  1  0.16115546  0.81910180  0.87381683  1
  Pr3+  Pr64  1  0.66269103  0.68173568  0.12525417  1
  Pr3+  Pr65  1  0.83791582  0.51264406  0.12587984  1
  Pr3+  Pr66  1  0.66063214  0.01527352  0.62721135  1
  Pr3+  Pr67  1  0.50171324  0.84694728  0.62632794  1
  Pr3+  Pr68  1  0.83661883  0.17945535  0.62494501  1
  Pr3+  Pr69  1  0.32933509  0.67867530  0.12450391  1
  Pr3+  Pr70  1  0.33713638  0.65521260  0.87438307  1
  Pr3+  Pr71  1  0.33453175  0.65500588  0.37516029  1
  Mn3.30+  Mn72  1  0.16417332  -0.00165877  0.00125736  1
  Mn3.30+  Mn73  1  0.16827811  -0.00086801  0.49988467  1
  Mn3.30+  Mn74  1  0.16655561  0.33289787  0.00155562  1
  Mn3.30+  Mn75  1  0.16947823  0.33164269  0.50002527  1
  Mn3.30+  Mn76  1  0.16383309  0.66559849  -0.00065580  1
  Mn3.30+  Mn77  1  0.16382476  0.66741719  0.50033460  1
  Mn3.30+  Mn78  1  0.50212191  -0.00069797  -0.00145748  1
  Mn3.30+  Mn79  1  0.49945495  0.00259179  0.49961352  1
  Mn3.30+  Mn80  1  0.50151036  0.33520594  -0.00028728  1
  Mn3.30+  Mn81  1  0.49867964  0.33200375  0.50201559  1
  Mn3.30+  Mn82  1  0.49922668  0.66999519  0.00101991  1
  Mn3.30+  Mn83  1  0.50098941  0.66693070  0.49850655  1
  Mn3.30+  Mn84  1  0.83306206  -0.00109230  -0.00177457  1
  Mn3.30+  Mn85  1  0.83390630  -0.00082118  0.50157273  1
  Mn3.30+  Mn86  1  0.83539173  0.33425676  0.00012732  1
  Mn3.30+  Mn87  1  0.83331618  0.33447608  0.49887340  1
  Mn3.30+  Mn88  1  0.83191281  0.66839505  -0.00129032  1
  Mn3.30+  Mn89  1  0.83273885  0.66463566  0.49651457  1
  Mn3.30+  Mn90  1  0.00240428  0.16614646  0.24970846  1
  Mn3.30+  Mn91  1  0.00159397  0.16693116  0.74989614  1
  Mn3.30+  Mn92  1  -0.00201042  0.49989382  0.25151904  1
  Mn3.30+  Mn93  1  0.00032845  0.50081266  0.75083465  1
  Mn3.30+  Mn94  1  -0.00172243  0.83259731  0.25041461  1
  Mn3.30+  Mn95  1  -0.00077424  0.83197838  0.75132878  1
  Mn3.30+  Mn96  1  0.33394802  0.16513869  0.25157174  1
  Mn3.30+  Mn97  1  0.33685895  0.16857579  0.74861468  1
  Mn3.30+  Mn98  1  0.33224307  0.50002859  0.25120425  1
  Mn3.30+  Mn99  1  0.33454156  0.49980163  0.74655588  1
  Mn3.30+  Mn100  1  0.33286338  0.83403983  0.24909117  1
  Mn3.30+  Mn101  1  0.33150951  0.83468742  0.75053916  1
  Mn3.30+  Mn102  1  0.66774436  0.16613637  0.25081898  1
  Mn3.30+  Mn103  1  0.66516695  0.16746763  0.74962012  1
  Mn3.30+  Mn104  1  0.66867793  0.50166250  0.25261022  1
  Mn3.30+  Mn105  1  0.66478200  0.50103587  0.74890133  1
  Mn3.30+  Mn106  1  0.66545980  0.83258437  0.25006159  1
  Mn3.30+  Mn107  1  0.66736238  0.83356136  0.75165758  1
  Mn3.30+  Mn108  1  0.16568329  -0.00031279  0.24850081  1
  Mn3.30+  Mn109  1  0.16669460  -0.00261987  0.75062346  1
  Mn3.30+  Mn110  1  0.16593571  0.33056434  0.24970159  1
  Mn3.30+  Mn111  1  0.16988355  0.33330896  0.74904990  1
  Mn3.30+  Mn112  1  0.16341421  0.66547256  0.25023517  1
  Mn3.30+  Mn113  1  0.16430494  0.66757678  0.74942810  1
  Mn3.30+  Mn114  1  0.50083757  0.00047383  0.24978042  1
  Mn3.30+  Mn115  1  0.50076651  0.00131658  0.75213679  1
  Mn3.30+  Mn116  1  0.50024970  0.33283281  0.25183098  1
  Mn3.30+  Mn117  1  0.49978467  0.33467767  0.74673577  1
  Mn3.30+  Mn118  1  0.50146263  0.66850690  0.25133749  1
  Mn3.30+  Mn119  1  0.49856676  0.66789498  0.74890112  1
  Mn3.30+  Mn120  1  0.83544879  -0.00030711  0.25000639  1
  Mn3.30+  Mn121  1  0.83155990  -0.00189886  0.75115139  1
  Mn3.30+  Mn122  1  0.83558109  0.33463350  0.25172438  1
  Mn3.30+  Mn123  1  0.83329425  0.33415734  0.74960285  1
  Mn3.30+  Mn124  1  0.83138609  0.66555678  0.25299898  1
  Mn3.30+  Mn125  1  0.83317222  0.66805089  0.75120776  1
  Mn3.30+  Mn126  1  0.00003423  0.16715455  0.00049479  1
  Mn3.30+  Mn127  1  0.00352689  0.16598439  0.50076466  1
  Mn3.30+  Mn128  1  -0.00045797  0.50010554  0.00015133  1
  Mn3.30+  Mn129  1  -0.00135688  0.50059749  0.49726144  1
  Mn3.30+  Mn130  1  -0.00272626  0.83275308  -0.00319136  1
  Mn3.30+  Mn131  1  0.00037772  0.83175777  0.50147350  1
  Mn3.30+  Mn132  1  0.33463932  0.16707827  0.00002975  1
  Mn3.30+  Mn133  1  0.33674592  0.16676694  0.50001267  1
  Mn3.30+  Mn134  1  0.33286674  0.50081137  0.00013646  1
  Mn3.30+  Mn135  1  0.33399918  0.49913165  0.50188541  1
  Mn3.30+  Mn136  1  0.33310379  0.83377364  0.00054358  1
  Mn3.30+  Mn137  1  0.33141958  0.83486858  0.49912276  1
  Mn3.30+  Mn138  1  0.66887518  0.16657414  0.00026694  1
  Mn3.30+  Mn139  1  0.66409659  0.16695417  0.49929340  1
  Mn3.30+  Mn140  1  0.66770347  0.50112325  -0.00010707  1
  Mn3.30+  Mn141  1  0.66591786  0.50114785  0.49862319  1
  Mn3.30+  Mn142  1  0.66685622  0.83422236  -0.00088208  1
  Mn3.30+  Mn143  1  0.66600124  0.83207671  0.49910564  1
  O2-  O144  1  0.02301059  0.15924621  0.12589852  1
  O2-  O145  1  0.02837267  0.16197933  0.62521907  1
  O2-  O146  1  0.01630640  0.49769680  0.12599166  1
  O2-  O147  1  0.02506635  0.49493278  0.62384228  1
  O2-  O148  1  0.02179278  0.82292779  0.12360321  1
  O2-  O149  1  0.02789023  0.82453121  0.62485162  1
  O2-  O150  1  0.35873070  0.16194385  0.12434579  1
  O2-  O151  1  0.36041993  0.15794785  0.62534389  1
  O2-  O152  1  0.35829399  0.49551374  0.12846985  1
  O2-  O153  1  0.35957721  0.49496867  0.62266658  1
  O2-  O154  1  0.35766815  0.82556511  0.12572178  1
  O2-  O155  1  0.35719745  0.82891762  0.62301851  1
  O2-  O156  1  0.69671435  0.16044685  0.12576950  1
  O2-  O157  1  0.69366133  0.16259951  0.62368379  1
  O2-  O158  1  0.69272036  0.49601138  0.12838657  1
  O2-  O159  1  0.69155884  0.49780381  0.62349443  1
  O2-  O160  1  0.69397058  0.82974059  0.12664017  1
  O2-  O161  1  0.69041371  0.82678749  0.62376804  1
  O2-  O162  1  0.13936619  0.32299191  0.12601543  1
  O2-  O163  1  0.14110709  0.32634488  0.62422274  1
  O2-  O164  1  0.13969352  0.66555521  0.12448433  1
  O2-  O165  1  0.13872627  0.65847842  0.62395934  1
  O2-  O166  1  0.13705337  0.99359700  0.12428623  1
  O2-  O167  1  0.14444553  0.99613257  0.62592159  1
  O2-  O168  1  0.47456949  0.32731597  0.12803965  1
  O2-  O169  1  0.47365197  0.32136171  0.62293346  1
  O2-  O170  1  0.47382602  0.65953941  0.12767428  1
  O2-  O171  1  0.47508782  0.66320840  0.62126595  1
  O2-  O172  1  0.48052409  0.99767554  0.12429539  1
  O2-  O173  1  0.47797440  0.99440565  0.62572507  1
  O2-  O174  1  0.80929161  0.32756475  0.12590883  1
  O2-  O175  1  0.80808784  0.32713982  0.62274162  1
  O2-  O176  1  0.80712122  0.66116063  0.12836087  1
  O2-  O177  1  0.80837562  0.66228684  0.62195764  1
  O2-  O178  1  0.80720514  0.99680857  0.12235883  1
  O2-  O179  1  0.80516423  0.99477887  0.62447241  1
  O2-  O180  1  0.30647184  0.17092353  0.37503504  1
  O2-  O181  1  0.30890070  0.17597996  0.87578791  1
  O2-  O182  1  0.30778867  0.50572727  0.37616950  1
  O2-  O183  1  0.30823887  0.50499731  0.87212728  1
  O2-  O184  1  0.30697837  0.83529585  0.37446093  1
  O2-  O185  1  0.30639017  0.83308253  0.87681683  1
  O2-  O186  1  0.63952049  0.17201449  0.37512390  1
  O2-  O187  1  0.64269409  0.17849312  0.87557021  1
  O2-  O188  1  0.63967881  0.50494209  0.37501538  1
  O2-  O189  1  0.64767501  0.50480739  0.87256671  1
  O2-  O190  1  0.63977950  0.84145698  0.37454546  1
  O2-  O191  1  0.64672949  0.83455793  0.87478789  1
  O2-  O192  1  0.97607020  0.17008003  0.37594365  1
  O2-  O193  1  0.97494077  0.17528449  0.87385886  1
  O2-  O194  1  0.97333725  0.50423685  0.37623859  1
  O2-  O195  1  0.98221354  0.50078102  0.87386092  1
  O2-  O196  1  0.97305418  0.84367026  0.37667310  1
  O2-  O197  1  0.97109840  0.83767889  0.87508556  1
  O2-  O198  1  0.18395975  0.00361150  0.37349857  1
  O2-  O199  1  0.18521863  0.00292702  0.87646983  1
  O2-  O200  1  0.19241711  0.34000415  0.37579810  1
  O2-  O201  1  0.19383722  0.34050250  0.87386807  1
  O2-  O202  1  0.19094542  0.67136515  0.37702677  1
  O2-  O203  1  0.19301837  0.67058273  0.87356869  1
  O2-  O204  1  0.52512616  0.00555481  0.37448736  1
  O2-  O205  1  0.52903931  0.00718817  0.87535262  1
  O2-  O206  1  0.52660269  0.34208632  0.37545574  1
  O2-  O207  1  0.52633508  0.33832058  0.87358347  1
  O2-  O208  1  0.52819550  0.67646808  0.37396923  1
  O2-  O209  1  0.52261585  0.67106645  0.87674853  1
  O2-  O210  1  0.86133236  0.00459332  0.37932306  1
  O2-  O211  1  0.85378285  0.00684574  0.87449196  1
  O2-  O212  1  0.85961266  0.33806021  0.37691771  1
  O2-  O213  1  0.85779197  0.33491075  0.87495367  1
  O2-  O214  1  0.86208996  0.67445645  0.37544924  1
  O2-  O215  1  0.85593921  0.67444947  0.87380106  1
  O2-  O216  1  0.24129257  0.09164083  0.02007269  1
  O2-  O217  1  0.24259629  0.09433505  0.52180302  1
  O2-  O218  1  0.24111031  0.42397676  0.01899854  1
  O2-  O219  1  0.23540581  0.42791845  0.51806338  1
  O2-  O220  1  0.23595735  0.75967930  0.02051911  1
  O2-  O221  1  0.23529425  0.76076540  0.52104961  1
  O2-  O222  1  0.57482965  0.09742398  0.02171514  1
  O2-  O223  1  0.57365970  0.09547450  0.52318050  1
  O2-  O224  1  0.57339636  0.42677359  0.02390055  1
  O2-  O225  1  0.56858150  0.42899904  0.52151050  1
  O2-  O226  1  0.57176075  0.76190961  0.02457815  1
  O2-  O227  1  0.57084418  0.76184267  0.52089664  1
  O2-  O228  1  0.90155418  0.09692097  0.01568326  1
  O2-  O229  1  0.90639315  0.09403275  0.52279460  1
  O2-  O230  1  0.90456687  0.42696598  0.01906231  1
  O2-  O231  1  0.90701511  0.42705141  0.52309009  1
  O2-  O232  1  0.90399100  0.75976429  0.02310500  1
  O2-  O233  1  0.90411205  0.76171871  0.52101439  1
  O2-  O234  1  0.26223423  0.25884838  0.22874152  1
  O2-  O235  1  0.26354570  0.26270849  0.72724129  1
  O2-  O236  1  0.26231918  0.59595346  0.23396560  1
  O2-  O237  1  0.26017153  0.59471013  0.72708240  1
  O2-  O238  1  0.25883031  0.92582010  0.22520857  1
  O2-  O239  1  0.26120982  0.92722548  0.73094539  1
  O2-  O240  1  0.59573860  0.26201333  0.22885278  1
  O2-  O241  1  0.59747164  0.26477917  0.73144182  1
  O2-  O242  1  0.59465197  0.59412423  0.22848072  1
  O2-  O243  1  0.59385327  0.59519003  0.73176618  1
  O2-  O244  1  0.59828354  0.93072939  0.23321043  1
  O2-  O245  1  0.59550410  0.92677109  0.72913662  1
  O2-  O246  1  0.93290359  0.26244468  0.23164011  1
  O2-  O247  1  0.92916000  0.26070735  0.72777127  1
  O2-  O248  1  0.92487099  0.59580330  0.22881081  1
  O2-  O249  1  0.92476147  0.59365096  0.72895218  1
  O2-  O250  1  0.92880580  0.92985370  0.22863586  1
  O2-  O251  1  0.92773869  0.92513885  0.72510383  1
  O2-  O252  1  0.09752176  0.23486281  0.27334518  1
  O2-  O253  1  0.09839696  0.24006331  0.77133167  1
  O2-  O254  1  0.09264683  0.57131856  0.27080048  1
  O2-  O255  1  0.09742298  0.57007363  0.76654498  1
  O2-  O256  1  0.09532197  0.90329438  0.26925125  1
  O2-  O257  1  0.09292215  0.90131937  0.76718916  1
  O2-  O258  1  0.43019840  0.23957557  0.27237354  1
  O2-  O259  1  0.42873709  0.24165867  0.77417750  1
  O2-  O260  1  0.42972306  0.57371545  0.27251303  1
  O2-  O261  1  0.42258425  0.57721295  0.76688930  1
  O2-  O262  1  0.42999102  0.90651088  0.26618901  1
  O2-  O263  1  0.42766907  0.90764835  0.76264591  1
  O2-  O264  1  0.76363756  0.23865933  0.27165117  1
  O2-  O265  1  0.76216558  0.23767536  0.76855237  1
  O2-  O266  1  0.76407545  0.56912178  0.27245475  1
  O2-  O267  1  0.75876303  0.57624789  0.76454247  1
  O2-  O268  1  0.76168750  0.90350173  0.27080580  1
  O2-  O269  1  0.76365835  0.90160394  0.76720812  1
  O2-  O270  1  0.07063001  0.06969915  0.48472896  1
  O2-  O271  1  0.07614520  0.07751190  0.98195020  1
  O2-  O272  1  0.07047003  0.40467333  0.47985554  1
  O2-  O273  1  0.07570484  0.40578737  0.98004596  1
  O2-  O274  1  0.06836083  0.73622854  0.47653531  1
  O2-  O275  1  0.06974982  0.73697258  0.97671445  1
  O2-  O276  1  0.40669225  0.07226801  0.48367789  1
  O2-  O277  1  0.41096070  0.07711646  0.98214093  1
  O2-  O278  1  0.40637761  0.40460147  0.47684610  1
  O2-  O279  1  0.40403336  0.40518796  0.98464025  1
  O2-  O280  1  0.40447769  0.74024015  0.47889639  1
  O2-  O281  1  0.40135675  0.73699973  0.98388626  1
  O2-  O282  1  0.73797334  0.07360530  0.47918236  1
  O2-  O283  1  0.73686874  0.07069795  0.97709037  1
  O2-  O284  1  0.73335322  0.40534669  0.48169785  1
  O2-  O285  1  0.73858136  0.40185872  0.98511826  1
  O2-  O286  1  0.73901244  0.73590103  0.47755510  1
  O2-  O287  1  0.73450260  0.73722479  0.98431525  1
  O2-  O288  1  0.09914213  0.23743618  0.47862972  1
  O2-  O289  1  0.09684510  0.23997037  0.97677506  1
  O2-  O290  1  0.09591454  0.56913579  0.48127122  1
  O2-  O291  1  0.09412998  0.57311776  0.97998054  1
  O2-  O292  1  0.09293911  0.90399821  0.47982484  1
  O2-  O293  1  0.09492375  0.89948103  0.98282570  1
  O2-  O294  1  0.42935185  0.23820506  0.47353942  1
  O2-  O295  1  0.43026653  0.24169652  0.98032674  1
  O2-  O296  1  0.42756511  0.57609203  0.47590927  1
  O2-  O297  1  0.42528202  0.57513306  0.98410345  1
  O2-  O298  1  0.43165755  0.90455126  0.48370571  1
  O2-  O299  1  0.42411494  0.90893100  0.98789249  1
  O2-  O300  1  0.76137408  0.23756774  0.47841639  1
  O2-  O301  1  0.76390396  0.23811566  0.98056935  1
  O2-  O302  1  0.76524102  0.56888502  0.48035117  1
  O2-  O303  1  0.75889973  0.57683678  0.98286421  1
  O2-  O304  1  0.76093991  0.90445532  0.47902980  1
  O2-  O305  1  0.76489727  0.90222262  0.98214028  1
  O2-  O306  1  0.07130795  0.07125035  0.26785551  1
  O2-  O307  1  0.07484500  0.07421966  0.76665858  1
  O2-  O308  1  0.07346076  0.40476345  0.27192687  1
  O2-  O309  1  0.07404813  0.40305752  0.76796715  1
  O2-  O310  1  0.06865330  0.73814563  0.27221216  1
  O2-  O311  1  0.06828232  0.73527168  0.77360956  1
  O2-  O312  1  0.40782906  0.07334671  0.26281685  1
  O2-  O313  1  0.40869126  0.07647745  0.77084079  1
  O2-  O314  1  0.40591396  0.40535203  0.27172178  1
  O2-  O315  1  0.40345271  0.40456878  0.76690928  1
  O2-  O316  1  0.40427687  0.73901224  0.27194031  1
  O2-  O317  1  0.40112863  0.73941692  0.76444293  1
  O2-  O318  1  0.74129180  0.07100710  0.27330791  1
  O2-  O319  1  0.73515947  0.07188322  0.76977009  1
  O2-  O320  1  0.73556707  0.40373974  0.26898845  1
  O2-  O321  1  0.73579190  0.40444175  0.76402340  1
  O2-  O322  1  0.73547475  0.73597421  0.27288852  1
  O2-  O323  1  0.73647925  0.73733370  0.76558703  1
  O2-  O324  1  0.23970156  0.08960964  0.22528327  1
  O2-  O325  1  0.24245470  0.09566727  0.73239982  1
  O2-  O326  1  0.23994602  0.42224509  0.23179953  1
  O2-  O327  1  0.23702810  0.42971651  0.72999442  1
  O2-  O328  1  0.23627365  0.75981061  0.23071629  1
  O2-  O329  1  0.23446089  0.76060881  0.72801409  1
  O2-  O330  1  0.57567079  0.09340149  0.22725876  1
  O2-  O331  1  0.57197065  0.09902049  0.72850751  1
  O2-  O332  1  0.57169823  0.42873146  0.23015427  1
  O2-  O333  1  0.57027870  0.42761697  0.72368131  1
  O2-  O334  1  0.56999350  0.76443435  0.22627779  1
  O2-  O335  1  0.57335987  0.75987067  0.72779170  1
  O2-  O336  1  0.90482629  0.09883757  0.23411830  1
  O2-  O337  1  0.90466023  0.09330149  0.72896170  1
  O2-  O338  1  0.90378174  0.42841157  0.23222595  1
  O2-  O339  1  0.90716095  0.42601548  0.72717945  1
  O2-  O340  1  0.90106801  0.76252530  0.23111356  1
  O2-  O341  1  0.90584558  0.75997918  0.72531638  1
  O2-  O342  1  0.26009092  0.25976151  0.02234612  1
  O2-  O343  1  0.26666826  0.26174576  0.52222968  1
  O2-  O344  1  0.26127734  0.59574373  0.01690586  1
  O2-  O345  1  0.26024003  0.59523863  0.52082909  1
  O2-  O346  1  0.25781288  0.92448971  0.02453149  1
  O2-  O347  1  0.26186082  0.92840796  0.52020714  1
  O2-  O348  1  0.59662677  0.26124616  0.02281603  1
  O2-  O349  1  0.59751474  0.26469589  0.51717699  1
  O2-  O350  1  0.59195480  0.59599771  0.02066705  1
  O2-  O351  1  0.59556837  0.59476521  0.51801657  1
  O2-  O352  1  0.59782155  0.92794623  0.01783705  1
  O2-  O353  1  0.59458012  0.93048424  0.51965389  1
  O2-  O354  1  0.93041829  0.26368411  0.02183299  1
  O2-  O355  1  0.93168349  0.25868291  0.51994819  1
  O2-  O356  1  0.92385753  0.59460916  0.01884957  1
  O2-  O357  1  0.92730606  0.59371848  0.52285924  1
  O2-  O358  1  0.92788364  0.92883402  0.02374151  1
  O2-  O359  1  0.92948799  0.92555391  0.52530565  1
