# generated using pymatgen
data_Sr7Ca15Pr50Mn72O216
_symmetry_space_group_name_H-M   'P 1'
_cell_length_a   16.55894135
_cell_length_b   16.60529179
_cell_length_c   15.59316313
_cell_angle_alpha   90.00425420
_cell_angle_beta   89.99790162
_cell_angle_gamma   90.01189768
_symmetry_Int_Tables_number   1
_chemical_formula_structural   Sr7Ca15Pr50Mn72O216
_chemical_formula_sum   'Sr7 Ca15 Pr50 Mn72 O216'
_cell_volume   4287.59040947
_cell_formula_units_Z   1
loop_
 _symmetry_equiv_pos_site_id
 _symmetry_equiv_pos_as_xyz
  1  'x, y, z'
loop_
 _atom_type_symbol
 _atom_type_oxidation_number
  Sr2+  2.0
  Ca2+  2.0
  Pr3+  3.0
  Mn3.30+  3.3
  O2-  -2.0
loop_
 _atom_site_type_symbol
 _atom_site_label
 _atom_site_symmetry_multiplicity
 _atom_site_fract_x
 _atom_site_fract_y
 _atom_site_fract_z
 _atom_site_occupancy
  Sr2+  Sr0  1  0.83333030  0.17800057  0.62403664  1
  Sr2+  Sr1  1  0.16501465  0.15800503  0.37578012  1
  Sr2+  Sr2  1  -0.00400896  0.00967924  0.12552377  1
  Sr2+  Sr3  1  0.49972008  0.84141106  0.12619780  1
  Sr2+  Sr4  1  0.66143981  0.00927044  0.12887881  1
  Sr2+  Sr5  1  0.66507133  0.67646502  0.62464909  1
  Sr2+  Sr6  1  0.66820890  0.32446387  0.37251274  1
  Ca2+  Ca7  1  0.50487453  0.51336958  0.12384030  1
  Ca2+  Ca8  1  0.33319509  0.67849878  0.12355754  1
  Ca2+  Ca9  1  0.50767584  0.18241452  0.12688842  1
  Ca2+  Ca10  1  0.82718112  0.82087352  0.37303337  1
  Ca2+  Ca11  1  0.83525221  0.51038622  0.12841465  1
  Ca2+  Ca12  1  0.17006153  0.18246420  0.62259504  1
  Ca2+  Ca13  1  0.33964037  0.64825595  0.87884080  1
  Ca2+  Ca14  1  0.17109345  0.51311694  0.62563977  1
  Ca2+  Ca15  1  0.17117691  0.51706492  0.12447204  1
  Ca2+  Ca16  1  0.66173334  0.34924815  0.12688670  1
  Ca2+  Ca17  1  0.82820383  0.48396063  0.37087785  1
  Ca2+  Ca18  1  0.49638866  0.48663407  0.87912784  1
  Ca2+  Ca19  1  0.49899983  0.15328556  0.36962858  1
  Ca2+  Ca20  1  0.66735724  0.98657583  0.37319756  1
  Ca2+  Ca21  1  -0.00427286  0.34929488  0.12705622  1
  Pr3+  Pr22  1  0.49896736  0.48709129  0.37140091  1
  Pr3+  Pr23  1  1.00409601  0.65053901  0.87656262  1
  Pr3+  Pr24  1  1.00142096  0.98834165  0.37427395  1
  Pr3+  Pr25  1  0.83463562  0.84464823  0.62337126  1
  Pr3+  Pr26  1  1.00307958  0.32129744  0.87792605  1
  Pr3+  Pr27  1  0.66394312  0.01350207  0.62238905  1
  Pr3+  Pr28  1  0.33284323  0.01237306  0.12594835  1
  Pr3+  Pr29  1  0.33064433  0.67679843  0.62577589  1
  Pr3+  Pr30  1  0.83450196  0.50894864  0.62168117  1
  Pr3+  Pr31  1  1.00020626  0.65261173  0.37350948  1
  Pr3+  Pr32  1  0.66745570  0.32189235  0.87810994  1
  Pr3+  Pr33  1  0.99960066  0.32130610  0.37164037  1
  Pr3+  Pr34  1  0.50418389  0.51293324  0.62558230  1
  Pr3+  Pr35  1  0.32724416  0.34844354  0.62475177  1
  Pr3+  Pr36  1  0.17047055  0.84544560  0.12571994  1
  Pr3+  Pr37  1  0.33958183  0.31786078  0.37284611  1
  Pr3+  Pr38  1  0.83199140  0.48674899  0.87772292  1
  Pr3+  Pr39  1  1.00234426  0.98673506  0.87548893  1
  Pr3+  Pr40  1  0.50346418  0.18095190  0.62379279  1
  Pr3+  Pr41  1  0.32893980  0.01762416  0.62442712  1
  Pr3+  Pr42  1  0.66453105  0.67723357  0.12550934  1
  Pr3+  Pr43  1  0.16994132  0.84629764  0.62429106  1
  Pr3+  Pr44  1  0.16503310  0.81728748  0.87572022  1
  Pr3+  Pr45  1  0.83012961  0.81945668  0.87668242  1
  Pr3+  Pr46  1  0.33684451  0.98656839  0.87565015  1
  Pr3+  Pr47  1  0.33720615  0.32330740  0.87740305  1
  Pr3+  Pr48  1  0.49709965  0.15420192  0.87795633  1
  Pr3+  Pr49  1  0.50087807  0.82278115  0.37145393  1
  Pr3+  Pr50  1  0.66492886  0.34531055  0.62328067  1
  Pr3+  Pr51  1  0.50482883  0.84520739  0.62394946  1
  Pr3+  Pr52  1  0.16577230  0.48782366  0.87730865  1
  Pr3+  Pr53  1  0.67220670  0.65387892  0.37335993  1
  Pr3+  Pr54  1  0.33713984  0.65386356  0.37205272  1
  Pr3+  Pr55  1  0.16470091  0.15538955  0.87544883  1
  Pr3+  Pr56  1  0.16685340  0.17965346  0.12761557  1
  Pr3+  Pr57  1  0.16313715  0.82065268  0.37440830  1
  Pr3+  Pr58  1  0.49537149  0.81740981  0.87780990  1
  Pr3+  Pr59  1  0.33607282  0.98961089  0.37461107  1
  Pr3+  Pr60  1  -0.00344524  0.01596694  0.62422663  1
  Pr3+  Pr61  1  0.83020950  0.15440675  0.87552198  1
  Pr3+  Pr62  1  0.00076950  0.34313119  0.62258594  1
  Pr3+  Pr63  1  0.83507161  0.84644105  0.12672419  1
  Pr3+  Pr64  1  0.66748353  0.98716960  0.87631998  1
  Pr3+  Pr65  1  -0.00167645  0.67586355  0.62516152  1
  Pr3+  Pr66  1  0.33256130  0.34891069  0.12556844  1
  Pr3+  Pr67  1  -0.00144483  0.67621037  0.12510669  1
  Pr3+  Pr68  1  0.82673601  0.15390323  0.37517126  1
  Pr3+  Pr69  1  0.66716274  0.65206578  0.87666500  1
  Pr3+  Pr70  1  0.16450356  0.48783958  0.37199137  1
  Pr3+  Pr71  1  0.83526500  0.18019286  0.12665184  1
  Mn3.30+  Mn72  1  0.16679035  0.00066826  0.00065416  1
  Mn3.30+  Mn73  1  0.16619314  0.00245257  0.49990621  1
  Mn3.30+  Mn74  1  0.16653290  0.33601006  0.00462936  1
  Mn3.30+  Mn75  1  0.16713302  0.33396415  0.49824251  1
  Mn3.30+  Mn76  1  0.17115823  0.66478828  0.00059799  1
  Mn3.30+  Mn77  1  0.16663552  0.66476946  0.49993617  1
  Mn3.30+  Mn78  1  0.50060085  0.00025206  0.00277473  1
  Mn3.30+  Mn79  1  0.50034439  0.00131764  0.49722273  1
  Mn3.30+  Mn80  1  0.50212793  0.33521749  0.00300762  1
  Mn3.30+  Mn81  1  0.49903235  0.33227706  0.49787560  1
  Mn3.30+  Mn82  1  0.49797334  0.66294515  0.00185792  1
  Mn3.30+  Mn83  1  0.50110594  0.66638386  0.49832815  1
  Mn3.30+  Mn84  1  0.83211396  0.00064166  0.00117629  1
  Mn3.30+  Mn85  1  0.83154045  -0.00122043  0.49829972  1
  Mn3.30+  Mn86  1  0.83300349  0.33484435  0.00431390  1
  Mn3.30+  Mn87  1  0.83270204  0.33359883  0.49869348  1
  Mn3.30+  Mn88  1  0.83344360  0.66348365  0.00139407  1
  Mn3.30+  Mn89  1  0.83340006  0.66648830  0.49862374  1
  Mn3.30+  Mn90  1  -0.00133079  0.16738119  0.24892893  1
  Mn3.30+  Mn91  1  0.00107423  0.16799880  0.74932398  1
  Mn3.30+  Mn92  1  -0.00192567  0.49862704  0.24828203  1
  Mn3.30+  Mn93  1  0.00249282  0.49808504  0.74852085  1
  Mn3.30+  Mn94  1  -0.00281187  0.83246212  0.25162693  1
  Mn3.30+  Mn95  1  0.00073900  0.83168400  0.74943177  1
  Mn3.30+  Mn96  1  0.33713403  0.16707878  0.24841357  1
  Mn3.30+  Mn97  1  0.33207302  0.16893631  0.75006182  1
  Mn3.30+  Mn98  1  0.33356794  0.50203609  0.24563302  1
  Mn3.30+  Mn99  1  0.33427304  0.50087888  0.75198446  1
  Mn3.30+  Mn100  1  0.33282723  0.83275244  0.24961431  1
  Mn3.30+  Mn101  1  0.33396480  0.83138799  0.75032560  1
  Mn3.30+  Mn102  1  0.66395179  0.16705911  0.25030201  1
  Mn3.30+  Mn103  1  0.66574306  0.16755177  0.74991597  1
  Mn3.30+  Mn104  1  0.66859010  0.49831463  0.24654964  1
  Mn3.30+  Mn105  1  0.66484624  0.49952409  0.75269026  1
  Mn3.30+  Mn106  1  0.66716297  0.83415823  0.25097423  1
  Mn3.30+  Mn107  1  0.66567282  0.83212233  0.75001794  1
  Mn3.30+  Mn108  1  0.16576180  0.00166109  0.25026327  1
  Mn3.30+  Mn109  1  0.16716210  0.00158557  0.74952072  1
  Mn3.30+  Mn110  1  0.16576616  0.33549018  0.24748346  1
  Mn3.30+  Mn111  1  0.16771853  0.33409285  0.74982576  1
  Mn3.30+  Mn112  1  0.16818389  0.66601537  0.24844507  1
  Mn3.30+  Mn113  1  0.16932162  0.66384558  0.75083023  1
  Mn3.30+  Mn114  1  0.50171580  0.00196329  0.25055465  1
  Mn3.30+  Mn115  1  0.49893517  -0.00034320  0.74935979  1
  Mn3.30+  Mn116  1  0.50267225  0.33223110  0.24727318  1
  Mn3.30+  Mn117  1  0.49878115  0.33499266  0.75103425  1
  Mn3.30+  Mn118  1  0.50097318  0.66516692  0.24725614  1
  Mn3.30+  Mn119  1  0.49801357  0.66441247  0.75240428  1
  Mn3.30+  Mn120  1  0.83038698  -0.00022707  0.25116923  1
  Mn3.30+  Mn121  1  0.83348161  -0.00009537  0.74969224  1
  Mn3.30+  Mn122  1  0.83172057  0.33533348  0.24714492  1
  Mn3.30+  Mn123  1  0.83437286  0.33328313  0.75047089  1
  Mn3.30+  Mn124  1  0.83353801  0.66471332  0.25013664  1
  Mn3.30+  Mn125  1  0.83350071  0.66481367  0.74972850  1
  Mn3.30+  Mn126  1  -0.00083153  0.16774462  0.00183755  1
  Mn3.30+  Mn127  1  -0.00014244  0.16778162  0.49965696  1
  Mn3.30+  Mn128  1  0.00029887  0.49819483  0.00504678  1
  Mn3.30+  Mn129  1  0.00092500  0.49885906  0.49822011  1
  Mn3.30+  Mn130  1  -0.00016528  0.83171858  0.00018433  1
  Mn3.30+  Mn131  1  -0.00159120  0.83224773  0.49903954  1
  Mn3.30+  Mn132  1  0.33511234  0.16817972  0.00335956  1
  Mn3.30+  Mn133  1  0.33412249  0.16752506  0.49824657  1
  Mn3.30+  Mn134  1  0.33533767  0.50263710  0.00265438  1
  Mn3.30+  Mn135  1  0.33258873  0.50004089  0.49904649  1
  Mn3.30+  Mn136  1  0.33300494  0.83068186  0.00074611  1
  Mn3.30+  Mn137  1  0.33436053  0.83330668  0.49956974  1
  Mn3.30+  Mn138  1  0.66494452  0.16748944  0.00378161  1
  Mn3.30+  Mn139  1  0.66442425  0.16686335  0.49619263  1
  Mn3.30+  Mn140  1  0.66514400  0.49795507  0.00246433  1
  Mn3.30+  Mn141  1  0.66800746  0.49986219  0.49800490  1
  Mn3.30+  Mn142  1  0.66444537  0.83268408  0.00058855  1
  Mn3.30+  Mn143  1  0.66854199  0.83350403  0.49894579  1
  O2-  O144  1  0.02328270  0.16124933  0.12484336  1
  O2-  O145  1  0.02664329  0.16395243  0.62692904  1
  O2-  O146  1  0.02857842  0.49696807  0.12571363  1
  O2-  O147  1  0.02968184  0.49185516  0.62227478  1
  O2-  O148  1  0.02583897  0.82610733  0.12486706  1
  O2-  O149  1  0.02743111  0.82453361  0.62523596  1
  O2-  O150  1  0.36369763  0.16052737  0.12408961  1
  O2-  O151  1  0.35977456  0.16550151  0.62325321  1
  O2-  O152  1  0.36373833  0.49440308  0.12473146  1
  O2-  O153  1  0.36011916  0.49585496  0.62522564  1
  O2-  O154  1  0.34933422  0.82773322  0.12537451  1
  O2-  O155  1  0.36039763  0.82508125  0.62589116  1
  O2-  O156  1  0.69252228  0.15991519  0.12532304  1
  O2-  O157  1  0.68380116  0.16200111  0.62433695  1
  O2-  O158  1  0.69450326  0.49696314  0.12358529  1
  O2-  O159  1  0.68912054  0.49531481  0.62637171  1
  O2-  O160  1  0.69048114  0.82762373  0.12426835  1
  O2-  O161  1  0.69002677  0.83207964  0.62531799  1
  O2-  O162  1  0.13852303  0.32560920  0.12553074  1
  O2-  O163  1  0.14496361  0.32624072  0.62330128  1
  O2-  O164  1  0.14231900  0.66490522  0.12494638  1
  O2-  O165  1  0.14266369  0.65945356  0.62347794  1
  O2-  O166  1  0.14550917  0.99386899  0.12479034  1
  O2-  O167  1  0.14026649  0.99274893  0.62499309  1
  O2-  O168  1  0.47423077  0.32443802  0.12483505  1
  O2-  O169  1  0.47205304  0.32798109  0.62330198  1
  O2-  O170  1  0.47529581  0.65983293  0.12497947  1
  O2-  O171  1  0.47465463  0.66071017  0.62568138  1
  O2-  O172  1  0.47558527  0.99428399  0.12523475  1
  O2-  O173  1  0.47366587  0.99227397  0.62401498  1
  O2-  O174  1  0.80298388  0.32492558  0.12431951  1
  O2-  O175  1  0.80926120  0.33441303  0.62791488  1
  O2-  O176  1  0.80884743  0.65784301  0.12440523  1
  O2-  O177  1  0.81393693  0.65722776  0.62554535  1
  O2-  O178  1  0.81235540  0.99468266  0.12674418  1
  O2-  O179  1  0.80818829  0.99337989  0.62490106  1
  O2-  O180  1  0.31365031  0.16941530  0.37372365  1
  O2-  O181  1  0.30841992  0.17332404  0.87881086  1
  O2-  O182  1  0.30844050  0.50576100  0.37159046  1
  O2-  O183  1  0.30818415  0.50223455  0.87799168  1
  O2-  O184  1  0.30706278  0.83944558  0.37510308  1
  O2-  O185  1  0.30748777  0.84092157  0.87394790  1
  O2-  O186  1  0.63986754  0.17269279  0.37453988  1
  O2-  O187  1  0.64100367  0.17303410  0.87596891  1
  O2-  O188  1  0.64280021  0.50489384  0.37248007  1
  O2-  O189  1  0.63935549  0.50315825  0.87681396  1
  O2-  O190  1  0.64461942  0.83531448  0.37591524  1
  O2-  O191  1  0.64088592  0.83833561  0.87480823  1
  O2-  O192  1  0.97306313  0.17241635  0.37252544  1
  O2-  O193  1  0.97505387  0.17340926  0.87570020  1
  O2-  O194  1  0.97147323  0.50514604  0.37380910  1
  O2-  O195  1  0.97716609  0.50241875  0.87813249  1
  O2-  O196  1  0.97097772  0.83922849  0.37677481  1
  O2-  O197  1  0.97474502  0.83682850  0.87358150  1
  O2-  O198  1  0.19110955  0.00094667  0.37604204  1
  O2-  O199  1  0.19361025  0.00717951  0.87466607  1
  O2-  O200  1  0.19419527  0.34099507  0.37132246  1
  O2-  O201  1  0.19266110  0.34024147  0.87995912  1
  O2-  O202  1  0.19235592  0.67191936  0.37492184  1
  O2-  O203  1  0.19538229  0.67026283  0.87631917  1
  O2-  O204  1  0.52395171  0.00710353  0.37607027  1
  O2-  O205  1  0.52258921  0.00627127  0.87519080  1
  O2-  O206  1  0.51813481  0.34223450  0.37279143  1
  O2-  O207  1  0.52337998  0.34059440  0.87821597  1
  O2-  O208  1  0.52592419  0.67148445  0.37205928  1
  O2-  O209  1  0.52458105  0.67210518  0.87705994  1
  O2-  O210  1  0.85848755  0.00634304  0.37502887  1
  O2-  O211  1  0.85799307  0.00494543  0.87376002  1
  O2-  O212  1  0.85612231  0.33837861  0.37172274  1
  O2-  O213  1  0.85952851  0.33932724  0.87655897  1
  O2-  O214  1  0.85873436  0.67740061  0.37452891  1
  O2-  O215  1  0.86020620  0.67092692  0.87489856  1
  O2-  O216  1  0.24014094  0.09703384  0.02201234  1
  O2-  O217  1  0.23991444  0.09685649  0.52323894  1
  O2-  O218  1  0.23845976  0.43109114  0.02394997  1
  O2-  O219  1  0.23762770  0.43068885  0.52051402  1
  O2-  O220  1  0.23394109  0.76510172  0.01591173  1
  O2-  O221  1  0.23790592  0.76063057  0.52040827  1
  O2-  O222  1  0.56796713  0.10044948  0.01606687  1
  O2-  O223  1  0.57034616  0.09323759  0.52290169  1
  O2-  O224  1  0.57105078  0.42892164  0.02340609  1
  O2-  O225  1  0.57072885  0.42627617  0.51897440  1
  O2-  O226  1  0.57354739  0.75705339  0.01709377  1
  O2-  O227  1  0.57055120  0.76464985  0.51575551  1
  O2-  O228  1  0.90231942  0.09766646  0.01519244  1
  O2-  O229  1  0.90731506  0.09187385  0.51762000  1
  O2-  O230  1  0.90127384  0.43070446  0.02071476  1
  O2-  O231  1  0.91011638  0.42611967  0.52231742  1
  O2-  O232  1  0.90511483  0.75927018  0.02079663  1
  O2-  O233  1  0.90812617  0.75834115  0.52535525  1
  O2-  O234  1  0.26307816  0.26097308  0.22844193  1
  O2-  O235  1  0.26347204  0.26530381  0.73388806  1
  O2-  O236  1  0.26685124  0.59868362  0.23053213  1
  O2-  O237  1  0.26425654  0.59419423  0.73031789  1
  O2-  O238  1  0.26023621  0.92836605  0.23090962  1
  O2-  O239  1  0.26148625  0.92950383  0.72843900  1
  O2-  O240  1  0.59695999  0.26366433  0.22742660  1
  O2-  O241  1  0.59368480  0.26200311  0.73092796  1
  O2-  O242  1  0.59848124  0.59364969  0.23085913  1
  O2-  O243  1  0.59216114  0.59404708  0.73366608  1
  O2-  O244  1  0.59060630  0.92565357  0.24010958  1
  O2-  O245  1  0.59559910  0.92897257  0.72997115  1
  O2-  O246  1  0.92666516  0.26350904  0.22794651  1
  O2-  O247  1  0.93070418  0.26530298  0.73283035  1
  O2-  O248  1  0.93135685  0.59597701  0.23192679  1
  O2-  O249  1  0.93114169  0.59148111  0.73078439  1
  O2-  O250  1  0.92541605  0.92437580  0.23276826  1
  O2-  O251  1  0.92905302  0.92609084  0.72830092  1
  O2-  O252  1  0.09135582  0.24090340  0.26745919  1
  O2-  O253  1  0.09584410  0.24093834  0.77372115  1
  O2-  O254  1  0.09431346  0.57399410  0.27090469  1
  O2-  O255  1  0.09527093  0.57163375  0.77274021  1
  O2-  O256  1  0.09138872  0.90415877  0.27109056  1
  O2-  O257  1  0.09534592  0.90472072  0.77146151  1
  O2-  O258  1  0.42869112  0.23943605  0.27124447  1
  O2-  O259  1  0.42884548  0.23891311  0.77150202  1
  O2-  O260  1  0.42795233  0.57323662  0.27293527  1
  O2-  O261  1  0.43108557  0.56668175  0.76957911  1
  O2-  O262  1  0.42400415  0.90783846  0.27251369  1
  O2-  O263  1  0.42855770  0.90380505  0.77089956  1
  O2-  O264  1  0.76435767  0.23520265  0.26686266  1
  O2-  O265  1  0.76111941  0.24180920  0.77254652  1
  O2-  O266  1  0.76286852  0.57366119  0.27318132  1
  O2-  O267  1  0.76140375  0.57181398  0.77221566  1
  O2-  O268  1  0.76261581  0.90261656  0.26711151  1
  O2-  O269  1  0.76202307  0.90544066  0.77142913  1
  O2-  O270  1  0.06899050  0.07015535  0.48280171  1
  O2-  O271  1  0.07398365  0.07287284  0.97660677  1
  O2-  O272  1  0.07178520  0.40676597  0.47484160  1
  O2-  O273  1  0.07280136  0.40651497  0.97948009  1
  O2-  O274  1  0.07066509  0.73916451  0.47814005  1
  O2-  O275  1  0.07300982  0.73664615  0.97841175  1
  O2-  O276  1  0.40151918  0.06915861  0.48497975  1
  O2-  O277  1  0.40475596  0.07077429  0.97889827  1
  O2-  O278  1  0.40284817  0.40515582  0.47970656  1
  O2-  O279  1  0.40223878  0.40385504  0.98436875  1
  O2-  O280  1  0.40681950  0.73771717  0.47805130  1
  O2-  O281  1  0.40479407  0.73870895  0.97925364  1
  O2-  O282  1  0.73502158  0.07074494  0.48020789  1
  O2-  O283  1  0.73821246  0.07374060  0.97636900  1
  O2-  O284  1  0.74054195  0.40664934  0.48722556  1
  O2-  O285  1  0.73937237  0.40641155  0.97664227  1
  O2-  O286  1  0.73843710  0.73841322  0.48182680  1
  O2-  O287  1  0.74026000  0.73830971  0.97933470  1
  O2-  O288  1  0.09028694  0.24409542  0.48001933  1
  O2-  O289  1  0.09549817  0.23864452  0.98008405  1
  O2-  O290  1  0.09314446  0.57264968  0.47497559  1
  O2-  O291  1  0.09705895  0.57340619  0.97973792  1
  O2-  O292  1  0.09261579  0.90378231  0.47983242  1
  O2-  O293  1  0.09374882  0.90454088  0.97788231  1
  O2-  O294  1  0.43071618  0.23643617  0.47751504  1
  O2-  O295  1  0.42728211  0.24125641  0.97739663  1
  O2-  O296  1  0.42767491  0.57035121  0.47856873  1
  O2-  O297  1  0.43040957  0.56992871  0.97808079  1
  O2-  O298  1  0.42994486  0.90598169  0.47774825  1
  O2-  O299  1  0.42426829  0.90543709  0.97879610  1
  O2-  O300  1  0.75990877  0.23754393  0.48275087  1
  O2-  O301  1  0.76266604  0.23853103  0.97897275  1
  O2-  O302  1  0.76388262  0.57228449  0.47784952  1
  O2-  O303  1  0.75962432  0.57275931  0.97593286  1
  O2-  O304  1  0.76478755  0.90117955  0.48253270  1
  O2-  O305  1  0.75954400  0.90533539  0.97947546  1
  O2-  O306  1  0.07146686  0.07166647  0.26923068  1
  O2-  O307  1  0.07248028  0.07122944  0.77202153  1
  O2-  O308  1  0.07089894  0.40888815  0.27327244  1
  O2-  O309  1  0.07239051  0.40392417  0.77089250  1
  O2-  O310  1  0.06990132  0.73956090  0.27194800  1
  O2-  O311  1  0.07338695  0.73665003  0.77119580  1
  O2-  O312  1  0.40275498  0.06918817  0.26739522  1
  O2-  O313  1  0.40223044  0.07211485  0.76845592  1
  O2-  O314  1  0.40277248  0.40527334  0.26731334  1
  O2-  O315  1  0.40136568  0.40344175  0.76753087  1
  O2-  O316  1  0.40718637  0.74223056  0.27118249  1
  O2-  O317  1  0.40378864  0.73393924  0.77300381  1
  O2-  O318  1  0.73711926  0.07181591  0.27457808  1
  O2-  O319  1  0.73715293  0.07305704  0.76981114  1
  O2-  O320  1  0.73999688  0.40741837  0.26586335  1
  O2-  O321  1  0.73986977  0.40566659  0.77208847  1
  O2-  O322  1  0.73923213  0.73634424  0.26525062  1
  O2-  O323  1  0.73919242  0.74012489  0.77306047  1
  O2-  O324  1  0.24259582  0.09541792  0.22686743  1
  O2-  O325  1  0.23770168  0.09886934  0.72825125  1
  O2-  O326  1  0.23806002  0.43217553  0.22577491  1
  O2-  O327  1  0.23762403  0.43029824  0.73042738  1
  O2-  O328  1  0.23463106  0.76473953  0.23546341  1
  O2-  O329  1  0.23781398  0.76188865  0.72832690  1
  O2-  O330  1  0.56805136  0.09824839  0.23134411  1
  O2-  O331  1  0.56893103  0.09414648  0.73088805  1
  O2-  O332  1  0.56834927  0.43010839  0.23075441  1
  O2-  O333  1  0.57252610  0.42454393  0.72634680  1
  O2-  O334  1  0.57577289  0.75741747  0.23220337  1
  O2-  O335  1  0.56631680  0.76317406  0.73447863  1
  O2-  O336  1  0.90155383  0.09655018  0.23426322  1
  O2-  O337  1  0.90808125  0.09228308  0.73216355  1
  O2-  O338  1  0.90533655  0.42783372  0.22678918  1
  O2-  O339  1  0.90573181  0.42829463  0.72992823  1
  O2-  O340  1  0.90648113  0.75819367  0.22492176  1
  O2-  O341  1  0.90560561  0.75929934  0.72919009  1
  O2-  O342  1  0.26050170  0.26286131  0.02380996  1
  O2-  O343  1  0.26542746  0.26407573  0.51430989  1
  O2-  O344  1  0.26541698  0.59727082  0.02222635  1
  O2-  O345  1  0.26564118  0.59557125  0.51652909  1
  O2-  O346  1  0.26132103  0.92875551  0.01870290  1
  O2-  O347  1  0.26065800  0.92858118  0.52206796  1
  O2-  O348  1  0.59910621  0.26554271  0.01768105  1
  O2-  O349  1  0.59243800  0.26117181  0.52277598  1
  O2-  O350  1  0.59783985  0.59491234  0.01868662  1
  O2-  O351  1  0.59224017  0.59237543  0.51584693  1
  O2-  O352  1  0.59248082  0.92979623  0.01222544  1
  O2-  O353  1  0.59447990  0.92782089  0.52009922  1
  O2-  O354  1  0.92787986  0.26523326  0.02182950  1
  O2-  O355  1  0.92834455  0.26296032  0.51635275  1
  O2-  O356  1  0.93244356  0.59485027  0.01712705  1
  O2-  O357  1  0.93091790  0.59232628  0.52068260  1
  O2-  O358  1  0.92421326  0.92415188  0.01508132  1
  O2-  O359  1  0.92976441  0.92617792  0.52355744  1
