# generated using pymatgen
data_Sr7Ca15Pr50Mn72O216
_symmetry_space_group_name_H-M   'P 1'
_cell_length_a   16.55795612
_cell_length_b   16.60555512
_cell_length_c   15.59102264
_cell_angle_alpha   89.99883900
_cell_angle_beta   89.99404492
_cell_angle_gamma   90.00771585
_symmetry_Int_Tables_number   1
_chemical_formula_structural   Sr7Ca15Pr50Mn72O216
_chemical_formula_sum   'Sr7 Ca15 Pr50 Mn72 O216'
_cell_volume   4286.81480276
_cell_formula_units_Z   1
loop_
 _symmetry_equiv_pos_site_id
 _symmetry_equiv_pos_as_xyz
  1  'x, y, z'
loop_
 _atom_type_symbol
 _atom_type_oxidation_number
  Sr2+  2.0
  Ca2+  2.0
  Pr3+  3.0
  Mn3.30+  3.3
  O2-  -2.0
loop_
 _atom_site_type_symbol
 _atom_site_label
 _atom_site_symmetry_multiplicity
 _atom_site_fract_x
 _atom_site_fract_y
 _atom_site_fract_z
 _atom_site_occupancy
  Sr2+  Sr0  1  0.83372018  0.84457282  0.62678066  1
  Sr2+  Sr1  1  0.83249051  0.82419807  0.87315575  1
  Sr2+  Sr2  1  0.16652804  0.49087443  0.37537646  1
  Sr2+  Sr3  1  0.99849087  0.32385949  0.87548130  1
  Sr2+  Sr4  1  0.50289279  0.50950779  0.62594060  1
  Sr2+  Sr5  1  0.83262232  0.15921118  0.87656602  1
  Sr2+  Sr6  1  0.66630260  0.00692788  0.62568826  1
  Ca2+  Ca7  1  0.33121278  0.68087598  0.62831913  1
  Ca2+  Ca8  1  0.83103383  0.48599702  0.87363815  1
  Ca2+  Ca9  1  0.49497314  0.48466911  0.37540298  1
  Ca2+  Ca10  1  0.66198115  0.34750569  0.62646081  1
  Ca2+  Ca11  1  0.33296434  0.34811505  0.12621772  1
  Ca2+  Ca12  1  0.49734807  0.48444675  0.87428414  1
  Ca2+  Ca13  1  0.50415642  0.18181983  0.12750461  1
  Ca2+  Ca14  1  0.82863929  0.15123530  0.37367192  1
  Ca2+  Ca15  1  0.66133925  0.01878382  0.12500826  1
  Ca2+  Ca16  1  1.00226161  0.65399143  0.87288071  1
  Ca2+  Ca17  1  0.49458889  0.14820014  0.37332634  1
  Ca2+  Ca18  1  0.33836475  0.64964466  0.87363311  1
  Ca2+  Ca19  1  0.16018222  0.81603165  0.87508285  1
  Ca2+  Ca20  1  0.33747542  0.98545506  0.37409260  1
  Ca2+  Ca21  1  -0.00404046  0.01554537  0.12445243  1
  Pr3+  Pr22  1  0.50361514  0.84881823  0.12375999  1
  Pr3+  Pr23  1  0.33102876  0.01252560  0.62299398  1
  Pr3+  Pr24  1  0.66761098  0.98964013  0.37395716  1
  Pr3+  Pr25  1  -0.00199052  0.67993247  0.62701561  1
  Pr3+  Pr26  1  -0.00190312  0.67694331  0.12283157  1
  Pr3+  Pr27  1  0.17414604  0.51664649  0.62617105  1
  Pr3+  Pr28  1  0.50124105  0.84446735  0.62672212  1
  Pr3+  Pr29  1  0.83732151  0.84948480  0.12269884  1
  Pr3+  Pr30  1  0.67176397  0.65067982  0.87384587  1
  Pr3+  Pr31  1  1.00365565  0.65443444  0.37653192  1
  Pr3+  Pr32  1  0.17011205  0.51092568  0.12344417  1
  Pr3+  Pr33  1  0.17003667  0.18278775  0.12678941  1
  Pr3+  Pr34  1  0.32974561  0.67799140  0.12245408  1
  Pr3+  Pr35  1  0.33330489  0.34724623  0.62514930  1
  Pr3+  Pr36  1  0.16137243  0.15725451  0.87598896  1
  Pr3+  Pr37  1  0.17042286  0.84512898  0.62729202  1
  Pr3+  Pr38  1  0.33858088  0.65127711  0.37585895  1
  Pr3+  Pr39  1  0.83460447  0.17778485  0.12649143  1
  Pr3+  Pr40  1  0.67259314  0.98920801  0.87669851  1
  Pr3+  Pr41  1  0.49935293  0.15538327  0.87674831  1
  Pr3+  Pr42  1  0.66578772  0.65252404  0.37622022  1
  Pr3+  Pr43  1  0.66418376  0.67902323  0.12327755  1
  Pr3+  Pr44  1  -0.00206899  0.34550338  0.62625320  1
  Pr3+  Pr45  1  0.16863961  0.84770101  0.12247877  1
  Pr3+  Pr46  1  0.49558453  0.82389940  0.37558145  1
  Pr3+  Pr47  1  0.83191881  0.17598989  0.62353829  1
  Pr3+  Pr48  1  0.16976071  0.17992161  0.62399727  1
  Pr3+  Pr49  1  0.82869225  0.82059818  0.37589106  1
  Pr3+  Pr50  1  0.83034251  0.48736831  0.37588869  1
  Pr3+  Pr51  1  0.16455029  0.48796202  0.87446268  1
  Pr3+  Pr52  1  0.16734102  0.82245713  0.37399714  1
  Pr3+  Pr53  1  0.34080587  0.32133531  0.37414243  1
  Pr3+  Pr54  1  1.00463016  0.32095989  0.37434322  1
  Pr3+  Pr55  1  0.67022602  0.32296902  0.87316432  1
  Pr3+  Pr56  1  0.66649836  0.31877973  0.37680649  1
  Pr3+  Pr57  1  0.16732436  0.15424661  0.37396533  1
  Pr3+  Pr58  1  0.33354719  0.98769772  0.87673286  1
  Pr3+  Pr59  1  0.99977018  0.98775426  0.37203345  1
  Pr3+  Pr60  1  0.66242353  0.67851472  0.62682278  1
  Pr3+  Pr61  1  0.50130521  0.51141777  0.12403632  1
  Pr3+  Pr62  1  -0.00501989  0.01070922  0.62494620  1
  Pr3+  Pr63  1  0.83279800  0.51009348  0.62796244  1
  Pr3+  Pr64  1  0.50793877  0.17966512  0.62283618  1
  Pr3+  Pr65  1  0.49758688  0.81959370  0.87485457  1
  Pr3+  Pr66  1  0.33141651  0.01479818  0.12691225  1
  Pr3+  Pr67  1  0.33789415  0.32309010  0.87622130  1
  Pr3+  Pr68  1  0.66434290  0.34363890  0.12395649  1
  Pr3+  Pr69  1  1.00192064  0.98756166  0.87713516  1
  Pr3+  Pr70  1  0.83564630  0.51091509  0.12223463  1
  Pr3+  Pr71  1  -0.00270270  0.34681607  0.12324335  1
  Mn3.30+  Mn72  1  0.16563195  0.00077541  0.00201111  1
  Mn3.30+  Mn73  1  0.16725610  -0.00026647  0.49761020  1
  Mn3.30+  Mn74  1  0.16872986  0.33427002  0.00110363  1
  Mn3.30+  Mn75  1  0.16850062  0.33439181  0.49862566  1
  Mn3.30+  Mn76  1  0.16641520  0.66730137  -0.00438891  1
  Mn3.30+  Mn77  1  0.16914704  0.66826564  0.50120011  1
  Mn3.30+  Mn78  1  0.50146846  0.00257997  0.00155769  1
  Mn3.30+  Mn79  1  0.49796636  0.00058071  0.49872765  1
  Mn3.30+  Mn80  1  0.49919830  0.33315796  0.00197223  1
  Mn3.30+  Mn81  1  0.50262351  0.33287449  0.49868916  1
  Mn3.30+  Mn82  1  0.49825054  0.66488926  -0.00289056  1
  Mn3.30+  Mn83  1  0.49802349  0.66536217  0.50232103  1
  Mn3.30+  Mn84  1  0.83298985  0.00197947  0.00242341  1
  Mn3.30+  Mn85  1  0.83244907  0.00102195  0.49873639  1
  Mn3.30+  Mn86  1  0.83234543  0.33359623  -0.00144227  1
  Mn3.30+  Mn87  1  0.83186951  0.33122839  0.50016832  1
  Mn3.30+  Mn88  1  0.83409753  0.66605421  -0.00335050  1
  Mn3.30+  Mn89  1  0.83302683  0.66573328  0.50119122  1
  Mn3.30+  Mn90  1  -0.00122062  0.16592699  0.25063381  1
  Mn3.30+  Mn91  1  -0.00044353  0.16666381  0.75012223  1
  Mn3.30+  Mn92  1  0.00029093  0.50021018  0.25011407  1
  Mn3.30+  Mn93  1  0.00050833  0.50076919  0.75122651  1
  Mn3.30+  Mn94  1  -0.00079815  0.83402650  0.24802487  1
  Mn3.30+  Mn95  1  0.00164806  0.83216964  0.75293729  1
  Mn3.30+  Mn96  1  0.33784318  0.16766463  0.24925524  1
  Mn3.30+  Mn97  1  0.33416897  0.16707104  0.75044641  1
  Mn3.30+  Mn98  1  0.33527643  0.49841310  0.24992948  1
  Mn3.30+  Mn99  1  0.33619196  0.50275386  0.75074507  1
  Mn3.30+  Mn100  1  0.33392879  0.83421599  0.24795460  1
  Mn3.30+  Mn101  1  0.33144020  0.83059910  0.75390611  1
  Mn3.30+  Mn102  1  0.66360168  0.16568469  0.25150651  1
  Mn3.30+  Mn103  1  0.66682503  0.16678659  0.74882173  1
  Mn3.30+  Mn104  1  0.66446757  0.49847073  0.25089763  1
  Mn3.30+  Mn105  1  0.66571935  0.49845725  0.75061363  1
  Mn3.30+  Mn106  1  0.66593125  0.83501441  0.24824836  1
  Mn3.30+  Mn107  1  0.66619362  0.83344267  0.75110507  1
  Mn3.30+  Mn108  1  0.16673702  0.00091661  0.24962531  1
  Mn3.30+  Mn109  1  0.16642801  -0.00073867  0.75060024  1
  Mn3.30+  Mn110  1  0.16994746  0.33509564  0.25032664  1
  Mn3.30+  Mn111  1  0.16698753  0.33404166  0.74993563  1
  Mn3.30+  Mn112  1  0.16666756  0.66687335  0.24918745  1
  Mn3.30+  Mn113  1  0.16893695  0.66824615  0.75355788  1
  Mn3.30+  Mn114  1  0.49969850  0.00288369  0.24873830  1
  Mn3.30+  Mn115  1  0.49939360  0.00005518  0.75179508  1
  Mn3.30+  Mn116  1  0.49989140  0.33193795  0.24906553  1
  Mn3.30+  Mn117  1  0.50219355  0.33429057  0.75059477  1
  Mn3.30+  Mn118  1  0.49943889  0.66649955  0.24934329  1
  Mn3.30+  Mn119  1  0.49725246  0.66403982  0.75158369  1
  Mn3.30+  Mn120  1  0.83161354  0.00141793  0.24828409  1
  Mn3.30+  Mn121  1  0.83335370  0.00135747  0.75067792  1
  Mn3.30+  Mn122  1  0.83307757  0.33157183  0.25228574  1
  Mn3.30+  Mn123  1  0.83102047  0.33318220  0.74830163  1
  Mn3.30+  Mn124  1  0.83226869  0.66583164  0.24957004  1
  Mn3.30+  Mn125  1  0.83482417  0.66594812  0.75255837  1
  Mn3.30+  Mn126  1  -0.00000695  0.16589244  0.00157684  1
  Mn3.30+  Mn127  1  -0.00095821  0.16642541  0.49736531  1
  Mn3.30+  Mn128  1  -0.00019583  0.50132551  -0.00429651  1
  Mn3.30+  Mn129  1  0.00086881  0.49964696  0.50206699  1
  Mn3.30+  Mn130  1  0.00152078  0.83228981  -0.00100122  1
  Mn3.30+  Mn131  1  -0.00020925  0.83383258  0.49935164  1
  Mn3.30+  Mn132  1  0.33430117  0.16923949  0.00319961  1
  Mn3.30+  Mn133  1  0.33747937  0.16563023  0.49796060  1
  Mn3.30+  Mn134  1  0.33546388  0.50003134  -0.00152507  1
  Mn3.30+  Mn135  1  0.33615891  0.50072663  0.50058184  1
  Mn3.30+  Mn136  1  0.33145313  0.83196706  -0.00321880  1
  Mn3.30+  Mn137  1  0.33340339  0.83288102  0.50121227  1
  Mn3.30+  Mn138  1  0.66492773  0.16701960  0.00249719  1
  Mn3.30+  Mn139  1  0.66585067  0.16543418  0.49755173  1
  Mn3.30+  Mn140  1  0.66631803  0.49930291  -0.00159651  1
  Mn3.30+  Mn141  1  0.66353609  0.49771911  0.49943893  1
  Mn3.30+  Mn142  1  0.66779909  0.83446821  0.00064207  1
  Mn3.30+  Mn143  1  0.66432428  0.83375239  0.50023029  1
  O2-  O144  1  0.02548770  0.16206719  0.12823688  1
  O2-  O145  1  0.02637416  0.15908661  0.62123946  1
  O2-  O146  1  0.02433861  0.49667029  0.12218387  1
  O2-  O147  1  0.02838597  0.49414843  0.62608665  1
  O2-  O148  1  0.02657746  0.82321620  0.12397709  1
  O2-  O149  1  0.02617389  0.83012835  0.62706988  1
  O2-  O150  1  0.36330700  0.15927000  0.12588992  1
  O2-  O151  1  0.36215749  0.15966508  0.62135594  1
  O2-  O152  1  0.35753697  0.49780932  0.12370067  1
  O2-  O153  1  0.35394079  0.49436913  0.62629231  1
  O2-  O154  1  0.35891589  0.82580651  0.12247041  1
  O2-  O155  1  0.35747586  0.82704287  0.63098767  1
  O2-  O156  1  0.69054173  0.16553477  0.12815860  1
  O2-  O157  1  0.68817537  0.16070612  0.62185179  1
  O2-  O158  1  0.69215820  0.49452319  0.12599429  1
  O2-  O159  1  0.68951347  0.49650048  0.62415947  1
  O2-  O160  1  0.69273989  0.82471667  0.12504693  1
  O2-  O161  1  0.68291490  0.82716199  0.62537955  1
  O2-  O162  1  0.14145120  0.33192548  0.12523132  1
  O2-  O163  1  0.14334810  0.32809135  0.62220293  1
  O2-  O164  1  0.14242856  0.65962563  0.12200847  1
  O2-  O165  1  0.14284742  0.66538657  0.62628478  1
  O2-  O166  1  0.13895931  0.99536391  0.12645385  1
  O2-  O167  1  0.13958560  0.99372754  0.62157780  1
  O2-  O168  1  0.47424571  0.32638481  0.12535062  1
  O2-  O169  1  0.47613513  0.32507100  0.62441730  1
  O2-  O170  1  0.47395565  0.66020956  0.12126184  1
  O2-  O171  1  0.47388889  0.66545655  0.62739225  1
  O2-  O172  1  0.47295407  0.99380787  0.12373123  1
  O2-  O173  1  0.47401402  0.99432466  0.62613480  1
  O2-  O174  1  0.80966231  0.32926950  0.12824721  1
  O2-  O175  1  0.80454716  0.32557034  0.62219508  1
  O2-  O176  1  0.80765515  0.65835547  0.12427539  1
  O2-  O177  1  0.80711498  0.65919104  0.62588310  1
  O2-  O178  1  0.80473919  0.99618132  0.12674198  1
  O2-  O179  1  0.81727166  1.00231626  0.62267261  1
  O2-  O180  1  0.30942220  0.17486065  0.37427853  1
  O2-  O181  1  0.30571964  0.17410123  0.87953243  1
  O2-  O182  1  0.31514655  0.50318461  0.37567953  1
  O2-  O183  1  0.30811967  0.50217048  0.87456495  1
  O2-  O184  1  0.31109353  0.83963482  0.37079273  1
  O2-  O185  1  0.30187153  0.84356595  0.87611788  1
  O2-  O186  1  0.63689916  0.17193656  0.37394358  1
  O2-  O187  1  0.64277491  0.17392223  0.87643752  1
  O2-  O188  1  0.63797136  0.50560515  0.37322053  1
  O2-  O189  1  0.63951879  0.50375040  0.87636634  1
  O2-  O190  1  0.64076036  0.83881390  0.37265340  1
  O2-  O191  1  0.64311354  0.83969473  0.87732799  1
  O2-  O192  1  0.97181055  0.17492555  0.37395726  1
  O2-  O193  1  0.98411072  0.16687149  0.87655348  1
  O2-  O194  1  0.97470338  0.50662245  0.37753783  1
  O2-  O195  1  0.97436299  0.50673284  0.87379930  1
  O2-  O196  1  0.97247680  0.83821326  0.37119582  1
  O2-  O197  1  0.97981808  0.84173453  0.87714544  1
  O2-  O198  1  0.19527534  0.00477410  0.37379837  1
  O2-  O199  1  0.19166132  0.01207540  0.87792640  1
  O2-  O200  1  0.19401128  0.33488136  0.37587625  1
  O2-  O201  1  0.19260150  0.33590445  0.87696437  1
  O2-  O202  1  0.19309611  0.67396183  0.37591641  1
  O2-  O203  1  0.19662616  0.67136905  0.87517874  1
  O2-  O204  1  0.52315268  -0.00016334  0.37210908  1
  O2-  O205  1  0.52676339  0.00655000  0.87859286  1
  O2-  O206  1  0.52383633  0.34247458  0.37349226  1
  O2-  O207  1  0.52471258  0.33641653  0.87684221  1
  O2-  O208  1  0.52378278  0.67745741  0.37479467  1
  O2-  O209  1  0.52850241  0.67358517  0.87641182  1
  O2-  O210  1  0.85638510  0.00298294  0.37248856  1
  O2-  O211  1  0.85654272  0.00384443  0.87808234  1
  O2-  O212  1  0.86234091  0.34205523  0.37515038  1
  O2-  O213  1  0.84941914  0.33808481  0.87371995  1
  O2-  O214  1  0.85882468  0.67079015  0.37477364  1
  O2-  O215  1  0.85992122  0.67084060  0.87493913  1
  O2-  O216  1  0.23950081  0.09712728  0.02416146  1
  O2-  O217  1  0.23745390  0.09474185  0.52002724  1
  O2-  O218  1  0.23832403  0.42984896  0.01702570  1
  O2-  O219  1  0.24093394  0.42845888  0.52144052  1
  O2-  O220  1  0.23744118  0.76012262  0.02317812  1
  O2-  O221  1  0.23650220  0.76537875  0.51664226  1
  O2-  O222  1  0.56776155  0.10006886  0.01979109  1
  O2-  O223  1  0.56725177  0.09388745  0.51522222  1
  O2-  O224  1  0.57204771  0.42579718  0.02371634  1
  O2-  O225  1  0.57466854  0.42501965  0.51693150  1
  O2-  O226  1  0.57052501  0.76159159  0.01996717  1
  O2-  O227  1  0.56917309  0.76012196  0.52023677  1
  O2-  O228  1  0.90428061  0.09339752  0.02328467  1
  O2-  O229  1  0.90752219  0.09480645  0.51811218  1
  O2-  O230  1  0.90711000  0.42544590  0.02051162  1
  O2-  O231  1  0.90393084  0.42604130  0.52318583  1
  O2-  O232  1  0.90592868  0.75990653  0.02351384  1
  O2-  O233  1  0.90827318  0.75817176  0.51796728  1
  O2-  O234  1  0.26504713  0.26154191  0.22834712  1
  O2-  O235  1  0.26238758  0.26114918  0.72867614  1
  O2-  O236  1  0.26137309  0.59498828  0.23079372  1
  O2-  O237  1  0.26261176  0.59584841  0.72868011  1
  O2-  O238  1  0.26085309  0.92534442  0.22563961  1
  O2-  O239  1  0.26098594  0.92988760  0.72876471  1
  O2-  O240  1  0.59793658  0.26470341  0.23277844  1
  O2-  O241  1  0.59488336  0.26094486  0.72968136  1
  O2-  O242  1  0.59425868  0.59604367  0.22855092  1
  O2-  O243  1  0.59877676  0.59620468  0.73370719  1
  O2-  O244  1  0.59456845  0.93155039  0.22705232  1
  O2-  O245  1  0.58732116  0.92456149  0.73517503  1
  O2-  O246  1  0.92929061  0.26214373  0.22840934  1
  O2-  O247  1  0.92475340  0.25868267  0.72666336  1
  O2-  O248  1  0.92626529  0.59422177  0.23025108  1
  O2-  O249  1  0.92743570  0.59189910  0.72534398  1
  O2-  O250  1  0.92926637  0.92845603  0.22667415  1
  O2-  O251  1  0.93176575  0.92931860  0.73617436  1
  O2-  O252  1  0.09710909  0.23989763  0.26996759  1
  O2-  O253  1  0.09594028  0.23615453  0.76354991  1
  O2-  O254  1  0.09127224  0.57563511  0.26756219  1
  O2-  O255  1  0.09973923  0.57310837  0.76767989  1
  O2-  O256  1  0.09333376  0.90454818  0.27100153  1
  O2-  O257  1  0.09754663  0.90435463  0.77194087  1
  O2-  O258  1  0.43030541  0.23764813  0.27464420  1
  O2-  O259  1  0.42871020  0.23918456  0.77102860  1
  O2-  O260  1  0.42979690  0.57153508  0.26915146  1
  O2-  O261  1  0.43025101  0.57014945  0.77431827  1
  O2-  O262  1  0.43102136  0.90253762  0.26381603  1
  O2-  O263  1  0.42392759  0.90468721  0.77368836  1
  O2-  O264  1  0.76249194  0.23771217  0.27262729  1
  O2-  O265  1  0.75833360  0.24057999  0.76627124  1
  O2-  O266  1  0.75905152  0.56978862  0.27111953  1
  O2-  O267  1  0.76282701  0.57003716  0.77093141  1
  O2-  O268  1  0.76205582  0.90417767  0.27045531  1
  O2-  O269  1  0.75619113  0.91102496  0.76674555  1
  O2-  O270  1  0.07145217  0.07300026  0.47497598  1
  O2-  O271  1  0.07363263  0.07233632  0.98135955  1
  O2-  O272  1  0.06920964  0.40408673  0.48203224  1
  O2-  O273  1  0.07491082  0.40844222  0.98156159  1
  O2-  O274  1  0.07288256  0.74098387  0.47919719  1
  O2-  O275  1  0.06995247  0.73415821  0.97977640  1
  O2-  O276  1  0.40063645  0.06700946  0.47950804  1
  O2-  O277  1  0.40402380  0.07200446  0.97880798  1
  O2-  O278  1  0.40571866  0.40086529  0.48504219  1
  O2-  O279  1  0.40552452  0.40518187  0.98109240  1
  O2-  O280  1  0.40503222  0.73899728  0.47879657  1
  O2-  O281  1  0.40426185  0.73595678  0.97644545  1
  O2-  O282  1  0.73677039  0.07354124  0.47740212  1
  O2-  O283  1  0.73455112  0.07296162  0.98460332  1
  O2-  O284  1  0.74145630  0.40620843  0.47548388  1
  O2-  O285  1  0.73543779  0.40573700  0.98337322  1
  O2-  O286  1  0.73788414  0.73905563  0.47906366  1
  O2-  O287  1  0.73745863  0.73413188  0.98295165  1
  O2-  O288  1  0.09472798  0.23771538  0.47834792  1
  O2-  O289  1  0.09899622  0.23834494  0.98705017  1
  O2-  O290  1  0.09407604  0.57759521  0.48400160  1
  O2-  O291  1  0.09705090  0.57194533  0.97927441  1
  O2-  O292  1  0.09487807  0.90669845  0.47543734  1
  O2-  O293  1  0.09729623  0.90348277  0.98047444  1
  O2-  O294  1  0.43237225  0.23655156  0.47761509  1
  O2-  O295  1  0.42663500  0.24070021  0.97639069  1
  O2-  O296  1  0.42938764  0.57267192  0.47663749  1
  O2-  O297  1  0.43161696  0.56814557  0.97997599  1
  O2-  O298  1  0.42795299  0.90285543  0.48489090  1
  O2-  O299  1  0.42772587  0.90509243  0.97919490  1
  O2-  O300  1  0.76417568  0.23755179  0.47553184  1
  O2-  O301  1  0.75702936  0.24167120  0.98613513  1
  O2-  O302  1  0.75961872  0.57121017  0.47905957  1
  O2-  O303  1  0.76270254  0.57004250  0.97849378  1
  O2-  O304  1  0.75837217  0.90726021  0.47846074  1
  O2-  O305  1  0.76151249  0.90744229  0.98384005  1
  O2-  O306  1  0.07285743  0.07564238  0.27481404  1
  O2-  O307  1  0.07260812  0.06966225  0.76841405  1
  O2-  O308  1  0.06913676  0.40457312  0.26659223  1
  O2-  O309  1  0.07448262  0.40789563  0.76875585  1
  O2-  O310  1  0.07179715  0.73950274  0.27092696  1
  O2-  O311  1  0.07100329  0.73596472  0.76949424  1
  O2-  O312  1  0.40106519  0.06709753  0.26940990  1
  O2-  O313  1  0.40460054  0.07141719  0.77234316  1
  O2-  O314  1  0.40689097  0.40316742  0.26660196  1
  O2-  O315  1  0.40399245  0.40304920  0.76666040  1
  O2-  O316  1  0.40365571  0.73775147  0.26834499  1
  O2-  O317  1  0.40465674  0.73947499  0.77722293  1
  O2-  O318  1  0.73426539  0.07277881  0.26968711  1
  O2-  O319  1  0.73753272  0.07432214  0.76915412  1
  O2-  O320  1  0.73918300  0.40376159  0.27264194  1
  O2-  O321  1  0.73848342  0.40715842  0.76709375  1
  O2-  O322  1  0.73882623  0.73690899  0.27117783  1
  O2-  O323  1  0.73734739  0.73590488  0.76681351  1
  O2-  O324  1  0.23982361  0.09767821  0.22919578  1
  O2-  O325  1  0.23835571  0.09448521  0.72812041  1
  O2-  O326  1  0.23904056  0.42882301  0.22970477  1
  O2-  O327  1  0.24006937  0.42945283  0.73150771  1
  O2-  O328  1  0.23810179  0.76203321  0.22817615  1
  O2-  O329  1  0.23687714  0.76310423  0.73090298  1
  O2-  O330  1  0.56762957  0.09702073  0.23021312  1
  O2-  O331  1  0.56962549  0.09803667  0.73494233  1
  O2-  O332  1  0.57304393  0.42597740  0.22543445  1
  O2-  O333  1  0.57373739  0.42471342  0.73452859  1
  O2-  O334  1  0.57112363  0.76193276  0.22765189  1
  O2-  O335  1  0.56943008  0.75946528  0.73330810  1
  O2-  O336  1  0.90352284  0.09440218  0.23088857  1
  O2-  O337  1  0.90798040  0.09469227  0.72883622  1
  O2-  O338  1  0.90486429  0.42837243  0.22964128  1
  O2-  O339  1  0.90629703  0.42384059  0.72608165  1
  O2-  O340  1  0.90557697  0.76248679  0.22836567  1
  O2-  O341  1  0.90947533  0.75739136  0.72951370  1
  O2-  O342  1  0.26353489  0.26352429  0.02561981  1
  O2-  O343  1  0.26441594  0.25950777  0.52053454  1
  O2-  O344  1  0.26083654  0.59286335  0.02058837  1
  O2-  O345  1  0.26232878  0.59862436  0.52032252  1
  O2-  O346  1  0.26049788  0.93120157  0.02240854  1
  O2-  O347  1  0.26046951  0.92625791  0.52238697  1
  O2-  O348  1  0.59468033  0.26285845  0.01851313  1
  O2-  O349  1  0.59804388  0.26242219  0.51974420  1
  O2-  O350  1  0.59642032  0.59398816  0.02112199  1
  O2-  O351  1  0.59602660  0.59910221  0.51637967  1
  O2-  O352  1  0.59375520  0.93091780  0.02231773  1
  O2-  O353  1  0.58909234  0.92569996  0.51613405  1
  O2-  O354  1  0.92654186  0.25819934  0.02193976  1
  O2-  O355  1  0.92911611  0.26104747  0.52232188  1
  O2-  O356  1  0.92629260  0.59288447  0.02277745  1
  O2-  O357  1  0.92754377  0.59225365  0.52240568  1
  O2-  O358  1  0.92959030  0.92836744  0.02267681  1
  O2-  O359  1  0.93138948  0.92890263  0.51410789  1
