# generated using pymatgen
data_Sr7Ca15Pr50Mn72O216
_symmetry_space_group_name_H-M   'P 1'
_cell_length_a   16.55732794
_cell_length_b   16.60485210
_cell_length_c   15.59491056
_cell_angle_alpha   89.99567025
_cell_angle_beta   90.00009613
_cell_angle_gamma   90.00172447
_symmetry_Int_Tables_number   1
_chemical_formula_structural   Sr7Ca15Pr50Mn72O216
_chemical_formula_sum   'Sr7 Ca15 Pr50 Mn72 O216'
_cell_volume   4287.53965011
_cell_formula_units_Z   1
loop_
 _symmetry_equiv_pos_site_id
 _symmetry_equiv_pos_as_xyz
  1  'x, y, z'
loop_
 _atom_type_symbol
 _atom_type_oxidation_number
  Sr2+  2.0
  Ca2+  2.0
  Pr3+  3.0
  Mn3.30+  3.3
  O2-  -2.0
loop_
 _atom_site_type_symbol
 _atom_site_label
 _atom_site_symmetry_multiplicity
 _atom_site_fract_x
 _atom_site_fract_y
 _atom_site_fract_z
 _atom_site_occupancy
  Sr2+  Sr0  1  0.66465397  0.67704439  0.62480330  1
  Sr2+  Sr1  1  0.66662450  0.34009034  0.62203342  1
  Sr2+  Sr2  1  0.33213907  0.00508927  0.62503064  1
  Sr2+  Sr3  1  0.16960213  0.84265521  0.62506916  1
  Sr2+  Sr4  1  0.33281920  0.67594770  0.62372654  1
  Sr2+  Sr5  1  0.50223107  0.84189264  0.62451345  1
  Sr2+  Sr6  1  0.66752371  0.00560475  0.62517544  1
  Ca2+  Ca7  1  0.16886745  0.84737960  0.12529824  1
  Ca2+  Ca8  1  0.66788367  0.65271382  0.37776684  1
  Ca2+  Ca9  1  0.66892541  0.65363320  0.87236740  1
  Ca2+  Ca10  1  0.82890260  0.15064062  0.87232276  1
  Ca2+  Ca11  1  0.17071171  0.51518820  0.62311147  1
  Ca2+  Ca12  1  0.67151594  0.31765885  0.37615135  1
  Ca2+  Ca13  1  1.00059820  0.98446826  0.87487411  1
  Ca2+  Ca14  1  0.66466238  0.01679650  0.12544377  1
  Ca2+  Ca15  1  0.66282814  0.34886191  0.12809111  1
  Ca2+  Ca16  1  1.00381487  0.65140444  0.37713554  1
  Ca2+  Ca17  1  0.83449949  0.17925800  0.62296517  1
  Ca2+  Ca18  1  0.82669332  0.15357306  0.37877686  1
  Ca2+  Ca19  1  0.49918197  0.48317311  0.37828127  1
  Ca2+  Ca20  1  0.33870046  0.31993481  0.37593068  1
  Ca2+  Ca21  1  0.83513423  0.84731016  0.62516759  1
  Pr3+  Pr22  1  0.16088855  0.14987030  0.87543558  1
  Pr3+  Pr23  1  0.67239464  0.31875154  0.87463850  1
  Pr3+  Pr24  1  0.50041286  0.82223933  0.37785168  1
  Pr3+  Pr25  1  0.16842345  0.18021428  0.12484064  1
  Pr3+  Pr26  1  0.16980417  0.51289903  0.12669355  1
  Pr3+  Pr27  1  0.82905745  0.81876956  0.37612231  1
  Pr3+  Pr28  1  0.67028499  0.98821802  0.87521595  1
  Pr3+  Pr29  1  0.66398623  0.67815799  0.12595509  1
  Pr3+  Pr30  1  0.83056009  0.81993137  0.87346875  1
  Pr3+  Pr31  1  0.50794142  0.18395383  0.12546965  1
  Pr3+  Pr32  1  0.16897014  0.17326732  0.62500813  1
  Pr3+  Pr33  1  0.33499000  0.65613478  0.87131594  1
  Pr3+  Pr34  1  0.33298924  0.34736340  0.12742155  1
  Pr3+  Pr35  1  -0.00374308  0.68019209  0.12709142  1
  Pr3+  Pr36  1  0.50413086  0.17454736  0.62429178  1
  Pr3+  Pr37  1  -0.00540613  0.68390529  0.62237439  1
  Pr3+  Pr38  1  0.33813907  0.65248634  0.37891430  1
  Pr3+  Pr39  1  0.16439432  0.48680258  0.37772217  1
  Pr3+  Pr40  1  1.00291828  0.65472157  0.87376927  1
  Pr3+  Pr41  1  0.67107193  0.98996685  0.37503592  1
  Pr3+  Pr42  1  -0.00359054  0.34640226  0.12601616  1
  Pr3+  Pr43  1  0.16275466  0.81878830  0.37649238  1
  Pr3+  Pr44  1  0.16361903  0.82193710  0.87413816  1
  Pr3+  Pr45  1  0.83191073  0.17950509  0.12567073  1
  Pr3+  Pr46  1  0.16593466  0.15468325  0.37418602  1
  Pr3+  Pr47  1  0.99927623  0.98974126  0.37377938  1
  Pr3+  Pr48  1  0.83271322  0.51173521  0.12650470  1
  Pr3+  Pr49  1  0.99998823  0.31836277  0.37482167  1
  Pr3+  Pr50  1  0.33690751  0.32138084  0.87478162  1
  Pr3+  Pr51  1  -0.00736228  0.01176784  0.62641388  1
  Pr3+  Pr52  1  0.50502975  0.51256357  0.62253717  1
  Pr3+  Pr53  1  0.49984971  0.82107066  0.87267904  1
  Pr3+  Pr54  1  0.33556337  0.98593760  0.87428958  1
  Pr3+  Pr55  1  0.49976423  0.15420448  0.87397849  1
  Pr3+  Pr56  1  1.00008591  0.31973429  0.87434800  1
  Pr3+  Pr57  1  0.32961262  0.68163246  0.12686957  1
  Pr3+  Pr58  1  0.33005271  0.34506635  0.62271685  1
  Pr3+  Pr59  1  0.82851973  0.48952510  0.87348859  1
  Pr3+  Pr60  1  0.50599746  0.85030391  0.12590317  1
  Pr3+  Pr61  1  0.82841859  0.48703824  0.37609603  1
  Pr3+  Pr62  1  0.50083225  0.15808560  0.37672390  1
  Pr3+  Pr63  1  0.83514553  0.84754296  0.12489841  1
  Pr3+  Pr64  1  0.83302606  0.51338122  0.62320167  1
  Pr3+  Pr65  1  0.32960140  0.01371510  0.12516631  1
  Pr3+  Pr66  1  0.50473837  0.51125137  0.12753011  1
  Pr3+  Pr67  1  -0.00253908  0.01210825  0.12262125  1
  Pr3+  Pr68  1  0.50106609  0.49038520  0.87201030  1
  Pr3+  Pr69  1  0.16322713  0.48720510  0.87243063  1
  Pr3+  Pr70  1  0.33652377  0.98753231  0.37645088  1
  Pr3+  Pr71  1  -0.00513926  0.34578633  0.62332165  1
  Mn3.30+  Mn72  1  0.16474315  -0.00185198  0.00082503  1
  Mn3.30+  Mn73  1  0.16574192  -0.00100224  0.49974796  1
  Mn3.30+  Mn74  1  0.16665201  0.33361892  -0.00023902  1
  Mn3.30+  Mn75  1  0.16701527  0.33228141  0.50009434  1
  Mn3.30+  Mn76  1  0.16657293  0.66786082  0.00149115  1
  Mn3.30+  Mn77  1  0.16594942  0.66481496  0.50006021  1
  Mn3.30+  Mn78  1  0.50167001  0.00145237  0.00111338  1
  Mn3.30+  Mn79  1  0.50221216  -0.00036453  0.50093831  1
  Mn3.30+  Mn80  1  0.50304536  0.33531390  -0.00037867  1
  Mn3.30+  Mn81  1  0.50017837  0.33285074  0.49837071  1
  Mn3.30+  Mn82  1  0.50023317  0.66679283  -0.00011691  1
  Mn3.30+  Mn83  1  0.50350483  0.66541590  0.49822860  1
  Mn3.30+  Mn84  1  0.83305892  0.00144648  -0.00106814  1
  Mn3.30+  Mn85  1  0.83292809  0.00156906  0.50108170  1
  Mn3.30+  Mn86  1  0.83154881  0.33269208  0.00102384  1
  Mn3.30+  Mn87  1  0.83171287  0.33130372  0.49940524  1
  Mn3.30+  Mn88  1  0.83175924  0.66658264  -0.00022730  1
  Mn3.30+  Mn89  1  0.83292759  0.66780486  0.49853881  1
  Mn3.30+  Mn90  1  -0.00253568  0.16615964  0.24999615  1
  Mn3.30+  Mn91  1  -0.00356888  0.16488070  0.75131825  1
  Mn3.30+  Mn92  1  -0.00048663  0.50084694  0.25213634  1
  Mn3.30+  Mn93  1  0.00052434  0.50059512  0.74700699  1
  Mn3.30+  Mn94  1  0.00050205  0.83283574  0.24997028  1
  Mn3.30+  Mn95  1  -0.00159021  0.83548150  0.74985531  1
  Mn3.30+  Mn96  1  0.33548533  0.16853090  0.25016556  1
  Mn3.30+  Mn97  1  0.33271699  0.16550930  0.75012905  1
  Mn3.30+  Mn98  1  0.33675582  0.49902242  0.25334593  1
  Mn3.30+  Mn99  1  0.33126478  0.49981625  0.74809544  1
  Mn3.30+  Mn100  1  0.33302552  0.83351827  0.24981689  1
  Mn3.30+  Mn101  1  0.33195695  0.83282772  0.74852801  1
  Mn3.30+  Mn102  1  0.66820112  0.16885129  0.25050232  1
  Mn3.30+  Mn103  1  0.67000346  0.16525612  0.74819499  1
  Mn3.30+  Mn104  1  0.66506509  0.49879210  0.25397642  1
  Mn3.30+  Mn105  1  0.66677084  0.49947078  0.74842410  1
  Mn3.30+  Mn106  1  0.66728493  0.83368872  0.24982127  1
  Mn3.30+  Mn107  1  0.66800465  0.83199502  0.74906879  1
  Mn3.30+  Mn108  1  0.16667277  -0.00121578  0.24885637  1
  Mn3.30+  Mn109  1  0.16357123  -0.00158398  0.75042832  1
  Mn3.30+  Mn110  1  0.16831711  0.33366553  0.25226193  1
  Mn3.30+  Mn111  1  0.16552876  0.33199795  0.74831925  1
  Mn3.30+  Mn112  1  0.16537392  0.66728591  0.25111980  1
  Mn3.30+  Mn113  1  0.16651561  0.66562386  0.74764023  1
  Mn3.30+  Mn114  1  0.50187327  0.00263044  0.24960110  1
  Mn3.30+  Mn115  1  0.50167384  -0.00101567  0.74899460  1
  Mn3.30+  Mn116  1  0.50265810  0.33466362  0.25370360  1
  Mn3.30+  Mn117  1  0.50132378  0.33268745  0.74891851  1
  Mn3.30+  Mn118  1  0.50068028  0.66564549  0.25229552  1
  Mn3.30+  Mn119  1  0.50270552  0.66702092  0.74978448  1
  Mn3.30+  Mn120  1  0.83152360  0.00208185  0.24825185  1
  Mn3.30+  Mn121  1  0.83422237  0.00098439  0.75101787  1
  Mn3.30+  Mn122  1  0.82896099  0.33231190  0.25067111  1
  Mn3.30+  Mn123  1  0.83363396  0.33150226  0.74858226  1
  Mn3.30+  Mn124  1  0.83261710  0.66571884  0.25321216  1
  Mn3.30+  Mn125  1  0.83227937  0.66852212  0.74821535  1
  Mn3.30+  Mn126  1  -0.00307693  0.16537993  -0.00186667  1
  Mn3.30+  Mn127  1  -0.00257679  0.16576691  0.49936168  1
  Mn3.30+  Mn128  1  -0.00075183  0.50027994  0.00013203  1
  Mn3.30+  Mn129  1  0.00091119  0.50119269  0.50004195  1
  Mn3.30+  Mn130  1  0.00090147  0.83405887  0.00077880  1
  Mn3.30+  Mn131  1  -0.00225287  0.83450330  0.49866363  1
  Mn3.30+  Mn132  1  0.33413395  0.16738164  0.00020455  1
  Mn3.30+  Mn133  1  0.33378059  0.16674835  0.49975628  1
  Mn3.30+  Mn134  1  0.33392154  0.50143213  -0.00031317  1
  Mn3.30+  Mn135  1  0.33374943  0.49778988  0.49954126  1
  Mn3.30+  Mn136  1  0.33335874  0.83356515  0.00184035  1
  Mn3.30+  Mn137  1  0.33203046  0.83233701  0.50063499  1
  Mn3.30+  Mn138  1  0.66871417  0.16710249  0.00010761  1
  Mn3.30+  Mn139  1  0.66919927  0.16683530  0.50118241  1
  Mn3.30+  Mn140  1  0.66677594  0.50000094  0.00049583  1
  Mn3.30+  Mn141  1  0.66491755  0.49856619  0.49696463  1
  Mn3.30+  Mn142  1  0.66729217  0.83334355  0.00056897  1
  Mn3.30+  Mn143  1  0.66813537  0.83201419  0.50102712  1
  O2-  O144  1  0.02562409  0.16209495  0.12498466  1
  O2-  O145  1  0.02585940  0.16032694  0.62689877  1
  O2-  O146  1  0.02574931  0.49409989  0.12718499  1
  O2-  O147  1  0.02826499  0.49223057  0.62427361  1
  O2-  O148  1  0.02700856  0.82658308  0.12738764  1
  O2-  O149  1  0.01911601  0.83243770  0.62409243  1
  O2-  O150  1  0.36153437  0.16154561  0.12474398  1
  O2-  O151  1  0.35774628  0.16330383  0.62729232  1
  O2-  O152  1  0.36003443  0.49562819  0.12850884  1
  O2-  O153  1  0.36017742  0.49279567  0.62452337  1
  O2-  O154  1  0.36182997  0.82859199  0.12608479  1
  O2-  O155  1  0.35037557  0.83329734  0.62433751  1
  O2-  O156  1  0.68936828  0.16058676  0.12437300  1
  O2-  O157  1  0.69217119  0.16286422  0.62584203  1
  O2-  O158  1  0.68921623  0.49404089  0.12794019  1
  O2-  O159  1  0.68878371  0.49535685  0.62326266  1
  O2-  O160  1  0.69214669  0.82399452  0.12507495  1
  O2-  O161  1  0.69264570  0.83141354  0.62518934  1
  O2-  O162  1  0.14092330  0.32950945  0.12514304  1
  O2-  O163  1  0.13767835  0.32022222  0.62410939  1
  O2-  O164  1  0.14005317  0.65817238  0.12590736  1
  O2-  O165  1  0.13948871  0.66074890  0.62253537  1
  O2-  O166  1  0.14163197  0.99382078  0.12555489  1
  O2-  O167  1  0.13967991  1.00244577  0.62501790  1
  O2-  O168  1  0.47644287  0.33193130  0.12580589  1
  O2-  O169  1  0.47452120  0.32543378  0.62582749  1
  O2-  O170  1  0.47306932  0.65880422  0.12630517  1
  O2-  O171  1  0.48270660  0.66071971  0.62423003  1
  O2-  O172  1  0.47319227  0.99794453  0.12541306  1
  O2-  O173  1  0.48232481  1.00260617  0.62586420  1
  O2-  O174  1  0.80467320  0.32773188  0.12712535  1
  O2-  O175  1  0.81688884  0.32736128  0.62523529  1
  O2-  O176  1  0.80784342  0.66106926  0.12757947  1
  O2-  O177  1  0.81388583  0.66130972  0.62379019  1
  O2-  O178  1  0.80597579  0.99364989  0.12364423  1
  O2-  O179  1  0.81673006  0.99006081  0.62585423  1
  O2-  O180  1  0.30917104  0.17387809  0.37224779  1
  O2-  O181  1  0.30640390  0.17370192  0.87625867  1
  O2-  O182  1  0.30708446  0.50557499  0.37461311  1
  O2-  O183  1  0.30634299  0.50584590  0.87291011  1
  O2-  O184  1  0.30855396  0.83796555  0.37243072  1
  O2-  O185  1  0.30871773  0.83649751  0.87812041  1
  O2-  O186  1  0.64468241  0.17026663  0.37456611  1
  O2-  O187  1  0.64332894  0.17133106  0.87576532  1
  O2-  O188  1  0.64041035  0.51008849  0.37424586  1
  O2-  O189  1  0.64585830  0.50564166  0.87412309  1
  O2-  O190  1  0.64385423  0.84271803  0.37089196  1
  O2-  O191  1  0.64310702  0.84092359  0.87923532  1
  O2-  O192  1  0.97129699  0.16964723  0.37093258  1
  O2-  O193  1  0.97045347  0.17520298  0.87599469  1
  O2-  O194  1  0.97394208  0.50477979  0.37414318  1
  O2-  O195  1  0.97332701  0.50592401  0.87345614  1
  O2-  O196  1  0.97279149  0.84208015  0.37221035  1
  O2-  O197  1  0.97549549  0.83462272  0.87558770  1
  O2-  O198  1  0.19162134  0.00744426  0.37130468  1
  O2-  O199  1  0.19086695  0.00353850  0.87805284  1
  O2-  O200  1  0.19549525  0.33814998  0.37616369  1
  O2-  O201  1  0.19285457  0.33959683  0.87465949  1
  O2-  O202  1  0.19268554  0.67114524  0.37342836  1
  O2-  O203  1  0.18985451  0.67197349  0.87783207  1
  O2-  O204  1  0.52581754  0.00707856  0.37291562  1
  O2-  O205  1  0.52473556  0.00453870  0.87677235  1
  O2-  O206  1  0.52825569  0.33439420  0.37481677  1
  O2-  O207  1  0.52686311  0.34089299  0.87372288  1
  O2-  O208  1  0.52684764  0.67634742  0.37281394  1
  O2-  O209  1  0.52579077  0.67172265  0.87681324  1
  O2-  O210  1  0.85584308  0.00766901  0.37238593  1
  O2-  O211  1  0.85931166  0.00635801  0.87692459  1
  O2-  O212  1  0.85831192  0.34007161  0.37391279  1
  O2-  O213  1  0.85821527  0.34362768  0.87429797  1
  O2-  O214  1  0.86276273  0.67124793  0.37454247  1
  O2-  O215  1  0.85987014  0.66972820  0.87323403  1
  O2-  O216  1  0.23598490  0.09441136  0.02120271  1
  O2-  O217  1  0.23643477  0.09570739  0.51353473  1
  O2-  O218  1  0.24065370  0.42997008  0.02077037  1
  O2-  O219  1  0.23571157  0.42609022  0.52365466  1
  O2-  O220  1  0.23887769  0.76373889  0.02384788  1
  O2-  O221  1  0.23745862  0.75807271  0.51118357  1
  O2-  O222  1  0.57002281  0.09984171  0.01651005  1
  O2-  O223  1  0.57211331  0.09592538  0.51458633  1
  O2-  O224  1  0.56931099  0.43192304  0.01593319  1
  O2-  O225  1  0.56741488  0.42739740  0.51713231  1
  O2-  O226  1  0.56945071  0.76164924  0.02201835  1
  O2-  O227  1  0.57441184  0.76208507  0.51210676  1
  O2-  O228  1  0.90497274  0.09394089  0.02502997  1
  O2-  O229  1  0.90550257  0.09518736  0.52260641  1
  O2-  O230  1  0.90545245  0.42794266  0.02215212  1
  O2-  O231  1  0.90563995  0.42877890  0.51888222  1
  O2-  O232  1  0.90510364  0.76104897  0.02100900  1
  O2-  O233  1  0.90274341  0.76515008  0.51912054  1
  O2-  O234  1  0.26048861  0.25993483  0.22543627  1
  O2-  O235  1  0.26042766  0.26118420  0.72976914  1
  O2-  O236  1  0.26332256  0.59524774  0.23038537  1
  O2-  O237  1  0.25917643  0.59209046  0.73351187  1
  O2-  O238  1  0.26397157  0.93040161  0.23116960  1
  O2-  O239  1  0.25928939  0.92778871  0.73983041  1
  O2-  O240  1  0.59689162  0.26301544  0.22762996  1
  O2-  O241  1  0.59272777  0.25720363  0.73368681  1
  O2-  O242  1  0.59396879  0.59453381  0.22690570  1
  O2-  O243  1  0.59163845  0.58896409  0.73358803  1
  O2-  O244  1  0.59481729  0.93208889  0.22684379  1
  O2-  O245  1  0.59409793  0.92609276  0.73957895  1
  O2-  O246  1  0.92817001  0.26190791  0.22783883  1
  O2-  O247  1  0.93271184  0.26473697  0.73373376  1
  O2-  O248  1  0.92619608  0.59339411  0.22702260  1
  O2-  O249  1  0.92929364  0.59707889  0.72818633  1
  O2-  O250  1  0.92812509  0.92834261  0.22780840  1
  O2-  O251  1  0.92934622  0.93086729  0.73627913  1
  O2-  O252  1  0.09441371  0.23936218  0.27029613  1
  O2-  O253  1  0.09467767  0.23667351  0.77298026  1
  O2-  O254  1  0.09893181  0.56997584  0.26881210  1
  O2-  O255  1  0.09265218  0.57275163  0.77293670  1
  O2-  O256  1  0.09437357  0.90646898  0.27260984  1
  O2-  O257  1  0.09369221  0.90466203  0.77093682  1
  O2-  O258  1  0.43347212  0.23895800  0.26657923  1
  O2-  O259  1  0.42738808  0.24168824  0.77328357  1
  O2-  O260  1  0.42931751  0.57006706  0.27517779  1
  O2-  O261  1  0.42665260  0.57513422  0.77022446  1
  O2-  O262  1  0.43089683  0.90698250  0.27052886  1
  O2-  O263  1  0.42477025  0.90791318  0.77249043  1
  O2-  O264  1  0.76579100  0.23404176  0.26899586  1
  O2-  O265  1  0.76160451  0.23986628  0.77330517  1
  O2-  O266  1  0.76300984  0.56839518  0.26777748  1
  O2-  O267  1  0.76477474  0.57113026  0.76445863  1
  O2-  O268  1  0.76408904  0.90491870  0.26892867  1
  O2-  O269  1  0.76117304  0.90664214  0.77348958  1
  O2-  O270  1  0.07105728  0.07290043  0.47755102  1
  O2-  O271  1  0.06790307  0.07177340  0.97961575  1
  O2-  O272  1  0.07211567  0.40287727  0.47709289  1
  O2-  O273  1  0.07113744  0.40593682  0.97900881  1
  O2-  O274  1  0.06902077  0.73906943  0.47934198  1
  O2-  O275  1  0.07147511  0.73755726  0.97991939  1
  O2-  O276  1  0.40792784  0.07518477  0.47724923  1
  O2-  O277  1  0.40428974  0.07260751  0.97878709  1
  O2-  O278  1  0.40142399  0.40154705  0.48164478  1
  O2-  O279  1  0.40476528  0.40702517  0.97906940  1
  O2-  O280  1  0.40991825  0.73954811  0.47872157  1
  O2-  O281  1  0.40367438  0.73857073  0.97996679  1
  O2-  O282  1  0.73909077  0.07173451  0.48040056  1
  O2-  O283  1  0.73765166  0.07138011  0.98132856  1
  O2-  O284  1  0.73749459  0.40713010  0.47670645  1
  O2-  O285  1  0.73904182  0.40557523  0.97905184  1
  O2-  O286  1  0.74038581  0.73849989  0.47432512  1
  O2-  O287  1  0.73873863  0.73597216  0.97894812  1
  O2-  O288  1  0.09428094  0.23700448  0.47625303  1
  O2-  O289  1  0.09241323  0.23690840  0.97991026  1
  O2-  O290  1  0.09433901  0.57156404  0.47795755  1
  O2-  O291  1  0.09414130  0.57025185  0.97970882  1
  O2-  O292  1  0.09186540  0.90708450  0.47559223  1
  O2-  O293  1  0.09545550  0.90410122  0.98119366  1
  O2-  O294  1  0.42820704  0.23895809  0.48201662  1
  O2-  O295  1  0.43105752  0.24151361  0.97928601  1
  O2-  O296  1  0.42909237  0.57125543  0.47894521  1
  O2-  O297  1  0.42721789  0.57326628  0.97681324  1
  O2-  O298  1  0.42544940  0.90895251  0.47791294  1
  O2-  O299  1  0.42904988  0.90410382  0.98041747  1
  O2-  O300  1  0.76229207  0.23833881  0.48122775  1
  O2-  O301  1  0.76435980  0.23614835  0.97816197  1
  O2-  O302  1  0.76380876  0.57061947  0.48268178  1
  O2-  O303  1  0.76379824  0.56896207  0.98497024  1
  O2-  O304  1  0.76125772  0.90696301  0.47755737  1
  O2-  O305  1  0.76438458  0.90495982  0.97946124  1
  O2-  O306  1  0.07247654  0.07289762  0.26874813  1
  O2-  O307  1  0.06798761  0.07110793  0.77423658  1
  O2-  O308  1  0.07244742  0.40508273  0.27213656  1
  O2-  O309  1  0.07193784  0.40318770  0.77166907  1
  O2-  O310  1  0.06983641  0.73600583  0.27328980  1
  O2-  O311  1  0.07077599  0.73906249  0.76799265  1
  O2-  O312  1  0.40511524  0.07240550  0.27116840  1
  O2-  O313  1  0.40696499  0.07455852  0.77431157  1
  O2-  O314  1  0.40274357  0.40148513  0.26960060  1
  O2-  O315  1  0.40380400  0.40650080  0.77051369  1
  O2-  O316  1  0.40440876  0.73703429  0.27008947  1
  O2-  O317  1  0.40822826  0.74171690  0.77142211  1
  O2-  O318  1  0.73666179  0.07191893  0.26613328  1
  O2-  O319  1  0.73940565  0.07068842  0.77135277  1
  O2-  O320  1  0.73718786  0.40504251  0.27446910  1
  O2-  O321  1  0.74027227  0.40637004  0.77036434  1
  O2-  O322  1  0.73913074  0.73518171  0.27241941  1
  O2-  O323  1  0.74008349  0.73893374  0.77491293  1
  O2-  O324  1  0.23784645  0.09442427  0.22746304  1
  O2-  O325  1  0.23347996  0.09525110  0.73660528  1
  O2-  O326  1  0.23960392  0.42911436  0.22914055  1
  O2-  O327  1  0.23543313  0.42528608  0.72655411  1
  O2-  O328  1  0.23530657  0.76164840  0.22777621  1
  O2-  O329  1  0.23947023  0.75927620  0.73875212  1
  O2-  O330  1  0.56961969  0.09982209  0.23284216  1
  O2-  O331  1  0.57130294  0.09594335  0.73663421  1
  O2-  O332  1  0.56952527  0.42999979  0.23256645  1
  O2-  O333  1  0.56802582  0.42792253  0.73257897  1
  O2-  O334  1  0.57047408  0.76219400  0.22843796  1
  O2-  O335  1  0.57339706  0.76134769  0.73803274  1
  O2-  O336  1  0.90606734  0.09157737  0.22312340  1
  O2-  O337  1  0.90376458  0.09659579  0.72612458  1
  O2-  O338  1  0.90379187  0.42572859  0.22921315  1
  O2-  O339  1  0.90572117  0.42972353  0.72822909  1
  O2-  O340  1  0.90402378  0.76161999  0.22825650  1
  O2-  O341  1  0.90390391  0.76401309  0.73044939  1
  O2-  O342  1  0.26262231  0.26158524  0.02185727  1
  O2-  O343  1  0.25874387  0.25858889  0.52295562  1
  O2-  O344  1  0.26183136  0.59579675  0.02147022  1
  O2-  O345  1  0.26133056  0.59074036  0.51435734  1
  O2-  O346  1  0.26616925  0.92929836  0.01870995  1
  O2-  O347  1  0.25695622  0.92881787  0.51048800  1
  O2-  O348  1  0.59907794  0.26439365  0.01968108  1
  O2-  O349  1  0.59017989  0.25534913  0.51856415  1
  O2-  O350  1  0.59394362  0.59404115  0.02233415  1
  O2-  O351  1  0.59321074  0.59067057  0.51797522  1
  O2-  O352  1  0.59546998  0.93079633  0.02336629  1
  O2-  O353  1  0.59387804  0.92685856  0.51048747  1
  O2-  O354  1  0.92812816  0.26221668  0.02254704  1
  O2-  O355  1  0.93308788  0.26297523  0.51475581  1
  O2-  O356  1  0.92844944  0.59540272  0.02090350  1
  O2-  O357  1  0.92747260  0.59530978  0.52168670  1
  O2-  O358  1  0.92713242  0.92699660  0.02238636  1
  O2-  O359  1  0.93033815  0.93275874  0.51252735  1
