# generated using pymatgen
data_Sr7Ca15Pr50Mn72O216
_symmetry_space_group_name_H-M   'P 1'
_cell_length_a   16.55675276
_cell_length_b   16.60494863
_cell_length_c   15.59363976
_cell_angle_alpha   90.00703353
_cell_angle_beta   90.00281144
_cell_angle_gamma   90.00416911
_symmetry_Int_Tables_number   1
_chemical_formula_structural   Sr7Ca15Pr50Mn72O216
_chemical_formula_sum   'Sr7 Ca15 Pr50 Mn72 O216'
_cell_volume   4287.06622106
_cell_formula_units_Z   1
loop_
 _symmetry_equiv_pos_site_id
 _symmetry_equiv_pos_as_xyz
  1  'x, y, z'
loop_
 _atom_type_symbol
 _atom_type_oxidation_number
  Sr2+  2.0
  Ca2+  2.0
  Pr3+  3.0
  Mn3.30+  3.3
  O2-  -2.0
loop_
 _atom_site_type_symbol
 _atom_site_label
 _atom_site_symmetry_multiplicity
 _atom_site_fract_x
 _atom_site_fract_y
 _atom_site_fract_z
 _atom_site_occupancy
  Sr2+  Sr0  1  0.66788292  0.99127680  0.87454744  1
  Sr2+  Sr1  1  0.33395399  0.99022798  0.87559529  1
  Sr2+  Sr2  1  0.66671313  0.32411277  0.87346425  1
  Sr2+  Sr3  1  0.83707330  0.84418688  0.12594483  1
  Sr2+  Sr4  1  0.32730617  0.34539410  0.12551722  1
  Sr2+  Sr5  1  0.66570067  0.34485953  0.62584729  1
  Sr2+  Sr6  1  0.50197535  0.50789992  0.62387756  1
  Ca2+  Ca7  1  0.16967619  0.84868068  0.62269190  1
  Ca2+  Ca8  1  0.17093133  0.51460071  0.12623843  1
  Ca2+  Ca9  1  0.17163114  0.17884483  0.12694135  1
  Ca2+  Ca10  1  1.00751452  0.98166466  0.37641650  1
  Ca2+  Ca11  1  0.16245723  0.48554792  0.37215332  1
  Ca2+  Ca12  1  0.83695928  0.51447684  0.62558518  1
  Ca2+  Ca13  1  0.16290448  0.81846454  0.87381060  1
  Ca2+  Ca14  1  0.67079777  0.65281417  0.37558044  1
  Ca2+  Ca15  1  0.16636925  0.82294908  0.37673696  1
  Ca2+  Ca16  1  0.16674922  0.17871018  0.62276022  1
  Ca2+  Ca17  1  1.00447248  0.65381909  0.87576825  1
  Ca2+  Ca18  1  0.32478020  0.01748482  0.12794297  1
  Ca2+  Ca19  1  0.33171763  0.98640252  0.37521458  1
  Ca2+  Ca20  1  0.16085152  0.14780738  0.37479622  1
  Ca2+  Ca21  1  0.00190440  0.01320088  0.62074455  1
  Pr3+  Pr22  1  0.33606684  0.32045601  0.87556920  1
  Pr3+  Pr23  1  0.49594673  0.82043151  0.37558484  1
  Pr3+  Pr24  1  0.33418360  0.65736246  0.87451058  1
  Pr3+  Pr25  1  0.84028180  0.84846405  0.62448246  1
  Pr3+  Pr26  1  0.16953942  0.51338921  0.62296759  1
  Pr3+  Pr27  1  0.32659338  0.01405452  0.62308476  1
  Pr3+  Pr28  1  0.49590420  0.15448759  0.87398014  1
  Pr3+  Pr29  1  0.66551295  0.67395431  0.62304209  1
  Pr3+  Pr30  1  0.32947728  0.34538081  0.62402082  1
  Pr3+  Pr31  1  1.00760186  0.31833422  0.37515781  1
  Pr3+  Pr32  1  0.66927157  0.65634638  0.87534138  1
  Pr3+  Pr33  1  0.83673796  0.51269411  0.12405811  1
  Pr3+  Pr34  1  0.83694559  0.17817444  0.62496458  1
  Pr3+  Pr35  1  0.83229187  0.48844827  0.87395275  1
  Pr3+  Pr36  1  1.00307134  0.31857481  0.87464422  1
  Pr3+  Pr37  1  1.00619487  0.65323595  0.37441326  1
  Pr3+  Pr38  1  0.66593212  0.01117468  0.12495832  1
  Pr3+  Pr39  1  -0.00488138  0.34750688  0.62481777  1
  Pr3+  Pr40  1  0.83321418  0.81877472  0.37453038  1
  Pr3+  Pr41  1  0.17160063  0.84764776  0.12690378  1
  Pr3+  Pr42  1  0.66909978  0.32165666  0.37647398  1
  Pr3+  Pr43  1  0.83710180  0.17786440  0.12523945  1
  Pr3+  Pr44  1  0.66463670  0.01200878  0.62503843  1
  Pr3+  Pr45  1  0.16544128  0.15294849  0.87522894  1
  Pr3+  Pr46  1  0.83411103  0.15304752  0.37563979  1
  Pr3+  Pr47  1  0.49200846  0.15206465  0.37601668  1
  Pr3+  Pr48  1  0.00162675  0.34487503  0.12513987  1
  Pr3+  Pr49  1  0.50013034  0.51234468  0.12591407  1
  Pr3+  Pr50  1  0.49948309  0.84802575  0.12540521  1
  Pr3+  Pr51  1  -0.00302359  0.67892888  0.62565619  1
  Pr3+  Pr52  1  1.00720876  0.98540139  0.87340444  1
  Pr3+  Pr53  1  -0.00016231  0.68047249  0.12418364  1
  Pr3+  Pr54  1  0.83062833  0.15372464  0.87402238  1
  Pr3+  Pr55  1  0.50144412  0.17829661  0.62523453  1
  Pr3+  Pr56  1  0.32831017  0.67754427  0.12578101  1
  Pr3+  Pr57  1  0.32840768  0.68242883  0.62421797  1
  Pr3+  Pr58  1  0.66924077  0.98724537  0.37572424  1
  Pr3+  Pr59  1  0.33084935  0.65575644  0.37579340  1
  Pr3+  Pr60  1  0.66230279  0.34566514  0.12470967  1
  Pr3+  Pr61  1  0.50100234  0.84412251  0.62497913  1
  Pr3+  Pr62  1  0.16323328  0.48741702  0.87595167  1
  Pr3+  Pr63  1  0.83125407  0.48983008  0.37558569  1
  Pr3+  Pr64  1  0.49632161  0.48710635  0.87362393  1
  Pr3+  Pr65  1  0.49622885  0.82232320  0.87469436  1
  Pr3+  Pr66  1  0.83259753  0.82265212  0.87541211  1
  Pr3+  Pr67  1  0.66453075  0.68172045  0.12698337  1
  Pr3+  Pr68  1  -0.00065146  0.01093673  0.12792948  1
  Pr3+  Pr69  1  0.33001857  0.32138227  0.37471478  1
  Pr3+  Pr70  1  0.49745840  0.17678079  0.12500580  1
  Pr3+  Pr71  1  0.49847618  0.48815435  0.37657874  1
  Mn3.30+  Mn72  1  0.16860385  -0.00083562  0.00041706  1
  Mn3.30+  Mn73  1  0.16484426  -0.00055145  0.49905632  1
  Mn3.30+  Mn74  1  0.16786556  0.33268108  0.00132436  1
  Mn3.30+  Mn75  1  0.16457960  0.33133705  0.50028373  1
  Mn3.30+  Mn76  1  0.16546197  0.66740304  -0.00139541  1
  Mn3.30+  Mn77  1  0.16530751  0.66926904  0.49978084  1
  Mn3.30+  Mn78  1  0.49662889  0.00069601  0.00163365  1
  Mn3.30+  Mn79  1  0.49704193  -0.00133870  0.49943308  1
  Mn3.30+  Mn80  1  0.49798733  0.33319895  0.00150423  1
  Mn3.30+  Mn81  1  0.49993718  0.33252551  0.49882480  1
  Mn3.30+  Mn82  1  0.49926435  0.66730913  0.00062308  1
  Mn3.30+  Mn83  1  0.50065158  0.66574005  0.49887642  1
  Mn3.30+  Mn84  1  0.83528477  -0.00079859  0.00042303  1
  Mn3.30+  Mn85  1  0.83834865  -0.00025725  0.49879254  1
  Mn3.30+  Mn86  1  0.83328549  0.33315340  0.00033226  1
  Mn3.30+  Mn87  1  0.83535558  0.33496864  0.49992064  1
  Mn3.30+  Mn88  1  0.83634168  0.66795751  -0.00118494  1
  Mn3.30+  Mn89  1  0.83357876  0.66557938  0.50003850  1
  Mn3.30+  Mn90  1  0.00505261  0.16407188  0.25119810  1
  Mn3.30+  Mn91  1  0.00192011  0.16454757  0.74692576  1
  Mn3.30+  Mn92  1  0.00340797  0.49944561  0.24818607  1
  Mn3.30+  Mn93  1  -0.00036237  0.50182070  0.75070002  1
  Mn3.30+  Mn94  1  0.00351055  0.83411216  0.25252860  1
  Mn3.30+  Mn95  1  0.00400379  0.83366308  0.74830858  1
  Mn3.30+  Mn96  1  0.32701567  0.16440957  0.25262196  1
  Mn3.30+  Mn97  1  0.33034093  0.16649119  0.74744688  1
  Mn3.30+  Mn98  1  0.32914694  0.49985097  0.25181565  1
  Mn3.30+  Mn99  1  0.33208129  0.50173455  0.74831664  1
  Mn3.30+  Mn100  1  0.33154476  0.83596609  0.25171161  1
  Mn3.30+  Mn101  1  0.32909330  0.83498722  0.75063689  1
  Mn3.30+  Mn102  1  0.66578062  0.16629305  0.25078876  1
  Mn3.30+  Mn103  1  0.66693127  0.16667831  0.75040779  1
  Mn3.30+  Mn104  1  0.66701306  0.50165562  0.25048451  1
  Mn3.30+  Mn105  1  0.66764892  0.50035643  0.74889760  1
  Mn3.30+  Mn106  1  0.66629751  0.83360360  0.25095425  1
  Mn3.30+  Mn107  1  0.66843166  0.83315947  0.74920974  1
  Mn3.30+  Mn108  1  0.16732663  -0.00000159  0.25365267  1
  Mn3.30+  Mn109  1  0.16593733  -0.00169980  0.74701941  1
  Mn3.30+  Mn110  1  0.16715453  0.33244907  0.25003247  1
  Mn3.30+  Mn111  1  0.16557113  0.33186517  0.74830691  1
  Mn3.30+  Mn112  1  0.16613450  0.66681373  0.25090681  1
  Mn3.30+  Mn113  1  0.16405250  0.66962731  0.75041581  1
  Mn3.30+  Mn114  1  0.49521875  0.00033842  0.25005130  1
  Mn3.30+  Mn115  1  0.49812563  -0.00107899  0.75010257  1
  Mn3.30+  Mn116  1  0.49754348  0.33271899  0.25018716  1
  Mn3.30+  Mn117  1  0.50022611  0.33334035  0.74974643  1
  Mn3.30+  Mn118  1  0.49968443  0.66690664  0.25245516  1
  Mn3.30+  Mn119  1  0.49992130  0.66638803  0.74826274  1
  Mn3.30+  Mn120  1  0.83660626  -0.00108905  0.25221730  1
  Mn3.30+  Mn121  1  0.83725699  0.00013942  0.74829993  1
  Mn3.30+  Mn122  1  0.83504035  0.33333830  0.25043240  1
  Mn3.30+  Mn123  1  0.83341882  0.33478548  0.74898796  1
  Mn3.30+  Mn124  1  0.83422845  0.66682465  0.24994473  1
  Mn3.30+  Mn125  1  0.83514659  0.66685114  0.75076589  1
  Mn3.30+  Mn126  1  0.00245312  0.16517799  0.00170013  1
  Mn3.30+  Mn127  1  0.00388578  0.16344736  0.49989810  1
  Mn3.30+  Mn128  1  0.00266465  0.50087611  0.00045196  1
  Mn3.30+  Mn129  1  0.00040277  0.50009078  0.49971611  1
  Mn3.30+  Mn130  1  0.00287259  0.83276470  -0.00136150  1
  Mn3.30+  Mn131  1  0.00456053  0.83503462  0.50075202  1
  Mn3.30+  Mn132  1  0.33031811  0.16561733  0.00221906  1
  Mn3.30+  Mn133  1  0.32712894  0.16512984  0.49781631  1
  Mn3.30+  Mn134  1  0.33021073  0.50092059  0.00100285  1
  Mn3.30+  Mn135  1  0.33079776  0.50046396  0.49842577  1
  Mn3.30+  Mn136  1  0.33089407  0.83509735  -0.00046734  1
  Mn3.30+  Mn137  1  0.33011291  0.83600333  0.49870957  1
  Mn3.30+  Mn138  1  0.66712803  0.16684275  0.00013357  1
  Mn3.30+  Mn139  1  0.66574311  0.16639494  0.49889281  1
  Mn3.30+  Mn140  1  0.66692984  0.50103266  0.00013044  1
  Mn3.30+  Mn141  1  0.66809708  0.50089559  0.50069174  1
  Mn3.30+  Mn142  1  0.66658760  0.83531990  0.00034264  1
  Mn3.30+  Mn143  1  0.66850848  0.83110978  0.49957296  1
  O2-  O144  1  0.02886116  0.15852788  0.12745837  1
  O2-  O145  1  0.02592236  0.16084924  0.62312808  1
  O2-  O146  1  0.02905889  0.49321262  0.12452945  1
  O2-  O147  1  0.02615810  0.49612227  0.62734553  1
  O2-  O148  1  0.02624661  0.82943192  0.12688434  1
  O2-  O149  1  0.02772889  0.82367464  0.62530295  1
  O2-  O150  1  0.35437286  0.16197801  0.12943679  1
  O2-  O151  1  0.35745864  0.16365165  0.62221022  1
  O2-  O152  1  0.35658171  0.50364939  0.12811296  1
  O2-  O153  1  0.35116689  0.49520941  0.62282782  1
  O2-  O154  1  0.35710916  0.82372538  0.12647948  1
  O2-  O155  1  0.35760259  0.82972072  0.62387556  1
  O2-  O156  1  0.69277188  0.16011394  0.12681672  1
  O2-  O157  1  0.69104854  0.16030945  0.62290307  1
  O2-  O158  1  0.69202405  0.49428008  0.12564606  1
  O2-  O159  1  0.69272634  0.50322299  0.62536822  1
  O2-  O160  1  0.68696576  0.83003168  0.12509695  1
  O2-  O161  1  0.69582390  0.82317788  0.62174314  1
  O2-  O162  1  0.14338407  0.32244037  0.12460863  1
  O2-  O163  1  0.13924865  0.32479564  0.62545226  1
  O2-  O164  1  0.14415267  0.66032963  0.12457510  1
  O2-  O165  1  0.14057513  0.65864378  0.62487578  1
  O2-  O166  1  0.14107813  0.99230139  0.12782432  1
  O2-  O167  1  0.14092901  0.99027855  0.62369642  1
  O2-  O168  1  0.47746852  0.32779289  0.12716572  1
  O2-  O169  1  0.47481356  0.32789590  0.62342479  1
  O2-  O170  1  0.47305856  0.66057207  0.12793683  1
  O2-  O171  1  0.47342686  0.66417781  0.62412790  1
  O2-  O172  1  0.46912633  0.99590589  0.12718386  1
  O2-  O173  1  0.47300671  0.99334886  0.62484164  1
  O2-  O174  1  0.80672723  0.32657766  0.12606376  1
  O2-  O175  1  0.81517877  0.32513873  0.62292998  1
  O2-  O176  1  0.80884518  0.66170575  0.12459148  1
  O2-  O177  1  0.80952214  0.66184275  0.62592869  1
  O2-  O178  1  0.81078788  0.99927570  0.12855892  1
  O2-  O179  1  0.80877131  0.99655102  0.62257750  1
  O2-  O180  1  0.30211973  0.17524347  0.37630964  1
  O2-  O181  1  0.30963223  0.17176824  0.87223980  1
  O2-  O182  1  0.30429362  0.50657278  0.37621890  1
  O2-  O183  1  0.30778490  0.50688035  0.87297016  1
  O2-  O184  1  0.30832552  0.83891548  0.37541715  1
  O2-  O185  1  0.30714994  0.83286832  0.87452018  1
  O2-  O186  1  0.63832149  0.17228134  0.37451250  1
  O2-  O187  1  0.64166137  0.16714782  0.87619616  1
  O2-  O188  1  0.64306609  0.50666733  0.37248891  1
  O2-  O189  1  0.64062473  0.50844127  0.87676311  1
  O2-  O190  1  0.63979880  0.84145746  0.37608228  1
  O2-  O191  1  0.64125606  0.83459266  0.87766193  1
  O2-  O192  1  0.97525107  0.17363230  0.37480675  1
  O2-  O193  1  0.97489961  0.17025608  0.87476507  1
  O2-  O194  1  0.97476852  0.50394391  0.37215028  1
  O2-  O195  1  0.97638775  0.50449124  0.87472309  1
  O2-  O196  1  0.97661579  0.83529892  0.37724194  1
  O2-  O197  1  0.97475517  0.84100214  0.87084026  1
  O2-  O198  1  0.19325721  0.00742267  0.37566317  1
  O2-  O199  1  0.18561566  0.00788435  0.87268652  1
  O2-  O200  1  0.18659415  0.34338064  0.37573067  1
  O2-  O201  1  0.19153592  0.33950581  0.87357218  1
  O2-  O202  1  0.18771297  0.67741622  0.37638493  1
  O2-  O203  1  0.19152324  0.67313793  0.87330333  1
  O2-  O204  1  0.52539813  0.00438180  0.37447509  1
  O2-  O205  1  0.51816140  0.00570198  0.87471611  1
  O2-  O206  1  0.52473322  0.33711035  0.37306491  1
  O2-  O207  1  0.51569478  0.33710503  0.87667898  1
  O2-  O208  1  0.52879815  0.67394428  0.37406682  1
  O2-  O209  1  0.52484814  0.67444072  0.87384456  1
  O2-  O210  1  0.86219704  0.00582397  0.37608143  1
  O2-  O211  1  0.86160435  0.00588569  0.87282353  1
  O2-  O212  1  0.86240843  0.34122889  0.37519052  1
  O2-  O213  1  0.85958709  0.33896036  0.87525556  1
  O2-  O214  1  0.86074032  0.66893424  0.37397235  1
  O2-  O215  1  0.86171692  0.67428186  0.87497206  1
  O2-  O216  1  0.23551833  0.09693465  0.01756646  1
  O2-  O217  1  0.23474790  0.09466113  0.52494710  1
  O2-  O218  1  0.23395764  0.43292644  0.01709394  1
  O2-  O219  1  0.23608147  0.42363354  0.52179229  1
  O2-  O220  1  0.23894113  0.76049476  0.02195264  1
  O2-  O221  1  0.23946998  0.76223739  0.52200801  1
  O2-  O222  1  0.57262574  0.09271752  0.02295946  1
  O2-  O223  1  0.56926942  0.09134119  0.52048507  1
  O2-  O224  1  0.57044863  0.42734639  0.02063836  1
  O2-  O225  1  0.57597540  0.42776143  0.51134240  1
  O2-  O226  1  0.57127341  0.76010489  0.02191095  1
  O2-  O227  1  0.57154094  0.75960360  0.52129893  1
  O2-  O228  1  0.90758328  0.09498001  0.02125129  1
  O2-  O229  1  0.90375111  0.09855777  0.51749541  1
  O2-  O230  1  0.90666854  0.42606535  0.02077653  1
  O2-  O231  1  0.90466846  0.43068194  0.52182787  1
  O2-  O232  1  0.90886694  0.76006681  0.01828651  1
  O2-  O233  1  0.90431693  0.76129629  0.51892001  1
  O2-  O234  1  0.26135324  0.26420836  0.23739672  1
  O2-  O235  1  0.26282136  0.26448014  0.73199633  1
  O2-  O236  1  0.26297094  0.59891903  0.23569127  1
  O2-  O237  1  0.26062086  0.59699638  0.72965833  1
  O2-  O238  1  0.26234212  0.92954942  0.22821368  1
  O2-  O239  1  0.26240846  0.93022072  0.72908205  1
  O2-  O240  1  0.59600977  0.25952877  0.22934338  1
  O2-  O241  1  0.58911078  0.25521188  0.73138414  1
  O2-  O242  1  0.59390469  0.59340147  0.22607862  1
  O2-  O243  1  0.59693482  0.59663999  0.73363569  1
  O2-  O244  1  0.59420368  0.92961570  0.22996940  1
  O2-  O245  1  0.59580029  0.92364430  0.72609798  1
  O2-  O246  1  0.93020255  0.25953584  0.22819308  1
  O2-  O247  1  0.93046216  0.25997693  0.73073094  1
  O2-  O248  1  0.93045368  0.59190108  0.22671810  1
  O2-  O249  1  0.92719172  0.59467724  0.73050655  1
  O2-  O250  1  0.93277108  0.92696606  0.23382856  1
  O2-  O251  1  0.93272817  0.93009316  0.72573551  1
  O2-  O252  1  0.09465737  0.23660300  0.27352743  1
  O2-  O253  1  0.09399213  0.23880154  0.77296682  1
  O2-  O254  1  0.09488078  0.57172408  0.27279134  1
  O2-  O255  1  0.09706667  0.56953254  0.76803752  1
  O2-  O256  1  0.10135472  0.90076483  0.27009062  1
  O2-  O257  1  0.09608361  0.90330029  0.77314967  1
  O2-  O258  1  0.42438470  0.23615862  0.27178227  1
  O2-  O259  1  0.42525078  0.23916332  0.76842592  1
  O2-  O260  1  0.42819984  0.57325140  0.27331036  1
  O2-  O261  1  0.42783374  0.57577184  0.77277776  1
  O2-  O262  1  0.43108754  0.90219351  0.26818000  1
  O2-  O263  1  0.42994511  0.90268238  0.76688620  1
  O2-  O264  1  0.76291306  0.24012711  0.27302554  1
  O2-  O265  1  0.76332323  0.23852203  0.76688416  1
  O2-  O266  1  0.76391334  0.56992530  0.26624425  1
  O2-  O267  1  0.76049471  0.57624757  0.77519498  1
  O2-  O268  1  0.76081017  0.90735499  0.27468091  1
  O2-  O269  1  0.76905004  0.90526127  0.76508459  1
  O2-  O270  1  0.06897216  0.06696972  0.47904890  1
  O2-  O271  1  0.07112809  0.07049908  0.98096054  1
  O2-  O272  1  0.06767282  0.40105405  0.48573971  1
  O2-  O273  1  0.07202374  0.40236815  0.97910975  1
  O2-  O274  1  0.06805786  0.73439398  0.48386023  1
  O2-  O275  1  0.07018844  0.73548959  0.98258607  1
  O2-  O276  1  0.39908509  0.07317223  0.47814190  1
  O2-  O277  1  0.40924159  0.07723916  0.98272792  1
  O2-  O278  1  0.40701837  0.40529172  0.47866558  1
  O2-  O279  1  0.40352852  0.40937036  0.98002709  1
  O2-  O280  1  0.40516118  0.73968428  0.47918106  1
  O2-  O281  1  0.40485927  0.73976590  0.97995558  1
  O2-  O282  1  0.73747922  0.07309535  0.47850076  1
  O2-  O283  1  0.74328667  0.07488731  0.98319044  1
  O2-  O284  1  0.74123119  0.40763965  0.47591426  1
  O2-  O285  1  0.74060427  0.40986416  0.98268975  1
  O2-  O286  1  0.73860368  0.73800026  0.47553229  1
  O2-  O287  1  0.74111823  0.73910087  0.98101588  1
  O2-  O288  1  0.09570321  0.23588675  0.47696129  1
  O2-  O289  1  0.09265696  0.23834449  0.97685678  1
  O2-  O290  1  0.09529121  0.56857156  0.47872511  1
  O2-  O291  1  0.09621031  0.57252787  0.97894647  1
  O2-  O292  1  0.09913522  0.90227953  0.47824306  1
  O2-  O293  1  0.09785360  0.90265613  0.98004799  1
  O2-  O294  1  0.42427640  0.23733010  0.47914464  1
  O2-  O295  1  0.42631453  0.23852499  0.98181436  1
  O2-  O296  1  0.42789858  0.57629081  0.47519978  1
  O2-  O297  1  0.42872223  0.57317286  0.97969096  1
  O2-  O298  1  0.43019601  0.90315830  0.48213218  1
  O2-  O299  1  0.42979999  0.90162254  0.98329718  1
  O2-  O300  1  0.76241576  0.24124796  0.47719610  1
  O2-  O301  1  0.76433414  0.23865409  0.98235765  1
  O2-  O302  1  0.76271092  0.57272571  0.47966634  1
  O2-  O303  1  0.76321029  0.57494754  0.97888782  1
  O2-  O304  1  0.76403027  0.90506670  0.47877479  1
  O2-  O305  1  0.76284717  0.90690570  0.98133349  1
  O2-  O306  1  0.06815791  0.06485226  0.27093153  1
  O2-  O307  1  0.07278333  0.07240959  0.76988241  1
  O2-  O308  1  0.06844604  0.40062985  0.26517884  1
  O2-  O309  1  0.07090820  0.40389457  0.77005736  1
  O2-  O310  1  0.07035970  0.73490269  0.26472303  1
  O2-  O311  1  0.06798222  0.73415774  0.76962706  1
  O2-  O312  1  0.40267777  0.07230132  0.27590438  1
  O2-  O313  1  0.40649805  0.07686206  0.76460757  1
  O2-  O314  1  0.40400910  0.40975627  0.27422991  1
  O2-  O315  1  0.40437978  0.40745065  0.76819420  1
  O2-  O316  1  0.40451424  0.73929026  0.27319269  1
  O2-  O317  1  0.40506353  0.74046421  0.76843757  1
  O2-  O318  1  0.73771240  0.07336322  0.27236784  1
  O2-  O319  1  0.74299456  0.07429332  0.76597007  1
  O2-  O320  1  0.73757484  0.40588810  0.27079968  1
  O2-  O321  1  0.74262283  0.41166605  0.77037502  1
  O2-  O322  1  0.73747257  0.73886444  0.27082471  1
  O2-  O323  1  0.74055516  0.73979489  0.77200976  1
  O2-  O324  1  0.23375547  0.09591450  0.22970182  1
  O2-  O325  1  0.23667939  0.09624895  0.72720090  1
  O2-  O326  1  0.23485983  0.43114333  0.23165762  1
  O2-  O327  1  0.23511323  0.42685677  0.72909013  1
  O2-  O328  1  0.23988313  0.76056572  0.22992119  1
  O2-  O329  1  0.23814431  0.76140806  0.72566522  1
  O2-  O330  1  0.56840666  0.09298360  0.22897666  1
  O2-  O331  1  0.57292123  0.09081219  0.72866369  1
  O2-  O332  1  0.57352528  0.42938479  0.22975070  1
  O2-  O333  1  0.57346998  0.42751748  0.73795661  1
  O2-  O334  1  0.56976230  0.76139213  0.22869405  1
  O2-  O335  1  0.57151526  0.75819750  0.72787370  1
  O2-  O336  1  0.90568852  0.09623149  0.23083385  1
  O2-  O337  1  0.90504192  0.09678508  0.73074613  1
  O2-  O338  1  0.90557090  0.42776459  0.22679139  1
  O2-  O339  1  0.90678156  0.42924239  0.72973111  1
  O2-  O340  1  0.90869282  0.75885379  0.23422743  1
  O2-  O341  1  0.90520144  0.76305583  0.72823304  1
  O2-  O342  1  0.26089111  0.26288824  0.01146179  1
  O2-  O343  1  0.26229330  0.26429300  0.51801815  1
  O2-  O344  1  0.26334485  0.59876027  0.01464223  1
  O2-  O345  1  0.25910056  0.59847067  0.51936341  1
  O2-  O346  1  0.26294323  0.92859663  0.02424096  1
  O2-  O347  1  0.26255119  0.93152084  0.51828759  1
  O2-  O348  1  0.59308667  0.25853254  0.02302208  1
  O2-  O349  1  0.59108670  0.25726840  0.51800163  1
  O2-  O350  1  0.59521370  0.59527861  0.02232543  1
  O2-  O351  1  0.59580789  0.59474663  0.51699287  1
  O2-  O352  1  0.59032429  0.92887463  0.02352372  1
  O2-  O353  1  0.59844515  0.92485425  0.52178452  1
  O2-  O354  1  0.93006020  0.25901856  0.02160565  1
  O2-  O355  1  0.93029682  0.26097264  0.51868889  1
  O2-  O356  1  0.92662603  0.59257775  0.02303531  1
  O2-  O357  1  0.93057990  0.59586847  0.51718612  1
  O2-  O358  1  0.93276004  0.92960357  0.01590195  1
  O2-  O359  1  0.93194861  0.92537417  0.52330986  1
