# generated using pymatgen
data_Sr7Ca15Pr50Mn72O216
_symmetry_space_group_name_H-M   'P 1'
_cell_length_a   16.55307581
_cell_length_b   16.59872548
_cell_length_c   15.58821081
_cell_angle_alpha   90.00715539
_cell_angle_beta   90.00024671
_cell_angle_gamma   90.01022468
_symmetry_Int_Tables_number   1
_chemical_formula_structural   Sr7Ca15Pr50Mn72O216
_chemical_formula_sum   'Sr7 Ca15 Pr50 Mn72 O216'
_cell_volume   4283.01609725
_cell_formula_units_Z   1
loop_
 _symmetry_equiv_pos_site_id
 _symmetry_equiv_pos_as_xyz
  1  'x, y, z'
loop_
 _atom_type_symbol
 _atom_type_oxidation_number
  Sr2+  2.0
  Ca2+  2.0
  Pr3+  3.0
  Mn3.30+  3.3
  O2-  -2.0
loop_
 _atom_site_type_symbol
 _atom_site_label
 _atom_site_symmetry_multiplicity
 _atom_site_fract_x
 _atom_site_fract_y
 _atom_site_fract_z
 _atom_site_occupancy
  Sr2+  Sr0  1  0.16598771  0.84193626  0.12544913  1
  Sr2+  Sr1  1  0.66270374  0.67964594  0.62519701  1
  Sr2+  Sr2  1  -0.00290260  0.67657311  0.62413688  1
  Sr2+  Sr3  1  -0.00095372  0.33877271  0.12916182  1
  Sr2+  Sr4  1  -0.00008183  0.00802086  0.12517792  1
  Sr2+  Sr5  1  0.33748628  0.98693667  0.87488116  1
  Sr2+  Sr6  1  0.16683734  0.17334827  0.12553063  1
  Ca2+  Ca7  1  0.83885330  0.84897168  0.12743049  1
  Ca2+  Ca8  1  0.49780967  0.48682438  0.37334532  1
  Ca2+  Ca9  1  0.82934721  0.82008073  0.37295124  1
  Ca2+  Ca10  1  0.83478730  0.18161992  0.62267774  1
  Ca2+  Ca11  1  0.33428663  0.01093477  0.62533656  1
  Ca2+  Ca12  1  0.50442894  0.51392970  0.12755492  1
  Ca2+  Ca13  1  0.82975219  0.48470663  0.37564108  1
  Ca2+  Ca14  1  0.66477923  0.34730347  0.62295731  1
  Ca2+  Ca15  1  0.49780076  0.15006479  0.37567728  1
  Ca2+  Ca16  1  0.49733129  0.82076290  0.87541751  1
  Ca2+  Ca17  1  0.50544027  0.85132590  0.12338999  1
  Ca2+  Ca18  1  0.66527101  0.01348276  0.12637613  1
  Ca2+  Ca19  1  1.00016562  0.31935949  0.37339733  1
  Ca2+  Ca20  1  0.50343215  0.84637420  0.62702314  1
  Ca2+  Ca21  1  -0.00609641  0.68403957  0.12683076  1
  Pr3+  Pr22  1  0.33741788  0.65179423  0.37259142  1
  Pr3+  Pr23  1  0.16595855  0.82212270  0.87826592  1
  Pr3+  Pr24  1  0.32995080  0.01094941  0.12461063  1
  Pr3+  Pr25  1  0.49786709  0.15165902  0.87410677  1
  Pr3+  Pr26  1  0.33374111  0.67997793  0.12608014  1
  Pr3+  Pr27  1  0.83483428  0.84269193  0.62291543  1
  Pr3+  Pr28  1  0.32851613  0.34390694  0.12594121  1
  Pr3+  Pr29  1  1.00357627  0.98649525  0.87697202  1
  Pr3+  Pr30  1  1.00312296  0.65516314  0.87750411  1
  Pr3+  Pr31  1  0.33642493  0.65900789  0.87711826  1
  Pr3+  Pr32  1  0.66981324  0.32027172  0.87339487  1
  Pr3+  Pr33  1  0.83039052  0.48836605  0.87428801  1
  Pr3+  Pr34  1  0.17112803  0.84661325  0.62417996  1
  Pr3+  Pr35  1  0.33738193  0.98918909  0.37458768  1
  Pr3+  Pr36  1  0.66328458  0.68220698  0.12553115  1
  Pr3+  Pr37  1  0.66994567  0.98568040  0.37348188  1
  Pr3+  Pr38  1  0.99775999  0.65580172  0.37261516  1
  Pr3+  Pr39  1  0.83230931  0.51444534  0.62207983  1
  Pr3+  Pr40  1  0.17086966  0.17841804  0.62432905  1
  Pr3+  Pr41  1  0.16486315  0.15159054  0.87547497  1
  Pr3+  Pr42  1  0.66360790  0.34698804  0.12646966  1
  Pr3+  Pr43  1  0.83044069  0.15350317  0.87519694  1
  Pr3+  Pr44  1  0.67276492  0.65179688  0.37526595  1
  Pr3+  Pr45  1  0.33064508  0.34781924  0.62368627  1
  Pr3+  Pr46  1  0.16182178  0.48501562  0.37467728  1
  Pr3+  Pr47  1  -0.00524557  0.34554503  0.62189275  1
  Pr3+  Pr48  1  -0.00548651  0.01469364  0.62454634  1
  Pr3+  Pr49  1  0.66711466  0.32197783  0.37672408  1
  Pr3+  Pr50  1  0.50535329  0.51318399  0.62253636  1
  Pr3+  Pr51  1  0.16336313  0.15425221  0.37424516  1
  Pr3+  Pr52  1  1.00170344  0.32013376  0.87572496  1
  Pr3+  Pr53  1  0.49717961  0.48901449  0.87595905  1
  Pr3+  Pr54  1  0.16337477  0.48870715  0.87521898  1
  Pr3+  Pr55  1  0.16643697  0.51032904  0.12662406  1
  Pr3+  Pr56  1  0.16427166  0.82137894  0.37169434  1
  Pr3+  Pr57  1  0.50447964  0.17922950  0.62358438  1
  Pr3+  Pr58  1  0.83656558  0.17704944  0.12711814  1
  Pr3+  Pr59  1  0.49923837  0.82132740  0.37371841  1
  Pr3+  Pr60  1  0.50308579  0.17542288  0.12613359  1
  Pr3+  Pr61  1  0.66386449  0.00878902  0.62431949  1
  Pr3+  Pr62  1  0.66733791  0.98637485  0.87658564  1
  Pr3+  Pr63  1  1.00119158  0.98745163  0.37290972  1
  Pr3+  Pr64  1  0.33660760  0.31915875  0.87410611  1
  Pr3+  Pr65  1  0.66665384  0.65546904  0.87544340  1
  Pr3+  Pr66  1  0.16786587  0.51489428  0.62297038  1
  Pr3+  Pr67  1  0.83938263  0.51394313  0.12794944  1
  Pr3+  Pr68  1  0.34014575  0.31727636  0.37563291  1
  Pr3+  Pr69  1  0.83060940  0.82107935  0.87749041  1
  Pr3+  Pr70  1  0.33215632  0.67955244  0.62350924  1
  Pr3+  Pr71  1  0.83257414  0.15632877  0.37508945  1
  Mn3.30+  Mn72  1  0.16848149  -0.00178512  0.00072641  1
  Mn3.30+  Mn73  1  0.16761837  -0.00018440  0.50088651  1
  Mn3.30+  Mn74  1  0.16673096  0.33271322  0.00096039  1
  Mn3.30+  Mn75  1  0.16502041  0.33279560  0.49870305  1
  Mn3.30+  Mn76  1  0.16625918  0.66675103  0.00386890  1
  Mn3.30+  Mn77  1  0.16629360  0.66756921  0.49780437  1
  Mn3.30+  Mn78  1  0.50150594  -0.00259957  0.00127121  1
  Mn3.30+  Mn79  1  0.49992399  -0.00083569  0.50067723  1
  Mn3.30+  Mn80  1  0.50004489  0.33400205  0.00144819  1
  Mn3.30+  Mn81  1  0.50171385  0.33328475  0.49916290  1
  Mn3.30+  Mn82  1  0.50117657  0.66875984  0.00264976  1
  Mn3.30+  Mn83  1  0.50153546  0.66726818  0.49792936  1
  Mn3.30+  Mn84  1  0.83212668  -0.00109072  0.00236277  1
  Mn3.30+  Mn85  1  0.83253316  -0.00016525  0.49949254  1
  Mn3.30+  Mn86  1  0.83307586  0.33356001  0.00061678  1
  Mn3.30+  Mn87  1  0.83179006  0.33334651  0.49977929  1
  Mn3.30+  Mn88  1  0.83384206  0.66775581  0.00198088  1
  Mn3.30+  Mn89  1  0.83238664  0.66770109  0.49866629  1
  Mn3.30+  Mn90  1  -0.00082844  0.16665766  0.25039214  1
  Mn3.30+  Mn91  1  -0.00174374  0.16697309  0.74892504  1
  Mn3.30+  Mn92  1  -0.00229574  0.49870553  0.25153587  1
  Mn3.30+  Mn93  1  -0.00179452  0.50033676  0.74923190  1
  Mn3.30+  Mn94  1  -0.00475886  0.83301792  0.24979390  1
  Mn3.30+  Mn95  1  0.00043632  0.83293569  0.74895733  1
  Mn3.30+  Mn96  1  0.33574206  0.16576025  0.25160764  1
  Mn3.30+  Mn97  1  0.33477567  0.16426953  0.74755258  1
  Mn3.30+  Mn98  1  0.33645521  0.49863168  0.24914414  1
  Mn3.30+  Mn99  1  0.33332691  0.50186646  0.75044480  1
  Mn3.30+  Mn100  1  0.33553313  0.83349508  0.24875820  1
  Mn3.30+  Mn101  1  0.33699882  0.83447637  0.74892849  1
  Mn3.30+  Mn102  1  0.66529379  0.16555003  0.25223087  1
  Mn3.30+  Mn103  1  0.66823152  0.16698007  0.74635733  1
  Mn3.30+  Mn104  1  0.66647863  0.49980718  0.25093218  1
  Mn3.30+  Mn105  1  0.66517408  0.49946509  0.74909581  1
  Mn3.30+  Mn106  1  0.66805038  0.83487392  0.24651434  1
  Mn3.30+  Mn107  1  0.66350758  0.83308539  0.75164376  1
  Mn3.30+  Mn108  1  0.16772376  -0.00092347  0.24890194  1
  Mn3.30+  Mn109  1  0.16828138  -0.00116506  0.74894643  1
  Mn3.30+  Mn110  1  0.16601069  0.33182953  0.25093486  1
  Mn3.30+  Mn111  1  0.16609215  0.33377690  0.74918761  1
  Mn3.30+  Mn112  1  0.16506801  0.66603431  0.24865257  1
  Mn3.30+  Mn113  1  0.16703287  0.66829200  0.74968581  1
  Mn3.30+  Mn114  1  0.50264147  -0.00028370  0.24935115  1
  Mn3.30+  Mn115  1  0.49873856  -0.00322252  0.74846565  1
  Mn3.30+  Mn116  1  0.49977547  0.33382475  0.25014901  1
  Mn3.30+  Mn117  1  0.50199630  0.33366536  0.74863730  1
  Mn3.30+  Mn118  1  0.50249722  0.66592672  0.24906773  1
  Mn3.30+  Mn119  1  0.49990710  0.66955518  0.75008621  1
  Mn3.30+  Mn120  1  0.83203098  -0.00200816  0.24926846  1
  Mn3.30+  Mn121  1  0.83275820  0.00054375  0.74944535  1
  Mn3.30+  Mn122  1  0.83298542  0.33442028  0.25349428  1
  Mn3.30+  Mn123  1  0.83179798  0.33262210  0.74634390  1
  Mn3.30+  Mn124  1  0.83289258  0.66837846  0.24969667  1
  Mn3.30+  Mn125  1  0.83287642  0.66769920  0.74994836  1
  Mn3.30+  Mn126  1  -0.00115305  0.16594702  0.00131259  1
  Mn3.30+  Mn127  1  -0.00115278  0.16784666  0.50020756  1
  Mn3.30+  Mn128  1  -0.00108351  0.49991763  0.00289399  1
  Mn3.30+  Mn129  1  -0.00323406  0.49913158  0.49642433  1
  Mn3.30+  Mn130  1  -0.00294758  0.83275289  0.00308824  1
  Mn3.30+  Mn131  1  -0.00088951  0.83287594  0.49871704  1
  Mn3.30+  Mn132  1  0.33462907  0.16554863  -0.00062519  1
  Mn3.30+  Mn133  1  0.33575280  0.16450418  0.50104028  1
  Mn3.30+  Mn134  1  0.33460236  0.50060454  0.00218078  1
  Mn3.30+  Mn135  1  0.33512706  0.49991396  0.49762486  1
  Mn3.30+  Mn136  1  0.33748085  0.83373674  0.00137686  1
  Mn3.30+  Mn137  1  0.33548726  0.83474306  0.50064965  1
  Mn3.30+  Mn138  1  0.66680772  0.16553739  0.00117420  1
  Mn3.30+  Mn139  1  0.66670885  0.16694106  0.50058469  1
  Mn3.30+  Mn140  1  0.66590265  0.50067917  0.00207986  1
  Mn3.30+  Mn141  1  0.66563315  0.49856747  0.49784306  1
  Mn3.30+  Mn142  1  0.66539022  0.83540375  0.00270290  1
  Mn3.30+  Mn143  1  0.66599317  0.83249568  0.49969493  1
  O2-  O144  1  0.01586297  0.16624912  0.12381938  1
  O2-  O145  1  0.02661836  0.16335050  0.62445015  1
  O2-  O146  1  0.02305765  0.49270855  0.12639425  1
  O2-  O147  1  0.02478894  0.49352813  0.62048257  1
  O2-  O148  1  0.01726564  0.82907657  0.12557807  1
  O2-  O149  1  0.02646444  0.83130421  0.62298688  1
  O2-  O150  1  0.35798416  0.16202060  0.12646398  1
  O2-  O151  1  0.35930187  0.16049776  0.62461899  1
  O2-  O152  1  0.36244467  0.49007012  0.12495095  1
  O2-  O153  1  0.35950073  0.49660296  0.62341502  1
  O2-  O154  1  0.36218524  0.82856277  0.12703249  1
  O2-  O155  1  0.36135456  0.82414545  0.62297540  1
  O2-  O156  1  0.69224479  0.16197284  0.12795926  1
  O2-  O157  1  0.69512892  0.15528684  0.62437843  1
  O2-  O158  1  0.69460880  0.49506691  0.12520679  1
  O2-  O159  1  0.68832933  0.49521312  0.62374652  1
  O2-  O160  1  0.69818344  0.82745694  0.12443095  1
  O2-  O161  1  0.69092219  0.83575545  0.62744705  1
  O2-  O162  1  0.15006767  0.33232823  0.12621849  1
  O2-  O163  1  0.14018934  0.32764264  0.62488632  1
  O2-  O164  1  0.13816451  0.65877940  0.12670672  1
  O2-  O165  1  0.14722481  0.66295882  0.62133112  1
  O2-  O166  1  0.15129081  0.99933396  0.12670472  1
  O2-  O167  1  0.13870595  0.99409549  0.62455586  1
  O2-  O168  1  0.47195144  0.32175684  0.12615619  1
  O2-  O169  1  0.47336135  0.32811871  0.62457267  1
  O2-  O170  1  0.47665418  0.65629836  0.12682033  1
  O2-  O171  1  0.47497549  0.65817014  0.62178688  1
  O2-  O172  1  0.47424585  0.99758310  0.12559446  1
  O2-  O173  1  0.47619219  0.99130458  0.62451493  1
  O2-  O174  1  0.80835257  0.32656186  0.12804943  1
  O2-  O175  1  0.80623119  0.32601738  0.62444920  1
  O2-  O176  1  0.80653023  0.65794807  0.12565799  1
  O2-  O177  1  0.81287250  0.66355673  0.62575718  1
  O2-  O178  1  0.80706261  0.99564936  0.12557086  1
  O2-  O179  1  0.80801230  0.98934537  0.62395856  1
  O2-  O180  1  0.30882477  0.16906101  0.37750540  1
  O2-  O181  1  0.31036858  0.17159655  0.87100203  1
  O2-  O182  1  0.30637668  0.50346980  0.37388721  1
  O2-  O183  1  0.30662042  0.50852960  0.87712201  1
  O2-  O184  1  0.30890697  0.84013497  0.37574057  1
  O2-  O185  1  0.31053669  0.82895143  0.87422677  1
  O2-  O186  1  0.63801019  0.17397063  0.37659450  1
  O2-  O187  1  0.64137166  0.17304799  0.87155752  1
  O2-  O188  1  0.63897843  0.50356075  0.37386074  1
  O2-  O189  1  0.64185254  0.50424911  0.87719865  1
  O2-  O190  1  0.64184215  0.83767576  0.37096782  1
  O2-  O191  1  0.63899382  0.83887585  0.87774170  1
  O2-  O192  1  0.97764915  0.16887530  0.37738484  1
  O2-  O193  1  0.97472051  0.17122456  0.87413406  1
  O2-  O194  1  0.97106758  0.50910068  0.37417995  1
  O2-  O195  1  0.97503357  0.50669890  0.87859008  1
  O2-  O196  1  0.97317895  0.84009187  0.37551372  1
  O2-  O197  1  0.97591526  0.83774019  0.87616317  1
  O2-  O198  1  0.19177671  0.00412397  0.37633180  1
  O2-  O199  1  0.18560948  0.00223682  0.87300757  1
  O2-  O200  1  0.19496078  0.33716649  0.37584613  1
  O2-  O201  1  0.19226843  0.34078279  0.87272600  1
  O2-  O202  1  0.19223709  0.67109058  0.37375722  1
  O2-  O203  1  0.19121282  0.67106947  0.87783123  1
  O2-  O204  1  0.52536864  0.00406633  0.37418530  1
  O2-  O205  1  0.52453101  0.00635359  0.87517457  1
  O2-  O206  1  0.52402704  0.34292359  0.37406337  1
  O2-  O207  1  0.52606837  0.34043979  0.87465593  1
  O2-  O208  1  0.52836332  0.67555520  0.37249278  1
  O2-  O209  1  0.52281344  0.67403328  0.87878771  1
  O2-  O210  1  0.85808751  0.00882842  0.37746319  1
  O2-  O211  1  0.85949643  0.00625345  0.87339012  1
  O2-  O212  1  0.85785443  0.33918346  0.37660988  1
  O2-  O213  1  0.85747753  0.34038823  0.87141800  1
  O2-  O214  1  0.85467341  0.67570015  0.37317153  1
  O2-  O215  1  0.85888466  0.67166960  0.87633336  1
  O2-  O216  1  0.24359931  0.09279230  0.01376449  1
  O2-  O217  1  0.23535403  0.09491585  0.51867623  1
  O2-  O218  1  0.23979040  0.42943464  0.01965904  1
  O2-  O219  1  0.23548730  0.42775508  0.52102889  1
  O2-  O220  1  0.24271540  0.75732291  0.01978586  1
  O2-  O221  1  0.24075895  0.76368404  0.51812035  1
  O2-  O222  1  0.57126016  0.09665879  0.01666460  1
  O2-  O223  1  0.57265110  0.09257169  0.52297107  1
  O2-  O224  1  0.56939273  0.42818237  0.02334291  1
  O2-  O225  1  0.57065971  0.42700937  0.51958141  1
  O2-  O226  1  0.57350841  0.76312066  0.02618381  1
  O2-  O227  1  0.56757701  0.76541826  0.51692786  1
  O2-  O228  1  0.90136380  0.09618844  0.01615065  1
  O2-  O229  1  0.90371892  0.09464311  0.52243567  1
  O2-  O230  1  0.90148435  0.43139154  0.01601745  1
  O2-  O231  1  0.90280475  0.42649209  0.52388152  1
  O2-  O232  1  0.90027976  0.76313667  0.01829657  1
  O2-  O233  1  0.90596346  0.76338564  0.51764515  1
  O2-  O234  1  0.26574361  0.26184559  0.23598152  1
  O2-  O235  1  0.26235536  0.26111824  0.72814713  1
  O2-  O236  1  0.26367784  0.59041698  0.22768686  1
  O2-  O237  1  0.26128755  0.59517546  0.72924635  1
  O2-  O238  1  0.26442952  0.92770743  0.23434453  1
  O2-  O239  1  0.26325940  0.92543794  0.72600481  1
  O2-  O240  1  0.59408817  0.26190855  0.22887413  1
  O2-  O241  1  0.59807986  0.26094123  0.72625113  1
  O2-  O242  1  0.59989628  0.59618337  0.23173825  1
  O2-  O243  1  0.59012199  0.59393462  0.73514778  1
  O2-  O244  1  0.59919012  0.93139641  0.23036944  1
  O2-  O245  1  0.59736575  0.93124051  0.73391802  1
  O2-  O246  1  0.92100031  0.25702769  0.23617939  1
  O2-  O247  1  0.93019471  0.26463973  0.73184741  1
  O2-  O248  1  0.92909547  0.59832191  0.22954982  1
  O2-  O249  1  0.92532608  0.59083793  0.73395256  1
  O2-  O250  1  0.92729695  0.92935591  0.23630845  1
  O2-  O251  1  0.92901412  0.92872932  0.73034311  1
  O2-  O252  1  0.09525179  0.24040023  0.27013866  1
  O2-  O253  1  0.09553690  0.23887212  0.77156868  1
  O2-  O254  1  0.09314039  0.56992890  0.27187724  1
  O2-  O255  1  0.09546181  0.57389506  0.76907807  1
  O2-  O256  1  0.09240340  0.90715505  0.27092487  1
  O2-  O257  1  0.09600640  0.90452814  0.77019284  1
  O2-  O258  1  0.43048457  0.23615912  0.27385230  1
  O2-  O259  1  0.43073570  0.24057322  0.76962017  1
  O2-  O260  1  0.42671953  0.57023881  0.27330728  1
  O2-  O261  1  0.42765933  0.57337635  0.77152494  1
  O2-  O262  1  0.42889397  0.90719152  0.27150103  1
  O2-  O263  1  0.43131271  0.90079552  0.76964557  1
  O2-  O264  1  0.75795947  0.23950434  0.27314348  1
  O2-  O265  1  0.76177460  0.23974929  0.77237983  1
  O2-  O266  1  0.76352747  0.56980933  0.27240474  1
  O2-  O267  1  0.75845308  0.57318615  0.77003048  1
  O2-  O268  1  0.76141551  0.90559055  0.27419879  1
  O2-  O269  1  0.76088473  0.90586245  0.77244419  1
  O2-  O270  1  0.07198353  0.07054838  0.48063598  1
  O2-  O271  1  0.07272756  0.07564245  0.97881300  1
  O2-  O272  1  0.06819386  0.40448417  0.47627232  1
  O2-  O273  1  0.07320415  0.40781969  0.97747390  1
  O2-  O274  1  0.07305570  0.74112368  0.47437409  1
  O2-  O275  1  0.07233989  0.74138793  0.97996178  1
  O2-  O276  1  0.40626208  0.07049386  0.48125234  1
  O2-  O277  1  0.40994638  0.07325855  0.98349963  1
  O2-  O278  1  0.40164669  0.40282150  0.48347146  1
  O2-  O279  1  0.40386526  0.40582952  0.97673790  1
  O2-  O280  1  0.40473355  0.73658831  0.47654585  1
  O2-  O281  1  0.40449264  0.73580447  0.98595497  1
  O2-  O282  1  0.73744141  0.07269648  0.47751258  1
  O2-  O283  1  0.73981565  0.07352786  0.97751422  1
  O2-  O284  1  0.73711552  0.40458581  0.48065788  1
  O2-  O285  1  0.73719420  0.40460463  0.98010805  1
  O2-  O286  1  0.73695524  0.73893709  0.48209915  1
  O2-  O287  1  0.73622080  0.73882898  0.97858898  1
  O2-  O288  1  0.09830803  0.23717260  0.48218992  1
  O2-  O289  1  0.09270582  0.24025530  0.97682139  1
  O2-  O290  1  0.09269199  0.57126610  0.47851581  1
  O2-  O291  1  0.09480646  0.57133655  0.97984159  1
  O2-  O292  1  0.09602154  0.90512858  0.47810768  1
  O2-  O293  1  0.09161453  0.90627843  0.98079974  1
  O2-  O294  1  0.43260705  0.23851729  0.47943469  1
  O2-  O295  1  0.42893804  0.23901952  0.97753534  1
  O2-  O296  1  0.42973428  0.57216442  0.47570768  1
  O2-  O297  1  0.42605376  0.57346361  0.97836967  1
  O2-  O298  1  0.42759376  0.90610459  0.47564836  1
  O2-  O299  1  0.43350719  0.90259518  0.98220725  1
  O2-  O300  1  0.76089902  0.24028294  0.47699604  1
  O2-  O301  1  0.76009479  0.23918246  0.97928371  1
  O2-  O302  1  0.75957142  0.56984345  0.47967961  1
  O2-  O303  1  0.76318908  0.57322100  0.97886647  1
  O2-  O304  1  0.76218210  0.90480740  0.47836717  1
  O2-  O305  1  0.75936243  0.90718914  0.97570605  1
  O2-  O306  1  0.07549306  0.07388163  0.27148022  1
  O2-  O307  1  0.06996138  0.07206615  0.76900697  1
  O2-  O308  1  0.07273401  0.40589750  0.27467071  1
  O2-  O309  1  0.06981601  0.40683417  0.77012016  1
  O2-  O310  1  0.07017378  0.74218212  0.27198947  1
  O2-  O311  1  0.07437685  0.74042864  0.77360579  1
  O2-  O312  1  0.40604564  0.07038495  0.26766132  1
  O2-  O313  1  0.41067953  0.07328288  0.76738130  1
  O2-  O314  1  0.40213113  0.40111839  0.26827773  1
  O2-  O315  1  0.40299123  0.40735580  0.77047189  1
  O2-  O316  1  0.40605641  0.73837379  0.27083370  1
  O2-  O317  1  0.40108269  0.73428604  0.76525695  1
  O2-  O318  1  0.73988754  0.07403834  0.27366098  1
  O2-  O319  1  0.73789439  0.07201086  0.77217138  1
  O2-  O320  1  0.73427793  0.40323325  0.26836055  1
  O2-  O321  1  0.73953165  0.40603735  0.77116549  1
  O2-  O322  1  0.73387929  0.73541650  0.26655072  1
  O2-  O323  1  0.73806135  0.74186908  0.77386135  1
  O2-  O324  1  0.24385917  0.09234751  0.23516281  1
  O2-  O325  1  0.23515483  0.09426785  0.73160657  1
  O2-  O326  1  0.23860161  0.42799434  0.23096632  1
  O2-  O327  1  0.23744280  0.42941946  0.72786238  1
  O2-  O328  1  0.24324266  0.75830755  0.23244255  1
  O2-  O329  1  0.23907147  0.76238033  0.72982684  1
  O2-  O330  1  0.57205499  0.09485027  0.23057581  1
  O2-  O331  1  0.57282861  0.09453072  0.72881060  1
  O2-  O332  1  0.57172860  0.42716617  0.22511116  1
  O2-  O333  1  0.56911765  0.42938058  0.73179594  1
  O2-  O334  1  0.57285778  0.76631985  0.22576138  1
  O2-  O335  1  0.56885085  0.76356742  0.73185359  1
  O2-  O336  1  0.90193607  0.09371081  0.23475494  1
  O2-  O337  1  0.90280262  0.09624809  0.72653519  1
  O2-  O338  1  0.90265455  0.42984942  0.23267625  1
  O2-  O339  1  0.90157507  0.42689458  0.72663900  1
  O2-  O340  1  0.90129913  0.76235000  0.23075005  1
  O2-  O341  1  0.90401264  0.76435477  0.73376876  1
  O2-  O342  1  0.26454293  0.26272559  0.01326195  1
  O2-  O343  1  0.26401412  0.26038829  0.52134601  1
  O2-  O344  1  0.26187991  0.59182151  0.02566049  1
  O2-  O345  1  0.26220811  0.59370875  0.51778818  1
  O2-  O346  1  0.26541590  0.92431618  0.01682334  1
  O2-  O347  1  0.26217485  0.92950518  0.52301237  1
  O2-  O348  1  0.59552820  0.26120782  0.02043241  1
  O2-  O349  1  0.59693267  0.26109515  0.52385619  1
  O2-  O350  1  0.59648849  0.59769591  0.01701202  1
  O2-  O351  1  0.59295201  0.59311958  0.51683646  1
  O2-  O352  1  0.59937231  0.93300343  0.02170773  1
  O2-  O353  1  0.59699522  0.93017227  0.51443950  1
  O2-  O354  1  0.92520746  0.26004711  0.01411895  1
  O2-  O355  1  0.92698653  0.26222208  0.51863121  1
  O2-  O356  1  0.93062265  0.59652651  0.02228592  1
  O2-  O357  1  0.92468878  0.59256593  0.51635691  1
  O2-  O358  1  0.92584573  0.92846118  0.01319602  1
  O2-  O359  1  0.92966867  0.92889290  0.52025208  1
