# generated using pymatgen
data_Sr7Ca15Pr50Mn72O216
_symmetry_space_group_name_H-M   'P 1'
_cell_length_a   16.55917608
_cell_length_b   16.60379323
_cell_length_c   15.59409281
_cell_angle_alpha   90.00644941
_cell_angle_beta   89.99844076
_cell_angle_gamma   90.00914925
_symmetry_Int_Tables_number   1
_chemical_formula_structural   Sr7Ca15Pr50Mn72O216
_chemical_formula_sum   'Sr7 Ca15 Pr50 Mn72 O216'
_cell_volume   4287.51987967
_cell_formula_units_Z   1
loop_
 _symmetry_equiv_pos_site_id
 _symmetry_equiv_pos_as_xyz
  1  'x, y, z'
loop_
 _atom_type_symbol
 _atom_type_oxidation_number
  Sr2+  2.0
  Ca2+  2.0
  Pr3+  3.0
  Mn3.30+  3.3
  O2-  -2.0
loop_
 _atom_site_type_symbol
 _atom_site_label
 _atom_site_symmetry_multiplicity
 _atom_site_fract_x
 _atom_site_fract_y
 _atom_site_fract_z
 _atom_site_occupancy
  Sr2+  Sr0  1  0.17010095  0.84386868  0.12612771  1
  Sr2+  Sr1  1  0.33451378  0.98809097  0.37182248  1
  Sr2+  Sr2  1  0.16778072  0.17211953  0.12907755  1
  Sr2+  Sr3  1  0.83247088  0.82690894  0.37448253  1
  Sr2+  Sr4  1  0.66563851  0.34239655  0.12597184  1
  Sr2+  Sr5  1  1.00490150  0.98944422  0.37458724  1
  Sr2+  Sr6  1  0.66914143  0.98943581  0.37392570  1
  Ca2+  Ca7  1  0.17411193  0.51917782  0.62512815  1
  Ca2+  Ca8  1  0.16263727  0.48494336  0.87318598  1
  Ca2+  Ca9  1  0.50147830  0.17795327  0.12916499  1
  Ca2+  Ca10  1  0.17186096  0.84593040  0.62106838  1
  Ca2+  Ca11  1  0.16573315  0.81913998  0.87411693  1
  Ca2+  Ca12  1  0.32558900  0.68532671  0.62171242  1
  Ca2+  Ca13  1  0.16550924  0.14870911  0.37308601  1
  Ca2+  Ca14  1  0.50040251  0.84691108  0.12932064  1
  Ca2+  Ca15  1  0.16508561  0.82163006  0.37573200  1
  Ca2+  Ca16  1  0.49242571  0.81822920  0.37404249  1
  Ca2+  Ca17  1  0.33044240  0.01314227  0.12867831  1
  Ca2+  Ca18  1  0.82938221  0.15006514  0.37373513  1
  Ca2+  Ca19  1  0.83632850  0.51478725  0.12586337  1
  Ca2+  Ca20  1  0.66197717  0.34852347  0.62362881  1
  Ca2+  Ca21  1  0.33219920  0.66074364  0.37687781  1
  Pr3+  Pr22  1  0.83076259  0.15416851  0.87558559  1
  Pr3+  Pr23  1  0.00249272  0.67998651  0.62453269  1
  Pr3+  Pr24  1  0.16537122  0.15295079  0.87594713  1
  Pr3+  Pr25  1  0.50011863  0.51491729  0.62481870  1
  Pr3+  Pr26  1  1.00771424  0.65097414  0.87515898  1
  Pr3+  Pr27  1  0.49509023  0.82072328  0.87651234  1
  Pr3+  Pr28  1  0.83143359  0.48709154  0.87489659  1
  Pr3+  Pr29  1  0.33321412  0.32111461  0.87491674  1
  Pr3+  Pr30  1  0.33067389  0.34070450  0.12585191  1
  Pr3+  Pr31  1  0.66304187  0.67997849  0.12517928  1
  Pr3+  Pr32  1  0.83454720  0.51343256  0.62494644  1
  Pr3+  Pr33  1  0.66322029  0.01323665  0.12793360  1
  Pr3+  Pr34  1  0.66824786  0.65319069  0.87431609  1
  Pr3+  Pr35  1  0.49649327  0.48623708  0.87527934  1
  Pr3+  Pr36  1  0.50468502  0.18012219  0.62184964  1
  Pr3+  Pr37  1  0.49819139  0.84491804  0.62285877  1
  Pr3+  Pr38  1  0.83005897  0.49176154  0.37500759  1
  Pr3+  Pr39  1  0.83739502  0.84669123  0.12716883  1
  Pr3+  Pr40  1  0.33508436  0.31945530  0.37457328  1
  Pr3+  Pr41  1  1.00321942  0.31669830  0.37603222  1
  Pr3+  Pr42  1  0.49778799  0.15216667  0.37133688  1
  Pr3+  Pr43  1  -0.00062957  0.34723541  0.62398807  1
  Pr3+  Pr44  1  0.83143163  0.81952983  0.87539621  1
  Pr3+  Pr45  1  1.00743866  0.98387756  0.87604431  1
  Pr3+  Pr46  1  0.66251243  0.68085157  0.62473096  1
  Pr3+  Pr47  1  0.49628499  0.15429824  0.87820449  1
  Pr3+  Pr48  1  0.50243731  0.51156052  0.12532845  1
  Pr3+  Pr49  1  0.00013664  0.01144325  0.12796229  1
  Pr3+  Pr50  1  0.83832455  0.17857063  0.12933278  1
  Pr3+  Pr51  1  0.16942835  0.51083551  0.12400422  1
  Pr3+  Pr52  1  0.67084598  0.31910867  0.37511238  1
  Pr3+  Pr53  1  0.66872950  0.32024605  0.87485806  1
  Pr3+  Pr54  1  0.33097377  0.65516888  0.87498317  1
  Pr3+  Pr55  1  0.33494072  0.98631878  0.87790536  1
  Pr3+  Pr56  1  0.32736062  0.35030266  0.62348449  1
  Pr3+  Pr57  1  1.00364938  0.66072622  0.37476704  1
  Pr3+  Pr58  1  0.16483209  0.49125724  0.37617750  1
  Pr3+  Pr59  1  1.00394507  0.32090858  0.87454610  1
  Pr3+  Pr60  1  0.16972897  0.17743305  0.62128778  1
  Pr3+  Pr61  1  0.66728529  0.65988286  0.37535812  1
  Pr3+  Pr62  1  0.33062129  0.67980053  0.12703509  1
  Pr3+  Pr63  1  0.83647811  0.17912882  0.62109173  1
  Pr3+  Pr64  1  0.49544970  0.49040759  0.37448178  1
  Pr3+  Pr65  1  -0.00212201  0.67987812  0.12573991  1
  Pr3+  Pr66  1  0.00113898  0.00955616  0.62274223  1
  Pr3+  Pr67  1  0.83628027  0.84571074  0.62297591  1
  Pr3+  Pr68  1  0.66481287  0.01070824  0.62166508  1
  Pr3+  Pr69  1  0.33023922  0.01005796  0.62294607  1
  Pr3+  Pr70  1  -0.00565601  0.34741348  0.12626039  1
  Pr3+  Pr71  1  0.66816642  0.98781519  0.87622812  1
  Mn3.30+  Mn72  1  0.16999274  -0.00238140  0.00208068  1
  Mn3.30+  Mn73  1  0.16785924  -0.00308852  0.49761057  1
  Mn3.30+  Mn74  1  0.16535322  0.33229568  0.00114395  1
  Mn3.30+  Mn75  1  0.16665055  0.33431541  0.49885172  1
  Mn3.30+  Mn76  1  0.16688030  0.66627240  -0.00068921  1
  Mn3.30+  Mn77  1  0.17022151  0.66868043  0.50006986  1
  Mn3.30+  Mn78  1  0.49882800  -0.00025343  0.00499037  1
  Mn3.30+  Mn79  1  0.49843936  -0.00258339  0.49631712  1
  Mn3.30+  Mn80  1  0.50013315  0.33159203  0.00131902  1
  Mn3.30+  Mn81  1  0.50044322  0.33473054  0.50009176  1
  Mn3.30+  Mn82  1  0.49905385  0.66760333  0.00015760  1
  Mn3.30+  Mn83  1  0.49502839  0.66882308  0.50021551  1
  Mn3.30+  Mn84  1  0.83451749  0.00015865  -0.00047765  1
  Mn3.30+  Mn85  1  0.83353008  0.00027712  0.49832662  1
  Mn3.30+  Mn86  1  0.83351399  0.33459151  0.00091676  1
  Mn3.30+  Mn87  1  0.83220361  0.33399519  0.50015121  1
  Mn3.30+  Mn88  1  0.83393382  0.66510404  -0.00002084  1
  Mn3.30+  Mn89  1  0.83384426  0.66845109  0.50016556  1
  Mn3.30+  Mn90  1  0.00204330  0.16514807  0.25299974  1
  Mn3.30+  Mn91  1  0.00046775  0.16595242  0.74885255  1
  Mn3.30+  Mn92  1  -0.00144744  0.50127886  0.25133369  1
  Mn3.30+  Mn93  1  0.00416421  0.50028248  0.74748167  1
  Mn3.30+  Mn94  1  0.00300924  0.83413778  0.25180984  1
  Mn3.30+  Mn95  1  0.00379307  0.83229257  0.74933559  1
  Mn3.30+  Mn96  1  0.33324500  0.16411950  0.24956954  1
  Mn3.30+  Mn97  1  0.33388903  0.16672260  0.74875043  1
  Mn3.30+  Mn98  1  0.33303913  0.50097335  0.25060620  1
  Mn3.30+  Mn99  1  0.32938675  0.50271888  0.75017235  1
  Mn3.30+  Mn100  1  0.33448544  0.83357619  0.25067182  1
  Mn3.30+  Mn101  1  0.32937404  0.83232263  0.75031038  1
  Mn3.30+  Mn102  1  0.66727928  0.16676571  0.24996545  1
  Mn3.30+  Mn103  1  0.66639914  0.16720755  0.74876442  1
  Mn3.30+  Mn104  1  0.66672214  0.50112801  0.24885973  1
  Mn3.30+  Mn105  1  0.66562951  0.49878748  0.74889411  1
  Mn3.30+  Mn106  1  0.66351910  0.83394644  0.25045415  1
  Mn3.30+  Mn107  1  0.66549185  0.83398027  0.75051151  1
  Mn3.30+  Mn108  1  0.16979806  -0.00232601  0.25098397  1
  Mn3.30+  Mn109  1  0.16783508  -0.00341918  0.74977462  1
  Mn3.30+  Mn110  1  0.16551062  0.33131999  0.25109599  1
  Mn3.30+  Mn111  1  0.16656190  0.33552486  0.74865573  1
  Mn3.30+  Mn112  1  0.16866602  0.66807645  0.25134233  1
  Mn3.30+  Mn113  1  0.16873659  0.66770111  0.74863992  1
  Mn3.30+  Mn114  1  0.49797612  -0.00344924  0.24845947  1
  Mn3.30+  Mn115  1  0.49941385  -0.00000730  0.75026733  1
  Mn3.30+  Mn116  1  0.50096443  0.33264092  0.25007324  1
  Mn3.30+  Mn117  1  0.49952823  0.33356598  0.74842817  1
  Mn3.30+  Mn118  1  0.49788214  0.66938382  0.25103358  1
  Mn3.30+  Mn119  1  0.49586203  0.66737563  0.74907147  1
  Mn3.30+  Mn120  1  0.83249717  0.00037096  0.25208831  1
  Mn3.30+  Mn121  1  0.83504033  -0.00007164  0.75015039  1
  Mn3.30+  Mn122  1  0.83371785  0.33485353  0.25185968  1
  Mn3.30+  Mn123  1  0.83236990  0.33366868  0.74715901  1
  Mn3.30+  Mn124  1  0.83250852  0.66714267  0.24972604  1
  Mn3.30+  Mn125  1  0.83509712  0.66691016  0.74983988  1
  Mn3.30+  Mn126  1  0.00051429  0.16654810  0.00073356  1
  Mn3.30+  Mn127  1  0.00183335  0.16423437  0.49773762  1
  Mn3.30+  Mn128  1  0.00016141  0.49943164  0.00016042  1
  Mn3.30+  Mn129  1  0.00179490  0.50167705  0.50118886  1
  Mn3.30+  Mn130  1  0.00243187  0.83257422  0.00003506  1
  Mn3.30+  Mn131  1  0.00437752  0.83360709  0.49959209  1
  Mn3.30+  Mn132  1  0.33308073  0.16536183  0.00322006  1
  Mn3.30+  Mn133  1  0.33393636  0.16558205  0.49810285  1
  Mn3.30+  Mn134  1  0.33151517  0.49886342  -0.00132221  1
  Mn3.30+  Mn135  1  0.33131828  0.50488119  0.49999751  1
  Mn3.30+  Mn136  1  0.33292265  0.83426037  0.00271065  1
  Mn3.30+  Mn137  1  0.33147570  0.83217246  0.49653761  1
  Mn3.30+  Mn138  1  0.66491517  0.16693222  0.00161792  1
  Mn3.30+  Mn139  1  0.66903894  0.16715374  0.49951724  1
  Mn3.30+  Mn140  1  0.66772217  0.49944486  0.00183854  1
  Mn3.30+  Mn141  1  0.66466513  0.50051454  0.50046585  1
  Mn3.30+  Mn142  1  0.66487280  0.83370151  0.00139012  1
  Mn3.30+  Mn143  1  0.66451863  0.83422959  0.49754462  1
  O2-  O144  1  0.01690040  0.16281571  0.12562039  1
  O2-  O145  1  0.02572683  0.16150542  0.62475868  1
  O2-  O146  1  0.02583476  0.49474032  0.12784854  1
  O2-  O147  1  0.03087909  0.49384807  0.62477619  1
  O2-  O148  1  0.01835454  0.82921002  0.12503498  1
  O2-  O149  1  0.02774130  0.82973064  0.62621920  1
  O2-  O150  1  0.35817302  0.16728155  0.12509192  1
  O2-  O151  1  0.36005609  0.16076862  0.62353867  1
  O2-  O152  1  0.35814895  0.49083738  0.12545225  1
  O2-  O153  1  0.35826450  0.49478593  0.62678791  1
  O2-  O154  1  0.36068023  0.82350220  0.12494020  1
  O2-  O155  1  0.35615538  0.83085118  0.62590225  1
  O2-  O156  1  0.69420575  0.16310405  0.12441045  1
  O2-  O157  1  0.69283100  0.15819824  0.62519488  1
  O2-  O158  1  0.69290938  0.49945998  0.12300361  1
  O2-  O159  1  0.69064108  0.49446475  0.62568590  1
  O2-  O160  1  0.69336479  0.82737755  0.12256053  1
  O2-  O161  1  0.69070930  0.82919570  0.62713280  1
  O2-  O162  1  0.13894378  0.32951280  0.12889429  1
  O2-  O163  1  0.14234114  0.32388714  0.62295138  1
  O2-  O164  1  0.14222358  0.65821226  0.12453725  1
  O2-  O165  1  0.14399965  0.65906532  0.62579090  1
  O2-  O166  1  0.14312933  0.99794522  0.12392432  1
  O2-  O167  1  0.14506720  0.99264173  0.62717905  1
  O2-  O168  1  0.47518339  0.32850544  0.12562259  1
  O2-  O169  1  0.47197715  0.32776942  0.62430152  1
  O2-  O170  1  0.47423646  0.65737214  0.12286022  1
  O2-  O171  1  0.46979524  0.66253060  0.62597692  1
  O2-  O172  1  0.47168382  0.98992265  0.12490653  1
  O2-  O173  1  0.47470687  0.99419210  0.62273647  1
  O2-  O174  1  0.81521425  0.32454498  0.12663622  1
  O2-  O175  1  0.80334212  0.32583221  0.62264053  1
  O2-  O176  1  0.80820964  0.66024844  0.12135261  1
  O2-  O177  1  0.80742024  0.66243421  0.62543155  1
  O2-  O178  1  0.80991454  0.99547422  0.12281629  1
  O2-  O179  1  0.80965911  0.99436365  0.62674434  1
  O2-  O180  1  0.30877007  0.17242811  0.37679321  1
  O2-  O181  1  0.30906550  0.17273869  0.87396968  1
  O2-  O182  1  0.30867613  0.50933900  0.37342662  1
  O2-  O183  1  0.30395030  0.50600994  0.87325483  1
  O2-  O184  1  0.30613429  0.83459221  0.37398849  1
  O2-  O185  1  0.30738986  0.83957301  0.87614814  1
  O2-  O186  1  0.64224677  0.17126878  0.37660212  1
  O2-  O187  1  0.64104608  0.17088953  0.87388629  1
  O2-  O188  1  0.63985013  0.50986801  0.37630501  1
  O2-  O189  1  0.64128913  0.50489372  0.87438080  1
  O2-  O190  1  0.63879220  0.83046454  0.37478348  1
  O2-  O191  1  0.64001601  0.83980077  0.87552753  1
  O2-  O192  1  0.97213099  0.16961683  0.37699016  1
  O2-  O193  1  0.97471639  0.17185255  0.87350445  1
  O2-  O194  1  0.97389119  0.50995902  0.37589230  1
  O2-  O195  1  0.97479967  0.50288766  0.87180741  1
  O2-  O196  1  0.98214272  0.82697802  0.37553939  1
  O2-  O197  1  0.97447818  0.83637773  0.87413944  1
  O2-  O198  1  0.18555524  0.00638438  0.37552827  1
  O2-  O199  1  0.19103222  0.00718537  0.87442675  1
  O2-  O200  1  0.19198163  0.34437036  0.37573534  1
  O2-  O201  1  0.18914398  0.33944230  0.87264187  1
  O2-  O202  1  0.18971584  0.67237534  0.37491336  1
  O2-  O203  1  0.18806293  0.67494330  0.87368886  1
  O2-  O204  1  0.52094065  0.00659887  0.37386629  1
  O2-  O205  1  0.52552311  0.00697028  0.87804675  1
  O2-  O206  1  0.52560837  0.34168255  0.37628490  1
  O2-  O207  1  0.52429969  0.33777090  0.87335700  1
  O2-  O208  1  0.52422930  0.67028669  0.37621658  1
  O2-  O209  1  0.52527397  0.67239615  0.87562360  1
  O2-  O210  1  0.85298453  0.00375363  0.37651248  1
  O2-  O211  1  0.86142385  0.00655041  0.87418459  1
  O2-  O212  1  0.86051794  0.34572421  0.37671390  1
  O2-  O213  1  0.86027002  0.33932856  0.87391391  1
  O2-  O214  1  0.85765440  0.66824654  0.37846804  1
  O2-  O215  1  0.86141308  0.67176314  0.87467313  1
  O2-  O216  1  0.23979624  0.09498400  0.01328931  1
  O2-  O217  1  0.24131625  0.09218996  0.52238357  1
  O2-  O218  1  0.23789803  0.42381265  0.02236001  1
  O2-  O219  1  0.23780341  0.43269511  0.52016905  1
  O2-  O220  1  0.24378483  0.75701686  0.01842088  1
  O2-  O221  1  0.23628049  0.76353338  0.52036570  1
  O2-  O222  1  0.56947610  0.09376609  0.02475422  1
  O2-  O223  1  0.57394087  0.09416491  0.51972871  1
  O2-  O224  1  0.56908677  0.42923917  0.01632050  1
  O2-  O225  1  0.56863899  0.43030863  0.51999981  1
  O2-  O226  1  0.56971659  0.76181764  0.02136707  1
  O2-  O227  1  0.57126792  0.75907481  0.52432512  1
  O2-  O228  1  0.90439171  0.09533296  0.01946828  1
  O2-  O229  1  0.90912464  0.09226109  0.52389806  1
  O2-  O230  1  0.90292803  0.43051192  0.02077288  1
  O2-  O231  1  0.90389458  0.42766888  0.52370587  1
  O2-  O232  1  0.90187716  0.76080227  0.01904661  1
  O2-  O233  1  0.90893139  0.75961533  0.52391471  1
  O2-  O234  1  0.26333880  0.26297534  0.23475203  1
  O2-  O235  1  0.26179073  0.26280624  0.72931130  1
  O2-  O236  1  0.25922944  0.59030640  0.22622011  1
  O2-  O237  1  0.26613292  0.60226601  0.73188931  1
  O2-  O238  1  0.26634566  0.92668645  0.22907661  1
  O2-  O239  1  0.26601648  0.93186392  0.73412463  1
  O2-  O240  1  0.59463925  0.25970868  0.23742436  1
  O2-  O241  1  0.59718732  0.26109075  0.72697401  1
  O2-  O242  1  0.59368194  0.59601490  0.22944511  1
  O2-  O243  1  0.59364990  0.59472904  0.72966660  1
  O2-  O244  1  0.59464740  0.92774583  0.22745346  1
  O2-  O245  1  0.59488030  0.92899296  0.73054599  1
  O2-  O246  1  0.93021673  0.26247064  0.23436326  1
  O2-  O247  1  0.92648341  0.26205285  0.72684818  1
  O2-  O248  1  0.92900169  0.59541279  0.23081621  1
  O2-  O249  1  0.93145464  0.59210973  0.72755599  1
  O2-  O250  1  0.92612910  0.92635857  0.23066940  1
  O2-  O251  1  0.93096052  0.92604153  0.72972585  1
  O2-  O252  1  0.09471786  0.23920734  0.27697928  1
  O2-  O253  1  0.09445104  0.23701895  0.76938861  1
  O2-  O254  1  0.09430252  0.57255412  0.27061563  1
  O2-  O255  1  0.09686969  0.57113828  0.77256489  1
  O2-  O256  1  0.09670389  0.90367318  0.26761170  1
  O2-  O257  1  0.09462665  0.90378731  0.77521341  1
  O2-  O258  1  0.42602600  0.24065318  0.27256190  1
  O2-  O259  1  0.42945622  0.23844761  0.76987709  1
  O2-  O260  1  0.43059249  0.57028569  0.26473620  1
  O2-  O261  1  0.42721696  0.57143561  0.77323483  1
  O2-  O262  1  0.43143683  0.89982753  0.26971293  1
  O2-  O263  1  0.42815213  0.90463798  0.77027097  1
  O2-  O264  1  0.76431238  0.24098331  0.27259153  1
  O2-  O265  1  0.76110572  0.23763536  0.77192271  1
  O2-  O266  1  0.75934834  0.57523215  0.27206468  1
  O2-  O267  1  0.76186892  0.57274294  0.76990511  1
  O2-  O268  1  0.75960274  0.90574736  0.26136808  1
  O2-  O269  1  0.76268416  0.90654231  0.77171888  1
  O2-  O270  1  0.07449544  0.07021221  0.48911326  1
  O2-  O271  1  0.07270808  0.07095697  0.98094434  1
  O2-  O272  1  0.06933033  0.40572517  0.47846644  1
  O2-  O273  1  0.06694947  0.40224334  0.98426870  1
  O2-  O274  1  0.07114514  0.73469707  0.48622796  1
  O2-  O275  1  0.06859081  0.73530169  0.98412917  1
  O2-  O276  1  0.40928990  0.07414769  0.48145694  1
  O2-  O277  1  0.40719996  0.07414495  0.97779629  1
  O2-  O278  1  0.40160975  0.40730236  0.47992879  1
  O2-  O279  1  0.40393948  0.40636263  0.97783515  1
  O2-  O280  1  0.40214069  0.73763084  0.48031873  1
  O2-  O281  1  0.40533468  0.73903240  0.97768092  1
  O2-  O282  1  0.74078965  0.07368573  0.48635789  1
  O2-  O283  1  0.73809975  0.07314909  0.97841757  1
  O2-  O284  1  0.73900352  0.40757031  0.47723634  1
  O2-  O285  1  0.74031688  0.40539031  0.97603444  1
  O2-  O286  1  0.73518807  0.73889031  0.48528513  1
  O2-  O287  1  0.73764224  0.73830216  0.97728028  1
  O2-  O288  1  0.09474464  0.23616622  0.47795120  1
  O2-  O289  1  0.09383352  0.23936652  0.97658033  1
  O2-  O290  1  0.09578890  0.57589286  0.47792952  1
  O2-  O291  1  0.09635829  0.56783321  0.97877923  1
  O2-  O292  1  0.09756391  0.90204517  0.48253787  1
  O2-  O293  1  0.09678961  0.90513226  0.97704383  1
  O2-  O294  1  0.43067876  0.23925948  0.47850914  1
  O2-  O295  1  0.42495076  0.24104842  0.97751896  1
  O2-  O296  1  0.43101241  0.56963223  0.48334449  1
  O2-  O297  1  0.42762795  0.57252545  0.97838383  1
  O2-  O298  1  0.42985891  0.89942363  0.48330062  1
  O2-  O299  1  0.42826318  0.90637831  0.97665595  1
  O2-  O300  1  0.76449663  0.23855278  0.47578292  1
  O2-  O301  1  0.76280656  0.24056051  0.97805990  1
  O2-  O302  1  0.75984922  0.57358016  0.48225620  1
  O2-  O303  1  0.76144826  0.57439825  0.97465433  1
  O2-  O304  1  0.75898183  0.90560449  0.48846705  1
  O2-  O305  1  0.76347955  0.90595177  0.97822528  1
  O2-  O306  1  0.07339157  0.07325104  0.26222261  1
  O2-  O307  1  0.07335126  0.06929365  0.76915442  1
  O2-  O308  1  0.06955911  0.40629790  0.27275699  1
  O2-  O309  1  0.06804887  0.40198883  0.76670497  1
  O2-  O310  1  0.07139894  0.73597372  0.26344652  1
  O2-  O311  1  0.06812575  0.73377119  0.76589110  1
  O2-  O312  1  0.41048893  0.07517036  0.26737291  1
  O2-  O313  1  0.40616788  0.07183362  0.77134013  1
  O2-  O314  1  0.40373161  0.40637172  0.27167647  1
  O2-  O315  1  0.40213252  0.40634193  0.77074743  1
  O2-  O316  1  0.40271903  0.73425451  0.26885966  1
  O2-  O317  1  0.40342896  0.74151422  0.77462104  1
  O2-  O318  1  0.74054908  0.07418034  0.26328211  1
  O2-  O319  1  0.73777963  0.07357673  0.77124403  1
  O2-  O320  1  0.73862576  0.40818621  0.27420119  1
  O2-  O321  1  0.73976921  0.40641340  0.77201788  1
  O2-  O322  1  0.73486393  0.73773599  0.26494386  1
  O2-  O323  1  0.73696767  0.74041174  0.77168139  1
  O2-  O324  1  0.24372771  0.09107639  0.23455061  1
  O2-  O325  1  0.23890190  0.09593116  0.72908648  1
  O2-  O326  1  0.23757426  0.42630692  0.23042554  1
  O2-  O327  1  0.23809741  0.43058032  0.72579646  1
  O2-  O328  1  0.24307238  0.75636383  0.22905212  1
  O2-  O329  1  0.23460419  0.76571092  0.73070540  1
  O2-  O330  1  0.57206307  0.09245641  0.22856095  1
  O2-  O331  1  0.57231085  0.09533680  0.72856614  1
  O2-  O332  1  0.57053806  0.43099308  0.23250279  1
  O2-  O333  1  0.56756393  0.42906233  0.73153223  1
  O2-  O334  1  0.57152084  0.75959683  0.22546399  1
  O2-  O335  1  0.56960102  0.76061817  0.72953521  1
  O2-  O336  1  0.90721446  0.09224703  0.23032167  1
  O2-  O337  1  0.90560261  0.09490667  0.72817340  1
  O2-  O338  1  0.90379370  0.43029354  0.22927944  1
  O2-  O339  1  0.90518555  0.42856551  0.72621898  1
  O2-  O340  1  0.90526143  0.75880018  0.22892764  1
  O2-  O341  1  0.90551968  0.76203246  0.72893741  1
  O2-  O342  1  0.26253925  0.26239822  0.01584621  1
  O2-  O343  1  0.26326679  0.26215618  0.51978140  1
  O2-  O344  1  0.26246665  0.59255250  0.02042800  1
  O2-  O345  1  0.26367519  0.59863162  0.51920621  1
  O2-  O346  1  0.26747391  0.93176602  0.01886886  1
  O2-  O347  1  0.26417153  0.92825742  0.51882483  1
  O2-  O348  1  0.59439722  0.26024623  0.01340641  1
  O2-  O349  1  0.59790640  0.26202525  0.52128502  1
  O2-  O350  1  0.59409996  0.59543791  0.01854094  1
  O2-  O351  1  0.59238771  0.59646219  0.52279835  1
  O2-  O352  1  0.59744695  0.93167981  0.01789505  1
  O2-  O353  1  0.59250796  0.92617512  0.52249265  1
  O2-  O354  1  0.92771853  0.26314221  0.01811485  1
  O2-  O355  1  0.92841157  0.26228295  0.52110751  1
  O2-  O356  1  0.93167982  0.59584150  0.01711501  1
  O2-  O357  1  0.92818411  0.59245800  0.52420466  1
  O2-  O358  1  0.93057630  0.92802409  0.01861142  1
  O2-  O359  1  0.92687677  0.92511294  0.52146519  1
