# generated using pymatgen
data_Sr7Ca15Pr50Mn72O216
_symmetry_space_group_name_H-M   'P 1'
_cell_length_a   16.55944068
_cell_length_b   16.60497845
_cell_length_c   15.59294689
_cell_angle_alpha   90.00526924
_cell_angle_beta   89.99795755
_cell_angle_gamma   90.00696679
_symmetry_Int_Tables_number   1
_chemical_formula_structural   Sr7Ca15Pr50Mn72O216
_chemical_formula_sum   'Sr7 Ca15 Pr50 Mn72 O216'
_cell_volume   4287.57938958
_cell_formula_units_Z   1
loop_
 _symmetry_equiv_pos_site_id
 _symmetry_equiv_pos_as_xyz
  1  'x, y, z'
loop_
 _atom_type_symbol
 _atom_type_oxidation_number
  Sr2+  2.0
  Ca2+  2.0
  Pr3+  3.0
  Mn3.30+  3.3
  O2-  -2.0
loop_
 _atom_site_type_symbol
 _atom_site_label
 _atom_site_symmetry_multiplicity
 _atom_site_fract_x
 _atom_site_fract_y
 _atom_site_fract_z
 _atom_site_occupancy
  Sr2+  Sr0  1  0.33636541  0.98913087  0.37679314  1
  Sr2+  Sr1  1  0.67009022  0.32001889  0.37480581  1
  Sr2+  Sr2  1  0.33525437  0.65770880  0.87396682  1
  Sr2+  Sr3  1  0.49477575  0.82579487  0.37535804  1
  Sr2+  Sr4  1  0.66860046  0.65792982  0.87436673  1
  Sr2+  Sr5  1  0.49879342  0.15763988  0.87609678  1
  Sr2+  Sr6  1  0.16590657  0.82692996  0.37747516  1
  Ca2+  Ca7  1  0.66032173  0.01832435  0.12588166  1
  Ca2+  Ca8  1  0.33097781  0.01205194  0.62291541  1
  Ca2+  Ca9  1  1.00086164  0.31876039  0.37450336  1
  Ca2+  Ca10  1  -0.00172130  0.68342587  0.62406012  1
  Ca2+  Ca11  1  1.00258055  0.31788587  0.87519674  1
  Ca2+  Ca12  1  0.16188376  0.48379417  0.37522235  1
  Ca2+  Ca13  1  0.32796208  0.68467680  0.62397456  1
  Ca2+  Ca14  1  0.50632104  0.17929238  0.12840680  1
  Ca2+  Ca15  1  0.82904906  0.15354579  0.87603966  1
  Ca2+  Ca16  1  0.82986170  0.15331000  0.37390641  1
  Ca2+  Ca17  1  0.83063225  0.48361256  0.37578367  1
  Ca2+  Ca18  1  0.17169712  0.84932853  0.62492952  1
  Ca2+  Ca19  1  0.82918693  0.81644903  0.87366344  1
  Ca2+  Ca20  1  0.49635100  0.15070304  0.37275887  1
  Ca2+  Ca21  1  0.33145132  0.68126111  0.12682174  1
  Pr3+  Pr22  1  0.17090846  0.51514808  0.12820381  1
  Pr3+  Pr23  1  0.49721246  0.48960284  0.87478510  1
  Pr3+  Pr24  1  0.33313196  0.01330735  0.12649115  1
  Pr3+  Pr25  1  0.33864287  0.98775364  0.87336342  1
  Pr3+  Pr26  1  1.00314524  0.98831719  0.37489797  1
  Pr3+  Pr27  1  0.67147708  0.98726286  0.87659936  1
  Pr3+  Pr28  1  0.49915379  0.84606681  0.62523346  1
  Pr3+  Pr29  1  0.83377257  0.17846081  0.12594716  1
  Pr3+  Pr30  1  0.66407188  0.34377820  0.12623895  1
  Pr3+  Pr31  1  0.50321001  0.84751299  0.12509448  1
  Pr3+  Pr32  1  0.33282707  0.34495813  0.12568808  1
  Pr3+  Pr33  1  -0.00272892  0.67929579  0.12532058  1
  Pr3+  Pr34  1  0.83112106  0.82285981  0.37635885  1
  Pr3+  Pr35  1  0.83073489  0.48801691  0.87433154  1
  Pr3+  Pr36  1  0.66420933  0.01170307  0.62458674  1
  Pr3+  Pr37  1  0.50066983  0.17605639  0.62285759  1
  Pr3+  Pr38  1  0.50000152  0.51317959  0.62387295  1
  Pr3+  Pr39  1  0.83727859  0.17843328  0.62379135  1
  Pr3+  Pr40  1  0.66582668  0.99234552  0.37297589  1
  Pr3+  Pr41  1  0.33657873  0.32229524  0.87483500  1
  Pr3+  Pr42  1  0.17043907  0.84370693  0.12464529  1
  Pr3+  Pr43  1  0.67019025  0.31780373  0.87517237  1
  Pr3+  Pr44  1  0.83893180  0.51423279  0.62195222  1
  Pr3+  Pr45  1  0.16975084  0.17708180  0.62412016  1
  Pr3+  Pr46  1  -0.00090068  0.01078152  0.62442458  1
  Pr3+  Pr47  1  0.32888927  0.34513415  0.62439909  1
  Pr3+  Pr48  1  0.16549830  0.81920480  0.87273550  1
  Pr3+  Pr49  1  0.16911353  0.18099008  0.12611855  1
  Pr3+  Pr50  1  -0.00258313  0.01206902  0.12507818  1
  Pr3+  Pr51  1  0.66410151  0.67885499  0.12477961  1
  Pr3+  Pr52  1  0.49755976  0.82030907  0.87459652  1
  Pr3+  Pr53  1  0.66381502  0.67992588  0.62565668  1
  Pr3+  Pr54  1  0.49772679  0.48878004  0.37527926  1
  Pr3+  Pr55  1  0.83542937  0.51149700  0.12784626  1
  Pr3+  Pr56  1  0.66985843  0.65303577  0.37610293  1
  Pr3+  Pr57  1  0.16222844  0.48619988  0.87474604  1
  Pr3+  Pr58  1  0.83448382  0.84627831  0.12238509  1
  Pr3+  Pr59  1  -0.00331164  0.34655982  0.12653371  1
  Pr3+  Pr60  1  0.16385210  0.15460058  0.87575068  1
  Pr3+  Pr61  1  0.50144864  0.51334436  0.12618744  1
  Pr3+  Pr62  1  1.00822713  0.65267577  0.37722526  1
  Pr3+  Pr63  1  1.00288806  0.65431792  0.87240289  1
  Pr3+  Pr64  1  0.33803584  0.31948612  0.37536531  1
  Pr3+  Pr65  1  0.16994927  0.51550643  0.62200249  1
  Pr3+  Pr66  1  0.33327297  0.65912591  0.37621087  1
  Pr3+  Pr67  1  -0.00265563  0.34459947  0.62309235  1
  Pr3+  Pr68  1  0.83637712  0.84522126  0.62775675  1
  Pr3+  Pr69  1  0.66597907  0.34478809  0.62354442  1
  Pr3+  Pr70  1  0.16440964  0.15381695  0.37451955  1
  Pr3+  Pr71  1  0.99968129  0.98674800  0.87472037  1
  Mn3.30+  Mn72  1  0.16742649  -0.00022030  -0.00052766  1
  Mn3.30+  Mn73  1  0.16802353  -0.00077566  0.50113269  1
  Mn3.30+  Mn74  1  0.16511407  0.33412464  0.00041698  1
  Mn3.30+  Mn75  1  0.16426523  0.33399530  0.49691518  1
  Mn3.30+  Mn76  1  0.16808474  0.66583408  -0.00066903  1
  Mn3.30+  Mn77  1  0.16698528  0.66958700  0.50239249  1
  Mn3.30+  Mn78  1  0.50282850  0.00301196  0.00025559  1
  Mn3.30+  Mn79  1  0.49733290  0.00069635  0.50084594  1
  Mn3.30+  Mn80  1  0.50030935  0.33246107  0.00108609  1
  Mn3.30+  Mn81  1  0.50024211  0.33199607  0.49845781  1
  Mn3.30+  Mn82  1  0.49828566  0.66702826  0.00081748  1
  Mn3.30+  Mn83  1  0.49756078  0.66813599  0.50065866  1
  Mn3.30+  Mn84  1  0.83111722  0.00063666  0.00053329  1
  Mn3.30+  Mn85  1  0.83331394  0.00086565  0.49875132  1
  Mn3.30+  Mn86  1  0.83467559  0.33139461  -0.00162865  1
  Mn3.30+  Mn87  1  0.83409845  0.33240399  0.49664473  1
  Mn3.30+  Mn88  1  0.83279646  0.66652746  -0.00078640  1
  Mn3.30+  Mn89  1  0.83678360  0.66638532  0.49951933  1
  Mn3.30+  Mn90  1  -0.00172720  0.16767956  0.25121177  1
  Mn3.30+  Mn91  1  -0.00089074  0.16663972  0.75258749  1
  Mn3.30+  Mn92  1  0.00061947  0.49839153  0.25425448  1
  Mn3.30+  Mn93  1  0.00013313  0.49935019  0.74813529  1
  Mn3.30+  Mn94  1  -0.00036732  0.83291766  0.24982597  1
  Mn3.30+  Mn95  1  0.00051036  0.83242456  0.74907906  1
  Mn3.30+  Mn96  1  0.33710445  0.16684297  0.24931040  1
  Mn3.30+  Mn97  1  0.33327901  0.16614916  0.74993543  1
  Mn3.30+  Mn98  1  0.33125367  0.50165408  0.25196429  1
  Mn3.30+  Mn99  1  0.33146344  0.50271798  0.74903615  1
  Mn3.30+  Mn100  1  0.33410217  0.83291016  0.25012613  1
  Mn3.30+  Mn101  1  0.33159974  0.83394564  0.74764459  1
  Mn3.30+  Mn102  1  0.66589271  0.16611595  0.25148625  1
  Mn3.30+  Mn103  1  0.66855586  0.16556700  0.75023066  1
  Mn3.30+  Mn104  1  0.66854630  0.49875804  0.25159357  1
  Mn3.30+  Mn105  1  0.66736726  0.50023536  0.74940194  1
  Mn3.30+  Mn106  1  0.66625491  0.83505236  0.25045152  1
  Mn3.30+  Mn107  1  0.66842194  0.83327439  0.75050434  1
  Mn3.30+  Mn108  1  0.16679191  -0.00053074  0.24950516  1
  Mn3.30+  Mn109  1  0.16875513  -0.00036829  0.74959874  1
  Mn3.30+  Mn110  1  0.16527163  0.33478299  0.25249786  1
  Mn3.30+  Mn111  1  0.16390296  0.33327050  0.75031922  1
  Mn3.30+  Mn112  1  0.16791935  0.66755204  0.25175462  1
  Mn3.30+  Mn113  1  0.16686214  0.66760901  0.74668521  1
  Mn3.30+  Mn114  1  0.50036092  0.00243976  0.24882878  1
  Mn3.30+  Mn115  1  0.49981034  0.00134602  0.75017635  1
  Mn3.30+  Mn116  1  0.50088792  0.33105496  0.25164835  1
  Mn3.30+  Mn117  1  0.49961780  0.33336957  0.74838574  1
  Mn3.30+  Mn118  1  0.49859158  0.66827867  0.25042313  1
  Mn3.30+  Mn119  1  0.49746671  0.66682467  0.74853410  1
  Mn3.30+  Mn120  1  0.83128734  0.00091807  0.24846240  1
  Mn3.30+  Mn121  1  0.83352408  0.00046877  0.75214866  1
  Mn3.30+  Mn122  1  0.83346500  0.33225763  0.25309248  1
  Mn3.30+  Mn123  1  0.83536622  0.33158570  0.75167597  1
  Mn3.30+  Mn124  1  0.83452013  0.66556962  0.25279661  1
  Mn3.30+  Mn125  1  0.83531276  0.66708163  0.74841423  1
  Mn3.30+  Mn126  1  -0.00200150  0.16726215  -0.00170069  1
  Mn3.30+  Mn127  1  -0.00076589  0.16738218  0.49744880  1
  Mn3.30+  Mn128  1  -0.00027231  0.49886758  0.00006587  1
  Mn3.30+  Mn129  1  0.00144340  0.49878498  0.49756125  1
  Mn3.30+  Mn130  1  -0.00133451  0.83233748  -0.00275465  1
  Mn3.30+  Mn131  1  0.00162710  0.83262196  0.50308412  1
  Mn3.30+  Mn132  1  0.33571016  0.16779628  0.00185057  1
  Mn3.30+  Mn133  1  0.33454063  0.16532419  0.49916717  1
  Mn3.30+  Mn134  1  0.33228701  0.50238333  0.00064440  1
  Mn3.30+  Mn135  1  0.33028778  0.50199845  0.49825615  1
  Mn3.30+  Mn136  1  0.33474266  0.83249620  0.00092277  1
  Mn3.30+  Mn137  1  0.33097018  0.83423381  0.50173097  1
  Mn3.30+  Mn138  1  0.66642559  0.16512840  0.00060322  1
  Mn3.30+  Mn139  1  0.66769232  0.16633459  0.49757699  1
  Mn3.30+  Mn140  1  0.66674870  0.49988568  -0.00070904  1
  Mn3.30+  Mn141  1  0.66911757  0.49919331  0.49986827  1
  Mn3.30+  Mn142  1  0.66879003  0.83428227  0.00033426  1
  Mn3.30+  Mn143  1  0.66559887  0.83394396  0.49867398  1
  O2-  O144  1  0.02542161  0.16079716  0.12468823  1
  O2-  O145  1  0.02556434  0.16059151  0.62698235  1
  O2-  O146  1  0.02642309  0.49452132  0.12796933  1
  O2-  O147  1  0.02738708  0.48905486  0.62232974  1
  O2-  O148  1  0.02509461  0.82795255  0.12119257  1
  O2-  O149  1  0.02668823  0.83206527  0.62684823  1
  O2-  O150  1  0.36214959  0.16328220  0.12501283  1
  O2-  O151  1  0.35530154  0.16413143  0.62354440  1
  O2-  O152  1  0.35800001  0.49176565  0.12606055  1
  O2-  O153  1  0.35653206  0.49083911  0.62206194  1
  O2-  O154  1  0.35782633  0.82667152  0.12356295  1
  O2-  O155  1  0.35722514  0.82782028  0.62678696  1
  O2-  O156  1  0.69103892  0.16585819  0.12524422  1
  O2-  O157  1  0.69388542  0.16099106  0.62461534  1
  O2-  O158  1  0.69087617  0.49486831  0.12579914  1
  O2-  O159  1  0.69344422  0.49467817  0.62411527  1
  O2-  O160  1  0.69221193  0.82556879  0.12652869  1
  O2-  O161  1  0.69185019  0.83052557  0.62408054  1
  O2-  O162  1  0.14103062  0.32933780  0.12649510  1
  O2-  O163  1  0.14120995  0.32603156  0.62195307  1
  O2-  O164  1  0.14025890  0.66265945  0.12376588  1
  O2-  O165  1  0.13758933  0.65882094  0.62480201  1
  O2-  O166  1  0.14208392  0.99454196  0.12195568  1
  O2-  O167  1  0.14247508  1.00189006  0.62594089  1
  O2-  O168  1  0.47664655  0.32728521  0.12799369  1
  O2-  O169  1  0.47365686  0.32632129  0.62284102  1
  O2-  O170  1  0.47438916  0.66103775  0.12546384  1
  O2-  O171  1  0.47189619  0.65992733  0.62424184  1
  O2-  O172  1  0.47555949  0.99389389  0.12215614  1
  O2-  O173  1  0.47455618  0.99521654  0.62723196  1
  O2-  O174  1  0.80833410  0.32734547  0.12448031  1
  O2-  O175  1  0.80996408  0.32577402  0.62539989  1
  O2-  O176  1  0.80876236  0.65938164  0.12931362  1
  O2-  O177  1  0.80770882  0.66166136  0.62335973  1
  O2-  O178  1  0.80383722  0.99244787  0.12434742  1
  O2-  O179  1  0.80867832  0.99336980  0.62680544  1
  O2-  O180  1  0.30803776  0.17181771  0.37419518  1
  O2-  O181  1  0.30801351  0.17390564  0.87750232  1
  O2-  O182  1  0.30407098  0.51032955  0.37572000  1
  O2-  O183  1  0.30647861  0.50235042  0.87677589  1
  O2-  O184  1  0.31547946  0.83219435  0.37626557  1
  O2-  O185  1  0.30984682  0.84025994  0.87373750  1
  O2-  O186  1  0.63959738  0.16295143  0.37615673  1
  O2-  O187  1  0.64714117  0.17005042  0.87475637  1
  O2-  O188  1  0.64200653  0.50537224  0.37644603  1
  O2-  O189  1  0.64211812  0.50113564  0.87382510  1
  O2-  O190  1  0.64500037  0.84111441  0.37440773  1
  O2-  O191  1  0.64193425  0.83817330  0.87493384  1
  O2-  O192  1  0.97268198  0.17108325  0.37180859  1
  O2-  O193  1  0.97205794  0.17297571  0.87588056  1
  O2-  O194  1  0.97104831  0.50944906  0.37567666  1
  O2-  O195  1  0.97389513  0.50899655  0.87349099  1
  O2-  O196  1  0.97527439  0.83992284  0.37690804  1
  O2-  O197  1  0.97163884  0.83764760  0.87432117  1
  O2-  O198  1  0.18470174  0.00495615  0.37561147  1
  O2-  O199  1  0.19396821  0.00594051  0.87695258  1
  O2-  O200  1  0.19418094  0.33699643  0.37447887  1
  O2-  O201  1  0.19294457  0.33854116  0.87701057  1
  O2-  O202  1  0.18972827  0.67413153  0.37821822  1
  O2-  O203  1  0.18582956  0.66947198  0.87323931  1
  O2-  O204  1  0.52198987  0.00443028  0.37518388  1
  O2-  O205  1  0.52675676  0.00253090  0.87572475  1
  O2-  O206  1  0.52091784  0.34300033  0.37573113  1
  O2-  O207  1  0.52455619  0.34165845  0.87289301  1
  O2-  O208  1  0.52500535  0.66870220  0.37589968  1
  O2-  O209  1  0.51880400  0.67014958  0.87487609  1
  O2-  O210  1  0.85914723  0.00484407  0.37294192  1
  O2-  O211  1  0.85772978  0.01077908  0.87600095  1
  O2-  O212  1  0.86031818  0.34122645  0.37467509  1
  O2-  O213  1  0.86233747  0.34282303  0.87501761  1
  O2-  O214  1  0.86341275  0.67730402  0.37550717  1
  O2-  O215  1  0.85901555  0.66979167  0.87165451  1
  O2-  O216  1  0.24111953  0.09737624  0.02247625  1
  O2-  O217  1  0.23694505  0.09693512  0.51590556  1
  O2-  O218  1  0.23745262  0.42906405  0.02150150  1
  O2-  O219  1  0.23724208  0.42691829  0.52048026  1
  O2-  O220  1  0.23553432  0.76274375  0.01487315  1
  O2-  O221  1  0.23594899  0.76354516  0.52363247  1
  O2-  O222  1  0.57085122  0.09708222  0.02203553  1
  O2-  O223  1  0.57457123  0.09155639  0.52364900  1
  O2-  O224  1  0.57137515  0.42697082  0.02156972  1
  O2-  O225  1  0.57145802  0.42640240  0.52136676  1
  O2-  O226  1  0.57345884  0.76140264  0.01969502  1
  O2-  O227  1  0.57203583  0.75824618  0.52454313  1
  O2-  O228  1  0.90517674  0.09150262  0.02445781  1
  O2-  O229  1  0.90624384  0.09104271  0.52198533  1
  O2-  O230  1  0.90435968  0.42800200  0.02257395  1
  O2-  O231  1  0.90699423  0.42647342  0.52219776  1
  O2-  O232  1  0.90707714  0.75915536  0.02221935  1
  O2-  O233  1  0.90326579  0.76420122  0.52037121  1
  O2-  O234  1  0.26328369  0.26074260  0.22939534  1
  O2-  O235  1  0.25902718  0.26313215  0.73036547  1
  O2-  O236  1  0.26265147  0.59665804  0.22814184  1
  O2-  O237  1  0.26060054  0.59581915  0.72549102  1
  O2-  O238  1  0.25981488  0.92435637  0.22716175  1
  O2-  O239  1  0.26488940  0.93201547  0.73145684  1
  O2-  O240  1  0.59767825  0.26113340  0.23135708  1
  O2-  O241  1  0.59580540  0.25964078  0.72967458  1
  O2-  O242  1  0.59430486  0.59441428  0.23142027  1
  O2-  O243  1  0.59162944  0.59394489  0.72645125  1
  O2-  O244  1  0.59400862  0.93111446  0.22871538  1
  O2-  O245  1  0.59460628  0.92724584  0.73019558  1
  O2-  O246  1  0.92753242  0.25977991  0.22633289  1
  O2-  O247  1  0.92834309  0.25982696  0.72701308  1
  O2-  O248  1  0.92963061  0.59422426  0.22924914  1
  O2-  O249  1  0.93025363  0.59525407  0.72586634  1
  O2-  O250  1  0.92516780  0.92723790  0.22780376  1
  O2-  O251  1  0.92881044  0.92881297  0.73063019  1
  O2-  O252  1  0.09678961  0.23696950  0.26745651  1
  O2-  O253  1  0.09517405  0.23630956  0.76982618  1
  O2-  O254  1  0.09717808  0.57025767  0.27137263  1
  O2-  O255  1  0.09504627  0.56931416  0.76899331  1
  O2-  O256  1  0.08888408  0.90756183  0.26459165  1
  O2-  O257  1  0.09378487  0.90741356  0.77332112  1
  O2-  O258  1  0.42819994  0.24004373  0.27463264  1
  O2-  O259  1  0.42441230  0.24232291  0.76662743  1
  O2-  O260  1  0.42734242  0.57055930  0.27088999  1
  O2-  O261  1  0.43008604  0.56921914  0.76625403  1
  O2-  O262  1  0.42795165  0.90606577  0.25934032  1
  O2-  O263  1  0.43014406  0.90649692  0.77112721  1
  O2-  O264  1  0.76543215  0.23494812  0.26820094  1
  O2-  O265  1  0.76485654  0.23849338  0.77140700  1
  O2-  O266  1  0.76395088  0.57243553  0.27391938  1
  O2-  O267  1  0.76546938  0.57007177  0.76559561  1
  O2-  O268  1  0.76228945  0.90605115  0.27092530  1
  O2-  O269  1  0.76405118  0.90599351  0.77278097  1
  O2-  O270  1  0.07101420  0.07415023  0.47945310  1
  O2-  O271  1  0.06970385  0.07364484  0.97804122  1
  O2-  O272  1  0.06856455  0.40139645  0.47749344  1
  O2-  O273  1  0.06938197  0.40502667  0.97808074  1
  O2-  O274  1  0.06896632  0.73731043  0.48324021  1
  O2-  O275  1  0.07115028  0.73727645  0.97871663  1
  O2-  O276  1  0.40831208  0.07523301  0.48469344  1
  O2-  O277  1  0.40247377  0.07027753  0.98251198  1
  O2-  O278  1  0.40266932  0.40771942  0.47901175  1
  O2-  O279  1  0.40421948  0.40767926  0.98057202  1
  O2-  O280  1  0.40295349  0.73716133  0.48441027  1
  O2-  O281  1  0.40898446  0.74318416  0.98094267  1
  O2-  O282  1  0.73732512  0.06960579  0.48240723  1
  O2-  O283  1  0.73680389  0.07121493  0.98233051  1
  O2-  O284  1  0.74061675  0.40353481  0.48608695  1
  O2-  O285  1  0.74050212  0.40214729  0.97920992  1
  O2-  O286  1  0.73822644  0.73938693  0.47946623  1
  O2-  O287  1  0.74091874  0.73821635  0.98671842  1
  O2-  O288  1  0.09705283  0.23718080  0.47970554  1
  O2-  O289  1  0.09691161  0.23770977  0.98275627  1
  O2-  O290  1  0.09743802  0.56845204  0.47812268  1
  O2-  O291  1  0.09515766  0.57094555  0.98076791  1
  O2-  O292  1  0.08871162  0.91128778  0.48390199  1
  O2-  O293  1  0.09209755  0.90356895  0.97690834  1
  O2-  O294  1  0.42849205  0.23863966  0.47828776  1
  O2-  O295  1  0.42394453  0.24505158  0.97996943  1
  O2-  O296  1  0.42803860  0.57194896  0.47878706  1
  O2-  O297  1  0.42980170  0.56874094  0.98364734  1
  O2-  O298  1  0.42761326  0.90491438  0.48965694  1
  O2-  O299  1  0.43009685  0.90667643  0.97966076  1
  O2-  O300  1  0.76563391  0.23456586  0.48171126  1
  O2-  O301  1  0.76393663  0.23741212  0.97923605  1
  O2-  O302  1  0.76445763  0.57299486  0.47796747  1
  O2-  O303  1  0.76414929  0.56904526  0.98365483  1
  O2-  O304  1  0.76216068  0.90825105  0.47993452  1
  O2-  O305  1  0.76417474  0.90395474  0.97675005  1
  O2-  O306  1  0.07035078  0.07394440  0.26859577  1
  O2-  O307  1  0.07105393  0.07243136  0.77311166  1
  O2-  O308  1  0.06771034  0.40325025  0.27171603  1
  O2-  O309  1  0.07026842  0.40280291  0.77179584  1
  O2-  O310  1  0.06892278  0.73533221  0.26526442  1
  O2-  O311  1  0.07221235  0.73884268  0.77191213  1
  O2-  O312  1  0.40503500  0.07211871  0.26430903  1
  O2-  O313  1  0.40523035  0.07213518  0.76866618  1
  O2-  O314  1  0.40340817  0.40694338  0.27069755  1
  O2-  O315  1  0.40358187  0.40765452  0.76872047  1
  O2-  O316  1  0.40384686  0.73680229  0.26705645  1
  O2-  O317  1  0.40850193  0.74396393  0.76749520  1
  O2-  O318  1  0.73776892  0.07200818  0.26861953  1
  O2-  O319  1  0.73732739  0.06901185  0.76702043  1
  O2-  O320  1  0.74049911  0.40466437  0.26430188  1
  O2-  O321  1  0.74043167  0.40237964  0.76976026  1
  O2-  O322  1  0.74041443  0.73726126  0.27221509  1
  O2-  O323  1  0.74084342  0.73902999  0.76275892  1
  O2-  O324  1  0.23995757  0.09529273  0.22866091  1
  O2-  O325  1  0.23647150  0.09849358  0.73472469  1
  O2-  O326  1  0.23932185  0.42792131  0.22920036  1
  O2-  O327  1  0.23629475  0.42906099  0.72987815  1
  O2-  O328  1  0.23771487  0.76121847  0.22954354  1
  O2-  O329  1  0.23417907  0.76575106  0.73273129  1
  O2-  O330  1  0.57155261  0.09618454  0.23031974  1
  O2-  O331  1  0.57272727  0.09221893  0.72622817  1
  O2-  O332  1  0.57083323  0.42695054  0.23026314  1
  O2-  O333  1  0.57204555  0.42649212  0.72607866  1
  O2-  O334  1  0.57443100  0.76036093  0.22688684  1
  O2-  O335  1  0.57204471  0.75950255  0.72940453  1
  O2-  O336  1  0.90570739  0.09130509  0.22524454  1
  O2-  O337  1  0.90765815  0.09227246  0.72743111  1
  O2-  O338  1  0.90642112  0.42611763  0.22722567  1
  O2-  O339  1  0.90477345  0.42829517  0.72740828  1
  O2-  O340  1  0.90421919  0.76196519  0.22845797  1
  O2-  O341  1  0.90608851  0.76084716  0.72824202  1
  O2-  O342  1  0.26115481  0.26201299  0.02257038  1
  O2-  O343  1  0.26142564  0.26200197  0.51849988  1
  O2-  O344  1  0.26139782  0.59441534  0.02479026  1
  O2-  O345  1  0.26200392  0.59801720  0.52306424  1
  O2-  O346  1  0.26407424  0.92570823  0.02109852  1
  O2-  O347  1  0.25971330  0.92895985  0.52143570  1
  O2-  O348  1  0.59891948  0.26265559  0.01501498  1
  O2-  O349  1  0.59571306  0.25761252  0.52355329  1
  O2-  O350  1  0.59122773  0.59481894  0.02232340  1
  O2-  O351  1  0.59424868  0.59405545  0.52040056  1
  O2-  O352  1  0.59661957  0.92950528  0.02098550  1
  O2-  O353  1  0.59298235  0.92732756  0.52035200  1
  O2-  O354  1  0.92767587  0.26034131  0.02373511  1
  O2-  O355  1  0.92834449  0.25930916  0.52121615  1
  O2-  O356  1  0.92862887  0.59331926  0.02094071  1
  O2-  O357  1  0.93260475  0.59474405  0.52302539  1
  O2-  O358  1  0.92742748  0.92825733  0.02055492  1
  O2-  O359  1  0.92609904  0.92707971  0.52084838  1
