# generated using pymatgen
data_Sr7Ca15Pr50Mn72O216
_symmetry_space_group_name_H-M   'P 1'
_cell_length_a   16.55762313
_cell_length_b   16.60471294
_cell_length_c   15.59447541
_cell_angle_alpha   89.99140475
_cell_angle_beta   90.00167357
_cell_angle_gamma   89.99214013
_symmetry_Int_Tables_number   1
_chemical_formula_structural   Sr7Ca15Pr50Mn72O216
_chemical_formula_sum   'Sr7 Ca15 Pr50 Mn72 O216'
_cell_volume   4287.46044177
_cell_formula_units_Z   1
loop_
 _symmetry_equiv_pos_site_id
 _symmetry_equiv_pos_as_xyz
  1  'x, y, z'
loop_
 _atom_type_symbol
 _atom_type_oxidation_number
  Sr2+  2.0
  Ca2+  2.0
  Pr3+  3.0
  Mn3.30+  3.3
  O2-  -2.0
loop_
 _atom_site_type_symbol
 _atom_site_label
 _atom_site_symmetry_multiplicity
 _atom_site_fract_x
 _atom_site_fract_y
 _atom_site_fract_z
 _atom_site_occupancy
  Sr2+  Sr0  1  -0.00054982  0.34364884  0.12463985  1
  Sr2+  Sr1  1  0.49652096  0.82174247  0.87475220  1
  Sr2+  Sr2  1  0.49914751  0.17410330  0.62472150  1
  Sr2+  Sr3  1  -0.00108351  0.34303535  0.62557841  1
  Sr2+  Sr4  1  0.49883872  0.82427181  0.37524462  1
  Sr2+  Sr5  1  0.82965882  0.82279929  0.87440130  1
  Sr2+  Sr6  1  0.49774153  0.15548311  0.87293323  1
  Ca2+  Ca7  1  0.66355378  0.98823007  0.37750916  1
  Ca2+  Ca8  1  0.49934153  0.84583095  0.12754600  1
  Ca2+  Ca9  1  0.49855204  0.49014655  0.37758983  1
  Ca2+  Ca10  1  0.49417117  0.14827615  0.37732767  1
  Ca2+  Ca11  1  -0.00287766  0.01480483  0.62485400  1
  Ca2+  Ca12  1  0.66538472  0.65174589  0.37512105  1
  Ca2+  Ca13  1  0.33988541  0.65016198  0.37465587  1
  Ca2+  Ca14  1  0.33676861  0.01126225  0.62196640  1
  Ca2+  Ca15  1  0.50171436  0.51397371  0.62058817  1
  Ca2+  Ca16  1  0.33301790  0.68280519  0.12779165  1
  Ca2+  Ca17  1  0.50163878  0.84861902  0.62244676  1
  Ca2+  Ca18  1  0.33884008  0.65503731  0.87517775  1
  Ca2+  Ca19  1  0.16606701  0.48750967  0.37528865  1
  Ca2+  Ca20  1  1.00394796  0.31890039  0.87320097  1
  Ca2+  Ca21  1  0.34127758  0.98559485  0.37819867  1
  Pr3+  Pr22  1  0.33886046  0.98772430  0.87275779  1
  Pr3+  Pr23  1  0.33597580  0.67941987  0.62275036  1
  Pr3+  Pr24  1  0.83251498  0.15618394  0.87422544  1
  Pr3+  Pr25  1  -0.00092176  0.67840430  0.12615157  1
  Pr3+  Pr26  1  0.65934446  0.34759410  0.62451934  1
  Pr3+  Pr27  1  0.49558805  0.49175390  0.87353245  1
  Pr3+  Pr28  1  0.49978416  0.51478688  0.12782414  1
  Pr3+  Pr29  1  0.82417536  0.81884456  0.37556762  1
  Pr3+  Pr30  1  1.00211268  0.65535538  0.87513881  1
  Pr3+  Pr31  1  0.17037623  0.51232963  0.62283109  1
  Pr3+  Pr32  1  0.33922070  0.32060179  0.37537889  1
  Pr3+  Pr33  1  0.82953477  0.48653104  0.37493970  1
  Pr3+  Pr34  1  0.66705185  0.65562250  0.87539370  1
  Pr3+  Pr35  1  0.17035474  0.82185281  0.37570210  1
  Pr3+  Pr36  1  0.32926893  0.34728796  0.12501372  1
  Pr3+  Pr37  1  0.83575003  0.17796415  0.62405705  1
  Pr3+  Pr38  1  1.00376639  0.32222553  0.37593115  1
  Pr3+  Pr39  1  0.83697416  0.51272180  0.12647914  1
  Pr3+  Pr40  1  0.83540703  0.51197121  0.62364585  1
  Pr3+  Pr41  1  0.65977110  0.68312443  0.12761630  1
  Pr3+  Pr42  1  0.17049720  0.18059184  0.12588359  1
  Pr3+  Pr43  1  0.83459375  0.84652898  0.12482415  1
  Pr3+  Pr44  1  0.66739359  0.32025569  0.87464241  1
  Pr3+  Pr45  1  0.83166519  0.48647897  0.87509333  1
  Pr3+  Pr46  1  0.82915440  0.15239009  0.37599635  1
  Pr3+  Pr47  1  0.66111330  0.01126776  0.62330133  1
  Pr3+  Pr48  1  0.66340314  0.34657576  0.12480893  1
  Pr3+  Pr49  1  1.00487662  0.65219559  0.37501871  1
  Pr3+  Pr50  1  0.16691319  0.81961872  0.87448663  1
  Pr3+  Pr51  1  0.17144530  0.84461794  0.12617817  1
  Pr3+  Pr52  1  0.66656178  0.98684560  0.87244866  1
  Pr3+  Pr53  1  0.16452213  0.48729304  0.87446609  1
  Pr3+  Pr54  1  0.17089853  0.17971458  0.62381687  1
  Pr3+  Pr55  1  0.33244176  0.34622532  0.62484002  1
  Pr3+  Pr56  1  0.83664158  0.84837841  0.62572325  1
  Pr3+  Pr57  1  0.33581588  0.00833156  0.12787300  1
  Pr3+  Pr58  1  1.00385387  0.98649902  0.37746625  1
  Pr3+  Pr59  1  0.17315764  0.51592125  0.12737160  1
  Pr3+  Pr60  1  1.00449299  0.98564137  0.87265233  1
  Pr3+  Pr61  1  -0.00269059  0.01231018  0.12579611  1
  Pr3+  Pr62  1  0.66426116  0.32211263  0.37501887  1
  Pr3+  Pr63  1  0.65758629  0.68040690  0.62243456  1
  Pr3+  Pr64  1  0.50283317  0.17813202  0.12581290  1
  Pr3+  Pr65  1  0.17148422  0.84936585  0.62391196  1
  Pr3+  Pr66  1  0.16321170  0.15426498  0.87388415  1
  Pr3+  Pr67  1  0.83580480  0.17861657  0.12610605  1
  Pr3+  Pr68  1  0.33665202  0.31951272  0.87452930  1
  Pr3+  Pr69  1  0.66096603  0.00906780  0.12691537  1
  Pr3+  Pr70  1  -0.00206859  0.67745863  0.62413904  1
  Pr3+  Pr71  1  0.16629715  0.15386634  0.37570136  1
  Mn3.30+  Mn72  1  0.16806692  -0.00044591  0.00063869  1
  Mn3.30+  Mn73  1  0.16975360  0.00051182  0.50026282  1
  Mn3.30+  Mn74  1  0.16509502  0.33437595  -0.00044834  1
  Mn3.30+  Mn75  1  0.16832970  0.33572915  0.49881626  1
  Mn3.30+  Mn76  1  0.17118209  0.66681601  -0.00038850  1
  Mn3.30+  Mn77  1  0.16963933  0.66627217  0.49776588  1
  Mn3.30+  Mn78  1  0.49956921  -0.00162083  -0.00010816  1
  Mn3.30+  Mn79  1  0.49895609  -0.00070782  0.49954470  1
  Mn3.30+  Mn80  1  0.49851298  0.33433443  0.00025402  1
  Mn3.30+  Mn81  1  0.49940473  0.33388890  0.49953875  1
  Mn3.30+  Mn82  1  0.49625911  0.66938145  0.00243261  1
  Mn3.30+  Mn83  1  0.49874084  0.66628459  0.49621932  1
  Mn3.30+  Mn84  1  0.83264876  0.00002404  -0.00063070  1
  Mn3.30+  Mn85  1  0.83301176  -0.00065028  0.49995048  1
  Mn3.30+  Mn86  1  0.83508216  0.33312294  -0.00056228  1
  Mn3.30+  Mn87  1  0.83200432  0.33277460  0.50030774  1
  Mn3.30+  Mn88  1  0.83234100  0.66700503  0.00051821  1
  Mn3.30+  Mn89  1  0.82986261  0.66630826  0.49913648  1
  Mn3.30+  Mn90  1  0.00011165  0.16662199  0.25131225  1
  Mn3.30+  Mn91  1  0.00017982  0.16639015  0.74879217  1
  Mn3.30+  Mn92  1  0.00264988  0.49940767  0.25038811  1
  Mn3.30+  Mn93  1  0.00002738  0.49887934  0.74992977  1
  Mn3.30+  Mn94  1  -0.00031426  0.83268397  0.25191040  1
  Mn3.30+  Mn95  1  0.00091232  0.83306793  0.74872857  1
  Mn3.30+  Mn96  1  0.33624563  0.16484429  0.25205985  1
  Mn3.30+  Mn97  1  0.33318468  0.16544577  0.74785074  1
  Mn3.30+  Mn98  1  0.33455773  0.50235241  0.25376494  1
  Mn3.30+  Mn99  1  0.33432587  0.50302769  0.74867647  1
  Mn3.30+  Mn100  1  0.33664670  0.83175622  0.25139053  1
  Mn3.30+  Mn101  1  0.33546489  0.83344591  0.74769882  1
  Mn3.30+  Mn102  1  0.66429878  0.16485203  0.25288091  1
  Mn3.30+  Mn103  1  0.66616292  0.16628444  0.74959485  1
  Mn3.30+  Mn104  1  0.66481478  0.50153862  0.25161200  1
  Mn3.30+  Mn105  1  0.66439634  0.50094530  0.74912151  1
  Mn3.30+  Mn106  1  0.66349798  0.83382147  0.25247757  1
  Mn3.30+  Mn107  1  0.66489110  0.83223191  0.74868295  1
  Mn3.30+  Mn108  1  0.16918828  -0.00079669  0.25240334  1
  Mn3.30+  Mn109  1  0.16854922  0.00073094  0.74650948  1
  Mn3.30+  Mn110  1  0.16805863  0.33584944  0.25150583  1
  Mn3.30+  Mn111  1  0.16547834  0.33405672  0.74977105  1
  Mn3.30+  Mn112  1  0.17159106  0.66641239  0.25278066  1
  Mn3.30+  Mn113  1  0.16940408  0.66674110  0.74966635  1
  Mn3.30+  Mn114  1  0.49951134  -0.00138368  0.25315657  1
  Mn3.30+  Mn115  1  0.49918612  -0.00140555  0.74764392  1
  Mn3.30+  Mn116  1  0.49891257  0.33386800  0.25127717  1
  Mn3.30+  Mn117  1  0.49905374  0.33460903  0.74839634  1
  Mn3.30+  Mn118  1  0.49702540  0.66815250  0.25263530  1
  Mn3.30+  Mn119  1  0.49804364  0.66752768  0.74883377  1
  Mn3.30+  Mn120  1  0.83094392  -0.00102700  0.25196236  1
  Mn3.30+  Mn121  1  0.83485773  0.00044989  0.74903823  1
  Mn3.30+  Mn122  1  0.83308878  0.33280220  0.25029183  1
  Mn3.30+  Mn123  1  0.83387244  0.33310761  0.75007792  1
  Mn3.30+  Mn124  1  0.83092175  0.66644711  0.25113308  1
  Mn3.30+  Mn125  1  0.83131956  0.66668895  0.74946143  1
  Mn3.30+  Mn126  1  0.00014306  0.16743764  -0.00064050  1
  Mn3.30+  Mn127  1  0.00020703  0.16563667  0.50051775  1
  Mn3.30+  Mn128  1  0.00138912  0.49888195  0.00039109  1
  Mn3.30+  Mn129  1  0.00142434  0.49942820  0.49966867  1
  Mn3.30+  Mn130  1  0.00071721  0.83241239  -0.00023263  1
  Mn3.30+  Mn131  1  -0.00035888  0.83355757  0.50027728  1
  Mn3.30+  Mn132  1  0.33386493  0.16558799  0.00034779  1
  Mn3.30+  Mn133  1  0.33544461  0.16468920  0.49966869  1
  Mn3.30+  Mn134  1  0.33274993  0.50420633  -0.00025880  1
  Mn3.30+  Mn135  1  0.33597018  0.50130801  0.49811820  1
  Mn3.30+  Mn136  1  0.33516017  0.83102723  0.00140048  1
  Mn3.30+  Mn137  1  0.33689457  0.83457982  0.50000023  1
  Mn3.30+  Mn138  1  0.66691382  0.16562908  -0.00005377  1
  Mn3.30+  Mn139  1  0.66330602  0.16550732  0.49753659  1
  Mn3.30+  Mn140  1  0.66577817  0.50108677  0.00123397  1
  Mn3.30+  Mn141  1  0.66347772  0.50135578  0.49813895  1
  Mn3.30+  Mn142  1  0.66403279  0.83338736  0.00011765  1
  Mn3.30+  Mn143  1  0.66418823  0.83319413  0.49908089  1
  O2-  O144  1  0.02555675  0.15928069  0.12702444  1
  O2-  O145  1  0.02598957  0.16005788  0.62356032  1
  O2-  O146  1  0.02765171  0.49928628  0.12506564  1
  O2-  O147  1  0.02484671  0.49999426  0.62467002  1
  O2-  O148  1  0.02647036  0.82745265  0.12724619  1
  O2-  O149  1  0.02660267  0.82375922  0.62483533  1
  O2-  O150  1  0.35862607  0.15962386  0.12789601  1
  O2-  O151  1  0.34951113  0.16246129  0.62347574  1
  O2-  O152  1  0.35650681  0.49239408  0.12584710  1
  O2-  O153  1  0.35958989  0.49360782  0.62403760  1
  O2-  O154  1  0.35659134  0.82798377  0.12591794  1
  O2-  O155  1  0.35989934  0.82456724  0.62378357  1
  O2-  O156  1  0.69267539  0.15849865  0.12634999  1
  O2-  O157  1  0.69187518  0.16126251  0.62457802  1
  O2-  O158  1  0.69308160  0.49451385  0.12591670  1
  O2-  O159  1  0.69242465  0.49506103  0.62338757  1
  O2-  O160  1  0.69100388  0.83144932  0.12659761  1
  O2-  O161  1  0.69274395  0.82720380  0.62361138  1
  O2-  O162  1  0.14916479  0.32918451  0.12538812  1
  O2-  O163  1  0.14819567  0.32988885  0.62415553  1
  O2-  O164  1  0.14232177  0.66414628  0.12649628  1
  O2-  O165  1  0.14117120  0.66094082  0.62186700  1
  O2-  O166  1  0.13991707  0.99364827  0.12811137  1
  O2-  O167  1  0.13804112  0.99639254  0.62378186  1
  O2-  O168  1  0.47379241  0.32683402  0.12622504  1
  O2-  O169  1  0.47643260  0.32909648  0.62460255  1
  O2-  O170  1  0.47288870  0.65906721  0.12754170  1
  O2-  O171  1  0.47825646  0.65657381  0.62184595  1
  O2-  O172  1  0.47988727  0.99686120  0.12576999  1
  O2-  O173  1  0.47934850  0.99554159  0.62439937  1
  O2-  O174  1  0.80719355  0.32723420  0.12424177  1
  O2-  O175  1  0.80465362  0.32740598  0.62314897  1
  O2-  O176  1  0.80667844  0.66009711  0.12557008  1
  O2-  O177  1  0.80459524  0.65864871  0.62230488  1
  O2-  O178  1  0.80736676  0.99681135  0.12570760  1
  O2-  O179  1  0.80662621  0.99819536  0.62419596  1
  O2-  O180  1  0.30861278  0.17375881  0.37445115  1
  O2-  O181  1  0.30789702  0.16993624  0.87399893  1
  O2-  O182  1  0.30667540  0.50470898  0.37512582  1
  O2-  O183  1  0.30817799  0.51033536  0.87466108  1
  O2-  O184  1  0.31121239  0.84351895  0.37645926  1
  O2-  O185  1  0.30859368  0.84199218  0.87357560  1
  O2-  O186  1  0.63612598  0.17587417  0.37369607  1
  O2-  O187  1  0.64683886  0.17244664  0.87486805  1
  O2-  O188  1  0.64144081  0.50316979  0.37323492  1
  O2-  O189  1  0.64024618  0.50616093  0.87689091  1
  O2-  O190  1  0.64916619  0.84369622  0.37602580  1
  O2-  O191  1  0.64714940  0.83742943  0.87376794  1
  O2-  O192  1  0.97505065  0.17247421  0.37528213  1
  O2-  O193  1  0.97659626  0.17114858  0.87407541  1
  O2-  O194  1  0.97387476  0.50494003  0.37523739  1
  O2-  O195  1  0.97526740  0.50948677  0.87537420  1
  O2-  O196  1  0.97045258  0.83942040  0.37584710  1
  O2-  O197  1  0.98020826  0.83737471  0.87252137  1
  O2-  O198  1  0.19675268  0.00555390  0.37466543  1
  O2-  O199  1  0.19399954  0.00584499  0.87318258  1
  O2-  O200  1  0.19399377  0.33913597  0.37524212  1
  O2-  O201  1  0.19268061  0.33746108  0.87481633  1
  O2-  O202  1  0.19686495  0.67600213  0.37604907  1
  O2-  O203  1  0.19603362  0.67240240  0.87585676  1
  O2-  O204  1  0.52303451  0.00508978  0.37545850  1
  O2-  O205  1  0.52120340  0.00114398  0.87453875  1
  O2-  O206  1  0.52229489  0.34506349  0.37381349  1
  O2-  O207  1  0.52339958  0.34232166  0.87475080  1
  O2-  O208  1  0.52653082  0.67164643  0.37399243  1
  O2-  O209  1  0.52371340  0.66612689  0.87696174  1
  O2-  O210  1  0.86052757  0.00362299  0.37610397  1
  O2-  O211  1  0.86117491  0.00684242  0.87417493  1
  O2-  O212  1  0.85854062  0.33828137  0.37644515  1
  O2-  O213  1  0.86040245  0.33831926  0.87659490  1
  O2-  O214  1  0.85996206  0.67209458  0.37574662  1
  O2-  O215  1  0.85750901  0.66783581  0.87687186  1
  O2-  O216  1  0.23793024  0.09458626  0.02185667  1
  O2-  O217  1  0.23446796  0.09835966  0.51554778  1
  O2-  O218  1  0.23816957  0.43152414  0.01763852  1
  O2-  O219  1  0.24090457  0.42803373  0.52157689  1
  O2-  O220  1  0.23536239  0.76559543  0.01719550  1
  O2-  O221  1  0.23774701  0.76332398  0.52016305  1
  O2-  O222  1  0.57378235  0.09272453  0.02099919  1
  O2-  O223  1  0.57512736  0.09168742  0.51882284  1
  O2-  O224  1  0.57248000  0.42848966  0.02232174  1
  O2-  O225  1  0.57218233  0.42842364  0.52161798  1
  O2-  O226  1  0.56831767  0.76065413  0.02426638  1
  O2-  O227  1  0.57035713  0.76108758  0.52231551  1
  O2-  O228  1  0.90559455  0.09353574  0.02115904  1
  O2-  O229  1  0.90196049  0.09425401  0.51719017  1
  O2-  O230  1  0.90128587  0.42984407  0.01849492  1
  O2-  O231  1  0.90122503  0.42824839  0.51719989  1
  O2-  O232  1  0.90701509  0.75862077  0.02334848  1
  O2-  O233  1  0.90198019  0.75969154  0.52169763  1
  O2-  O234  1  0.26376122  0.26003464  0.23050044  1
  O2-  O235  1  0.26035669  0.26177391  0.73134900  1
  O2-  O236  1  0.26390877  0.59557462  0.22721427  1
  O2-  O237  1  0.26027416  0.59374924  0.72395908  1
  O2-  O238  1  0.25912794  0.92523621  0.22717441  1
  O2-  O239  1  0.26207257  0.93028041  0.72575000  1
  O2-  O240  1  0.59519446  0.26153972  0.22731342  1
  O2-  O241  1  0.59728694  0.26362392  0.73462216  1
  O2-  O242  1  0.59377403  0.59417967  0.22783489  1
  O2-  O243  1  0.59703307  0.59745914  0.73409658  1
  O2-  O244  1  0.59600208  0.92930713  0.23338392  1
  O2-  O245  1  0.59720588  0.92711269  0.73205118  1
  O2-  O246  1  0.92491964  0.25786373  0.23255741  1
  O2-  O247  1  0.92449692  0.25613824  0.72961205  1
  O2-  O248  1  0.93088805  0.59409062  0.23063006  1
  O2-  O249  1  0.92691855  0.59450769  0.72934335  1
  O2-  O250  1  0.92950716  0.92694120  0.22853139  1
  O2-  O251  1  0.92889057  0.92926015  0.72771695  1
  O2-  O252  1  0.09579005  0.24063386  0.27083452  1
  O2-  O253  1  0.09393473  0.23679085  0.76738198  1
  O2-  O254  1  0.09892884  0.57372990  0.27220072  1
  O2-  O255  1  0.09539557  0.57335474  0.77063876  1
  O2-  O256  1  0.09534582  0.90667154  0.27420548  1
  O2-  O257  1  0.09881998  0.90642184  0.76959609  1
  O2-  O258  1  0.43151126  0.23644242  0.27148037  1
  O2-  O259  1  0.42196666  0.24336384  0.76828241  1
  O2-  O260  1  0.43188741  0.56630186  0.26994000  1
  O2-  O261  1  0.42857497  0.57213447  0.76789219  1
  O2-  O262  1  0.42624802  0.90582787  0.26300231  1
  O2-  O263  1  0.42383956  0.90669177  0.76782556  1
  O2-  O264  1  0.75886633  0.23713608  0.27088201  1
  O2-  O265  1  0.76155061  0.23977282  0.77022324  1
  O2-  O266  1  0.76372676  0.57053808  0.26875085  1
  O2-  O267  1  0.76069757  0.57061844  0.77080775  1
  O2-  O268  1  0.76569366  0.90208435  0.26510324  1
  O2-  O269  1  0.76089879  0.90862472  0.76497755  1
  O2-  O270  1  0.07471060  0.07275407  0.47560268  1
  O2-  O271  1  0.07230915  0.07049041  0.97954612  1
  O2-  O272  1  0.07273930  0.40622820  0.47956478  1
  O2-  O273  1  0.07198442  0.40592429  0.97586433  1
  O2-  O274  1  0.07140714  0.73925850  0.47762908  1
  O2-  O275  1  0.07437697  0.73631695  0.97992702  1
  O2-  O276  1  0.40410896  0.07122441  0.48186638  1
  O2-  O277  1  0.40365371  0.06944525  0.98473531  1
  O2-  O278  1  0.40206702  0.40237859  0.48316821  1
  O2-  O279  1  0.40162043  0.40849064  0.97926892  1
  O2-  O280  1  0.40147265  0.73244172  0.48224589  1
  O2-  O281  1  0.40057091  0.73542133  0.98095545  1
  O2-  O282  1  0.73859964  0.07101834  0.47683885  1
  O2-  O283  1  0.74070753  0.07313683  0.97650175  1
  O2-  O284  1  0.73649969  0.40508165  0.47867234  1
  O2-  O285  1  0.73910453  0.40396711  0.97909584  1
  O2-  O286  1  0.73581789  0.73643852  0.47728899  1
  O2-  O287  1  0.73433901  0.73744012  0.98542703  1
  O2-  O288  1  0.09576991  0.24138910  0.47882715  1
  O2-  O289  1  0.09514282  0.23652323  0.98311931  1
  O2-  O290  1  0.09728254  0.57394759  0.47688373  1
  O2-  O291  1  0.09785019  0.57363724  0.97945800  1
  O2-  O292  1  0.09755305  0.90674675  0.47786282  1
  O2-  O293  1  0.09598557  0.90580290  0.97946948  1
  O2-  O294  1  0.42803379  0.23879722  0.47730850  1
  O2-  O295  1  0.42459960  0.24080800  0.98241647  1
  O2-  O296  1  0.42966318  0.56924815  0.47850534  1
  O2-  O297  1  0.43096682  0.56946619  0.98434348  1
  O2-  O298  1  0.42790171  0.90613221  0.48505023  1
  O2-  O299  1  0.42351830  0.90736679  0.98390301  1
  O2-  O300  1  0.75925221  0.23790782  0.47764613  1
  O2-  O301  1  0.76173072  0.23953063  0.98027970  1
  O2-  O302  1  0.76323723  0.56943854  0.48001586  1
  O2-  O303  1  0.76074030  0.57138314  0.97975615  1
  O2-  O304  1  0.76674048  0.90207411  0.48618013  1
  O2-  O305  1  0.76062497  0.90921718  0.98315604  1
  O2-  O306  1  0.07267405  0.07195270  0.27241817  1
  O2-  O307  1  0.07245674  0.07232662  0.77249816  1
  O2-  O308  1  0.07102298  0.40666881  0.27150062  1
  O2-  O309  1  0.07271478  0.40649780  0.77262022  1
  O2-  O310  1  0.07158711  0.73871492  0.27227765  1
  O2-  O311  1  0.07416946  0.73714207  0.77049979  1
  O2-  O312  1  0.40269329  0.06851679  0.26847693  1
  O2-  O313  1  0.40314182  0.07279180  0.76528988  1
  O2-  O314  1  0.40126958  0.40223976  0.26533916  1
  O2-  O315  1  0.40294871  0.40787103  0.77175153  1
  O2-  O316  1  0.40068309  0.73427204  0.27030907  1
  O2-  O317  1  0.40075105  0.73370209  0.76594145  1
  O2-  O318  1  0.73627711  0.07144540  0.27462432  1
  O2-  O319  1  0.74248907  0.07354217  0.77135282  1
  O2-  O320  1  0.73780070  0.40485854  0.27004144  1
  O2-  O321  1  0.73618139  0.40584045  0.77138544  1
  O2-  O322  1  0.73445325  0.73805808  0.27053378  1
  O2-  O323  1  0.73500228  0.73610414  0.76646921  1
  O2-  O324  1  0.23761098  0.09446539  0.22903216  1
  O2-  O325  1  0.23363937  0.09796992  0.73269177  1
  O2-  O326  1  0.23998096  0.42899938  0.22945648  1
  O2-  O327  1  0.23984854  0.43080577  0.73143169  1
  O2-  O328  1  0.23562531  0.76449447  0.23395111  1
  O2-  O329  1  0.23779306  0.76408293  0.72874773  1
  O2-  O330  1  0.57215490  0.09415260  0.22783576  1
  O2-  O331  1  0.57885110  0.09031012  0.73260323  1
  O2-  O332  1  0.57331666  0.42566036  0.22615404  1
  O2-  O333  1  0.57127269  0.43107687  0.72837459  1
  O2-  O334  1  0.57015567  0.76185190  0.22708885  1
  O2-  O335  1  0.56904744  0.76004062  0.72675311  1
  O2-  O336  1  0.90404688  0.09241835  0.23114690  1
  O2-  O337  1  0.90522746  0.09549657  0.73008124  1
  O2-  O338  1  0.90303834  0.42964439  0.23288286  1
  O2-  O339  1  0.90071418  0.42940233  0.73244037  1
  O2-  O340  1  0.90300680  0.75972758  0.22908691  1
  O2-  O341  1  0.90518669  0.75792193  0.72696233  1
  O2-  O342  1  0.26071620  0.26094379  0.01916476  1
  O2-  O343  1  0.26244411  0.26220739  0.51831700  1
  O2-  O344  1  0.26213992  0.59624079  0.02623335  1
  O2-  O345  1  0.26239345  0.59289011  0.52311029  1
  O2-  O346  1  0.26113821  0.92781189  0.02172851  1
  O2-  O347  1  0.26054738  0.92884571  0.52459381  1
  O2-  O348  1  0.59591317  0.25974969  0.02046100  1
  O2-  O349  1  0.59655321  0.26605864  0.51612772  1
  O2-  O350  1  0.59333277  0.59678106  0.02244036  1
  O2-  O351  1  0.59652182  0.59537800  0.51646804  1
  O2-  O352  1  0.59617370  0.92995540  0.01540330  1
  O2-  O353  1  0.59655350  0.92783365  0.51878726  1
  O2-  O354  1  0.92322216  0.25706892  0.02070383  1
  O2-  O355  1  0.92354846  0.25853200  0.51820117  1
  O2-  O356  1  0.92920559  0.59387625  0.02184091  1
  O2-  O357  1  0.92798070  0.59469685  0.51933599  1
  O2-  O358  1  0.92697145  0.92844170  0.02079006  1
  O2-  O359  1  0.93048883  0.92904760  0.52316085  1
