# generated using pymatgen
data_Sr7Ca15Pr50Mn72O216
_symmetry_space_group_name_H-M   'P 1'
_cell_length_a   16.56012279
_cell_length_b   16.60562801
_cell_length_c   15.59158386
_cell_angle_alpha   90.00008687
_cell_angle_beta   89.99033190
_cell_angle_gamma   89.99187074
_symmetry_Int_Tables_number   1
_chemical_formula_structural   Sr7Ca15Pr50Mn72O216
_chemical_formula_sum   'Sr7 Ca15 Pr50 Mn72 O216'
_cell_volume   4287.54885815
_cell_formula_units_Z   1
loop_
 _symmetry_equiv_pos_site_id
 _symmetry_equiv_pos_as_xyz
  1  'x, y, z'
loop_
 _atom_type_symbol
 _atom_type_oxidation_number
  Sr2+  2.0
  Ca2+  2.0
  Pr3+  3.0
  Mn3.30+  3.3
  O2-  -2.0
loop_
 _atom_site_type_symbol
 _atom_site_label
 _atom_site_symmetry_multiplicity
 _atom_site_fract_x
 _atom_site_fract_y
 _atom_site_fract_z
 _atom_site_occupancy
  Sr2+  Sr0  1  0.66629961  0.98967980  0.87542676  1
  Sr2+  Sr1  1  0.16794561  0.17603865  0.62276131  1
  Sr2+  Sr2  1  0.33136503  0.32375556  0.37495654  1
  Sr2+  Sr3  1  0.33632720  0.99046773  0.87442304  1
  Sr2+  Sr4  1  1.00138303  0.65640423  0.87292998  1
  Sr2+  Sr5  1  0.16542451  0.48754131  0.37511298  1
  Sr2+  Sr6  1  0.16867410  0.50977792  0.12542800  1
  Ca2+  Ca7  1  0.16386600  0.15657466  0.37597480  1
  Ca2+  Ca8  1  0.65818832  0.68462798  0.62707312  1
  Ca2+  Ca9  1  0.50255757  0.84664686  0.62651124  1
  Ca2+  Ca10  1  0.32674825  0.01703446  0.12500272  1
  Ca2+  Ca11  1  0.32962738  0.34615998  0.62389746  1
  Ca2+  Ca12  1  0.33987513  0.64959423  0.87158387  1
  Ca2+  Ca13  1  0.66866549  0.65215552  0.87111297  1
  Ca2+  Ca14  1  0.17144187  0.18126354  0.12864035  1
  Ca2+  Ca15  1  -0.00232107  0.01625320  0.62445580  1
  Ca2+  Ca16  1  0.83820906  0.51491836  0.12365357  1
  Ca2+  Ca17  1  0.50228606  0.51606526  0.62690843  1
  Ca2+  Ca18  1  0.33297105  0.67994610  0.62689494  1
  Ca2+  Ca19  1  0.66907603  0.98480873  0.37588130  1
  Ca2+  Ca20  1  1.00950318  0.31685131  0.37538117  1
  Ca2+  Ca21  1  0.49652688  0.48794420  0.87215945  1
  Pr3+  Pr22  1  0.66337313  0.01197153  0.12582766  1
  Pr3+  Pr23  1  0.83097504  0.15336761  0.87555939  1
  Pr3+  Pr24  1  0.16584636  0.48870510  0.87420840  1
  Pr3+  Pr25  1  0.66533274  0.34772289  0.12531767  1
  Pr3+  Pr26  1  0.32792440  0.34691814  0.12577389  1
  Pr3+  Pr27  1  -0.00099927  0.01460339  0.12541887  1
  Pr3+  Pr28  1  0.66437058  0.67802118  0.12314494  1
  Pr3+  Pr29  1  0.17161874  0.84563044  0.12429362  1
  Pr3+  Pr30  1  1.00371634  0.32262996  0.87437339  1
  Pr3+  Pr31  1  0.66822103  0.65375831  0.37812144  1
  Pr3+  Pr32  1  0.83533999  0.84804112  0.62642506  1
  Pr3+  Pr33  1  0.83773139  0.17655738  0.62515064  1
  Pr3+  Pr34  1  0.82879183  0.82156131  0.37548796  1
  Pr3+  Pr35  1  0.82652196  0.81786038  0.87484099  1
  Pr3+  Pr36  1  0.33310848  0.01072218  0.62562222  1
  Pr3+  Pr37  1  0.49548533  0.81819420  0.87119483  1
  Pr3+  Pr38  1  0.50042765  0.84528960  0.12429481  1
  Pr3+  Pr39  1  -0.00126374  0.67770666  0.62626761  1
  Pr3+  Pr40  1  0.83347139  0.51393426  0.62551502  1
  Pr3+  Pr41  1  0.66740896  0.32331214  0.87477105  1
  Pr3+  Pr42  1  0.50015186  0.17826399  0.62583262  1
  Pr3+  Pr43  1  0.66076530  0.34761415  0.62506102  1
  Pr3+  Pr44  1  0.83764662  0.17996323  0.12491819  1
  Pr3+  Pr45  1  0.49528567  0.15391833  0.37469369  1
  Pr3+  Pr46  1  0.83603096  0.84452112  0.12403272  1
  Pr3+  Pr47  1  0.17358623  0.51145993  0.62423431  1
  Pr3+  Pr48  1  0.16465830  0.82108068  0.37618211  1
  Pr3+  Pr49  1  1.00603709  0.98934079  0.37654250  1
  Pr3+  Pr50  1  0.49798829  0.82153277  0.37852852  1
  Pr3+  Pr51  1  0.33192079  0.99214353  0.37588119  1
  Pr3+  Pr52  1  1.00310470  0.65358444  0.37627892  1
  Pr3+  Pr53  1  0.66236178  0.01122859  0.62447534  1
  Pr3+  Pr54  1  0.33586615  0.32243780  0.87476994  1
  Pr3+  Pr55  1  0.50066584  0.51205580  0.12425126  1
  Pr3+  Pr56  1  0.82956989  0.49028990  0.87530151  1
  Pr3+  Pr57  1  -0.00120935  0.34928241  0.12677628  1
  Pr3+  Pr58  1  0.49588557  0.15283515  0.87535055  1
  Pr3+  Pr59  1  0.16938407  0.84483029  0.62552937  1
  Pr3+  Pr60  1  0.32962296  0.67671723  0.12311869  1
  Pr3+  Pr61  1  1.00526020  0.98700224  0.87357844  1
  Pr3+  Pr62  1  0.16775926  0.81930449  0.87357550  1
  Pr3+  Pr63  1  0.83158180  0.48596327  0.37520748  1
  Pr3+  Pr64  1  0.49911305  0.17892196  0.12398043  1
  Pr3+  Pr65  1  0.16536271  0.15412102  0.87510430  1
  Pr3+  Pr66  1  0.83127893  0.15158462  0.37442695  1
  Pr3+  Pr67  1  0.33616700  0.65290546  0.37824850  1
  Pr3+  Pr68  1  -0.00099067  0.67447788  0.12360194  1
  Pr3+  Pr69  1  0.49517487  0.48686286  0.37685794  1
  Pr3+  Pr70  1  0.66816558  0.32099552  0.37587559  1
  Pr3+  Pr71  1  -0.00076332  0.34449786  0.62291122  1
  Mn3.30+  Mn72  1  0.16931265  0.00055327  0.00054460  1
  Mn3.30+  Mn73  1  0.16578826  0.00157286  0.50170983  1
  Mn3.30+  Mn74  1  0.16742412  0.33274030  0.00102639  1
  Mn3.30+  Mn75  1  0.16699075  0.33181922  0.49911683  1
  Mn3.30+  Mn76  1  0.16848634  0.66545566  -0.00267011  1
  Mn3.30+  Mn77  1  0.16854662  0.66627573  0.50181198  1
  Mn3.30+  Mn78  1  0.49696046  -0.00108995  0.00191915  1
  Mn3.30+  Mn79  1  0.50148249  -0.00093127  0.49811395  1
  Mn3.30+  Mn80  1  0.49960637  0.33555245  -0.00101714  1
  Mn3.30+  Mn81  1  0.49705634  0.33405245  0.50254256  1
  Mn3.30+  Mn82  1  0.49949030  0.66447560  -0.00472279  1
  Mn3.30+  Mn83  1  0.50066836  0.66742406  0.50573949  1
  Mn3.30+  Mn84  1  0.83376736  -0.00093370  0.00005244  1
  Mn3.30+  Mn85  1  0.83345660  -0.00041069  0.49966125  1
  Mn3.30+  Mn86  1  0.83409566  0.33571165  0.00068034  1
  Mn3.30+  Mn87  1  0.83466937  0.33228070  0.49858773  1
  Mn3.30+  Mn88  1  0.83089550  0.66470197  -0.00132362  1
  Mn3.30+  Mn89  1  0.83124817  0.66744983  0.50269653  1
  Mn3.30+  Mn90  1  0.00351781  0.16841992  0.25023680  1
  Mn3.30+  Mn91  1  0.00055373  0.16659306  0.74909743  1
  Mn3.30+  Mn92  1  -0.00109249  0.49936819  0.25056377  1
  Mn3.30+  Mn93  1  0.00081266  0.50031372  0.74943237  1
  Mn3.30+  Mn94  1  0.00032572  0.83320760  0.24979292  1
  Mn3.30+  Mn95  1  -0.00015096  0.83381536  0.74969359  1
  Mn3.30+  Mn96  1  0.32977802  0.16623153  0.25066381  1
  Mn3.30+  Mn97  1  0.33286849  0.16800254  0.74854480  1
  Mn3.30+  Mn98  1  0.33256042  0.49983777  0.25136233  1
  Mn3.30+  Mn99  1  0.33769182  0.50109613  0.74778157  1
  Mn3.30+  Mn100  1  0.33326173  0.83499900  0.25076989  1
  Mn3.30+  Mn101  1  0.33558431  0.83075631  0.74831064  1
  Mn3.30+  Mn102  1  0.66645157  0.16588626  0.25067859  1
  Mn3.30+  Mn103  1  0.66719420  0.16702474  0.75023239  1
  Mn3.30+  Mn104  1  0.66839665  0.50037513  0.24899791  1
  Mn3.30+  Mn105  1  0.66189590  0.50336159  0.74995974  1
  Mn3.30+  Mn106  1  0.66614091  0.83326402  0.25055678  1
  Mn3.30+  Mn107  1  0.66369432  0.83211477  0.74950475  1
  Mn3.30+  Mn108  1  0.16774899  0.00239009  0.24915568  1
  Mn3.30+  Mn109  1  0.16703598  -0.00006631  0.74887224  1
  Mn3.30+  Mn110  1  0.16491800  0.33124112  0.25217201  1
  Mn3.30+  Mn111  1  0.16946289  0.33294531  0.74758040  1
  Mn3.30+  Mn112  1  0.16647690  0.66602252  0.25025715  1
  Mn3.30+  Mn113  1  0.17149178  0.66571525  0.74997504  1
  Mn3.30+  Mn114  1  0.49832262  -0.00030422  0.24937333  1
  Mn3.30+  Mn115  1  0.50001951  -0.00199276  0.74959886  1
  Mn3.30+  Mn116  1  0.49910958  0.33296784  0.24996649  1
  Mn3.30+  Mn117  1  0.49788223  0.33667014  0.74904506  1
  Mn3.30+  Mn118  1  0.49982564  0.66719112  0.25044030  1
  Mn3.30+  Mn119  1  0.50013281  0.66513982  0.74854766  1
  Mn3.30+  Mn120  1  0.83292127  -0.00087995  0.25035723  1
  Mn3.30+  Mn121  1  0.83412088  -0.00033679  0.75036350  1
  Mn3.30+  Mn122  1  0.83628830  0.33402550  0.25169152  1
  Mn3.30+  Mn123  1  0.83232969  0.33396057  0.74923475  1
  Mn3.30+  Mn124  1  0.83300841  0.66527103  0.25004368  1
  Mn3.30+  Mn125  1  0.82879982  0.66675156  0.74885678  1
  Mn3.30+  Mn126  1  0.00256162  0.16804240  0.00168341  1
  Mn3.30+  Mn127  1  0.00119327  0.16708923  0.49898853  1
  Mn3.30+  Mn128  1  -0.00104843  0.50135242  -0.00054637  1
  Mn3.30+  Mn129  1  0.00111567  0.49829067  0.50018324  1
  Mn3.30+  Mn130  1  0.00117107  0.83189392  -0.00094088  1
  Mn3.30+  Mn131  1  -0.00110273  0.83493978  0.50160112  1
  Mn3.30+  Mn132  1  0.33130626  0.16589410  0.00198328  1
  Mn3.30+  Mn133  1  0.33120509  0.16834461  0.49900348  1
  Mn3.30+  Mn134  1  0.33450718  0.50161011  -0.00313122  1
  Mn3.30+  Mn135  1  0.33592978  0.49870148  0.50393929  1
  Mn3.30+  Mn136  1  0.33438519  0.83286661  -0.00176550  1
  Mn3.30+  Mn137  1  0.33468781  0.83261472  0.50254644  1
  Mn3.30+  Mn138  1  0.66710703  0.16724646  0.00114855  1
  Mn3.30+  Mn139  1  0.66659159  0.16533451  0.49870885  1
  Mn3.30+  Mn140  1  0.66571425  0.50186739  -0.00159992  1
  Mn3.30+  Mn141  1  0.66408642  0.50165434  0.50232795  1
  Mn3.30+  Mn142  1  0.66492937  0.83201326  -0.00178146  1
  Mn3.30+  Mn143  1  0.66496363  0.83342677  0.50183616  1
  O2-  O144  1  0.02841667  0.16122821  0.12476651  1
  O2-  O145  1  0.01673332  0.16258358  0.62424456  1
  O2-  O146  1  0.01905141  0.49908992  0.12515436  1
  O2-  O147  1  0.02653775  0.49467927  0.62471550  1
  O2-  O148  1  0.02642918  0.82412468  0.12336048  1
  O2-  O149  1  0.02494666  0.82505838  0.62460883  1
  O2-  O150  1  0.35676287  0.16275680  0.12577981  1
  O2-  O151  1  0.35755820  0.15904559  0.62318718  1
  O2-  O152  1  0.35613265  0.49795647  0.12398039  1
  O2-  O153  1  0.36145886  0.48866531  0.62608341  1
  O2-  O154  1  0.35765454  0.82229797  0.12531519  1
  O2-  O155  1  0.36049966  0.82723505  0.62365984  1
  O2-  O156  1  0.69322058  0.16142030  0.12650883  1
  O2-  O157  1  0.69298308  0.16071962  0.62299593  1
  O2-  O158  1  0.69588049  0.49498918  0.12633349  1
  O2-  O159  1  0.69203873  0.49197481  0.62483841  1
  O2-  O160  1  0.69162437  0.82562591  0.12572464  1
  O2-  O161  1  0.69153244  0.83047117  0.62587153  1
  O2-  O162  1  0.14291140  0.32797617  0.12645341  1
  O2-  O163  1  0.14226798  0.33280753  0.62479642  1
  O2-  O164  1  0.14461876  0.66727384  0.12590462  1
  O2-  O165  1  0.14252741  0.66221001  0.62483778  1
  O2-  O166  1  0.14023624  0.99096556  0.12451515  1
  O2-  O167  1  0.13906225  0.99255370  0.62607415  1
  O2-  O168  1  0.47384923  0.32857117  0.12414587  1
  O2-  O169  1  0.47239819  0.32329386  0.62595652  1
  O2-  O170  1  0.47381998  0.66109282  0.12312249  1
  O2-  O171  1  0.47181824  0.65834871  0.62603161  1
  O2-  O172  1  0.46982555  0.99271819  0.12596594  1
  O2-  O173  1  0.47795021  0.99638233  0.62190565  1
  O2-  O174  1  0.80792297  0.32574609  0.12771195  1
  O2-  O175  1  0.80533583  0.32465908  0.62596316  1
  O2-  O176  1  0.80775806  0.66134571  0.12316535  1
  O2-  O177  1  0.80255030  0.66220874  0.62425231  1
  O2-  O178  1  0.80855615  0.99438729  0.12622878  1
  O2-  O179  1  0.80690698  0.99791236  0.62574810  1
  O2-  O180  1  0.30748359  0.16422882  0.37486229  1
  O2-  O181  1  0.30980393  0.17283840  0.87581407  1
  O2-  O182  1  0.31665245  0.50632624  0.37744329  1
  O2-  O183  1  0.30858422  0.50502702  0.87224252  1
  O2-  O184  1  0.30735585  0.84193067  0.37634993  1
  O2-  O185  1  0.31025429  0.83851607  0.87359271  1
  O2-  O186  1  0.63941951  0.17450684  0.37387460  1
  O2-  O187  1  0.64102352  0.17388183  0.87744347  1
  O2-  O188  1  0.63964022  0.50501344  0.37657002  1
  O2-  O189  1  0.63876481  0.50509333  0.87295324  1
  O2-  O190  1  0.64286868  0.83786499  0.37453092  1
  O2-  O191  1  0.64018410  0.83821461  0.87419647  1
  O2-  O192  1  0.97404618  0.17026210  0.37384539  1
  O2-  O193  1  0.97463971  0.17376944  0.87706545  1
  O2-  O194  1  0.97377947  0.50804867  0.37648244  1
  O2-  O195  1  0.97485692  0.49886840  0.87320915  1
  O2-  O196  1  0.97304627  0.84061746  0.37734592  1
  O2-  O197  1  0.97260228  0.84001850  0.87459096  1
  O2-  O198  1  0.18758098  0.00415534  0.37457803  1
  O2-  O199  1  0.18673786  0.00589515  0.87536668  1
  O2-  O200  1  0.18379391  0.33535469  0.37561420  1
  O2-  O201  1  0.19065032  0.33897233  0.87311433  1
  O2-  O202  1  0.19061043  0.67282521  0.37703551  1
  O2-  O203  1  0.19613474  0.67151399  0.87124290  1
  O2-  O204  1  0.52777880  0.00668485  0.37359139  1
  O2-  O205  1  0.51698954  0.00461633  0.87768164  1
  O2-  O206  1  0.52519945  0.33826598  0.37547500  1
  O2-  O207  1  0.52502199  0.33992891  0.87492089  1
  O2-  O208  1  0.52497167  0.67314583  0.37758785  1
  O2-  O209  1  0.52902930  0.67394782  0.87329272  1
  O2-  O210  1  0.86128172  0.00176550  0.37281244  1
  O2-  O211  1  0.86028920  0.00415762  0.87569460  1
  O2-  O212  1  0.86413400  0.33973857  0.37351593  1
  O2-  O213  1  0.85908132  0.34174096  0.87301439  1
  O2-  O214  1  0.85876211  0.67368956  0.37942204  1
  O2-  O215  1  0.85220528  0.67030407  0.87339986  1
  O2-  O216  1  0.23410562  0.09799491  0.01840853  1
  O2-  O217  1  0.24446333  0.08844810  0.51981044  1
  O2-  O218  1  0.24159551  0.42636671  0.01530727  1
  O2-  O219  1  0.23948201  0.42773754  0.51860143  1
  O2-  O220  1  0.24015100  0.76266919  0.01866647  1
  O2-  O221  1  0.23746679  0.76335903  0.51733831  1
  O2-  O222  1  0.57311208  0.09292720  0.02204739  1
  O2-  O223  1  0.57192288  0.09522774  0.52092274  1
  O2-  O224  1  0.57512548  0.42717666  0.02436091  1
  O2-  O225  1  0.57095078  0.42855237  0.52186552  1
  O2-  O226  1  0.57076457  0.76068501  0.02139149  1
  O2-  O227  1  0.56673751  0.76474003  0.52015780  1
  O2-  O228  1  0.90877955  0.09656448  0.02118818  1
  O2-  O229  1  0.90115334  0.09633911  0.51472523  1
  O2-  O230  1  0.90355948  0.42776795  0.02117178  1
  O2-  O231  1  0.90438188  0.42891367  0.52271765  1
  O2-  O232  1  0.90417418  0.75866487  0.01936833  1
  O2-  O233  1  0.90475714  0.76141327  0.52298834  1
  O2-  O234  1  0.26213715  0.26007729  0.22950156  1
  O2-  O235  1  0.26441036  0.26487484  0.73296054  1
  O2-  O236  1  0.26370979  0.59751533  0.23550387  1
  O2-  O237  1  0.26503413  0.59289230  0.72385534  1
  O2-  O238  1  0.26295987  0.92912198  0.22925957  1
  O2-  O239  1  0.25984957  0.92478459  0.72611574  1
  O2-  O240  1  0.59432629  0.26211083  0.22857503  1
  O2-  O241  1  0.59318707  0.26265700  0.72999040  1
  O2-  O242  1  0.59666769  0.59349470  0.22955709  1
  O2-  O243  1  0.59692871  0.59806383  0.72686833  1
  O2-  O244  1  0.59186349  0.92673957  0.22672501  1
  O2-  O245  1  0.59589293  0.92817064  0.73003344  1
  O2-  O246  1  0.92930683  0.25984028  0.22559247  1
  O2-  O247  1  0.92692088  0.26158841  0.73089156  1
  O2-  O248  1  0.92793463  0.59731353  0.23334817  1
  O2-  O249  1  0.92445609  0.59368708  0.72673630  1
  O2-  O250  1  0.92923830  0.92627605  0.22710567  1
  O2-  O251  1  0.92913234  0.93025249  0.72745185  1
  O2-  O252  1  0.09597317  0.23491412  0.27071193  1
  O2-  O253  1  0.09383173  0.24077101  0.77133632  1
  O2-  O254  1  0.08870290  0.57507949  0.26907397  1
  O2-  O255  1  0.10035748  0.57242454  0.76631271  1
  O2-  O256  1  0.09562464  0.90562243  0.26996764  1
  O2-  O257  1  0.09573417  0.90613983  0.77183974  1
  O2-  O258  1  0.42898809  0.23497124  0.26640863  1
  O2-  O259  1  0.42994800  0.23991085  0.77221091  1
  O2-  O260  1  0.43063750  0.57394962  0.26951023  1
  O2-  O261  1  0.43240647  0.57020156  0.77102368  1
  O2-  O262  1  0.42884480  0.90534315  0.27281099  1
  O2-  O263  1  0.42811996  0.90303786  0.76479915  1
  O2-  O264  1  0.76453157  0.24084530  0.27238995  1
  O2-  O265  1  0.76119801  0.24076173  0.77291952  1
  O2-  O266  1  0.75985320  0.57236171  0.27508145  1
  O2-  O267  1  0.76208809  0.56891598  0.76740470  1
  O2-  O268  1  0.76259755  0.90220169  0.26705586  1
  O2-  O269  1  0.76548498  0.90286850  0.76651573  1
  O2-  O270  1  0.06971266  0.07331796  0.48196955  1
  O2-  O271  1  0.07031575  0.07173719  0.97964805  1
  O2-  O272  1  0.06743226  0.40209881  0.48411281  1
  O2-  O273  1  0.07189149  0.40565350  0.98187701  1
  O2-  O274  1  0.06994829  0.74111696  0.48050416  1
  O2-  O275  1  0.07605617  0.74093174  0.97929666  1
  O2-  O276  1  0.40776645  0.07242108  0.47920974  1
  O2-  O277  1  0.40701664  0.07749365  0.98359038  1
  O2-  O278  1  0.40926300  0.40743459  0.47905800  1
  O2-  O279  1  0.40366105  0.40539520  0.98268230  1
  O2-  O280  1  0.40569915  0.74066181  0.47675924  1
  O2-  O281  1  0.40572483  0.73435821  0.97724737  1
  O2-  O282  1  0.73855464  0.06876251  0.47653509  1
  O2-  O283  1  0.74265622  0.07566170  0.98318215  1
  O2-  O284  1  0.74008632  0.40358142  0.47926166  1
  O2-  O285  1  0.73569451  0.40808993  0.97772726  1
  O2-  O286  1  0.73845390  0.74069726  0.47800837  1
  O2-  O287  1  0.73561706  0.73667250  0.97991619  1
  O2-  O288  1  0.09339680  0.23703426  0.48145245  1
  O2-  O289  1  0.09381374  0.23998501  0.97623721  1
  O2-  O290  1  0.09111480  0.57446160  0.48358520  1
  O2-  O291  1  0.09550071  0.57236343  0.98018122  1
  O2-  O292  1  0.09451379  0.90532425  0.47936014  1
  O2-  O293  1  0.09638634  0.90608465  0.97868690  1
  O2-  O294  1  0.43079146  0.23524931  0.48245016  1
  O2-  O295  1  0.42851764  0.23933877  0.98005829  1
  O2-  O296  1  0.43037446  0.57411631  0.47956558  1
  O2-  O297  1  0.43307141  0.56776498  0.98054795  1
  O2-  O298  1  0.42619709  0.90897528  0.47675207  1
  O2-  O299  1  0.43034293  0.89842421  0.98381979  1
  O2-  O300  1  0.76098441  0.23730212  0.47677076  1
  O2-  O301  1  0.76293202  0.24184530  0.97973736  1
  O2-  O302  1  0.76197691  0.57115304  0.47900216  1
  O2-  O303  1  0.75941462  0.57176385  0.97844600  1
  O2-  O304  1  0.76624016  0.90366384  0.48398930  1
  O2-  O305  1  0.76158155  0.89991521  0.98403824  1
  O2-  O306  1  0.06774786  0.06876192  0.26645434  1
  O2-  O307  1  0.07322738  0.07426791  0.77154552  1
  O2-  O308  1  0.06565908  0.40220431  0.26488849  1
  O2-  O309  1  0.07380209  0.40448540  0.76906160  1
  O2-  O310  1  0.07155321  0.74037072  0.27244253  1
  O2-  O311  1  0.07593801  0.74186967  0.76646201  1
  O2-  O312  1  0.40517482  0.07239288  0.27211951  1
  O2-  O313  1  0.40952177  0.07566907  0.76416999  1
  O2-  O314  1  0.41053386  0.40850393  0.26539480  1
  O2-  O315  1  0.40475923  0.40535277  0.77254127  1
  O2-  O316  1  0.40369057  0.74061266  0.27277788  1
  O2-  O317  1  0.40601325  0.73583378  0.77278923  1
  O2-  O318  1  0.73807156  0.07041764  0.27214418  1
  O2-  O319  1  0.74316660  0.07387769  0.76941470  1
  O2-  O320  1  0.73801271  0.40527996  0.27357447  1
  O2-  O321  1  0.73693320  0.40634739  0.77015827  1
  O2-  O322  1  0.73911161  0.73672000  0.27067587  1
  O2-  O323  1  0.73618749  0.73990346  0.77197378  1
  O2-  O324  1  0.23668172  0.09424631  0.22841229  1
  O2-  O325  1  0.24095222  0.09074347  0.73272812  1
  O2-  O326  1  0.24201774  0.42292973  0.23303431  1
  O2-  O327  1  0.23789982  0.43046314  0.73294016  1
  O2-  O328  1  0.23870201  0.76377351  0.23280125  1
  O2-  O329  1  0.23908447  0.76254916  0.72956446  1
  O2-  O330  1  0.56839534  0.09226468  0.22562223  1
  O2-  O331  1  0.57419854  0.09377894  0.73101756  1
  O2-  O332  1  0.57536636  0.42855694  0.22862729  1
  O2-  O333  1  0.57180348  0.42785716  0.72582724  1
  O2-  O334  1  0.57113013  0.76006718  0.23006624  1
  O2-  O335  1  0.56637355  0.76353019  0.72905654  1
  O2-  O336  1  0.90584586  0.09586212  0.22930785  1
  O2-  O337  1  0.90345054  0.09594432  0.73489169  1
  O2-  O338  1  0.90183076  0.43081872  0.22852401  1
  O2-  O339  1  0.90319524  0.42513849  0.72577481  1
  O2-  O340  1  0.90556342  0.76049113  0.22958924  1
  O2-  O341  1  0.90368414  0.75990874  0.72966527  1
  O2-  O342  1  0.26360758  0.26258292  0.01775905  1
  O2-  O343  1  0.26288636  0.26155931  0.51920058  1
  O2-  O344  1  0.26414760  0.59565962  0.01628024  1
  O2-  O345  1  0.26542972  0.59347880  0.52188476  1
  O2-  O346  1  0.26120778  0.92828903  0.02308297  1
  O2-  O347  1  0.26176763  0.92562749  0.52162858  1
  O2-  O348  1  0.59508339  0.26137879  0.02165543  1
  O2-  O349  1  0.59367748  0.26284319  0.52049378  1
  O2-  O350  1  0.59356709  0.59290298  0.02455604  1
  O2-  O351  1  0.59729814  0.60126348  0.51926377  1
  O2-  O352  1  0.59394235  0.92600053  0.02441247  1
  O2-  O353  1  0.59670874  0.92938124  0.51710891  1
  O2-  O354  1  0.93115991  0.26083068  0.02172260  1
  O2-  O355  1  0.92563192  0.25988443  0.52199331  1
  O2-  O356  1  0.92623367  0.59463969  0.01783012  1
  O2-  O357  1  0.92646177  0.59489605  0.52263159  1
  O2-  O358  1  0.92914970  0.92677937  0.02194806  1
  O2-  O359  1  0.92935611  0.92990482  0.52380566  1
