# generated using pymatgen
data_Sr7Ca15Pr50Mn72O216
_symmetry_space_group_name_H-M   'P 1'
_cell_length_a   16.55656594
_cell_length_b   16.60093857
_cell_length_c   15.59049492
_cell_angle_alpha   90.00603480
_cell_angle_beta   90.00723098
_cell_angle_gamma   89.99724197
_symmetry_Int_Tables_number   1
_chemical_formula_structural   Sr7Ca15Pr50Mn72O216
_chemical_formula_sum   'Sr7 Ca15 Pr50 Mn72 O216'
_cell_volume   4285.11815348
_cell_formula_units_Z   1
loop_
 _symmetry_equiv_pos_site_id
 _symmetry_equiv_pos_as_xyz
  1  'x, y, z'
loop_
 _atom_type_symbol
 _atom_type_oxidation_number
  Sr2+  2.0
  Ca2+  2.0
  Pr3+  3.0
  Mn3.30+  3.3
  O2-  -2.0
loop_
 _atom_site_type_symbol
 _atom_site_label
 _atom_site_symmetry_multiplicity
 _atom_site_fract_x
 _atom_site_fract_y
 _atom_site_fract_z
 _atom_site_occupancy
  Sr2+  Sr0  1  0.33165980  0.67495268  0.12635335  1
  Sr2+  Sr1  1  0.83351907  0.15775330  0.87599450  1
  Sr2+  Sr2  1  0.99789413  0.32655147  0.37713983  1
  Sr2+  Sr3  1  0.83789749  0.84388139  0.12729133  1
  Sr2+  Sr4  1  0.83328236  0.49091174  0.87574433  1
  Sr2+  Sr5  1  0.33218856  0.66006019  0.87653398  1
  Sr2+  Sr6  1  0.49848759  0.15833710  0.87636151  1
  Ca2+  Ca7  1  0.50407919  0.18220587  0.12443948  1
  Ca2+  Ca8  1  -0.00491467  0.01263749  0.12521962  1
  Ca2+  Ca9  1  0.67269298  0.65194440  0.87426623  1
  Ca2+  Ca10  1  0.17085124  0.51614848  0.12592644  1
  Ca2+  Ca11  1  0.16382988  0.81692904  0.37356219  1
  Ca2+  Ca12  1  0.66434730  0.67960173  0.62308877  1
  Ca2+  Ca13  1  0.99986233  0.31940870  0.87349891  1
  Ca2+  Ca14  1  0.82679249  0.81599723  0.37433783  1
  Ca2+  Ca15  1  0.33618328  0.65319704  0.37306101  1
  Ca2+  Ca16  1  0.16491301  0.81712257  0.87627422  1
  Ca2+  Ca17  1  0.67386083  0.64936546  0.37568056  1
  Ca2+  Ca18  1  -0.00696101  0.34883625  0.62682042  1
  Ca2+  Ca19  1  0.67323677  0.98148978  0.37477193  1
  Ca2+  Ca20  1  0.66549395  0.34979886  0.62749268  1
  Ca2+  Ca21  1  0.83036789  0.48634083  0.37592886  1
  Pr3+  Pr22  1  0.16191120  0.15565993  0.37457215  1
  Pr3+  Pr23  1  0.99905102  0.65667784  0.37433205  1
  Pr3+  Pr24  1  0.50215028  0.84369692  0.12521503  1
  Pr3+  Pr25  1  0.83671218  0.18362352  0.62664060  1
  Pr3+  Pr26  1  0.33712467  0.32277350  0.37488193  1
  Pr3+  Pr27  1  0.33212963  0.67801248  0.62391744  1
  Pr3+  Pr28  1  0.33245491  0.01212700  0.12558205  1
  Pr3+  Pr29  1  1.00363569  0.98429548  0.87624480  1
  Pr3+  Pr30  1  0.67225138  0.32398862  0.37640104  1
  Pr3+  Pr31  1  0.15985912  0.48677366  0.87653330  1
  Pr3+  Pr32  1  1.00353378  0.65586388  0.87583305  1
  Pr3+  Pr33  1  0.83532683  0.51262205  0.12671924  1
  Pr3+  Pr34  1  0.50543385  0.18396260  0.62600949  1
  Pr3+  Pr35  1  0.66448763  0.67984371  0.12585538  1
  Pr3+  Pr36  1  0.16520405  0.49125285  0.37257768  1
  Pr3+  Pr37  1  0.82995228  0.81910829  0.87587930  1
  Pr3+  Pr38  1  0.16152968  0.15514472  0.87554276  1
  Pr3+  Pr39  1  0.33085733  0.34778243  0.62604064  1
  Pr3+  Pr40  1  0.16565433  0.51090258  0.62277690  1
  Pr3+  Pr41  1  0.33458111  0.98585492  0.37414459  1
  Pr3+  Pr42  1  0.67100951  0.32022812  0.87378461  1
  Pr3+  Pr43  1  0.50230437  0.51512261  0.12462028  1
  Pr3+  Pr44  1  -0.00107778  0.67814571  0.12592512  1
  Pr3+  Pr45  1  0.49772491  0.49116308  0.87538367  1
  Pr3+  Pr46  1  0.66517073  0.01211258  0.62275235  1
  Pr3+  Pr47  1  0.32919494  0.34774916  0.12383117  1
  Pr3+  Pr48  1  0.67109621  0.99014284  0.87529478  1
  Pr3+  Pr49  1  -0.00451277  0.01299964  0.62403690  1
  Pr3+  Pr50  1  0.50373750  0.84426375  0.62436541  1
  Pr3+  Pr51  1  0.16932104  0.84514076  0.62435018  1
  Pr3+  Pr52  1  1.00247627  0.98442452  0.37287436  1
  Pr3+  Pr53  1  0.83672269  0.17677722  0.12444323  1
  Pr3+  Pr54  1  0.16973265  0.84295927  0.12485184  1
  Pr3+  Pr55  1  0.33653628  0.98798621  0.87531100  1
  Pr3+  Pr56  1  -0.00457025  0.67816513  0.62392198  1
  Pr3+  Pr57  1  0.49872757  0.49065991  0.37456827  1
  Pr3+  Pr58  1  0.16608318  0.17778633  0.12613088  1
  Pr3+  Pr59  1  0.83349562  0.51100725  0.62358744  1
  Pr3+  Pr60  1  0.83470131  0.84338228  0.62245411  1
  Pr3+  Pr61  1  -0.00327185  0.34565029  0.12469995  1
  Pr3+  Pr62  1  0.49902202  0.15371593  0.37354959  1
  Pr3+  Pr63  1  0.50675386  0.51678211  0.62559167  1
  Pr3+  Pr64  1  0.16673931  0.18154870  0.62404430  1
  Pr3+  Pr65  1  0.33527535  0.32204909  0.87486297  1
  Pr3+  Pr66  1  0.33179001  0.01355922  0.62397726  1
  Pr3+  Pr67  1  0.82857192  0.15165206  0.37464043  1
  Pr3+  Pr68  1  0.66451894  0.34519284  0.12292552  1
  Pr3+  Pr69  1  0.66387481  0.01351316  0.12742052  1
  Pr3+  Pr70  1  0.49971289  0.81820119  0.37465791  1
  Pr3+  Pr71  1  0.49917819  0.82186147  0.87490416  1
  Mn3.30+  Mn72  1  0.16558514  -0.00175160  0.00130017  1
  Mn3.30+  Mn73  1  0.16568253  -0.00123485  0.49859104  1
  Mn3.30+  Mn74  1  0.16410903  0.33369732  0.00045320  1
  Mn3.30+  Mn75  1  0.16454661  0.33497326  0.50008780  1
  Mn3.30+  Mn76  1  0.16712004  0.66606819  0.00067323  1
  Mn3.30+  Mn77  1  0.16719694  0.66774475  0.49726321  1
  Mn3.30+  Mn78  1  0.50093944  0.00219176  0.00088935  1
  Mn3.30+  Mn79  1  0.50242044  -0.00065667  0.49754298  1
  Mn3.30+  Mn80  1  0.49902286  0.33340153  0.00061770  1
  Mn3.30+  Mn81  1  0.50326547  0.33576686  0.50039066  1
  Mn3.30+  Mn82  1  0.50157839  0.66780915  -0.00142950  1
  Mn3.30+  Mn83  1  0.50278146  0.66681086  0.49783699  1
  Mn3.30+  Mn84  1  0.83545899  -0.00083648  0.00138772  1
  Mn3.30+  Mn85  1  0.83129752  -0.00247035  0.49776178  1
  Mn3.30+  Mn86  1  0.83379131  0.33332851  -0.00182341  1
  Mn3.30+  Mn87  1  0.83266689  0.33484232  0.50134759  1
  Mn3.30+  Mn88  1  0.83279310  0.66645879  0.00028736  1
  Mn3.30+  Mn89  1  0.82896676  0.66587653  0.49896627  1
  Mn3.30+  Mn90  1  -0.00152130  0.16588673  0.25086253  1
  Mn3.30+  Mn91  1  -0.00049217  0.16847799  0.75024934  1
  Mn3.30+  Mn92  1  0.00044604  0.50009170  0.25016667  1
  Mn3.30+  Mn93  1  -0.00172594  0.49806660  0.74998025  1
  Mn3.30+  Mn94  1  -0.00011169  0.83323427  0.25166283  1
  Mn3.30+  Mn95  1  0.00100212  0.83221325  0.74938658  1
  Mn3.30+  Mn96  1  0.33453597  0.16733458  0.24878748  1
  Mn3.30+  Mn97  1  0.33302243  0.16745091  0.74965850  1
  Mn3.30+  Mn98  1  0.33222863  0.50183724  0.24984497  1
  Mn3.30+  Mn99  1  0.33270329  0.50237112  0.75083008  1
  Mn3.30+  Mn100  1  0.33228497  0.83049125  0.25227592  1
  Mn3.30+  Mn101  1  0.33336968  0.83317341  0.75036836  1
  Mn3.30+  Mn102  1  0.66491898  0.16624521  0.25048902  1
  Mn3.30+  Mn103  1  0.66785767  0.16724085  0.74956802  1
  Mn3.30+  Mn104  1  0.66840263  0.50065849  0.25091123  1
  Mn3.30+  Mn105  1  0.66748813  0.50217575  0.75016396  1
  Mn3.30+  Mn106  1  0.66948331  0.83325960  0.25210478  1
  Mn3.30+  Mn107  1  0.66752782  0.83125312  0.74962473  1
  Mn3.30+  Mn108  1  0.16455797  -0.00194033  0.24913140  1
  Mn3.30+  Mn109  1  0.16680087  -0.00132313  0.75040512  1
  Mn3.30+  Mn110  1  0.16581881  0.33488710  0.24985613  1
  Mn3.30+  Mn111  1  0.16255314  0.33404380  0.74886275  1
  Mn3.30+  Mn112  1  0.16811856  0.66721346  0.25235531  1
  Mn3.30+  Mn113  1  0.16588008  0.66647550  0.74912743  1
  Mn3.30+  Mn114  1  0.50198730  -0.00021441  0.25161785  1
  Mn3.30+  Mn115  1  0.50102179  0.00135074  0.74980496  1
  Mn3.30+  Mn116  1  0.50102957  0.33356200  0.24904196  1
  Mn3.30+  Mn117  1  0.50109023  0.33603959  0.75002716  1
  Mn3.30+  Mn118  1  0.50125449  0.66680866  0.25200451  1
  Mn3.30+  Mn119  1  0.50354514  0.66800775  0.75150879  1
  Mn3.30+  Mn120  1  0.83321530  -0.00296262  0.25058608  1
  Mn3.30+  Mn121  1  0.83380910  -0.00044816  0.75015272  1
  Mn3.30+  Mn122  1  0.83294763  0.33328405  0.25083054  1
  Mn3.30+  Mn123  1  0.83342703  0.33536305  0.75066228  1
  Mn3.30+  Mn124  1  0.83163160  0.66651110  0.25234046  1
  Mn3.30+  Mn125  1  0.83005565  0.66559704  0.74900645  1
  Mn3.30+  Mn126  1  -0.00019351  0.16520655  -0.00022152  1
  Mn3.30+  Mn127  1  -0.00208193  0.16875446  0.49947576  1
  Mn3.30+  Mn128  1  0.00084609  0.49886856  0.00132751  1
  Mn3.30+  Mn129  1  -0.00215949  0.49951555  0.49808665  1
  Mn3.30+  Mn130  1  0.00151058  0.83336927  0.00092369  1
  Mn3.30+  Mn131  1  -0.00048622  0.83254341  0.49703763  1
  Mn3.30+  Mn132  1  0.33379409  0.16716778  0.00204168  1
  Mn3.30+  Mn133  1  0.33377230  0.16734748  0.49908272  1
  Mn3.30+  Mn134  1  0.32998113  0.50234290  -0.00094462  1
  Mn3.30+  Mn135  1  0.33485481  0.50164617  0.49998765  1
  Mn3.30+  Mn136  1  0.33297052  0.83266786  0.00010732  1
  Mn3.30+  Mn137  1  0.33299333  0.83116158  0.49700204  1
  Mn3.30+  Mn138  1  0.66580833  0.16610088  0.00042094  1
  Mn3.30+  Mn139  1  0.66690615  0.16772650  0.50035310  1
  Mn3.30+  Mn140  1  0.66746329  0.50156585  -0.00140108  1
  Mn3.30+  Mn141  1  0.66800782  0.50122140  0.50027866  1
  Mn3.30+  Mn142  1  0.66830701  0.83373773  0.00080226  1
  Mn3.30+  Mn143  1  0.66851587  0.83053470  0.49796826  1
  O2-  O144  1  0.02282134  0.15867769  0.12545222  1
  O2-  O145  1  0.02413661  0.15867964  0.62371931  1
  O2-  O146  1  0.02849044  0.49388418  0.12538025  1
  O2-  O147  1  0.02237618  0.49603145  0.62229379  1
  O2-  O148  1  0.02647718  0.82533983  0.12758912  1
  O2-  O149  1  0.02505549  0.82815877  0.62327450  1
  O2-  O150  1  0.36155650  0.16083939  0.12687655  1
  O2-  O151  1  0.36042685  0.16163938  0.62277080  1
  O2-  O152  1  0.35781471  0.49533728  0.12417434  1
  O2-  O153  1  0.36036951  0.49605817  0.62501308  1
  O2-  O154  1  0.35749055  0.83212227  0.12741985  1
  O2-  O155  1  0.35890455  0.82775753  0.62243740  1
  O2-  O156  1  0.69205201  0.16216314  0.12643828  1
  O2-  O157  1  0.69243507  0.15891142  0.62414237  1
  O2-  O158  1  0.69050754  0.49374889  0.12489298  1
  O2-  O159  1  0.68976501  0.49293113  0.62529427  1
  O2-  O160  1  0.68788438  0.82727967  0.12657046  1
  O2-  O161  1  0.69132487  0.82517879  0.62396906  1
  O2-  O162  1  0.13998038  0.32492464  0.12591086  1
  O2-  O163  1  0.13713950  0.32915727  0.62468293  1
  O2-  O164  1  0.14302466  0.66342797  0.12872793  1
  O2-  O165  1  0.13996236  0.66081357  0.62227994  1
  O2-  O166  1  0.13742787  0.99061692  0.12554511  1
  O2-  O167  1  0.13952201  0.99223234  0.62250413  1
  O2-  O168  1  0.47371994  0.32887683  0.12453897  1
  O2-  O169  1  0.47401108  0.33155531  0.62405404  1
  O2-  O170  1  0.48262765  0.66503356  0.12617317  1
  O2-  O171  1  0.47591331  0.66549622  0.62370074  1
  O2-  O172  1  0.47565044  0.99084688  0.12631632  1
  O2-  O173  1  0.47544430  0.99313896  0.62102751  1
  O2-  O174  1  0.80925298  0.32722461  0.12402642  1
  O2-  O175  1  0.80681869  0.33071122  0.62567522  1
  O2-  O176  1  0.80876418  0.66142169  0.12793059  1
  O2-  O177  1  0.80588892  0.66066687  0.62361731  1
  O2-  O178  1  0.80857279  0.99872062  0.12719014  1
  O2-  O179  1  0.80922759  0.99132707  0.62270958  1
  O2-  O180  1  0.30695190  0.17447827  0.37438324  1
  O2-  O181  1  0.30616514  0.17264325  0.87568052  1
  O2-  O182  1  0.31083292  0.50281911  0.37663798  1
  O2-  O183  1  0.30551160  0.50196078  0.87414817  1
  O2-  O184  1  0.30408795  0.84121871  0.37580010  1
  O2-  O185  1  0.30782338  0.84103171  0.87387396  1
  O2-  O186  1  0.64118183  0.17802693  0.37587231  1
  O2-  O187  1  0.64759274  0.16994530  0.87419954  1
  O2-  O188  1  0.64216813  0.50242302  0.37466138  1
  O2-  O189  1  0.64121890  0.50720550  0.87543728  1
  O2-  O190  1  0.64188646  0.84099537  0.37492632  1
  O2-  O191  1  0.64256240  0.84411897  0.87526442  1
  O2-  O192  1  0.97360505  0.17067149  0.37717028  1
  O2-  O193  1  0.98335631  0.17227666  0.87473982  1
  O2-  O194  1  0.97248116  0.50747445  0.37483954  1
  O2-  O195  1  0.98200731  0.50973055  0.87679145  1
  O2-  O196  1  0.97051006  0.83714940  0.37527618  1
  O2-  O197  1  0.97501090  0.83538045  0.87305925  1
  O2-  O198  1  0.19219185  0.00988196  0.37502318  1
  O2-  O199  1  0.19382317  0.00934516  0.87658682  1
  O2-  O200  1  0.19350418  0.33998407  0.37430141  1
  O2-  O201  1  0.19166472  0.33716859  0.87448706  1
  O2-  O202  1  0.19453868  0.67144257  0.37703692  1
  O2-  O203  1  0.18227714  0.67035709  0.87162906  1
  O2-  O204  1  0.52932366  0.00679575  0.37573192  1
  O2-  O205  1  0.52648643  0.00346888  0.87687162  1
  O2-  O206  1  0.52757410  0.34187112  0.37527868  1
  O2-  O207  1  0.52550232  0.34175561  0.87630320  1
  O2-  O208  1  0.53067091  0.66900010  0.37483641  1
  O2-  O209  1  0.53035513  0.67354124  0.87495958  1
  O2-  O210  1  0.85911617  0.00647302  0.37548337  1
  O2-  O211  1  0.85787941  -0.00047912  0.87494241  1
  O2-  O212  1  0.84851955  0.33777373  0.37479841  1
  O2-  O213  1  0.85772491  0.33548605  0.87613454  1
  O2-  O214  1  0.85654308  0.67233159  0.37515197  1
  O2-  O215  1  0.85921099  0.67106787  0.87372228  1
  O2-  O216  1  0.23745376  0.09292568  0.02403618  1
  O2-  O217  1  0.23700892  0.09350886  0.52120731  1
  O2-  O218  1  0.23441544  0.42582316  0.02129152  1
  O2-  O219  1  0.24033410  0.42578228  0.52193152  1
  O2-  O220  1  0.23785292  0.76099669  0.01625814  1
  O2-  O221  1  0.24005248  0.75975924  0.52418589  1
  O2-  O222  1  0.57154640  0.09415117  0.02472490  1
  O2-  O223  1  0.57168085  0.09873011  0.52061461  1
  O2-  O224  1  0.57057452  0.42821868  0.02070387  1
  O2-  O225  1  0.56948204  0.43315714  0.51719168  1
  O2-  O226  1  0.57397957  0.76278249  0.01967795  1
  O2-  O227  1  0.56823909  0.76460703  0.51605314  1
  O2-  O228  1  0.90543133  0.09397463  0.01873402  1
  O2-  O229  1  0.90189911  0.09421515  0.52081065  1
  O2-  O230  1  0.90715631  0.42678438  0.02428468  1
  O2-  O231  1  0.90398083  0.42633105  0.51823754  1
  O2-  O232  1  0.90855890  0.75899965  0.01661900  1
  O2-  O233  1  0.90449394  0.75728993  0.52194281  1
  O2-  O234  1  0.26171440  0.26165201  0.22863169  1
  O2-  O235  1  0.25991823  0.26239180  0.72775310  1
  O2-  O236  1  0.25857989  0.59199237  0.23604930  1
  O2-  O237  1  0.25868629  0.59334155  0.72536501  1
  O2-  O238  1  0.26118203  0.92855843  0.22974899  1
  O2-  O239  1  0.26222686  0.92890775  0.72724366  1
  O2-  O240  1  0.59565929  0.26387734  0.23017686  1
  O2-  O241  1  0.59315170  0.26360869  0.73003299  1
  O2-  O242  1  0.59640973  0.59261480  0.22862635  1
  O2-  O243  1  0.59615342  0.59675121  0.72632884  1
  O2-  O244  1  0.59439837  0.92642598  0.22919456  1
  O2-  O245  1  0.59655244  0.92753147  0.72826538  1
  O2-  O246  1  0.92689803  0.25857216  0.22792849  1
  O2-  O247  1  0.92662067  0.26223009  0.72822737  1
  O2-  O248  1  0.92835849  0.59252552  0.22821573  1
  O2-  O249  1  0.92652167  0.59440228  0.72893445  1
  O2-  O250  1  0.93443501  0.93142281  0.23282331  1
  O2-  O251  1  0.92924641  0.92711811  0.72953634  1
  O2-  O252  1  0.09722294  0.23780526  0.26705779  1
  O2-  O253  1  0.09885275  0.23547954  0.76534837  1
  O2-  O254  1  0.09216632  0.57621311  0.27360658  1
  O2-  O255  1  0.09464619  0.57000699  0.76573174  1
  O2-  O256  1  0.09653651  0.90362122  0.27448866  1
  O2-  O257  1  0.09813490  0.90345491  0.77178678  1
  O2-  O258  1  0.42948868  0.24262893  0.27406967  1
  O2-  O259  1  0.42429333  0.24278445  0.76661809  1
  O2-  O260  1  0.43130879  0.57211558  0.26655579  1
  O2-  O261  1  0.43351848  0.57495070  0.76760288  1
  O2-  O262  1  0.42675511  0.90490977  0.27282222  1
  O2-  O263  1  0.42948710  0.90797465  0.76979208  1
  O2-  O264  1  0.76011530  0.23621857  0.26930768  1
  O2-  O265  1  0.76065788  0.24110565  0.76628994  1
  O2-  O266  1  0.76495214  0.56685204  0.26815930  1
  O2-  O267  1  0.76133465  0.57167724  0.76573540  1
  O2-  O268  1  0.76394901  0.90248316  0.27138894  1
  O2-  O269  1  0.76191667  0.90270343  0.76795562  1
  O2-  O270  1  0.07042492  0.07178569  0.47930672  1
  O2-  O271  1  0.07322050  0.07113868  0.97806953  1
  O2-  O272  1  0.07785556  0.41305377  0.47838902  1
  O2-  O273  1  0.06923226  0.40181829  0.97778495  1
  O2-  O274  1  0.06986939  0.73843828  0.48036573  1
  O2-  O275  1  0.07062571  0.73653944  0.98478716  1
  O2-  O276  1  0.40431552  0.07280820  0.47717051  1
  O2-  O277  1  0.40199069  0.07080672  0.98297731  1
  O2-  O278  1  0.40674161  0.40541939  0.47938032  1
  O2-  O279  1  0.40359377  0.40840539  0.97953006  1
  O2-  O280  1  0.40449083  0.73713435  0.47635148  1
  O2-  O281  1  0.41239897  0.74475799  0.98003592  1
  O2-  O282  1  0.73736851  0.06716358  0.47829892  1
  O2-  O283  1  0.73573086  0.06987692  0.98558634  1
  O2-  O284  1  0.73638270  0.40464361  0.48381743  1
  O2-  O285  1  0.73468499  0.40435190  0.98269690  1
  O2-  O286  1  0.73498792  0.73472828  0.47876276  1
  O2-  O287  1  0.73837639  0.73942481  0.97914767  1
  O2-  O288  1  0.09861228  0.23776076  0.48210120  1
  O2-  O289  1  0.09747826  0.23541406  0.98549866  1
  O2-  O290  1  0.09399421  0.57511975  0.47785546  1
  O2-  O291  1  0.09317514  0.57272286  0.98170719  1
  O2-  O292  1  0.09708609  0.90501952  0.47636389  1
  O2-  O293  1  0.09802453  0.90294967  0.97616546  1
  O2-  O294  1  0.43107827  0.24078709  0.47879768  1
  O2-  O295  1  0.42325329  0.24565728  0.97964943  1
  O2-  O296  1  0.43234227  0.57270778  0.48228614  1
  O2-  O297  1  0.43110204  0.57409814  0.98304047  1
  O2-  O298  1  0.42674263  0.90397735  0.47671124  1
  O2-  O299  1  0.42856093  0.90839521  0.97983792  1
  O2-  O300  1  0.76229894  0.23674442  0.48168798  1
  O2-  O301  1  0.75738681  0.24083327  0.98398583  1
  O2-  O302  1  0.76439144  0.56688381  0.48043980  1
  O2-  O303  1  0.76066751  0.57241353  0.98692737  1
  O2-  O304  1  0.76537563  0.89870399  0.48226128  1
  O2-  O305  1  0.76131267  0.90596753  0.97927701  1
  O2-  O306  1  0.07228541  0.07328197  0.27250772  1
  O2-  O307  1  0.07264442  0.06917767  0.76911128  1
  O2-  O308  1  0.07426789  0.40897339  0.27015377  1
  O2-  O309  1  0.07101847  0.40406161  0.77339551  1
  O2-  O310  1  0.07180184  0.73825170  0.27083396  1
  O2-  O311  1  0.06827201  0.73507387  0.76399494  1
  O2-  O312  1  0.40546885  0.07146136  0.27279573  1
  O2-  O313  1  0.40245745  0.07085615  0.76640564  1
  O2-  O314  1  0.40579424  0.40603060  0.26943189  1
  O2-  O315  1  0.40453899  0.40724453  0.77087273  1
  O2-  O316  1  0.40679023  0.73952839  0.27537210  1
  O2-  O317  1  0.40913006  0.74224160  0.76764302  1
  O2-  O318  1  0.73497886  0.06980973  0.27162013  1
  O2-  O319  1  0.73805252  0.06753817  0.76479572  1
  O2-  O320  1  0.73450958  0.40302094  0.26396051  1
  O2-  O321  1  0.73628062  0.40535701  0.76947483  1
  O2-  O322  1  0.73472930  0.73439562  0.26856728  1
  O2-  O323  1  0.73876255  0.73956453  0.77474107  1
  O2-  O324  1  0.23713399  0.09172717  0.22826668  1
  O2-  O325  1  0.23786876  0.09459504  0.72705107  1
  O2-  O326  1  0.23841316  0.42659139  0.22825706  1
  O2-  O327  1  0.23446453  0.42572645  0.72780361  1
  O2-  O328  1  0.23720208  0.76257180  0.23172443  1
  O2-  O329  1  0.23906063  0.75856042  0.72677220  1
  O2-  O330  1  0.57014612  0.09860876  0.22914435  1
  O2-  O331  1  0.57230657  0.09366904  0.72665448  1
  O2-  O332  1  0.57057316  0.42848195  0.22843310  1
  O2-  O333  1  0.57022884  0.43314049  0.73401032  1
  O2-  O334  1  0.57103602  0.76282315  0.23217565  1
  O2-  O335  1  0.57037864  0.76530702  0.73254790  1
  O2-  O336  1  0.90049867  0.09551404  0.23481276  1
  O2-  O337  1  0.90661535  0.09363150  0.72801584  1
  O2-  O338  1  0.90806310  0.42527901  0.22812892  1
  O2-  O339  1  0.90379323  0.42865165  0.72935991  1
  O2-  O340  1  0.91022584  0.75592296  0.23212797  1
  O2-  O341  1  0.90309913  0.75977612  0.72838105  1
  O2-  O342  1  0.26012357  0.26075117  0.02186873  1
  O2-  O343  1  0.26247768  0.26194302  0.52116252  1
  O2-  O344  1  0.25781711  0.59257768  0.01709558  1
  O2-  O345  1  0.25944831  0.59224178  0.52238547  1
  O2-  O346  1  0.26121116  0.92894932  0.02198323  1
  O2-  O347  1  0.26226086  0.92798525  0.52112977  1
  O2-  O348  1  0.59385554  0.26134377  0.01751555  1
  O2-  O349  1  0.59499884  0.26634886  0.52359264  1
  O2-  O350  1  0.59392471  0.59330615  0.02225526  1
  O2-  O351  1  0.59671755  0.59525571  0.52245293  1
  O2-  O352  1  0.59536776  0.92796646  0.02141155  1
  O2-  O353  1  0.59653325  0.92512487  0.52168692  1
  O2-  O354  1  0.92767714  0.25801785  0.02189037  1
  O2-  O355  1  0.92638154  0.26165940  0.52425850  1
  O2-  O356  1  0.92798358  0.59265957  0.02206480  1
  O2-  O357  1  0.92616149  0.59443674  0.52029729  1
  O2-  O358  1  0.93468863  0.92902829  0.01673047  1
  O2-  O359  1  0.92977499  0.92821616  0.51957587  1
