# generated using pymatgen
data_Sr7Ca15Pr50Mn72O216
_symmetry_space_group_name_H-M   'P 1'
_cell_length_a   16.55831593
_cell_length_b   16.60459864
_cell_length_c   15.59368999
_cell_angle_alpha   90.00425283
_cell_angle_beta   90.00316025
_cell_angle_gamma   89.99948167
_symmetry_Int_Tables_number   1
_chemical_formula_structural   Sr7Ca15Pr50Mn72O216
_chemical_formula_sum   'Sr7 Ca15 Pr50 Mn72 O216'
_cell_volume   4287.39444647
_cell_formula_units_Z   1
loop_
 _symmetry_equiv_pos_site_id
 _symmetry_equiv_pos_as_xyz
  1  'x, y, z'
loop_
 _atom_type_symbol
 _atom_type_oxidation_number
  Sr2+  2.0
  Ca2+  2.0
  Pr3+  3.0
  Mn3.30+  3.3
  O2-  -2.0
loop_
 _atom_site_type_symbol
 _atom_site_label
 _atom_site_symmetry_multiplicity
 _atom_site_fract_x
 _atom_site_fract_y
 _atom_site_fract_z
 _atom_site_occupancy
  Sr2+  Sr0  1  0.16561350  0.82136862  0.87318293  1
  Sr2+  Sr1  1  -0.00367727  0.01050745  0.62505754  1
  Sr2+  Sr2  1  0.49773138  0.15653013  0.87429900  1
  Sr2+  Sr3  1  0.16355357  0.82409606  0.37656987  1
  Sr2+  Sr4  1  0.33783410  0.98706488  0.87281706  1
  Sr2+  Sr5  1  0.83574374  0.51067638  0.62533325  1
  Sr2+  Sr6  1  0.66732558  0.65908481  0.87652476  1
  Ca2+  Ca7  1  0.49446695  0.81934678  0.87582827  1
  Ca2+  Ca8  1  0.83774264  0.18208862  0.62393486  1
  Ca2+  Ca9  1  0.66363633  0.68218880  0.12309527  1
  Ca2+  Ca10  1  -0.00110697  0.67806423  0.62741462  1
  Ca2+  Ca11  1  0.16162330  0.15156147  0.37680938  1
  Ca2+  Ca12  1  0.67272748  0.31925264  0.37741732  1
  Ca2+  Ca13  1  0.66222426  0.34674191  0.12605606  1
  Ca2+  Ca14  1  0.16819557  0.51591060  0.62368087  1
  Ca2+  Ca15  1  0.83102660  0.81580383  0.87293270  1
  Ca2+  Ca16  1  1.00235267  0.65521854  0.87073870  1
  Ca2+  Ca17  1  0.32877291  0.01344838  0.62728766  1
  Ca2+  Ca18  1  0.16336509  0.48805884  0.37642320  1
  Ca2+  Ca19  1  0.67046627  0.98395299  0.37554343  1
  Ca2+  Ca20  1  0.66676872  0.34546479  0.62352483  1
  Ca2+  Ca21  1  0.33065157  0.68330105  0.12448613  1
  Pr3+  Pr22  1  0.33184870  0.34600200  0.12548339  1
  Pr3+  Pr23  1  0.83363929  0.18048810  0.12519584  1
  Pr3+  Pr24  1  1.00293284  0.98499672  0.87257268  1
  Pr3+  Pr25  1  0.32805252  0.34838303  0.62481439  1
  Pr3+  Pr26  1  0.50546316  0.51496305  0.12592845  1
  Pr3+  Pr27  1  0.83758958  0.84156040  0.62808360  1
  Pr3+  Pr28  1  0.66711725  0.98422483  0.87413175  1
  Pr3+  Pr29  1  0.66130585  0.01151093  0.12627595  1
  Pr3+  Pr30  1  0.33338407  0.31989820  0.37549311  1
  Pr3+  Pr31  1  1.00368156  0.31910172  0.37601216  1
  Pr3+  Pr32  1  1.00663131  0.65280572  0.37630048  1
  Pr3+  Pr33  1  1.00066201  0.32272232  0.87366094  1
  Pr3+  Pr34  1  0.83062003  0.48471266  0.37704964  1
  Pr3+  Pr35  1  -0.00344877  0.34750440  0.12548181  1
  Pr3+  Pr36  1  0.32977278  0.67845226  0.62506558  1
  Pr3+  Pr37  1  0.83197034  0.82208453  0.37633931  1
  Pr3+  Pr38  1  0.16457119  0.15395318  0.87393706  1
  Pr3+  Pr39  1  0.33181678  0.01109542  0.12446561  1
  Pr3+  Pr40  1  0.33798905  0.32091508  0.87462422  1
  Pr3+  Pr41  1  0.50506672  0.51138873  0.62422974  1
  Pr3+  Pr42  1  1.00418204  0.98713289  0.37746907  1
  Pr3+  Pr43  1  0.50245888  0.84719813  0.62722933  1
  Pr3+  Pr44  1  0.50124482  0.17932250  0.62613870  1
  Pr3+  Pr45  1  0.67147295  0.65416515  0.37386728  1
  Pr3+  Pr46  1  0.33197329  0.98792939  0.37803763  1
  Pr3+  Pr47  1  0.83287146  0.84330749  0.12167534  1
  Pr3+  Pr48  1  0.16931152  0.17729360  0.62269728  1
  Pr3+  Pr49  1  0.66570411  0.01227898  0.62348931  1
  Pr3+  Pr50  1  0.66859540  0.32267231  0.87347572  1
  Pr3+  Pr51  1  0.83159523  0.49224508  0.87356356  1
  Pr3+  Pr52  1  0.50238631  0.84396126  0.12247847  1
  Pr3+  Pr53  1  0.50183130  0.15404294  0.37570146  1
  Pr3+  Pr54  1  0.49956977  0.48467585  0.37597227  1
  Pr3+  Pr55  1  0.50366722  0.18078359  0.12407884  1
  Pr3+  Pr56  1  0.33408433  0.65343465  0.37410582  1
  Pr3+  Pr57  1  -0.00074876  0.67953776  0.12296828  1
  Pr3+  Pr58  1  0.83285280  0.51344231  0.12525029  1
  Pr3+  Pr59  1  0.82803691  0.15419134  0.87198436  1
  Pr3+  Pr60  1  0.49824703  0.48876926  0.87428642  1
  Pr3+  Pr61  1  0.66687853  0.67857665  0.62619773  1
  Pr3+  Pr62  1  0.17084311  0.84453942  0.12385243  1
  Pr3+  Pr63  1  -0.00310847  0.01123545  0.12461627  1
  Pr3+  Pr64  1  0.16425346  0.49228895  0.87412679  1
  Pr3+  Pr65  1  0.16957276  0.17980062  0.12708150  1
  Pr3+  Pr66  1  -0.00291981  0.34600354  0.62424444  1
  Pr3+  Pr67  1  0.82706294  0.15125727  0.37733710  1
  Pr3+  Pr68  1  0.49748016  0.82123702  0.37527414  1
  Pr3+  Pr69  1  0.33824131  0.65872472  0.87641939  1
  Pr3+  Pr70  1  0.16725539  0.84679251  0.62588771  1
  Pr3+  Pr71  1  0.17221258  0.51739128  0.12718432  1
  Mn3.30+  Mn72  1  0.16620070  -0.00077053  -0.00163165  1
  Mn3.30+  Mn73  1  0.16635060  0.00154553  0.50184103  1
  Mn3.30+  Mn74  1  0.16675292  0.33501519  0.00016960  1
  Mn3.30+  Mn75  1  0.16587241  0.33516672  0.49881654  1
  Mn3.30+  Mn76  1  0.16780491  0.66800511  -0.00175376  1
  Mn3.30+  Mn77  1  0.16531346  0.66560471  0.50121903  1
  Mn3.30+  Mn78  1  0.49882367  -0.00038354  -0.00191920  1
  Mn3.30+  Mn79  1  0.50005474  0.00035652  0.50035130  1
  Mn3.30+  Mn80  1  0.50116903  0.33468193  0.00133163  1
  Mn3.30+  Mn81  1  0.50235579  0.33200259  0.49942879  1
  Mn3.30+  Mn82  1  0.50092300  0.66766405  0.00163907  1
  Mn3.30+  Mn83  1  0.50062475  0.66605798  0.49920968  1
  Mn3.30+  Mn84  1  0.83177783  -0.00151009  -0.00140794  1
  Mn3.30+  Mn85  1  0.83229230  0.00003702  0.50122868  1
  Mn3.30+  Mn86  1  0.83095696  0.33476325  0.00106248  1
  Mn3.30+  Mn87  1  0.83264005  0.33222832  0.50122141  1
  Mn3.30+  Mn88  1  0.83275666  0.66719618  -0.00085580  1
  Mn3.30+  Mn89  1  0.83704436  0.66541039  0.50076143  1
  Mn3.30+  Mn90  1  -0.00048422  0.16647575  0.25050645  1
  Mn3.30+  Mn91  1  -0.00259674  0.16652717  0.74883364  1
  Mn3.30+  Mn92  1  0.00155155  0.50010163  0.25036030  1
  Mn3.30+  Mn93  1  0.00104527  0.50303622  0.74799085  1
  Mn3.30+  Mn94  1  0.00028542  0.83331780  0.24848936  1
  Mn3.30+  Mn95  1  -0.00054873  0.82974238  0.75167143  1
  Mn3.30+  Mn96  1  0.33252811  0.16594502  0.25273316  1
  Mn3.30+  Mn97  1  0.33386170  0.16578127  0.74828991  1
  Mn3.30+  Mn98  1  0.33377355  0.50040363  0.25139162  1
  Mn3.30+  Mn99  1  0.33161683  0.50184102  0.74874094  1
  Mn3.30+  Mn100  1  0.33309747  0.83222052  0.25099563  1
  Mn3.30+  Mn101  1  0.33473731  0.83392844  0.74991025  1
  Mn3.30+  Mn102  1  0.66694871  0.16765764  0.25147568  1
  Mn3.30+  Mn103  1  0.66781922  0.16763241  0.74687963  1
  Mn3.30+  Mn104  1  0.66708183  0.49834791  0.24990498  1
  Mn3.30+  Mn105  1  0.66724516  0.50025990  0.74899799  1
  Mn3.30+  Mn106  1  0.66629091  0.83310133  0.25026937  1
  Mn3.30+  Mn107  1  0.66745746  0.83198216  0.75253037  1
  Mn3.30+  Mn108  1  0.16517165  0.00067674  0.25020416  1
  Mn3.30+  Mn109  1  0.16742618  -0.00002163  0.74938445  1
  Mn3.30+  Mn110  1  0.16610891  0.33454190  0.25178051  1
  Mn3.30+  Mn111  1  0.16643273  0.33529228  0.74937322  1
  Mn3.30+  Mn112  1  0.16877456  0.66777926  0.25108034  1
  Mn3.30+  Mn113  1  0.16451200  0.66634114  0.74848071  1
  Mn3.30+  Mn114  1  0.50050472  -0.00057484  0.25296458  1
  Mn3.30+  Mn115  1  0.49829097  0.00041615  0.74873326  1
  Mn3.30+  Mn116  1  0.50316850  0.33239120  0.25243903  1
  Mn3.30+  Mn117  1  0.50060307  0.33379622  0.74736846  1
  Mn3.30+  Mn118  1  0.50113732  0.66667880  0.24885740  1
  Mn3.30+  Mn119  1  0.50039469  0.66753308  0.75052997  1
  Mn3.30+  Mn120  1  0.83087044  -0.00095336  0.24979811  1
  Mn3.30+  Mn121  1  0.83337966  -0.00108882  0.75044367  1
  Mn3.30+  Mn122  1  0.83016376  0.33346317  0.24984722  1
  Mn3.30+  Mn123  1  0.83313198  0.33417709  0.74793895  1
  Mn3.30+  Mn124  1  0.83378939  0.66680455  0.24865586  1
  Mn3.30+  Mn125  1  0.83590872  0.66589683  0.75116641  1
  Mn3.30+  Mn126  1  -0.00130022  0.16707034  -0.00041547  1
  Mn3.30+  Mn127  1  -0.00126516  0.16614323  0.50057887  1
  Mn3.30+  Mn128  1  0.00066567  0.50230290  -0.00023101  1
  Mn3.30+  Mn129  1  0.00231658  0.50091664  0.50120735  1
  Mn3.30+  Mn130  1  -0.00013503  0.83088418  -0.00309593  1
  Mn3.30+  Mn131  1  -0.00027108  0.83147918  0.50187519  1
  Mn3.30+  Mn132  1  0.33401610  0.16643907  0.00075691  1
  Mn3.30+  Mn133  1  0.33239931  0.16564884  0.49860851  1
  Mn3.30+  Mn134  1  0.33392782  0.50267640  0.00179203  1
  Mn3.30+  Mn135  1  0.33067292  0.49963907  0.49846232  1
  Mn3.30+  Mn136  1  0.33497489  0.83252343  -0.00084117  1
  Mn3.30+  Mn137  1  0.33266427  0.83392433  0.50094675  1
  Mn3.30+  Mn138  1  0.66578996  0.16701031  -0.00100749  1
  Mn3.30+  Mn139  1  0.66848594  0.16799181  0.50216142  1
  Mn3.30+  Mn140  1  0.66642081  0.50078023  0.00052709  1
  Mn3.30+  Mn141  1  0.66788600  0.49772314  0.50068899  1
  Mn3.30+  Mn142  1  0.66690905  0.83153526  -0.00222425  1
  Mn3.30+  Mn143  1  0.66735442  0.83399117  0.50005643  1
  O2-  O144  1  0.02555497  0.16089726  0.12525520  1
  O2-  O145  1  0.02552732  0.16769684  0.62653875  1
  O2-  O146  1  0.02702377  0.49447863  0.12511775  1
  O2-  O147  1  0.02758232  0.49101601  0.62373592  1
  O2-  O148  1  0.02635945  0.82857710  0.12213352  1
  O2-  O149  1  0.02187306  0.82514826  0.62660369  1
  O2-  O150  1  0.35785810  0.16145559  0.12910940  1
  O2-  O151  1  0.35617362  0.16307688  0.62055095  1
  O2-  O152  1  0.36153429  0.49153710  0.12853632  1
  O2-  O153  1  0.36077460  0.49591779  0.62248934  1
  O2-  O154  1  0.35758574  0.83140588  0.12724560  1
  O2-  O155  1  0.35932398  0.82530825  0.62343883  1
  O2-  O156  1  0.69117601  0.15706502  0.12574468  1
  O2-  O157  1  0.69725809  0.15722164  0.62471042  1
  O2-  O158  1  0.69036763  0.48876740  0.12669093  1
  O2-  O159  1  0.68482566  0.49401540  0.62374781  1
  O2-  O160  1  0.68911600  0.83118365  0.12522182  1
  O2-  O161  1  0.69236931  0.82865721  0.62520491  1
  O2-  O162  1  0.14024954  0.32646476  0.12672193  1
  O2-  O163  1  0.14092292  0.32364966  0.62390424  1
  O2-  O164  1  0.14333547  0.66488184  0.12509275  1
  O2-  O165  1  0.14123539  0.65972351  0.62423894  1
  O2-  O166  1  0.14195871  0.99455762  0.12328627  1
  O2-  O167  1  0.14653697  0.99842453  0.62649436  1
  O2-  O168  1  0.47527434  0.32950400  0.12888382  1
  O2-  O169  1  0.47217093  0.32974307  0.62216113  1
  O2-  O170  1  0.47257746  0.66099791  0.12821640  1
  O2-  O171  1  0.47502960  0.65960387  0.62305157  1
  O2-  O172  1  0.47640420  0.99401810  0.12824271  1
  O2-  O173  1  0.47225955  0.99489282  0.62314773  1
  O2-  O174  1  0.80463049  0.32770104  0.12619985  1
  O2-  O175  1  0.80977335  0.32808246  0.62499424  1
  O2-  O176  1  0.80659123  0.66198267  0.12612010  1
  O2-  O177  1  0.81065196  0.66790406  0.62391531  1
  O2-  O178  1  0.80434263  0.99200076  0.12314243  1
  O2-  O179  1  0.80786757  0.98851134  0.62730396  1
  O2-  O180  1  0.30488656  0.17205338  0.37461929  1
  O2-  O181  1  0.30960174  0.17428993  0.87564090  1
  O2-  O182  1  0.30542502  0.50566608  0.37395076  1
  O2-  O183  1  0.30863881  0.50801814  0.87545636  1
  O2-  O184  1  0.31268936  0.83947616  0.37650129  1
  O2-  O185  1  0.31591041  0.82865652  0.87360226  1
  O2-  O186  1  0.64359354  0.17666937  0.37697827  1
  O2-  O187  1  0.64673845  0.17424986  0.87224683  1
  O2-  O188  1  0.64290249  0.50864716  0.37490165  1
  O2-  O189  1  0.64220787  0.50289281  0.87446713  1
  O2-  O190  1  0.64162353  0.83754212  0.37576342  1
  O2-  O191  1  0.63683071  0.83713692  0.87371592  1
  O2-  O192  1  0.97164944  0.17115644  0.37322620  1
  O2-  O193  1  0.97221826  0.17461149  0.87535423  1
  O2-  O194  1  0.97493093  0.50530063  0.37384813  1
  O2-  O195  1  0.97682441  0.50600142  0.87743369  1
  O2-  O196  1  0.97675996  0.83883023  0.37395019  1
  O2-  O197  1  0.97310577  0.83929691  0.87635301  1
  O2-  O198  1  0.18723695  0.00447186  0.37591751  1
  O2-  O199  1  0.18682796  0.00585224  0.87422446  1
  O2-  O200  1  0.19193806  0.34527341  0.37471831  1
  O2-  O201  1  0.19480092  0.34255791  0.87481086  1
  O2-  O202  1  0.19124644  0.67212933  0.37542584  1
  O2-  O203  1  0.19389665  0.66321506  0.87485292  1
  O2-  O204  1  0.52908801  0.00539893  0.37601193  1
  O2-  O205  1  0.52366946  0.00502440  0.87233226  1
  O2-  O206  1  0.53002312  0.33625156  0.37559455  1
  O2-  O207  1  0.52283122  0.33912613  0.87355321  1
  O2-  O208  1  0.52755389  0.67253297  0.37446434  1
  O2-  O209  1  0.51687169  0.67113871  0.87423661  1
  O2-  O210  1  0.85988228  0.00361670  0.37406686  1
  O2-  O211  1  0.85979196  0.00921169  0.87514571  1
  O2-  O212  1  0.85927349  0.33676012  0.37355470  1
  O2-  O213  1  0.85703374  0.34062979  0.87536105  1
  O2-  O214  1  0.86084720  0.67278720  0.37332188  1
  O2-  O215  1  0.85905364  0.66612263  0.87686406  1
  O2-  O216  1  0.23784875  0.09577256  0.02055051  1
  O2-  O217  1  0.23930846  0.09577724  0.51767937  1
  O2-  O218  1  0.23921051  0.42949196  0.02273463  1
  O2-  O219  1  0.23863723  0.42825515  0.52434617  1
  O2-  O220  1  0.23863473  0.76185171  0.01868979  1
  O2-  O221  1  0.23777190  0.75949131  0.52361731  1
  O2-  O222  1  0.57218030  0.09357963  0.02168720  1
  O2-  O223  1  0.57098503  0.09604804  0.52156665  1
  O2-  O224  1  0.56919141  0.43099433  0.01683363  1
  O2-  O225  1  0.56763594  0.42856295  0.51595568  1
  O2-  O226  1  0.57196445  0.75961521  0.02117563  1
  O2-  O227  1  0.57397652  0.76182083  0.52110015  1
  O2-  O228  1  0.90287949  0.09320890  0.02252748  1
  O2-  O229  1  0.89853612  0.09603020  0.51772073  1
  O2-  O230  1  0.90466494  0.42714900  0.02229102  1
  O2-  O231  1  0.90754704  0.42629854  0.51560044  1
  O2-  O232  1  0.90734778  0.75897473  0.02369823  1
  O2-  O233  1  0.90279506  0.76337140  0.51555554  1
  O2-  O234  1  0.26135314  0.26312799  0.23016673  1
  O2-  O235  1  0.26036972  0.26245363  0.72989321  1
  O2-  O236  1  0.26380160  0.59846343  0.22859064  1
  O2-  O237  1  0.26352237  0.59579487  0.73029660  1
  O2-  O238  1  0.26123036  0.92761626  0.23120719  1
  O2-  O239  1  0.26224300  0.92461776  0.72811731  1
  O2-  O240  1  0.59450562  0.26009855  0.22555147  1
  O2-  O241  1  0.59600952  0.26145365  0.72643181  1
  O2-  O242  1  0.59769738  0.59580834  0.22844773  1
  O2-  O243  1  0.59248243  0.59367824  0.72786862  1
  O2-  O244  1  0.59192559  0.92678505  0.22923158  1
  O2-  O245  1  0.59541121  0.92904720  0.72811356  1
  O2-  O246  1  0.92820979  0.26125652  0.22758498  1
  O2-  O247  1  0.92970732  0.26400547  0.73334585  1
  O2-  O248  1  0.93003823  0.59414523  0.22843184  1
  O2-  O249  1  0.93213414  0.59545453  0.73108259  1
  O2-  O250  1  0.92541800  0.92780278  0.22730592  1
  O2-  O251  1  0.92500926  0.92575213  0.73372046  1
  O2-  O252  1  0.09756474  0.23894552  0.27236005  1
  O2-  O253  1  0.09406417  0.24050772  0.77327263  1
  O2-  O254  1  0.09926503  0.57155959  0.26901837  1
  O2-  O255  1  0.09709831  0.57078905  0.76901137  1
  O2-  O256  1  0.09101138  0.90818463  0.26594598  1
  O2-  O257  1  0.09040363  0.90591987  0.76516768  1
  O2-  O258  1  0.42994380  0.23840716  0.27210416  1
  O2-  O259  1  0.42557848  0.24239625  0.76536767  1
  O2-  O260  1  0.43068486  0.57167579  0.27377026  1
  O2-  O261  1  0.42778811  0.57194118  0.76902498  1
  O2-  O262  1  0.42730731  0.90626904  0.27183084  1
  O2-  O263  1  0.43260536  0.90003539  0.76563703  1
  O2-  O264  1  0.76500312  0.23509163  0.26754644  1
  O2-  O265  1  0.76053215  0.24107906  0.77124411  1
  O2-  O266  1  0.76320089  0.56962026  0.27022744  1
  O2-  O267  1  0.76390567  0.57313892  0.76664834  1
  O2-  O268  1  0.76300405  0.90470984  0.26917553  1
  O2-  O269  1  0.75953683  0.90401665  0.77438798  1
  O2-  O270  1  0.06943466  0.07436469  0.48104902  1
  O2-  O271  1  0.06929312  0.07393670  0.97917251  1
  O2-  O272  1  0.06965219  0.40331358  0.48074259  1
  O2-  O273  1  0.07149425  0.40593171  0.97957613  1
  O2-  O274  1  0.07083422  0.73699101  0.48210130  1
  O2-  O275  1  0.06980420  0.73373558  0.98136976  1
  O2-  O276  1  0.40839065  0.07313802  0.47458140  1
  O2-  O277  1  0.40496910  0.07013114  0.98861624  1
  O2-  O278  1  0.40336426  0.40490439  0.47731964  1
  O2-  O279  1  0.40418064  0.40713339  0.97973716  1
  O2-  O280  1  0.40671732  0.73807379  0.47855459  1
  O2-  O281  1  0.40533708  0.73761561  0.98650559  1
  O2-  O282  1  0.73524534  0.06898796  0.47824763  1
  O2-  O283  1  0.73773430  0.07057480  0.97833427  1
  O2-  O284  1  0.73984181  0.40509563  0.47806752  1
  O2-  O285  1  0.73776840  0.40755543  0.97716200  1
  O2-  O286  1  0.74007450  0.73763654  0.47941351  1
  O2-  O287  1  0.74329060  0.74101403  0.98352334  1
  O2-  O288  1  0.09695220  0.23974212  0.47661944  1
  O2-  O289  1  0.09515688  0.24056428  0.97861056  1
  O2-  O290  1  0.09644820  0.57101115  0.47591834  1
  O2-  O291  1  0.09977734  0.57015193  0.98590872  1
  O2-  O292  1  0.09050314  0.90736469  0.48693863  1
  O2-  O293  1  0.09047428  0.90691824  0.98107413  1
  O2-  O294  1  0.42865849  0.23885182  0.47752288  1
  O2-  O295  1  0.42547952  0.24218432  0.98608153  1
  O2-  O296  1  0.42701022  0.57060609  0.47718281  1
  O2-  O297  1  0.42994008  0.57198329  0.98086937  1
  O2-  O298  1  0.42957492  0.90657717  0.47893556  1
  O2-  O299  1  0.43162777  0.90182085  0.98427584  1
  O2-  O300  1  0.76340212  0.23745638  0.48045199  1
  O2-  O301  1  0.76195253  0.23869545  0.98020452  1
  O2-  O302  1  0.76344300  0.57405903  0.47846968  1
  O2-  O303  1  0.76405512  0.56891796  0.98504379  1
  O2-  O304  1  0.76115237  0.90404352  0.48093731  1
  O2-  O305  1  0.76153867  0.90486807  0.97574044  1
  O2-  O306  1  0.06752944  0.07123675  0.26756709  1
  O2-  O307  1  0.07032547  0.07615898  0.77261821  1
  O2-  O308  1  0.06862683  0.40258869  0.26725630  1
  O2-  O309  1  0.07248705  0.40628462  0.77161287  1
  O2-  O310  1  0.07041176  0.73535468  0.26546503  1
  O2-  O311  1  0.07140768  0.73623736  0.76937932  1
  O2-  O312  1  0.40565969  0.06984674  0.27293445  1
  O2-  O313  1  0.40595638  0.07377277  0.76239560  1
  O2-  O314  1  0.40695892  0.40289945  0.27419785  1
  O2-  O315  1  0.40221877  0.40780454  0.76959022  1
  O2-  O316  1  0.40665193  0.74012447  0.27333886  1
  O2-  O317  1  0.40354931  0.73540245  0.76326193  1
  O2-  O318  1  0.73591142  0.07003230  0.27221066  1
  O2-  O319  1  0.73764692  0.06994509  0.77124994  1
  O2-  O320  1  0.73849406  0.40459691  0.27525328  1
  O2-  O321  1  0.74067907  0.40722254  0.77106034  1
  O2-  O322  1  0.74036202  0.74059217  0.27228658  1
  O2-  O323  1  0.73978285  0.73880701  0.76449313  1
  O2-  O324  1  0.23815753  0.09220504  0.22802026  1
  O2-  O325  1  0.23699661  0.09861751  0.73331432  1
  O2-  O326  1  0.23971391  0.42630911  0.22626088  1
  O2-  O327  1  0.23791855  0.43018111  0.72692312  1
  O2-  O328  1  0.23866003  0.76276181  0.23044522  1
  O2-  O329  1  0.23811953  0.75918222  0.72685987  1
  O2-  O330  1  0.56981032  0.09586451  0.23124748  1
  O2-  O331  1  0.57497319  0.09417142  0.72492230  1
  O2-  O332  1  0.56901659  0.43100482  0.23387179  1
  O2-  O333  1  0.56860221  0.42848820  0.73311501  1
  O2-  O334  1  0.56980063  0.76208721  0.23153318  1
  O2-  O335  1  0.57404077  0.75905496  0.72591897  1
  O2-  O336  1  0.90085084  0.09230690  0.22699333  1
  O2-  O337  1  0.90136579  0.09903853  0.73206916  1
  O2-  O338  1  0.90279217  0.42690902  0.22900786  1
  O2-  O339  1  0.90949176  0.42650951  0.73336803  1
  O2-  O340  1  0.90580802  0.76241247  0.22729709  1
  O2-  O341  1  0.90450718  0.76081898  0.73403632  1
  O2-  O342  1  0.26011658  0.26226132  0.02149550  1
  O2-  O343  1  0.26162896  0.26391487  0.51867442  1
  O2-  O344  1  0.26466501  0.59566232  0.02365428  1
  O2-  O345  1  0.26385290  0.59681635  0.51707091  1
  O2-  O346  1  0.26152174  0.92570109  0.02103196  1
  O2-  O347  1  0.26203653  0.92848514  0.52023166  1
  O2-  O348  1  0.59502439  0.26268580  0.02064895  1
  O2-  O349  1  0.59503256  0.25889950  0.52694092  1
  O2-  O350  1  0.59486877  0.59398771  0.02400626  1
  O2-  O351  1  0.59534341  0.59462685  0.51914739  1
  O2-  O352  1  0.59474542  0.92937679  0.01902146  1
  O2-  O353  1  0.59184500  0.92779854  0.52343262  1
  O2-  O354  1  0.92776128  0.26114256  0.02144586  1
  O2-  O355  1  0.93049898  0.26284065  0.51728462  1
  O2-  O356  1  0.92652931  0.59211061  0.02474354  1
  O2-  O357  1  0.93401942  0.59753722  0.51680043  1
  O2-  O358  1  0.92572799  0.92771697  0.02108144  1
  O2-  O359  1  0.92422071  0.92511543  0.51656139  1
