# generated using pymatgen
data_Sr7Ca15Pr50Mn72O216
_symmetry_space_group_name_H-M   'P 1'
_cell_length_a   16.56087915
_cell_length_b   16.60270794
_cell_length_c   15.59300087
_cell_angle_alpha   90.00057770
_cell_angle_beta   89.99355006
_cell_angle_gamma   90.00970077
_symmetry_Int_Tables_number   1
_chemical_formula_structural   Sr7Ca15Pr50Mn72O216
_chemical_formula_sum   'Sr7 Ca15 Pr50 Mn72 O216'
_cell_volume   4287.38032527
_cell_formula_units_Z   1
loop_
 _symmetry_equiv_pos_site_id
 _symmetry_equiv_pos_as_xyz
  1  'x, y, z'
loop_
 _atom_type_symbol
 _atom_type_oxidation_number
  Sr2+  2.0
  Ca2+  2.0
  Pr3+  3.0
  Mn3.30+  3.3
  O2-  -2.0
loop_
 _atom_site_type_symbol
 _atom_site_label
 _atom_site_symmetry_multiplicity
 _atom_site_fract_x
 _atom_site_fract_y
 _atom_site_fract_z
 _atom_site_occupancy
  Sr2+  Sr0  1  1.00147917  0.65374678  0.37660936  1
  Sr2+  Sr1  1  0.16622073  0.50907162  0.62467605  1
  Sr2+  Sr2  1  -0.00306212  0.67587785  0.62652712  1
  Sr2+  Sr3  1  1.00169796  0.32552545  0.87516967  1
  Sr2+  Sr4  1  0.83381896  0.17932023  0.12344509  1
  Sr2+  Sr5  1  0.16887996  0.50752044  0.12544429  1
  Sr2+  Sr6  1  0.50262464  0.50820968  0.12539517  1
  Ca2+  Ca7  1  0.16092815  0.48522091  0.87436412  1
  Ca2+  Ca8  1  0.83773824  0.84534763  0.62587201  1
  Ca2+  Ca9  1  0.33435618  0.65032465  0.37516213  1
  Ca2+  Ca10  1  0.16425393  0.48932629  0.37613580  1
  Ca2+  Ca11  1  0.50758794  0.18565031  0.12451493  1
  Ca2+  Ca12  1  0.66318310  0.34854063  0.12435570  1
  Ca2+  Ca13  1  0.83067193  0.48649921  0.37813238  1
  Ca2+  Ca14  1  0.83077145  0.15569705  0.87416613  1
  Ca2+  Ca15  1  0.33526437  0.32168536  0.87509076  1
  Ca2+  Ca16  1  0.84290865  0.51554738  0.62528078  1
  Ca2+  Ca17  1  0.83869054  0.18212316  0.62688096  1
  Ca2+  Ca18  1  0.50377602  0.18246572  0.62553284  1
  Ca2+  Ca19  1  0.49409442  0.81400016  0.37497154  1
  Ca2+  Ca20  1  0.83062386  0.81835079  0.87144380  1
  Ca2+  Ca21  1  1.00365556  0.65068573  0.87260410  1
  Pr3+  Pr22  1  0.83537269  0.50808975  0.12445464  1
  Pr3+  Pr23  1  0.67339984  0.31907119  0.87663904  1
  Pr3+  Pr24  1  0.33799994  0.98383057  0.37540283  1
  Pr3+  Pr25  1  0.67319081  0.98749402  0.87505784  1
  Pr3+  Pr26  1  0.66980122  0.67921092  0.62539027  1
  Pr3+  Pr27  1  0.16430931  0.15729494  0.87474701  1
  Pr3+  Pr28  1  0.33113629  0.34538737  0.62576056  1
  Pr3+  Pr29  1  0.33031807  0.01263751  0.62504604  1
  Pr3+  Pr30  1  -0.00427800  0.35006328  0.62682913  1
  Pr3+  Pr31  1  0.16866000  0.84362508  0.12551893  1
  Pr3+  Pr32  1  0.67090481  0.65422261  0.87493130  1
  Pr3+  Pr33  1  0.67097998  0.65166160  0.37538911  1
  Pr3+  Pr34  1  0.66781606  0.34628020  0.62568495  1
  Pr3+  Pr35  1  0.49748040  0.15655033  0.37578078  1
  Pr3+  Pr36  1  0.83134728  0.81940892  0.37692762  1
  Pr3+  Pr37  1  0.50368013  0.84508495  0.62360036  1
  Pr3+  Pr38  1  0.83440327  0.84504608  0.12439827  1
  Pr3+  Pr39  1  -0.00408950  0.01366119  0.12527375  1
  Pr3+  Pr40  1  0.16309790  0.15586479  0.37515326  1
  Pr3+  Pr41  1  0.16531743  0.84137986  0.62448580  1
  Pr3+  Pr42  1  0.50296663  0.84430191  0.12584445  1
  Pr3+  Pr43  1  0.33311021  0.34629105  0.12403703  1
  Pr3+  Pr44  1  0.49799113  0.82055783  0.87423081  1
  Pr3+  Pr45  1  0.82883594  0.15587001  0.37595675  1
  Pr3+  Pr46  1  -0.00677358  0.01199096  0.62501316  1
  Pr3+  Pr47  1  0.49724171  0.15620330  0.87367548  1
  Pr3+  Pr48  1  1.00119708  0.98745859  0.37444593  1
  Pr3+  Pr49  1  0.32699372  0.67706290  0.62325565  1
  Pr3+  Pr50  1  0.83496444  0.48882620  0.87184778  1
  Pr3+  Pr51  1  0.33002566  0.67535305  0.12665066  1
  Pr3+  Pr52  1  0.49839181  0.48818191  0.37463282  1
  Pr3+  Pr53  1  0.49662087  0.48336117  0.87534698  1
  Pr3+  Pr54  1  0.66233003  0.67722690  0.12497262  1
  Pr3+  Pr55  1  0.66115614  0.01658529  0.12526249  1
  Pr3+  Pr56  1  -0.00145580  0.34806910  0.12318297  1
  Pr3+  Pr57  1  0.16229467  0.81813047  0.37537452  1
  Pr3+  Pr58  1  0.33437591  0.32572947  0.37495101  1
  Pr3+  Pr59  1  0.33573656  0.98764968  0.87437854  1
  Pr3+  Pr60  1  1.00066684  0.32808238  0.37514251  1
  Pr3+  Pr61  1  0.16871145  0.18027156  0.12358664  1
  Pr3+  Pr62  1  0.33202123  0.01411710  0.12481159  1
  Pr3+  Pr63  1  0.16751895  0.17975549  0.62625921  1
  Pr3+  Pr64  1  -0.00175887  0.67493003  0.12435370  1
  Pr3+  Pr65  1  0.66574353  0.01564946  0.62456491  1
  Pr3+  Pr66  1  0.15960443  0.81870885  0.87506093  1
  Pr3+  Pr67  1  0.50178643  0.51306594  0.62453656  1
  Pr3+  Pr68  1  0.66744762  0.98636380  0.37507994  1
  Pr3+  Pr69  1  0.67100345  0.32441764  0.37338746  1
  Pr3+  Pr70  1  0.33349417  0.65102519  0.87413195  1
  Pr3+  Pr71  1  0.99671502  0.99109857  0.87607242  1
  Mn3.30+  Mn72  1  0.16651869  0.00000478  -0.00017214  1
  Mn3.30+  Mn73  1  0.16604094  -0.00044856  0.50010412  1
  Mn3.30+  Mn74  1  0.16851356  0.33441617  -0.00251822  1
  Mn3.30+  Mn75  1  0.16599000  0.33480063  0.50017494  1
  Mn3.30+  Mn76  1  0.16469953  0.66382052  -0.00085368  1
  Mn3.30+  Mn77  1  0.16575568  0.66386531  0.49885265  1
  Mn3.30+  Mn78  1  0.50074006  0.00210696  -0.00013951  1
  Mn3.30+  Mn79  1  0.50000053  0.00029867  0.50040139  1
  Mn3.30+  Mn80  1  0.50180695  0.33200817  -0.00058886  1
  Mn3.30+  Mn81  1  0.50154351  0.33301779  0.50201387  1
  Mn3.30+  Mn82  1  0.49956732  0.66505779  -0.00065710  1
  Mn3.30+  Mn83  1  0.49888190  0.66704193  0.49917424  1
  Mn3.30+  Mn84  1  0.83183122  0.00083318  -0.00044326  1
  Mn3.30+  Mn85  1  0.83216046  -0.00005773  0.50106847  1
  Mn3.30+  Mn86  1  0.83300037  0.33245873  -0.00000760  1
  Mn3.30+  Mn87  1  0.83398194  0.33483144  0.50121976  1
  Mn3.30+  Mn88  1  0.83407017  0.66702064  -0.00195024  1
  Mn3.30+  Mn89  1  0.83494604  0.66477712  0.50041780  1
  Mn3.30+  Mn90  1  -0.00171643  0.16883077  0.25002430  1
  Mn3.30+  Mn91  1  -0.00291691  0.16758344  0.75105358  1
  Mn3.30+  Mn92  1  0.00059776  0.50089041  0.25219909  1
  Mn3.30+  Mn93  1  0.00116006  0.50225211  0.75053200  1
  Mn3.30+  Mn94  1  -0.00010056  0.83142625  0.24890740  1
  Mn3.30+  Mn95  1  -0.00469359  0.83251908  0.75197416  1
  Mn3.30+  Mn96  1  0.33536563  0.16753758  0.24907558  1
  Mn3.30+  Mn97  1  0.33452842  0.16796930  0.74949727  1
  Mn3.30+  Mn98  1  0.33282927  0.50090401  0.25099362  1
  Mn3.30+  Mn99  1  0.33128148  0.49762817  0.75178998  1
  Mn3.30+  Mn100  1  0.33477922  0.83013526  0.25163078  1
  Mn3.30+  Mn101  1  0.33255594  0.83260627  0.74971606  1
  Mn3.30+  Mn102  1  0.66442650  0.16971969  0.24887329  1
  Mn3.30+  Mn103  1  0.66813609  0.16744972  0.74822832  1
  Mn3.30+  Mn104  1  0.66820172  0.49894999  0.25026244  1
  Mn3.30+  Mn105  1  0.66886964  0.50063759  0.74812381  1
  Mn3.30+  Mn106  1  0.66410975  0.83237645  0.25246434  1
  Mn3.30+  Mn107  1  0.67035641  0.83448149  0.74813113  1
  Mn3.30+  Mn108  1  0.16772258  0.00019786  0.24985826  1
  Mn3.30+  Mn109  1  0.16456222  -0.00072366  0.75016683  1
  Mn3.30+  Mn110  1  0.16739373  0.33478736  0.25071487  1
  Mn3.30+  Mn111  1  0.16710093  0.33438214  0.75184141  1
  Mn3.30+  Mn112  1  0.16654107  0.66334083  0.25192123  1
  Mn3.30+  Mn113  1  0.16419910  0.66454212  0.75009925  1
  Mn3.30+  Mn114  1  0.49923071  0.00019645  0.25081721  1
  Mn3.30+  Mn115  1  0.50159850  0.00194829  0.74839356  1
  Mn3.30+  Mn116  1  0.50297010  0.33348197  0.24922024  1
  Mn3.30+  Mn117  1  0.50055790  0.33194201  0.74951824  1
  Mn3.30+  Mn118  1  0.49829674  0.66569048  0.25167092  1
  Mn3.30+  Mn119  1  0.50012591  0.66652471  0.74899548  1
  Mn3.30+  Mn120  1  0.83160773  0.00056846  0.25007829  1
  Mn3.30+  Mn121  1  0.83212525  0.00073346  0.74937302  1
  Mn3.30+  Mn122  1  0.83294655  0.33486630  0.24861081  1
  Mn3.30+  Mn123  1  0.83416935  0.33172869  0.75033838  1
  Mn3.30+  Mn124  1  0.83239742  0.66412375  0.25049974  1
  Mn3.30+  Mn125  1  0.83647534  0.66820169  0.75128774  1
  Mn3.30+  Mn126  1  -0.00210632  0.16812281  -0.00167157  1
  Mn3.30+  Mn127  1  -0.00261038  0.16839584  0.50040636  1
  Mn3.30+  Mn128  1  0.00288822  0.50158661  -0.00103956  1
  Mn3.30+  Mn129  1  -0.00146370  0.50128491  0.49860717  1
  Mn3.30+  Mn130  1  -0.00259786  0.83134020  -0.00192768  1
  Mn3.30+  Mn131  1  -0.00227744  0.83230421  0.50155524  1
  Mn3.30+  Mn132  1  0.33619641  0.16877179  0.00047665  1
  Mn3.30+  Mn133  1  0.33379083  0.16672134  0.50071868  1
  Mn3.30+  Mn134  1  0.33197280  0.49792414  -0.00179434  1
  Mn3.30+  Mn135  1  0.33220170  0.50054495  0.49856085  1
  Mn3.30+  Mn136  1  0.33290225  0.83234256  -0.00026442  1
  Mn3.30+  Mn137  1  0.33471030  0.83059759  0.49859682  1
  Mn3.30+  Mn138  1  0.66607843  0.16839396  0.00075902  1
  Mn3.30+  Mn139  1  0.66652613  0.16881270  0.50249366  1
  Mn3.30+  Mn140  1  0.66651161  0.49889092  -0.00092255  1
  Mn3.30+  Mn141  1  0.67052190  0.50074854  0.50292488  1
  Mn3.30+  Mn142  1  0.66819494  0.83364072  -0.00099781  1
  Mn3.30+  Mn143  1  0.66636491  0.83293468  0.50010930  1
  O2-  O144  1  0.02472549  0.16160938  0.12395360  1
  O2-  O145  1  0.02467034  0.15984302  0.62420127  1
  O2-  O146  1  0.01887693  0.49936417  0.12498271  1
  O2-  O147  1  0.01695777  0.49815142  0.62510530  1
  O2-  O148  1  0.02502203  0.82596436  0.12327189  1
  O2-  O149  1  0.02154670  0.83678114  0.62567764  1
  O2-  O150  1  0.36404404  0.16082851  0.12455679  1
  O2-  O151  1  0.36091718  0.15928429  0.62403566  1
  O2-  O152  1  0.35353025  0.49627221  0.12443286  1
  O2-  O153  1  0.35829059  0.49474346  0.62566039  1
  O2-  O154  1  0.35975832  0.82496437  0.12459878  1
  O2-  O155  1  0.35992194  0.82512672  0.62371591  1
  O2-  O156  1  0.68617249  0.16067845  0.12573095  1
  O2-  O157  1  0.69704471  0.16254432  0.62424470  1
  O2-  O158  1  0.69056112  0.49704932  0.12353941  1
  O2-  O159  1  0.69831395  0.49543320  0.62631064  1
  O2-  O160  1  0.68982997  0.82743568  0.12633492  1
  O2-  O161  1  0.69541042  0.82759252  0.62452296  1
  O2-  O162  1  0.14355437  0.32690079  0.12636214  1
  O2-  O163  1  0.14170443  0.32645416  0.62462964  1
  O2-  O164  1  0.14247343  0.66402711  0.12439918  1
  O2-  O165  1  0.14843155  0.66763172  0.62541822  1
  O2-  O166  1  0.14097130  0.99407824  0.12539777  1
  O2-  O167  1  0.13910669  0.99306144  0.62590133  1
  O2-  O168  1  0.47676459  0.32931956  0.12360277  1
  O2-  O169  1  0.47523160  0.32921213  0.62532377  1
  O2-  O170  1  0.47540494  0.66511950  0.12434502  1
  O2-  O171  1  0.47218610  0.66208118  0.62497837  1
  O2-  O172  1  0.47396654  0.99020368  0.12647108  1
  O2-  O173  1  0.47338445  0.99132895  0.62359026  1
  O2-  O174  1  0.80742816  0.33666771  0.12363328  1
  O2-  O175  1  0.80977240  0.32420120  0.62651663  1
  O2-  O176  1  0.80572429  0.65809748  0.12515720  1
  O2-  O177  1  0.81182837  0.65891510  0.62504936  1
  O2-  O178  1  0.80604745  0.99274978  0.12643320  1
  O2-  O179  1  0.80862621  0.98878670  0.62383627  1
  O2-  O180  1  0.30667094  0.17449874  0.37567992  1
  O2-  O181  1  0.30843726  0.17252588  0.87503131  1
  O2-  O182  1  0.30933302  0.50008549  0.37528595  1
  O2-  O183  1  0.30458980  0.50461656  0.87434597  1
  O2-  O184  1  0.30470569  0.84030076  0.37526602  1
  O2-  O185  1  0.30564188  0.84052670  0.87575038  1
  O2-  O186  1  0.64069216  0.17501596  0.37567411  1
  O2-  O187  1  0.64044266  0.16995694  0.87437100  1
  O2-  O188  1  0.64200602  0.50328364  0.37931001  1
  O2-  O189  1  0.64081445  0.50631490  0.87136199  1
  O2-  O190  1  0.63704777  0.83815954  0.37604316  1
  O2-  O191  1  0.64068331  0.83912910  0.87291435  1
  O2-  O192  1  0.97293517  0.17606172  0.37638214  1
  O2-  O193  1  0.97430396  0.16699038  0.87562207  1
  O2-  O194  1  0.97327796  0.49342415  0.37452529  1
  O2-  O195  1  0.97831428  0.50213362  0.87561775  1
  O2-  O196  1  0.97594284  0.83917495  0.37468144  1
  O2-  O197  1  0.97085108  0.84382137  0.87708854  1
  O2-  O198  1  0.19358876  0.00710537  0.37384716  1
  O2-  O199  1  0.19247017  0.00684245  0.87478024  1
  O2-  O200  1  0.18951772  0.33661052  0.37523063  1
  O2-  O201  1  0.19244723  0.33436881  0.87390064  1
  O2-  O202  1  0.19259837  0.67442010  0.37479214  1
  O2-  O203  1  0.19170879  0.67528883  0.87508327  1
  O2-  O204  1  0.52476383  0.00997345  0.37665191  1
  O2-  O205  1  0.52760438  0.00755103  0.87268651  1
  O2-  O206  1  0.52616969  0.33793613  0.37834612  1
  O2-  O207  1  0.52786665  0.33488361  0.87290488  1
  O2-  O208  1  0.52677082  0.66968981  0.37780431  1
  O2-  O209  1  0.52592900  0.67237292  0.87255784  1
  O2-  O210  1  0.85656295  0.00693547  0.37483115  1
  O2-  O211  1  0.85290484  0.01132135  0.87458432  1
  O2-  O212  1  0.85675679  0.33853229  0.37529512  1
  O2-  O213  1  0.85254407  0.34111756  0.87438320  1
  O2-  O214  1  0.85197703  0.67487348  0.37461018  1
  O2-  O215  1  0.85946807  0.67472092  0.87667587  1
  O2-  O216  1  0.24280771  0.09590556  0.02153744  1
  O2-  O217  1  0.23797128  0.09356517  0.52158633  1
  O2-  O218  1  0.24441208  0.42247455  0.01979830  1
  O2-  O219  1  0.24449114  0.42232849  0.51875087  1
  O2-  O220  1  0.23615173  0.76034545  0.02044395  1
  O2-  O221  1  0.23890531  0.76194170  0.52007877  1
  O2-  O222  1  0.56796970  0.09686754  0.02158107  1
  O2-  O223  1  0.57275766  0.09837466  0.52211243  1
  O2-  O224  1  0.57252059  0.42730508  0.01203864  1
  O2-  O225  1  0.57569552  0.42995251  0.52381610  1
  O2-  O226  1  0.57244878  0.76346941  0.01815025  1
  O2-  O227  1  0.57385234  0.76017045  0.52414357  1
  O2-  O228  1  0.90936507  0.08927626  0.02024818  1
  O2-  O229  1  0.90353537  0.09794083  0.52003853  1
  O2-  O230  1  0.90780795  0.42799398  0.01771625  1
  O2-  O231  1  0.90422572  0.42650102  0.52277407  1
  O2-  O232  1  0.90507110  0.75903197  0.02617278  1
  O2-  O233  1  0.90120599  0.76569384  0.51599876  1
  O2-  O234  1  0.26248121  0.25943781  0.22870433  1
  O2-  O235  1  0.26158809  0.25758317  0.72605081  1
  O2-  O236  1  0.26257098  0.59595831  0.23283179  1
  O2-  O237  1  0.26534608  0.59649953  0.73436609  1
  O2-  O238  1  0.26403619  0.92653388  0.22827471  1
  O2-  O239  1  0.26082362  0.92639091  0.72817870  1
  O2-  O240  1  0.59741322  0.26541843  0.23109115  1
  O2-  O241  1  0.59942228  0.26206800  0.73055046  1
  O2-  O242  1  0.59831374  0.59615318  0.23551958  1
  O2-  O243  1  0.59546961  0.59397321  0.72629197  1
  O2-  O244  1  0.59404418  0.93010516  0.23030788  1
  O2-  O245  1  0.59729155  0.92766498  0.72728714  1
  O2-  O246  1  0.92962939  0.26458472  0.23162054  1
  O2-  O247  1  0.92970026  0.26163373  0.72976480  1
  O2-  O248  1  0.92618420  0.59331954  0.22897639  1
  O2-  O249  1  0.92570106  0.59462510  0.73900066  1
  O2-  O250  1  0.92763650  0.92623478  0.22940245  1
  O2-  O251  1  0.92976927  0.93335351  0.73560306  1
  O2-  O252  1  0.09568509  0.23937749  0.26986190  1
  O2-  O253  1  0.09842631  0.23649775  0.76637510  1
  O2-  O254  1  0.09544988  0.57045030  0.27124514  1
  O2-  O255  1  0.09657594  0.57244027  0.77094798  1
  O2-  O256  1  0.09589138  0.90739248  0.27036162  1
  O2-  O257  1  0.09262557  0.90514019  0.77211982  1
  O2-  O258  1  0.42801096  0.24158943  0.27337543  1
  O2-  O259  1  0.42892361  0.23763612  0.76815390  1
  O2-  O260  1  0.42881128  0.57183080  0.27107808  1
  O2-  O261  1  0.42704583  0.56892093  0.77052229  1
  O2-  O262  1  0.42844158  0.90207530  0.27242617  1
  O2-  O263  1  0.42788963  0.90599153  0.77052090  1
  O2-  O264  1  0.76101277  0.24047903  0.27209133  1
  O2-  O265  1  0.76107871  0.23789380  0.77372645  1
  O2-  O266  1  0.76225420  0.57024328  0.27178938  1
  O2-  O267  1  0.76033403  0.57564687  0.77382973  1
  O2-  O268  1  0.75989771  0.90497824  0.27201667  1
  O2-  O269  1  0.76173076  0.90635395  0.77405991  1
  O2-  O270  1  0.06872070  0.07488792  0.47730274  1
  O2-  O271  1  0.07344053  0.07368987  0.98043127  1
  O2-  O272  1  0.06986861  0.40543827  0.48511542  1
  O2-  O273  1  0.07628457  0.40546030  0.98728628  1
  O2-  O274  1  0.07541419  0.74369089  0.48315376  1
  O2-  O275  1  0.06936056  0.73751065  0.97788697  1
  O2-  O276  1  0.40237452  0.07203089  0.47863688  1
  O2-  O277  1  0.40422236  0.07133057  0.97759658  1
  O2-  O278  1  0.40802939  0.40647839  0.48043313  1
  O2-  O279  1  0.40729100  0.40310331  0.97788842  1
  O2-  O280  1  0.40185189  0.73598444  0.47898829  1
  O2-  O281  1  0.40510861  0.73968513  0.97684600  1
  O2-  O282  1  0.73593456  0.07237374  0.47882325  1
  O2-  O283  1  0.73253876  0.07065192  0.98547598  1
  O2-  O284  1  0.73729185  0.40345075  0.48320765  1
  O2-  O285  1  0.74125433  0.40891093  0.97761242  1
  O2-  O286  1  0.73686173  0.73794755  0.48075557  1
  O2-  O287  1  0.73745402  0.73615848  0.98275981  1
  O2-  O288  1  0.09440530  0.23848988  0.48019205  1
  O2-  O289  1  0.09861992  0.23664172  0.98369877  1
  O2-  O290  1  0.09660769  0.57085742  0.47958849  1
  O2-  O291  1  0.09592745  0.57206819  0.97799722  1
  O2-  O292  1  0.09435942  0.90677820  0.47851653  1
  O2-  O293  1  0.09150489  0.90392495  0.97981284  1
  O2-  O294  1  0.42471177  0.23985387  0.47802923  1
  O2-  O295  1  0.43016706  0.23802178  0.97923002  1
  O2-  O296  1  0.43067535  0.56893164  0.48299758  1
  O2-  O297  1  0.42522196  0.57046067  0.97570783  1
  O2-  O298  1  0.42753812  0.90128455  0.47761144  1
  O2-  O299  1  0.42938061  0.90689270  0.97809403  1
  O2-  O300  1  0.76048984  0.24086072  0.47746766  1
  O2-  O301  1  0.76143690  0.23777161  0.97720736  1
  O2-  O302  1  0.76009966  0.57273842  0.47723471  1
  O2-  O303  1  0.76291994  0.57247952  0.97726203  1
  O2-  O304  1  0.75768463  0.90577333  0.47462173  1
  O2-  O305  1  0.76229687  0.90339738  0.97928779  1
  O2-  O306  1  0.07205072  0.07434350  0.27094557  1
  O2-  O307  1  0.07033098  0.07262669  0.77077234  1
  O2-  O308  1  0.07204791  0.40475398  0.26538971  1
  O2-  O309  1  0.07448928  0.40642434  0.76288883  1
  O2-  O310  1  0.07513475  0.73982225  0.26686047  1
  O2-  O311  1  0.07053695  0.74124607  0.77222450  1
  O2-  O312  1  0.40356631  0.07061674  0.27195024  1
  O2-  O313  1  0.40287540  0.07255306  0.77086909  1
  O2-  O314  1  0.40930360  0.40550274  0.26982860  1
  O2-  O315  1  0.40575352  0.40469068  0.77186187  1
  O2-  O316  1  0.40127204  0.73578041  0.27086443  1
  O2-  O317  1  0.40462233  0.74003136  0.77180077  1
  O2-  O318  1  0.73460620  0.07391115  0.27051570  1
  O2-  O319  1  0.73351357  0.06877370  0.76482079  1
  O2-  O320  1  0.74097790  0.40717120  0.26999208  1
  O2-  O321  1  0.73810633  0.40521299  0.76941231  1
  O2-  O322  1  0.73709837  0.73778288  0.26950526  1
  O2-  O323  1  0.73638395  0.73714243  0.76786988  1
  O2-  O324  1  0.23913593  0.09394460  0.22769254  1
  O2-  O325  1  0.23867494  0.09351050  0.72887177  1
  O2-  O326  1  0.24512456  0.42161142  0.23240637  1
  O2-  O327  1  0.24351833  0.42259094  0.72831760  1
  O2-  O328  1  0.23857816  0.76145727  0.22854463  1
  O2-  O329  1  0.23736012  0.76126177  0.73080654  1
  O2-  O330  1  0.56886246  0.09789065  0.23078066  1
  O2-  O331  1  0.57146781  0.09743001  0.72550614  1
  O2-  O332  1  0.57458493  0.42828863  0.23752409  1
  O2-  O333  1  0.57280079  0.42834119  0.72813814  1
  O2-  O334  1  0.57044299  0.75973271  0.22909250  1
  O2-  O335  1  0.57421334  0.76363465  0.72858758  1
  O2-  O336  1  0.90694414  0.09221990  0.23284920  1
  O2-  O337  1  0.90243472  0.09284314  0.72583700  1
  O2-  O338  1  0.90805035  0.42592342  0.22745133  1
  O2-  O339  1  0.90477386  0.42797354  0.73188340  1
  O2-  O340  1  0.90241484  0.75864163  0.22871968  1
  O2-  O341  1  0.90127675  0.76608594  0.73121754  1
  O2-  O342  1  0.26232290  0.25896149  0.02334276  1
  O2-  O343  1  0.26165665  0.25822085  0.52152905  1
  O2-  O344  1  0.26384373  0.59801870  0.01552874  1
  O2-  O345  1  0.26415367  0.59474283  0.51669963  1
  O2-  O346  1  0.26185646  0.92700883  0.02185988  1
  O2-  O347  1  0.26384301  0.92484419  0.52172957  1
  O2-  O348  1  0.59904684  0.26462668  0.01775491  1
  O2-  O349  1  0.59675967  0.26297297  0.52113312  1
  O2-  O350  1  0.59766191  0.59625440  0.01550122  1
  O2-  O351  1  0.59669818  0.59417419  0.52300525  1
  O2-  O352  1  0.59484054  0.92991065  0.01980594  1
  O2-  O353  1  0.59646760  0.92793564  0.52189932  1
  O2-  O354  1  0.92936745  0.26261495  0.01983732  1
  O2-  O355  1  0.93079010  0.26469874  0.51830723  1
  O2-  O356  1  0.92488808  0.59390598  0.02028625  1
  O2-  O357  1  0.92660278  0.59419494  0.51443741  1
  O2-  O358  1  0.92788573  0.92652690  0.02294158  1
  O2-  O359  1  0.92977945  0.93134624  0.51403113  1
