# generated using pymatgen
data_Sr7Ca15Pr50Mn72O216
_symmetry_space_group_name_H-M   'P 1'
_cell_length_a   16.55985370
_cell_length_b   16.60494371
_cell_length_c   15.59301378
_cell_angle_alpha   90.00118735
_cell_angle_beta   89.99669672
_cell_angle_gamma   89.99278507
_symmetry_Int_Tables_number   1
_chemical_formula_structural   Sr7Ca15Pr50Mn72O216
_chemical_formula_sum   'Sr7 Ca15 Pr50 Mn72 O216'
_cell_volume   4287.69575840
_cell_formula_units_Z   1
loop_
 _symmetry_equiv_pos_site_id
 _symmetry_equiv_pos_as_xyz
  1  'x, y, z'
loop_
 _atom_type_symbol
 _atom_type_oxidation_number
  Sr2+  2.0
  Ca2+  2.0
  Pr3+  3.0
  Mn3.30+  3.3
  O2-  -2.0
loop_
 _atom_site_type_symbol
 _atom_site_label
 _atom_site_symmetry_multiplicity
 _atom_site_fract_x
 _atom_site_fract_y
 _atom_site_fract_z
 _atom_site_occupancy
  Sr2+  Sr0  1  0.16795269  0.84810512  0.12500884  1
  Sr2+  Sr1  1  0.49800193  0.15775864  0.37411403  1
  Sr2+  Sr2  1  0.33509385  0.99363471  0.37223433  1
  Sr2+  Sr3  1  0.33456705  0.32406178  0.37213611  1
  Sr2+  Sr4  1  0.49485015  0.48807281  0.87591058  1
  Sr2+  Sr5  1  0.66921677  0.32177861  0.37236423  1
  Sr2+  Sr6  1  0.83521457  0.50925404  0.62497870  1
  Ca2+  Ca7  1  0.82723412  0.14958729  0.37345341  1
  Ca2+  Ca8  1  -0.00295116  0.01569157  0.12836623  1
  Ca2+  Ca9  1  0.83250437  0.82208458  0.37488223  1
  Ca2+  Ca10  1  0.66985450  0.98704395  0.37426036  1
  Ca2+  Ca11  1  0.33656105  0.65126476  0.87691572  1
  Ca2+  Ca12  1  0.32983104  0.01406306  0.12778234  1
  Ca2+  Ca13  1  0.82786683  0.48461679  0.87500353  1
  Ca2+  Ca14  1  0.16566677  0.48501338  0.37362133  1
  Ca2+  Ca15  1  0.33816738  0.32079733  0.87744535  1
  Ca2+  Ca16  1  1.00428368  0.98549805  0.37288587  1
  Ca2+  Ca17  1  0.16980780  0.84910626  0.62365324  1
  Ca2+  Ca18  1  0.16548511  0.15337268  0.87689677  1
  Ca2+  Ca19  1  0.66208622  0.34656644  0.12670815  1
  Ca2+  Ca20  1  0.33495530  0.65501213  0.37296469  1
  Ca2+  Ca21  1  0.32979615  0.34689128  0.12598923  1
  Pr3+  Pr22  1  0.50180736  0.17976916  0.62254189  1
  Pr3+  Pr23  1  0.32808663  0.68106240  0.62568465  1
  Pr3+  Pr24  1  0.16429379  0.81956545  0.87484538  1
  Pr3+  Pr25  1  0.49929350  0.50956564  0.12597294  1
  Pr3+  Pr26  1  0.83426810  0.51090379  0.12549402  1
  Pr3+  Pr27  1  0.50263185  0.51262589  0.62407159  1
  Pr3+  Pr28  1  0.50339702  0.84767946  0.62464515  1
  Pr3+  Pr29  1  0.66910400  0.65622991  0.37467008  1
  Pr3+  Pr30  1  0.83069911  0.15351601  0.87617261  1
  Pr3+  Pr31  1  0.49620501  0.15881566  0.87608527  1
  Pr3+  Pr32  1  0.67019245  0.64974120  0.87559135  1
  Pr3+  Pr33  1  0.50041784  0.84776411  0.12557444  1
  Pr3+  Pr34  1  0.66202208  0.67964187  0.12634009  1
  Pr3+  Pr35  1  1.00419879  0.32187261  0.37464671  1
  Pr3+  Pr36  1  -0.00141250  0.01214529  0.62241414  1
  Pr3+  Pr37  1  0.83966921  0.84864966  0.12831572  1
  Pr3+  Pr38  1  0.16815211  0.48744398  0.87588690  1
  Pr3+  Pr39  1  0.33070365  0.01285943  0.62317544  1
  Pr3+  Pr40  1  0.83695463  0.17946123  0.12701930  1
  Pr3+  Pr41  1  0.49883571  0.18041342  0.12788549  1
  Pr3+  Pr42  1  0.33246288  0.98975983  0.87719060  1
  Pr3+  Pr43  1  0.16897886  0.17876669  0.62504945  1
  Pr3+  Pr44  1  0.66442484  0.01278202  0.12730517  1
  Pr3+  Pr45  1  -0.00231660  0.67866964  0.62433013  1
  Pr3+  Pr46  1  0.66456940  0.34631366  0.62336608  1
  Pr3+  Pr47  1  0.49422803  0.82504586  0.37438135  1
  Pr3+  Pr48  1  0.83206295  0.82051608  0.87570153  1
  Pr3+  Pr49  1  0.83612426  0.84540508  0.62211133  1
  Pr3+  Pr50  1  0.49456190  0.81760599  0.87574392  1
  Pr3+  Pr51  1  0.32891844  0.67894630  0.12374073  1
  Pr3+  Pr52  1  0.17071894  0.17637555  0.12468000  1
  Pr3+  Pr53  1  0.66437225  0.01369682  0.62232791  1
  Pr3+  Pr54  1  0.16978318  0.51110773  0.62263741  1
  Pr3+  Pr55  1  0.16535764  0.82417956  0.37469288  1
  Pr3+  Pr56  1  0.17246982  0.51044682  0.12734761  1
  Pr3+  Pr57  1  0.33277416  0.34611414  0.62315665  1
  Pr3+  Pr58  1  0.66384569  0.67905887  0.62376763  1
  Pr3+  Pr59  1  1.00125090  0.65209149  0.87507133  1
  Pr3+  Pr60  1  0.66968689  0.98719219  0.87614487  1
  Pr3+  Pr61  1  -0.00088182  0.67921692  0.12615669  1
  Pr3+  Pr62  1  0.66844814  0.32311681  0.87735157  1
  Pr3+  Pr63  1  0.83035800  0.48707358  0.37527764  1
  Pr3+  Pr64  1  1.00360562  0.65282448  0.37472772  1
  Pr3+  Pr65  1  -0.00249593  0.34651971  0.62541606  1
  Pr3+  Pr66  1  1.00592900  0.98815521  0.87667992  1
  Pr3+  Pr67  1  0.83626991  0.17928753  0.62310171  1
  Pr3+  Pr68  1  0.16378414  0.15196917  0.37449086  1
  Pr3+  Pr69  1  1.00377826  0.31920084  0.87541985  1
  Pr3+  Pr70  1  -0.00043545  0.34475211  0.12485904  1
  Pr3+  Pr71  1  0.49651044  0.48756002  0.37386904  1
  Mn3.30+  Mn72  1  0.16713024  0.00210486  0.00209158  1
  Mn3.30+  Mn73  1  0.16521600  -0.00173251  0.49882902  1
  Mn3.30+  Mn74  1  0.17053224  0.33129980  -0.00152738  1
  Mn3.30+  Mn75  1  0.16676217  0.33335682  0.49881373  1
  Mn3.30+  Mn76  1  0.16776934  0.66602717  -0.00125090  1
  Mn3.30+  Mn77  1  0.16791854  0.66728634  0.49844733  1
  Mn3.30+  Mn78  1  0.49849011  0.00157439  0.00108837  1
  Mn3.30+  Mn79  1  0.50070144  0.00116252  0.49730779  1
  Mn3.30+  Mn80  1  0.49815093  0.33432024  0.00257474  1
  Mn3.30+  Mn81  1  0.49974279  0.33322331  0.49741547  1
  Mn3.30+  Mn82  1  0.49772649  0.66541758  0.00025267  1
  Mn3.30+  Mn83  1  0.49694200  0.66875389  0.49881190  1
  Mn3.30+  Mn84  1  0.83572877  0.00043557  0.00194497  1
  Mn3.30+  Mn85  1  0.83339086  -0.00094973  0.49504616  1
  Mn3.30+  Mn86  1  0.83269651  0.33382269  0.00140264  1
  Mn3.30+  Mn87  1  0.83403086  0.33141912  0.49784584  1
  Mn3.30+  Mn88  1  0.83241049  0.66548736  0.00081878  1
  Mn3.30+  Mn89  1  0.83382427  0.66769994  0.49901907  1
  Mn3.30+  Mn90  1  -0.00167271  0.16419593  0.25192910  1
  Mn3.30+  Mn91  1  0.00169254  0.16580346  0.75067450  1
  Mn3.30+  Mn92  1  0.00224753  0.49939037  0.24952134  1
  Mn3.30+  Mn93  1  -0.00107035  0.49889613  0.75246014  1
  Mn3.30+  Mn94  1  -0.00055003  0.83600249  0.25176799  1
  Mn3.30+  Mn95  1  0.00168908  0.83323064  0.74821076  1
  Mn3.30+  Mn96  1  0.33335593  0.16707512  0.24887453  1
  Mn3.30+  Mn97  1  0.33199397  0.16859394  0.75206581  1
  Mn3.30+  Mn98  1  0.33241858  0.50044531  0.25212344  1
  Mn3.30+  Mn99  1  0.33424220  0.49996058  0.75039908  1
  Mn3.30+  Mn100  1  0.33121867  0.83547500  0.24953920  1
  Mn3.30+  Mn101  1  0.33155206  0.83330603  0.75037948  1
  Mn3.30+  Mn102  1  0.66866382  0.16641211  0.25153850  1
  Mn3.30+  Mn103  1  0.66658564  0.16739542  0.75016450  1
  Mn3.30+  Mn104  1  0.66630963  0.49915661  0.24872602  1
  Mn3.30+  Mn105  1  0.66717684  0.49923163  0.75082396  1
  Mn3.30+  Mn106  1  0.66834867  0.83558730  0.25158067  1
  Mn3.30+  Mn107  1  0.66638310  0.83270325  0.75059641  1
  Mn3.30+  Mn108  1  0.16510700  0.00007651  0.24872187  1
  Mn3.30+  Mn109  1  0.16710452  0.00039539  0.74962048  1
  Mn3.30+  Mn110  1  0.16839021  0.33235397  0.25000670  1
  Mn3.30+  Mn111  1  0.16921521  0.33185268  0.75259016  1
  Mn3.30+  Mn112  1  0.16837263  0.66655912  0.25253846  1
  Mn3.30+  Mn113  1  0.16730012  0.66649253  0.74990532  1
  Mn3.30+  Mn114  1  0.49947019  0.00172989  0.25030819  1
  Mn3.30+  Mn115  1  0.49987791  0.00116285  0.75161877  1
  Mn3.30+  Mn116  1  0.49936767  0.33319689  0.24850404  1
  Mn3.30+  Mn117  1  0.49858429  0.33420721  0.75120616  1
  Mn3.30+  Mn118  1  0.49732090  0.66856296  0.25080241  1
  Mn3.30+  Mn119  1  0.49721750  0.66590063  0.75062209  1
  Mn3.30+  Mn120  1  0.83483142  0.00000055  0.25388538  1
  Mn3.30+  Mn121  1  0.83414022  -0.00068880  0.74948145  1
  Mn3.30+  Mn122  1  0.83247795  0.33176926  0.24920384  1
  Mn3.30+  Mn123  1  0.83412783  0.33369289  0.75167547  1
  Mn3.30+  Mn124  1  0.83308246  0.66825139  0.25112567  1
  Mn3.30+  Mn125  1  0.83328749  0.66473407  0.74970033  1
  Mn3.30+  Mn126  1  0.00208693  0.16526218  0.00094245  1
  Mn3.30+  Mn127  1  -0.00248685  0.16483788  0.49648587  1
  Mn3.30+  Mn128  1  -0.00067064  0.49889843  -0.00111125  1
  Mn3.30+  Mn129  1  0.00165901  0.49981421  0.49922439  1
  Mn3.30+  Mn130  1  0.00039713  0.83471381  0.00200326  1
  Mn3.30+  Mn131  1  0.00078722  0.83392634  0.49841066  1
  Mn3.30+  Mn132  1  0.33169170  0.16844295  -0.00054669  1
  Mn3.30+  Mn133  1  0.33380944  0.16729844  0.49854080  1
  Mn3.30+  Mn134  1  0.33397854  0.49784803  -0.00016618  1
  Mn3.30+  Mn135  1  0.33281638  0.50230099  0.49701968  1
  Mn3.30+  Mn136  1  0.33153344  0.83441144  0.00039718  1
  Mn3.30+  Mn137  1  0.33176189  0.83409632  0.49987468  1
  Mn3.30+  Mn138  1  0.66576909  0.16853505  0.00293955  1
  Mn3.30+  Mn139  1  0.66937723  0.16552322  0.49553019  1
  Mn3.30+  Mn140  1  0.66630381  0.49788045  0.00058595  1
  Mn3.30+  Mn141  1  0.66707900  0.50053746  0.49942240  1
  Mn3.30+  Mn142  1  0.66677542  0.83305286  0.00106316  1
  Mn3.30+  Mn143  1  0.66779835  0.83513764  0.49696830  1
  O2-  O144  1  0.02481529  0.16360335  0.12509267  1
  O2-  O145  1  0.02430818  0.16136668  0.62438672  1
  O2-  O146  1  0.02778121  0.49533023  0.12294686  1
  O2-  O147  1  0.02547658  0.49571473  0.62540824  1
  O2-  O148  1  0.01883586  0.82473376  0.12596698  1
  O2-  O149  1  0.02743527  0.82564346  0.62314226  1
  O2-  O150  1  0.35420493  0.15714350  0.12321924  1
  O2-  O151  1  0.35680593  0.16083836  0.62690709  1
  O2-  O152  1  0.35456554  0.49507160  0.12598682  1
  O2-  O153  1  0.35848380  0.49484198  0.62373840  1
  O2-  O154  1  0.35781781  0.82495764  0.12404494  1
  O2-  O155  1  0.36077065  0.82733305  0.62746679  1
  O2-  O156  1  0.69441656  0.15825969  0.12577632  1
  O2-  O157  1  0.69266208  0.16111947  0.62241217  1
  O2-  O158  1  0.69059812  0.49711645  0.12494976  1
  O2-  O159  1  0.68519596  0.49633043  0.62457091  1
  O2-  O160  1  0.69391728  0.82782293  0.12657022  1
  O2-  O161  1  0.69125303  0.82706930  0.62629417  1
  O2-  O162  1  0.14193240  0.32794751  0.12357468  1
  O2-  O163  1  0.14089469  0.32825054  0.62698650  1
  O2-  O164  1  0.14213722  0.65838585  0.12630324  1
  O2-  O165  1  0.14002333  0.65768423  0.62478374  1
  O2-  O166  1  0.13980216  1.00564970  0.12573373  1
  O2-  O167  1  0.14260407  0.99669099  0.62454815  1
  O2-  O168  1  0.47208023  0.33077152  0.12489243  1
  O2-  O169  1  0.47804850  0.33011736  0.62357108  1
  O2-  O170  1  0.47375357  0.66128088  0.12623987  1
  O2-  O171  1  0.47324353  0.66250709  0.62300319  1
  O2-  O172  1  0.47383646  0.99452015  0.12210462  1
  O2-  O173  1  0.47627080  0.99541928  0.62743116  1
  O2-  O174  1  0.80571920  0.32674589  0.12468389  1
  O2-  O175  1  0.80957886  0.32669431  0.62497740  1
  O2-  O176  1  0.80655865  0.66003674  0.12490244  1
  O2-  O177  1  0.80849062  0.66586700  0.62376069  1
  O2-  O178  1  0.80752988  0.99484735  0.12568947  1
  O2-  O179  1  0.80747526  0.99288877  0.62269339  1
  O2-  O180  1  0.30933296  0.16912546  0.37426481  1
  O2-  O181  1  0.30788495  0.17656665  0.87430195  1
  O2-  O182  1  0.30680848  0.50936389  0.37586034  1
  O2-  O183  1  0.31034828  0.50853651  0.87394839  1
  O2-  O184  1  0.30950590  0.84037781  0.37402041  1
  O2-  O185  1  0.30696683  0.84265083  0.87489422  1
  O2-  O186  1  0.64663284  0.16959590  0.37367295  1
  O2-  O187  1  0.64120858  0.17376295  0.87847607  1
  O2-  O188  1  0.64220171  0.50688220  0.37387243  1
  O2-  O189  1  0.64477087  0.50194088  0.87668067  1
  O2-  O190  1  0.63878266  0.83921768  0.37278676  1
  O2-  O191  1  0.64081969  0.83920838  0.87470196  1
  O2-  O192  1  0.96952470  0.17772965  0.37509632  1
  O2-  O193  1  0.97395140  0.17096609  0.87557847  1
  O2-  O194  1  0.97452133  0.50329511  0.37387215  1
  O2-  O195  1  0.97047545  0.50431328  0.87778444  1
  O2-  O196  1  0.97441331  0.83870091  0.37484382  1
  O2-  O197  1  0.97520516  0.83988767  0.87645296  1
  O2-  O198  1  0.18590139  0.00298721  0.37499492  1
  O2-  O199  1  0.18882954  0.00521823  0.87401270  1
  O2-  O200  1  0.18399210  0.33636941  0.37445924  1
  O2-  O201  1  0.19752081  0.34156453  0.87452389  1
  O2-  O202  1  0.19441248  0.67777698  0.37624663  1
  O2-  O203  1  0.19377846  0.67203920  0.87217688  1
  O2-  O204  1  0.52476158  -0.00267326  0.37417250  1
  O2-  O205  1  0.52670698  0.00817120  0.87638996  1
  O2-  O206  1  0.51959081  0.33909163  0.37378917  1
  O2-  O207  1  0.52450990  0.32965229  0.87784170  1
  O2-  O208  1  0.52562596  0.67533251  0.37489824  1
  O2-  O209  1  0.52620261  0.67099544  0.87664508  1
  O2-  O210  1  0.86361230  0.00807530  0.37522390  1
  O2-  O211  1  0.86044462  0.00499300  0.87662764  1
  O2-  O212  1  0.86031538  0.34148963  0.37284891  1
  O2-  O213  1  0.85894868  0.33779320  0.87762769  1
  O2-  O214  1  0.85830065  0.67274241  0.37547977  1
  O2-  O215  1  0.85804770  0.67481749  0.87653750  1
  O2-  O216  1  0.23671874  0.09776939  0.01436985  1
  O2-  O217  1  0.23744346  0.09393031  0.51880206  1
  O2-  O218  1  0.23521020  0.43047480  0.01734792  1
  O2-  O219  1  0.24208517  0.42736825  0.52108069  1
  O2-  O220  1  0.23947636  0.76038355  0.01702256  1
  O2-  O221  1  0.23666843  0.76224798  0.52372558  1
  O2-  O222  1  0.57195670  0.09515861  0.02239170  1
  O2-  O223  1  0.57401868  0.09300539  0.52208341  1
  O2-  O224  1  0.56979174  0.42623662  0.02160890  1
  O2-  O225  1  0.57327114  0.42731667  0.51802481  1
  O2-  O226  1  0.56991276  0.76000795  0.02164618  1
  O2-  O227  1  0.56986246  0.76139012  0.52074999  1
  O2-  O228  1  0.90207071  0.09589779  0.01841378  1
  O2-  O229  1  0.90488402  0.09259401  0.52393428  1
  O2-  O230  1  0.90646081  0.42525353  0.02530118  1
  O2-  O231  1  0.90980327  0.42539257  0.51707073  1
  O2-  O232  1  0.90234059  0.76092712  0.01968475  1
  O2-  O233  1  0.90801192  0.76027661  0.52169826  1
  O2-  O234  1  0.25875746  0.26016448  0.22696362  1
  O2-  O235  1  0.26106358  0.26077115  0.72424270  1
  O2-  O236  1  0.26166245  0.59399146  0.22777030  1
  O2-  O237  1  0.25934884  0.59246534  0.72656905  1
  O2-  O238  1  0.26196330  0.92975383  0.22922933  1
  O2-  O239  1  0.26495435  0.93040626  0.73209824  1
  O2-  O240  1  0.59445721  0.25939185  0.22671538  1
  O2-  O241  1  0.59595241  0.26162366  0.72908564  1
  O2-  O242  1  0.59267205  0.59556230  0.23029813  1
  O2-  O243  1  0.59466413  0.59501166  0.73028354  1
  O2-  O244  1  0.59453547  0.92623947  0.22605979  1
  O2-  O245  1  0.59680824  0.92788490  0.73039488  1
  O2-  O246  1  0.92943942  0.26230030  0.22749782  1
  O2-  O247  1  0.92920869  0.25929857  0.73108428  1
  O2-  O248  1  0.92920072  0.59333746  0.22963540  1
  O2-  O249  1  0.92985079  0.59883192  0.73322203  1
  O2-  O250  1  0.92796264  0.92908496  0.22713068  1
  O2-  O251  1  0.93006597  0.92659308  0.72789989  1
  O2-  O252  1  0.09314525  0.23716197  0.26994608  1
  O2-  O253  1  0.09752775  0.23827905  0.77235625  1
  O2-  O254  1  0.09680573  0.57210072  0.27322784  1
  O2-  O255  1  0.09277259  0.57023117  0.77277367  1
  O2-  O256  1  0.09498133  0.90490244  0.26910352  1
  O2-  O257  1  0.09416175  0.90481176  0.77118014  1
  O2-  O258  1  0.42754139  0.23978161  0.26159615  1
  O2-  O259  1  0.43038306  0.23664790  0.76499030  1
  O2-  O260  1  0.42916012  0.57321794  0.26898080  1
  O2-  O261  1  0.42780373  0.57160033  0.76274883  1
  O2-  O262  1  0.43087758  0.90295818  0.26383443  1
  O2-  O263  1  0.42878682  0.90503058  0.77173324  1
  O2-  O264  1  0.76680170  0.23414521  0.26719932  1
  O2-  O265  1  0.76171681  0.23817606  0.77089342  1
  O2-  O266  1  0.76199217  0.57398152  0.27042639  1
  O2-  O267  1  0.76117469  0.57233667  0.77265802  1
  O2-  O268  1  0.76654681  0.90291310  0.26960303  1
  O2-  O269  1  0.76358875  0.90598051  0.77141383  1
  O2-  O270  1  0.06756858  0.07225690  0.47915458  1
  O2-  O271  1  0.07161435  0.07201096  0.97955955  1
  O2-  O272  1  0.07176251  0.40405037  0.48407447  1
  O2-  O273  1  0.07391885  0.40349302  0.97772748  1
  O2-  O274  1  0.07158457  0.73771450  0.47740021  1
  O2-  O275  1  0.07164163  0.73790873  0.97972879  1
  O2-  O276  1  0.40757835  0.07194215  0.48804465  1
  O2-  O277  1  0.40536150  0.07601268  0.97528237  1
  O2-  O278  1  0.40749551  0.41075989  0.48184852  1
  O2-  O279  1  0.40194689  0.40344477  0.98147898  1
  O2-  O280  1  0.40235261  0.73865098  0.47857701  1
  O2-  O281  1  0.40567876  0.73754673  0.97824684  1
  O2-  O282  1  0.73669305  0.06633413  0.48092575  1
  O2-  O283  1  0.73871774  0.07173954  0.97918088  1
  O2-  O284  1  0.74413656  0.40573587  0.48296604  1
  O2-  O285  1  0.73966038  0.40444894  0.98081628  1
  O2-  O286  1  0.73465769  0.73923223  0.48173986  1
  O2-  O287  1  0.73738549  0.73708855  0.97965678  1
  O2-  O288  1  0.09181580  0.23608059  0.48010208  1
  O2-  O289  1  0.09723396  0.23980231  0.97747201  1
  O2-  O290  1  0.09694832  0.57096980  0.47684422  1
  O2-  O291  1  0.09345230  0.57266170  0.97638789  1
  O2-  O292  1  0.09412772  0.90380964  0.48100119  1
  O2-  O293  1  0.09637155  0.90677623  0.97839828  1
  O2-  O294  1  0.42697301  0.24103906  0.48862657  1
  O2-  O295  1  0.43060644  0.23631957  0.98520244  1
  O2-  O296  1  0.43007339  0.57242716  0.48089450  1
  O2-  O297  1  0.42684049  0.57181346  0.98772312  1
  O2-  O298  1  0.43128067  0.90327535  0.48650807  1
  O2-  O299  1  0.42875334  0.90474876  0.97843028  1
  O2-  O300  1  0.76683595  0.23356265  0.48274816  1
  O2-  O301  1  0.76231537  0.23891509  0.97864939  1
  O2-  O302  1  0.75950680  0.57482083  0.47749312  1
  O2-  O303  1  0.76299402  0.57187891  0.97970023  1
  O2-  O304  1  0.76662683  0.90291239  0.48000565  1
  O2-  O305  1  0.76426618  0.90649705  0.97964790  1
  O2-  O306  1  0.06983263  0.07376193  0.27426109  1
  O2-  O307  1  0.06877245  0.07043680  0.76660578  1
  O2-  O308  1  0.07039169  0.40274057  0.26493889  1
  O2-  O309  1  0.07501833  0.40367489  0.77265637  1
  O2-  O310  1  0.07237553  0.73847895  0.27070177  1
  O2-  O311  1  0.07055863  0.73744401  0.77199785  1
  O2-  O312  1  0.40889753  0.07437128  0.26278042  1
  O2-  O313  1  0.40371081  0.07432759  0.77209579  1
  O2-  O314  1  0.40828628  0.41298855  0.26895113  1
  O2-  O315  1  0.40127172  0.40157850  0.76616058  1
  O2-  O316  1  0.40473241  0.73957842  0.27079392  1
  O2-  O317  1  0.40184768  0.73828164  0.77363883  1
  O2-  O318  1  0.73746547  0.06615581  0.26875035  1
  O2-  O319  1  0.73748269  0.07246225  0.77122173  1
  O2-  O320  1  0.74487839  0.40925296  0.26828027  1
  O2-  O321  1  0.73729442  0.40285215  0.76707113  1
  O2-  O322  1  0.73435387  0.73837094  0.26822028  1
  O2-  O323  1  0.73768950  0.73784744  0.77130033  1
  O2-  O324  1  0.23548252  0.09655967  0.23548068  1
  O2-  O325  1  0.23985575  0.09501189  0.72875372  1
  O2-  O326  1  0.23809736  0.42779984  0.23332593  1
  O2-  O327  1  0.23859571  0.42861830  0.72814671  1
  O2-  O328  1  0.24028159  0.75946001  0.23043873  1
  O2-  O329  1  0.23695337  0.76485692  0.72732778  1
  O2-  O330  1  0.57430575  0.09290879  0.22651344  1
  O2-  O331  1  0.57261443  0.09590477  0.72963678  1
  O2-  O332  1  0.57139540  0.42816204  0.23177378  1
  O2-  O333  1  0.57189385  0.42612859  0.72952131  1
  O2-  O334  1  0.57076263  0.76140326  0.22807297  1
  O2-  O335  1  0.56961306  0.76012917  0.73004722  1
  O2-  O336  1  0.90394615  0.09515392  0.22847985  1
  O2-  O337  1  0.90318540  0.09283368  0.72931771  1
  O2-  O338  1  0.90612087  0.42706105  0.22735939  1
  O2-  O339  1  0.91055222  0.42378580  0.73117598  1
  O2-  O340  1  0.90565566  0.75920485  0.22947503  1
  O2-  O341  1  0.90512751  0.76276180  0.73082238  1
  O2-  O342  1  0.26231616  0.26187241  0.02523701  1
  O2-  O343  1  0.25730726  0.25954089  0.52236320  1
  O2-  O344  1  0.25947204  0.59206770  0.02058799  1
  O2-  O345  1  0.26075567  0.59503828  0.52380132  1
  O2-  O346  1  0.26360273  0.93495754  0.01755516  1
  O2-  O347  1  0.26298480  0.92634269  0.52133831  1
  O2-  O348  1  0.59521613  0.26222444  0.02436505  1
  O2-  O349  1  0.59500376  0.25925858  0.52078654  1
  O2-  O350  1  0.59380741  0.59469912  0.02087334  1
  O2-  O351  1  0.59174218  0.59731288  0.51927452  1
  O2-  O352  1  0.59564527  0.92815972  0.01970191  1
  O2-  O353  1  0.59526260  0.92704658  0.52239481  1
  O2-  O354  1  0.92830738  0.26106961  0.01999592  1
  O2-  O355  1  0.92917589  0.26122559  0.52232230  1
  O2-  O356  1  0.92709795  0.59589538  0.02296824  1
  O2-  O357  1  0.93250662  0.59546933  0.51575077  1
  O2-  O358  1  0.92919197  0.93022542  0.02231898  1
  O2-  O359  1  0.92782114  0.92571242  0.52374300  1
