# generated using pymatgen
data_Sr7Ca15Pr50Mn72O216
_symmetry_space_group_name_H-M   'P 1'
_cell_length_a   16.56071575
_cell_length_b   16.60640831
_cell_length_c   15.59148122
_cell_angle_alpha   90.00345118
_cell_angle_beta   89.99807874
_cell_angle_gamma   89.99850673
_symmetry_Int_Tables_number   1
_chemical_formula_structural   Sr7Ca15Pr50Mn72O216
_chemical_formula_sum   'Sr7 Ca15 Pr50 Mn72 O216'
_cell_volume   4287.87572411
_cell_formula_units_Z   1
loop_
 _symmetry_equiv_pos_site_id
 _symmetry_equiv_pos_as_xyz
  1  'x, y, z'
loop_
 _atom_type_symbol
 _atom_type_oxidation_number
  Sr2+  2.0
  Ca2+  2.0
  Pr3+  3.0
  Mn3.30+  3.3
  O2-  -2.0
loop_
 _atom_site_type_symbol
 _atom_site_label
 _atom_site_symmetry_multiplicity
 _atom_site_fract_x
 _atom_site_fract_y
 _atom_site_fract_z
 _atom_site_occupancy
  Sr2+  Sr0  1  -0.00389362  0.67866906  0.12672311  1
  Sr2+  Sr1  1  0.33256215  0.65586108  0.87531050  1
  Sr2+  Sr2  1  1.00455150  0.32190279  0.87529998  1
  Sr2+  Sr3  1  0.83116272  0.15528244  0.87669644  1
  Sr2+  Sr4  1  0.83538719  0.17563307  0.12475338  1
  Sr2+  Sr5  1  0.66860419  0.32540785  0.37376837  1
  Sr2+  Sr6  1  0.16617877  0.50850857  0.62674449  1
  Ca2+  Ca7  1  0.83502052  0.84645276  0.12524859  1
  Ca2+  Ca8  1  0.67206617  0.98480329  0.87711271  1
  Ca2+  Ca9  1  0.32876683  0.34847535  0.12491024  1
  Ca2+  Ca10  1  0.16073637  0.15262871  0.87415617  1
  Ca2+  Ca11  1  0.66357025  0.68445849  0.12738646  1
  Ca2+  Ca12  1  0.16786882  0.84394155  0.62422163  1
  Ca2+  Ca13  1  1.00101186  0.32131667  0.37481706  1
  Ca2+  Ca14  1  0.67346415  0.64938890  0.37320883  1
  Ca2+  Ca15  1  0.83272948  0.48661441  0.37345930  1
  Ca2+  Ca16  1  1.00205233  0.65223445  0.37463193  1
  Ca2+  Ca17  1  0.50366046  0.18246559  0.62431272  1
  Ca2+  Ca18  1  0.16303177  0.48601382  0.87581754  1
  Ca2+  Ca19  1  0.33745332  0.98416121  0.37479803  1
  Ca2+  Ca20  1  0.50351598  0.84720930  0.12462855  1
  Ca2+  Ca21  1  -0.00191117  0.68034304  0.62348506  1
  Pr3+  Pr22  1  0.49605192  0.48921381  0.87497300  1
  Pr3+  Pr23  1  -0.00480604  0.01141351  0.12545907  1
  Pr3+  Pr24  1  -0.00206973  0.34729026  0.62445366  1
  Pr3+  Pr25  1  0.83107950  0.15756131  0.37357747  1
  Pr3+  Pr26  1  1.00100840  0.98756280  0.37497403  1
  Pr3+  Pr27  1  0.33144579  0.01111318  0.12565011  1
  Pr3+  Pr28  1  0.50024314  0.48699021  0.37477870  1
  Pr3+  Pr29  1  0.33830953  0.32103642  0.37494121  1
  Pr3+  Pr30  1  0.50213401  0.17991121  0.12430234  1
  Pr3+  Pr31  1  0.33010170  0.01107539  0.62443492  1
  Pr3+  Pr32  1  0.17065776  0.18126157  0.12331783  1
  Pr3+  Pr33  1  0.50304189  0.51319771  0.62405203  1
  Pr3+  Pr34  1  0.66836648  0.34505398  0.12546173  1
  Pr3+  Pr35  1  0.33514403  0.65251753  0.37437556  1
  Pr3+  Pr36  1  0.66996519  0.65649295  0.87656282  1
  Pr3+  Pr37  1  0.84040452  0.51547142  0.62294491  1
  Pr3+  Pr38  1  0.16901779  0.17940503  0.62711535  1
  Pr3+  Pr39  1  0.66531495  0.67951538  0.62229840  1
  Pr3+  Pr40  1  0.32684410  0.68020424  0.62475302  1
  Pr3+  Pr41  1  0.50160125  0.84543043  0.62539668  1
  Pr3+  Pr42  1  0.16526568  0.15390496  0.37610735  1
  Pr3+  Pr43  1  0.49803573  0.15388592  0.87397362  1
  Pr3+  Pr44  1  0.33184488  0.32402011  0.87501489  1
  Pr3+  Pr45  1  0.67166050  0.32123716  0.87579010  1
  Pr3+  Pr46  1  -0.00426604  0.34489651  0.12575415  1
  Pr3+  Pr47  1  0.83638824  0.18058252  0.62519228  1
  Pr3+  Pr48  1  0.83623115  0.84531835  0.62406665  1
  Pr3+  Pr49  1  0.33176261  0.34620480  0.62506721  1
  Pr3+  Pr50  1  0.66538965  0.01029701  0.12358613  1
  Pr3+  Pr51  1  -0.00074927  0.01158334  0.62444023  1
  Pr3+  Pr52  1  0.16183551  0.82097888  0.87384636  1
  Pr3+  Pr53  1  1.00482242  0.65310817  0.87580400  1
  Pr3+  Pr54  1  0.83075744  0.82364941  0.87777737  1
  Pr3+  Pr55  1  0.49735664  0.82094567  0.37283790  1
  Pr3+  Pr56  1  0.16829536  0.51078589  0.12373915  1
  Pr3+  Pr57  1  0.50441975  0.51403947  0.12583226  1
  Pr3+  Pr58  1  0.33058665  0.67965669  0.12508302  1
  Pr3+  Pr59  1  0.82885317  0.81738329  0.37257526  1
  Pr3+  Pr60  1  0.16732525  0.84492007  0.12535462  1
  Pr3+  Pr61  1  0.16165724  0.48547612  0.37521987  1
  Pr3+  Pr62  1  0.66051802  0.01573715  0.62621121  1
  Pr3+  Pr63  1  0.49534050  0.15195280  0.37555271  1
  Pr3+  Pr64  1  0.66887381  0.98840224  0.37378171  1
  Pr3+  Pr65  1  1.00137133  0.99066863  0.87514004  1
  Pr3+  Pr66  1  0.16240518  0.81835280  0.37593635  1
  Pr3+  Pr67  1  0.33262691  0.98813167  0.87505696  1
  Pr3+  Pr68  1  0.49807691  0.82098456  0.87707075  1
  Pr3+  Pr69  1  0.83305996  0.48815294  0.87633477  1
  Pr3+  Pr70  1  0.83646948  0.51223644  0.12751547  1
  Pr3+  Pr71  1  0.66546093  0.34666924  0.62423123  1
  Mn3.30+  Mn72  1  0.16576902  0.00077665  0.00032012  1
  Mn3.30+  Mn73  1  0.16853915  -0.00269531  0.49885528  1
  Mn3.30+  Mn74  1  0.16703543  0.33331114  -0.00008919  1
  Mn3.30+  Mn75  1  0.16628535  0.33276616  0.49912051  1
  Mn3.30+  Mn76  1  0.16598132  0.66592922  -0.00004278  1
  Mn3.30+  Mn77  1  0.16292159  0.66573853  0.50172657  1
  Mn3.30+  Mn78  1  0.50118773  -0.00090546  -0.00144131  1
  Mn3.30+  Mn79  1  0.49817185  0.00044856  0.50042239  1
  Mn3.30+  Mn80  1  0.49860791  0.33438729  0.00093105  1
  Mn3.30+  Mn81  1  0.50138236  0.33202033  0.50039345  1
  Mn3.30+  Mn82  1  0.50144134  0.66831603  0.00265900  1
  Mn3.30+  Mn83  1  0.50130512  0.66681413  0.49736366  1
  Mn3.30+  Mn84  1  0.83210810  -0.00083510  -0.00037041  1
  Mn3.30+  Mn85  1  0.83212392  0.00036497  0.50054150  1
  Mn3.30+  Mn86  1  0.83463835  0.33205223  0.00029317  1
  Mn3.30+  Mn87  1  0.83402291  0.33540736  0.49733822  1
  Mn3.30+  Mn88  1  0.83283206  0.66867843  0.00359381  1
  Mn3.30+  Mn89  1  0.83524598  0.66540155  0.49619914  1
  Mn3.30+  Mn90  1  0.00067939  0.16773254  0.25117577  1
  Mn3.30+  Mn91  1  0.00148335  0.16661545  0.75122559  1
  Mn3.30+  Mn92  1  -0.00132328  0.50055800  0.25334576  1
  Mn3.30+  Mn93  1  0.00207809  0.50145030  0.74926652  1
  Mn3.30+  Mn94  1  -0.00308060  0.83120949  0.25062521  1
  Mn3.30+  Mn95  1  0.00018110  0.83244360  0.74705439  1
  Mn3.30+  Mn96  1  0.33312239  0.16628011  0.24941897  1
  Mn3.30+  Mn97  1  0.33336088  0.16653075  0.75072331  1
  Mn3.30+  Mn98  1  0.33368900  0.49853096  0.24860308  1
  Mn3.30+  Mn99  1  0.33152474  0.50093058  0.75141852  1
  Mn3.30+  Mn100  1  0.33428143  0.83399564  0.24993148  1
  Mn3.30+  Mn101  1  0.33166251  0.83291638  0.74986639  1
  Mn3.30+  Mn102  1  0.66580360  0.16757345  0.24999096  1
  Mn3.30+  Mn103  1  0.66558027  0.16628724  0.75042131  1
  Mn3.30+  Mn104  1  0.67005281  0.50249315  0.25054304  1
  Mn3.30+  Mn105  1  0.66760297  0.50198885  0.74980608  1
  Mn3.30+  Mn106  1  0.66590627  0.83115223  0.24795753  1
  Mn3.30+  Mn107  1  0.66704645  0.83441152  0.75060049  1
  Mn3.30+  Mn108  1  0.16767597  -0.00053664  0.25205705  1
  Mn3.30+  Mn109  1  0.16654287  -0.00113599  0.74852458  1
  Mn3.30+  Mn110  1  0.16671521  0.33260876  0.25042942  1
  Mn3.30+  Mn111  1  0.16614489  0.33378979  0.75123049  1
  Mn3.30+  Mn112  1  0.16456136  0.66579947  0.25027904  1
  Mn3.30+  Mn113  1  0.16439824  0.66563116  0.74809677  1
  Mn3.30+  Mn114  1  0.49856187  -0.00139745  0.24898487  1
  Mn3.30+  Mn115  1  0.50084381  0.00098472  0.75166083  1
  Mn3.30+  Mn116  1  0.49899365  0.33374207  0.24801406  1
  Mn3.30+  Mn117  1  0.50090499  0.33281728  0.75032366  1
  Mn3.30+  Mn118  1  0.50413316  0.66765102  0.25036341  1
  Mn3.30+  Mn119  1  0.49909510  0.66718215  0.74978938  1
  Mn3.30+  Mn120  1  0.83332470  -0.00125959  0.24990825  1
  Mn3.30+  Mn121  1  0.83068138  0.00050697  0.75012071  1
  Mn3.30+  Mn122  1  0.83469091  0.33394225  0.25184862  1
  Mn3.30+  Mn123  1  0.83387618  0.33362097  0.75076565  1
  Mn3.30+  Mn124  1  0.83192683  0.66617426  0.25000041  1
  Mn3.30+  Mn125  1  0.83563964  0.66815637  0.74974556  1
  Mn3.30+  Mn126  1  0.00192793  0.16619611  -0.00110247  1
  Mn3.30+  Mn127  1  0.00047291  0.16804592  0.49940392  1
  Mn3.30+  Mn128  1  0.00141782  0.49967390  0.00042108  1
  Mn3.30+  Mn129  1  -0.00087784  0.50215359  0.49750590  1
  Mn3.30+  Mn130  1  -0.00295714  0.83321925  0.00155293  1
  Mn3.30+  Mn131  1  0.00030963  0.83009843  0.50006975  1
  Mn3.30+  Mn132  1  0.33162041  0.16786655  -0.00210195  1
  Mn3.30+  Mn133  1  0.33488765  0.16498558  0.50202492  1
  Mn3.30+  Mn134  1  0.33316747  0.49934475  0.00002941  1
  Mn3.30+  Mn135  1  0.33237335  0.50015629  0.50015640  1
  Mn3.30+  Mn136  1  0.33444600  0.83313340  0.00104696  1
  Mn3.30+  Mn137  1  0.33149913  0.83377237  0.49872923  1
  Mn3.30+  Mn138  1  0.66677931  0.16549769  0.00003313  1
  Mn3.30+  Mn139  1  0.66487594  0.16824884  0.49948625  1
  Mn3.30+  Mn140  1  0.66652371  0.50301600  0.00148433  1
  Mn3.30+  Mn141  1  0.67122920  0.50135334  0.49825196  1
  Mn3.30+  Mn142  1  0.66609325  0.83355151  0.00310391  1
  Mn3.30+  Mn143  1  0.66654549  0.83237755  0.49787564  1
  O2-  O144  1  0.02591583  0.15988409  0.12623342  1
  O2-  O145  1  0.02441671  0.16104181  0.62389117  1
  O2-  O146  1  0.02404400  0.49309899  0.12840487  1
  O2-  O147  1  0.01774037  0.49370134  0.62323796  1
  O2-  O148  1  0.02422307  0.83457778  0.12766402  1
  O2-  O149  1  0.02605334  0.82626403  0.62242574  1
  O2-  O150  1  0.35937794  0.15741564  0.12245629  1
  O2-  O151  1  0.36292217  0.15824257  0.62622246  1
  O2-  O152  1  0.35998048  0.49379697  0.12483468  1
  O2-  O153  1  0.35899917  0.49552918  0.62480989  1
  O2-  O154  1  0.35942986  0.82877578  0.12603907  1
  O2-  O155  1  0.35797242  0.82850880  0.62428214  1
  O2-  O156  1  0.68477625  0.16013907  0.12554181  1
  O2-  O157  1  0.69174077  0.16239774  0.62521291  1
  O2-  O158  1  0.69220769  0.49268903  0.12465331  1
  O2-  O159  1  0.69456892  0.49666451  0.62359527  1
  O2-  O160  1  0.69386893  0.82925838  0.12684919  1
  O2-  O161  1  0.69191094  0.82663730  0.62211271  1
  O2-  O162  1  0.13970021  0.32805789  0.12738670  1
  O2-  O163  1  0.14255753  0.32725178  0.62444791  1
  O2-  O164  1  0.14637450  0.66041144  0.12593770  1
  O2-  O165  1  0.13914522  0.66093839  0.62421728  1
  O2-  O166  1  0.14035127  0.99377803  0.12855306  1
  O2-  O167  1  0.14294334  0.99209814  0.62294822  1
  O2-  O168  1  0.47097973  0.32852750  0.12387106  1
  O2-  O169  1  0.47597800  0.32944518  0.62623306  1
  O2-  O170  1  0.47334874  0.65966519  0.12712189  1
  O2-  O171  1  0.47382577  0.66186464  0.62154103  1
  O2-  O172  1  0.47435774  0.99450531  0.12402408  1
  O2-  O173  1  0.47339068  0.99175708  0.62700517  1
  O2-  O174  1  0.81325702  0.33289524  0.12491201  1
  O2-  O175  1  0.81010497  0.32970157  0.62539312  1
  O2-  O176  1  0.80437873  0.65770411  0.12600246  1
  O2-  O177  1  0.80760991  0.66248334  0.62270547  1
  O2-  O178  1  0.81047827  0.99423238  0.12543897  1
  O2-  O179  1  0.80538843  0.99435038  0.62365550  1
  O2-  O180  1  0.30809248  0.17511546  0.37662156  1
  O2-  O181  1  0.30254727  0.17428083  0.87477664  1
  O2-  O182  1  0.30813013  0.50392625  0.37466094  1
  O2-  O183  1  0.30830504  0.49979217  0.87550547  1
  O2-  O184  1  0.30739533  0.83812991  0.37381437  1
  O2-  O185  1  0.30690148  0.83877667  0.87548587  1
  O2-  O186  1  0.63997905  0.16808726  0.37392231  1
  O2-  O187  1  0.64102339  0.17546201  0.87522608  1
  O2-  O188  1  0.64252618  0.50525604  0.37494694  1
  O2-  O189  1  0.63988604  0.50868947  0.87711645  1
  O2-  O190  1  0.64014641  0.84178518  0.37440246  1
  O2-  O191  1  0.64208398  0.83723504  0.87678731  1
  O2-  O192  1  0.97613401  0.17184195  0.37711752  1
  O2-  O193  1  0.98176581  0.16226509  0.87311944  1
  O2-  O194  1  0.97357438  0.50897822  0.37490779  1
  O2-  O195  1  0.97594946  0.50563406  0.87377990  1
  O2-  O196  1  0.97262998  0.84163340  0.37553942  1
  O2-  O197  1  0.97491099  0.84044975  0.87409383  1
  O2-  O198  1  0.19585499  0.00650857  0.37497906  1
  O2-  O199  1  0.18892867  0.00522213  0.87311626  1
  O2-  O200  1  0.19466149  0.33622758  0.37421488  1
  O2-  O201  1  0.18928623  0.34098033  0.87439748  1
  O2-  O202  1  0.19215565  0.67084811  0.37442295  1
  O2-  O203  1  0.18384604  0.67551373  0.87479504  1
  O2-  O204  1  0.52535815  0.00528431  0.37487383  1
  O2-  O205  1  0.52983665  0.00649959  0.87343438  1
  O2-  O206  1  0.51832604  0.33771537  0.37436943  1
  O2-  O207  1  0.52785101  0.34080259  0.87561164  1
  O2-  O208  1  0.52957910  0.67381035  0.37424620  1
  O2-  O209  1  0.52572498  0.67189500  0.87729296  1
  O2-  O210  1  0.85631101  0.00751361  0.37737979  1
  O2-  O211  1  0.85677612  -0.00274115  0.87350046  1
  O2-  O212  1  0.85897243  0.33793895  0.37531711  1
  O2-  O213  1  0.85218466  0.33946687  0.87529352  1
  O2-  O214  1  0.86155240  0.67428836  0.37359003  1
  O2-  O215  1  0.85953487  0.67482295  0.87676079  1
  O2-  O216  1  0.24070371  0.09261824  0.02224456  1
  O2-  O217  1  0.23992678  0.09490946  0.52283483  1
  O2-  O218  1  0.23979587  0.42638910  0.02107821  1
  O2-  O219  1  0.24115425  0.42406274  0.51720451  1
  O2-  O220  1  0.23858657  0.76059071  0.02072109  1
  O2-  O221  1  0.23503453  0.76048824  0.52026157  1
  O2-  O222  1  0.56943694  0.09460183  0.01951568  1
  O2-  O223  1  0.56794356  0.09537335  0.52143362  1
  O2-  O224  1  0.57334446  0.42963669  0.02182812  1
  O2-  O225  1  0.57425268  0.42875968  0.51973696  1
  O2-  O226  1  0.57016056  0.76489005  0.01985167  1
  O2-  O227  1  0.57100772  0.76227141  0.52093272  1
  O2-  O228  1  0.90909249  0.08959653  0.01774952  1
  O2-  O229  1  0.90548149  0.09400618  0.52082024  1
  O2-  O230  1  0.90685162  0.42859273  0.01865024  1
  O2-  O231  1  0.90638255  0.42792048  0.52074420  1
  O2-  O232  1  0.90029505  0.76549970  0.01925631  1
  O2-  O233  1  0.90137493  0.76342927  0.51726038  1
  O2-  O234  1  0.26344509  0.26216714  0.22782601  1
  O2-  O235  1  0.26300355  0.25992059  0.72718179  1
  O2-  O236  1  0.26466889  0.59321249  0.23057982  1
  O2-  O237  1  0.26215304  0.59606961  0.73037233  1
  O2-  O238  1  0.25876565  0.92686075  0.22663689  1
  O2-  O239  1  0.26316271  0.92868449  0.73290239  1
  O2-  O240  1  0.59135299  0.26122904  0.22608590  1
  O2-  O241  1  0.59638039  0.26366867  0.73225955  1
  O2-  O242  1  0.59612932  0.59567846  0.22710446  1
  O2-  O243  1  0.59622440  0.59514370  0.72841547  1
  O2-  O244  1  0.59642789  0.93030348  0.23186113  1
  O2-  O245  1  0.59354032  0.92654360  0.72657968  1
  O2-  O246  1  0.93052305  0.26207810  0.23403493  1
  O2-  O247  1  0.92883833  0.25891158  0.72849685  1
  O2-  O248  1  0.92387566  0.59229944  0.22898955  1
  O2-  O249  1  0.92916502  0.59781838  0.73032278  1
  O2-  O250  1  0.92972077  0.92922797  0.23505871  1
  O2-  O251  1  0.92879293  0.92645156  0.72633739  1
  O2-  O252  1  0.09987376  0.23597021  0.26828850  1
  O2-  O253  1  0.09918722  0.23471621  0.76576339  1
  O2-  O254  1  0.09669450  0.56893034  0.26779128  1
  O2-  O255  1  0.09430788  0.57210519  0.77396604  1
  O2-  O256  1  0.09534240  0.90576897  0.27286440  1
  O2-  O257  1  0.09215627  0.90578947  0.77073815  1
  O2-  O258  1  0.42724272  0.23584405  0.26962648  1
  O2-  O259  1  0.42506235  0.24030847  0.77451506  1
  O2-  O260  1  0.43198208  0.57312522  0.27177852  1
  O2-  O261  1  0.43007491  0.56985717  0.76639955  1
  O2-  O262  1  0.42861687  0.90616690  0.27078979  1
  O2-  O263  1  0.42889222  0.90757923  0.77244587  1
  O2-  O264  1  0.76250633  0.23980092  0.26802797  1
  O2-  O265  1  0.75839832  0.23972084  0.76596405  1
  O2-  O266  1  0.76497244  0.56909906  0.27103230  1
  O2-  O267  1  0.76331271  0.57366447  0.77133247  1
  O2-  O268  1  0.75859599  0.90603212  0.27209836  1
  O2-  O269  1  0.76210400  0.90298366  0.76674687  1
  O2-  O270  1  0.07437558  0.07056970  0.47980606  1
  O2-  O271  1  0.07124154  0.06913180  0.98394360  1
  O2-  O272  1  0.07026013  0.40596638  0.47845990  1
  O2-  O273  1  0.07436953  0.40461877  0.98722427  1
  O2-  O274  1  0.07049113  0.73805123  0.47435918  1
  O2-  O275  1  0.06958867  0.74241311  0.98090928  1
  O2-  O276  1  0.40318382  0.06923172  0.47718071  1
  O2-  O277  1  0.40436533  0.07379174  0.97640113  1
  O2-  O278  1  0.40712357  0.40549042  0.48176161  1
  O2-  O279  1  0.40730588  0.40685227  0.97617219  1
  O2-  O280  1  0.40306591  0.73950658  0.47794818  1
  O2-  O281  1  0.40782004  0.74035840  0.98237752  1
  O2-  O282  1  0.73604431  0.07378347  0.48039483  1
  O2-  O283  1  0.73662275  0.06848894  0.98334745  1
  O2-  O284  1  0.73932087  0.40508554  0.48543810  1
  O2-  O285  1  0.73739055  0.40946600  0.98082682  1
  O2-  O286  1  0.73835956  0.73473075  0.47753018  1
  O2-  O287  1  0.73773861  0.74015861  0.97855007  1
  O2-  O288  1  0.09825367  0.23701140  0.48245024  1
  O2-  O289  1  0.10126699  0.23388510  0.98397358  1
  O2-  O290  1  0.09544400  0.57093476  0.47788655  1
  O2-  O291  1  0.09455084  0.57131007  0.98084227  1
  O2-  O292  1  0.09260837  0.90538279  0.47614010  1
  O2-  O293  1  0.09431244  0.90530995  0.98077490  1
  O2-  O294  1  0.42667830  0.23744367  0.47962174  1
  O2-  O295  1  0.42631139  0.23810269  0.97645354  1
  O2-  O296  1  0.42961905  0.57214530  0.47745777  1
  O2-  O297  1  0.43195927  0.57000740  0.98439147  1
  O2-  O298  1  0.43123112  0.90363136  0.48217480  1
  O2-  O299  1  0.42658599  0.90909852  0.97567548  1
  O2-  O300  1  0.76538346  0.23755006  0.48338618  1
  O2-  O301  1  0.75522324  0.24330399  0.98402126  1
  O2-  O302  1  0.76741931  0.56927991  0.47991918  1
  O2-  O303  1  0.76137405  0.57369886  0.97724527  1
  O2-  O304  1  0.76040846  0.90504297  0.47832396  1
  O2-  O305  1  0.76040918  0.90464329  0.98210717  1
  O2-  O306  1  0.07423793  0.07149908  0.27314454  1
  O2-  O307  1  0.07052312  0.06911012  0.76291580  1
  O2-  O308  1  0.07173434  0.40343110  0.27388545  1
  O2-  O309  1  0.07294312  0.40579748  0.76200788  1
  O2-  O310  1  0.06994961  0.74072673  0.27257737  1
  O2-  O311  1  0.07017734  0.73984868  0.77146100  1
  O2-  O312  1  0.40338107  0.07058203  0.27080975  1
  O2-  O313  1  0.40428785  0.07282539  0.77496122  1
  O2-  O314  1  0.40608524  0.40709284  0.27129920  1
  O2-  O315  1  0.40776044  0.40582637  0.77053861  1
  O2-  O316  1  0.40565362  0.73712629  0.27185932  1
  O2-  O317  1  0.40740661  0.74275611  0.76723976  1
  O2-  O318  1  0.73962601  0.07276191  0.26944527  1
  O2-  O319  1  0.73142709  0.06938190  0.76718891  1
  O2-  O320  1  0.74023327  0.40625826  0.26268311  1
  O2-  O321  1  0.73709282  0.40834844  0.77050935  1
  O2-  O322  1  0.73587201  0.73698087  0.27386772  1
  O2-  O323  1  0.73899891  0.73851188  0.76947807  1
  O2-  O324  1  0.23877524  0.09540416  0.22871201  1
  O2-  O325  1  0.24129341  0.09222388  0.72655887  1
  O2-  O326  1  0.23452776  0.42773598  0.23126606  1
  O2-  O327  1  0.24538936  0.42240865  0.73046760  1
  O2-  O328  1  0.23843761  0.76033229  0.22984790  1
  O2-  O329  1  0.23574900  0.76048231  0.72818686  1
  O2-  O330  1  0.56870311  0.09311166  0.22995380  1
  O2-  O331  1  0.56822375  0.09796156  0.72735671  1
  O2-  O332  1  0.57392201  0.42925583  0.23083736  1
  O2-  O333  1  0.57347425  0.42972793  0.72841714  1
  O2-  O334  1  0.56792631  0.76606950  0.22943790  1
  O2-  O335  1  0.57369914  0.76159023  0.73011570  1
  O2-  O336  1  0.90933728  0.09175524  0.23507521  1
  O2-  O337  1  0.90497113  0.09199494  0.72731519  1
  O2-  O338  1  0.90760284  0.42665057  0.22931126  1
  O2-  O339  1  0.90561468  0.43004836  0.73186370  1
  O2-  O340  1  0.89764537  0.76465428  0.23149598  1
  O2-  O341  1  0.90327901  0.76394225  0.73046675  1
  O2-  O342  1  0.26321296  0.26327537  0.02255222  1
  O2-  O343  1  0.26406253  0.25868352  0.52278294  1
  O2-  O344  1  0.26300762  0.59164608  0.02259338  1
  O2-  O345  1  0.26339309  0.59749917  0.51612488  1
  O2-  O346  1  0.25987135  0.92779026  0.02048738  1
  O2-  O347  1  0.26253497  0.92734537  0.51930266  1
  O2-  O348  1  0.59104211  0.26236652  0.02102650  1
  O2-  O349  1  0.59562978  0.26182185  0.52088934  1
  O2-  O350  1  0.59676434  0.59787116  0.02361485  1
  O2-  O351  1  0.59592283  0.59262535  0.52173572  1
  O2-  O352  1  0.59619464  0.92682979  0.02100579  1
  O2-  O353  1  0.59363331  0.93022011  0.52029724  1
  O2-  O354  1  0.93236471  0.25910749  0.01744001  1
  O2-  O355  1  0.92679423  0.26186199  0.52193156  1
  O2-  O356  1  0.92437415  0.59338933  0.01714235  1
  O2-  O357  1  0.92890711  0.59685691  0.52302198  1
  O2-  O358  1  0.92937459  0.92893469  0.01712873  1
  O2-  O359  1  0.92847001  0.92688863  0.52115670  1
