# generated using pymatgen
data_Sr7Ca15Pr50Mn72O216
_symmetry_space_group_name_H-M   'P 1'
_cell_length_a   16.55790701
_cell_length_b   16.60193423
_cell_length_c   15.58879748
_cell_angle_alpha   89.99486237
_cell_angle_beta   90.00374068
_cell_angle_gamma   89.99491751
_symmetry_Int_Tables_number   1
_chemical_formula_structural   Sr7Ca15Pr50Mn72O216
_chemical_formula_sum   'Sr7 Ca15 Pr50 Mn72 O216'
_cell_volume   4285.25567673
_cell_formula_units_Z   1
loop_
 _symmetry_equiv_pos_site_id
 _symmetry_equiv_pos_as_xyz
  1  'x, y, z'
loop_
 _atom_type_symbol
 _atom_type_oxidation_number
  Sr2+  2.0
  Ca2+  2.0
  Pr3+  3.0
  Mn3.30+  3.3
  O2-  -2.0
loop_
 _atom_site_type_symbol
 _atom_site_label
 _atom_site_symmetry_multiplicity
 _atom_site_fract_x
 _atom_site_fract_y
 _atom_site_fract_z
 _atom_site_occupancy
  Sr2+  Sr0  1  0.50302397  0.84185730  0.12421393  1
  Sr2+  Sr1  1  0.83522881  0.50855738  0.62564547  1
  Sr2+  Sr2  1  0.33252572  0.99151380  0.37462714  1
  Sr2+  Sr3  1  0.50111674  0.82411744  0.87610590  1
  Sr2+  Sr4  1  0.83239672  0.82209343  0.37442549  1
  Sr2+  Sr5  1  0.16773567  0.50815884  0.62596397  1
  Sr2+  Sr6  1  0.16816929  0.15799176  0.37607748  1
  Ca2+  Ca7  1  0.33717231  0.32117115  0.37511096  1
  Ca2+  Ca8  1  0.16900831  0.51492130  0.12406442  1
  Ca2+  Ca9  1  0.67438554  0.31822234  0.87483705  1
  Ca2+  Ca10  1  0.83669047  0.18093672  0.11968582  1
  Ca2+  Ca11  1  0.17027766  0.84697368  0.62438028  1
  Ca2+  Ca12  1  0.99777719  0.32212509  0.87426801  1
  Ca2+  Ca13  1  0.50474995  0.18376352  0.62464800  1
  Ca2+  Ca14  1  0.66946449  0.98490412  0.87584989  1
  Ca2+  Ca15  1  0.49460969  0.48245019  0.37476148  1
  Ca2+  Ca16  1  -0.00227281  0.68012942  0.12542105  1
  Ca2+  Ca17  1  0.66491641  0.68181298  0.12526890  1
  Ca2+  Ca18  1  0.82824521  0.48345571  0.87729875  1
  Ca2+  Ca19  1  0.82750902  0.15204258  0.87718777  1
  Ca2+  Ca20  1  0.83798092  0.51739890  0.12428907  1
  Ca2+  Ca21  1  0.50554953  0.51322836  0.62427023  1
  Pr3+  Pr22  1  0.99931917  0.98776289  0.87496134  1
  Pr3+  Pr23  1  1.00011450  0.65237353  0.87808065  1
  Pr3+  Pr24  1  0.83490649  0.84470258  0.62498630  1
  Pr3+  Pr25  1  0.33262168  0.01064895  0.12439278  1
  Pr3+  Pr26  1  0.33664231  0.32219696  0.87444469  1
  Pr3+  Pr27  1  0.83372188  0.84333077  0.12530770  1
  Pr3+  Pr28  1  0.33492499  0.34669226  0.62396212  1
  Pr3+  Pr29  1  1.00218021  0.65408736  0.37181459  1
  Pr3+  Pr30  1  -0.00549296  0.34658667  0.12398098  1
  Pr3+  Pr31  1  0.16204693  0.15599849  0.87408445  1
  Pr3+  Pr32  1  0.50239320  0.84526338  0.62549859  1
  Pr3+  Pr33  1  0.16304725  0.81901135  0.87357537  1
  Pr3+  Pr34  1  0.50152123  0.15503860  0.87364194  1
  Pr3+  Pr35  1  0.67160748  0.65311629  0.87872096  1
  Pr3+  Pr36  1  0.16499988  0.48689955  0.37390992  1
  Pr3+  Pr37  1  0.32803768  0.34803674  0.12595848  1
  Pr3+  Pr38  1  1.00480900  0.98754114  0.37533511  1
  Pr3+  Pr39  1  0.33111043  0.01212269  0.62512862  1
  Pr3+  Pr40  1  -0.00770721  0.01592212  0.12405410  1
  Pr3+  Pr41  1  0.16282151  0.82122669  0.37576830  1
  Pr3+  Pr42  1  0.50138689  0.48842639  0.87492883  1
  Pr3+  Pr43  1  0.66371443  0.01032525  0.12260911  1
  Pr3+  Pr44  1  0.16781392  0.17858548  0.12495978  1
  Pr3+  Pr45  1  0.83003541  0.15507899  0.37384750  1
  Pr3+  Pr46  1  1.00283914  0.32115889  0.37614625  1
  Pr3+  Pr47  1  0.33606709  0.98674408  0.87430312  1
  Pr3+  Pr48  1  -0.00210950  0.67669515  0.62531481  1
  Pr3+  Pr49  1  0.33756562  0.65183163  0.37371865  1
  Pr3+  Pr50  1  0.16219891  0.48551570  0.87607965  1
  Pr3+  Pr51  1  0.50534599  0.51425784  0.12600387  1
  Pr3+  Pr52  1  0.66445783  0.67578894  0.62535183  1
  Pr3+  Pr53  1  0.82828711  0.82075040  0.87599500  1
  Pr3+  Pr54  1  0.33803553  0.65421411  0.87598878  1
  Pr3+  Pr55  1  0.49398673  0.15603390  0.37595653  1
  Pr3+  Pr56  1  0.66934596  0.65396191  0.37173477  1
  Pr3+  Pr57  1  0.50244897  0.17840192  0.12466266  1
  Pr3+  Pr58  1  0.66796941  0.34442469  0.12274515  1
  Pr3+  Pr59  1  0.16787500  0.84536073  0.12402865  1
  Pr3+  Pr60  1  0.33135032  0.67993275  0.12481082  1
  Pr3+  Pr61  1  0.83542490  0.18086830  0.62803610  1
  Pr3+  Pr62  1  0.83186124  0.48805266  0.37280456  1
  Pr3+  Pr63  1  0.66845827  0.98660185  0.37555123  1
  Pr3+  Pr64  1  -0.00293063  0.01232770  0.62596681  1
  Pr3+  Pr65  1  0.32936165  0.67897344  0.62520999  1
  Pr3+  Pr66  1  0.66690694  0.32190981  0.37438233  1
  Pr3+  Pr67  1  0.49524847  0.82107746  0.37407418  1
  Pr3+  Pr68  1  0.16907847  0.18001950  0.62489552  1
  Pr3+  Pr69  1  -0.00293517  0.34770507  0.62619083  1
  Pr3+  Pr70  1  0.66180777  0.34966509  0.62705151  1
  Pr3+  Pr71  1  0.66092189  0.01640283  0.62779069  1
  Mn3.30+  Mn72  1  0.16436215  0.00049915  -0.00073423  1
  Mn3.30+  Mn73  1  0.16677830  -0.00041503  0.50101298  1
  Mn3.30+  Mn74  1  0.16328776  0.33407660  -0.00021939  1
  Mn3.30+  Mn75  1  0.16953846  0.33414407  0.49939337  1
  Mn3.30+  Mn76  1  0.16539607  0.66454667  0.00145073  1
  Mn3.30+  Mn77  1  0.16781933  0.66611036  0.50090582  1
  Mn3.30+  Mn78  1  0.50151392  -0.00042608  -0.00169299  1
  Mn3.30+  Mn79  1  0.49912459  0.00154778  0.50134340  1
  Mn3.30+  Mn80  1  0.50268335  0.33366371  -0.00089851  1
  Mn3.30+  Mn81  1  0.49949327  0.33503642  0.50013206  1
  Mn3.30+  Mn82  1  0.50373087  0.66701548  0.00062610  1
  Mn3.30+  Mn83  1  0.49920633  0.66331344  0.49964882  1
  Mn3.30+  Mn84  1  0.83019990  0.00184287  -0.00123725  1
  Mn3.30+  Mn85  1  0.83217994  0.00029128  0.50086482  1
  Mn3.30+  Mn86  1  0.83323684  0.33329306  -0.00177473  1
  Mn3.30+  Mn87  1  0.83225486  0.33396334  0.50012280  1
  Mn3.30+  Mn88  1  0.83470271  0.66418912  0.00367224  1
  Mn3.30+  Mn89  1  0.83294476  0.66558940  0.49875248  1
  Mn3.30+  Mn90  1  -0.00159420  0.16777236  0.24912368  1
  Mn3.30+  Mn91  1  -0.00256050  0.16843866  0.75280722  1
  Mn3.30+  Mn92  1  0.00021238  0.50162502  0.24506391  1
  Mn3.30+  Mn93  1  -0.00300655  0.49875524  0.75379268  1
  Mn3.30+  Mn94  1  -0.00060962  0.83209912  0.24874013  1
  Mn3.30+  Mn95  1  0.00016608  0.83232056  0.74913751  1
  Mn3.30+  Mn96  1  0.33363127  0.16803682  0.25054440  1
  Mn3.30+  Mn97  1  0.33546981  0.16747703  0.74876993  1
  Mn3.30+  Mn98  1  0.33370588  0.49891427  0.24977113  1
  Mn3.30+  Mn99  1  0.33545214  0.50020400  0.74910300  1
  Mn3.30+  Mn100  1  0.33244728  0.83425421  0.25013328  1
  Mn3.30+  Mn101  1  0.33259214  0.83277114  0.74967847  1
  Mn3.30+  Mn102  1  0.66745737  0.16669146  0.24805397  1
  Mn3.30+  Mn103  1  0.66783166  0.16835814  0.75258868  1
  Mn3.30+  Mn104  1  0.66743772  0.50008682  0.24814691  1
  Mn3.30+  Mn105  1  0.66802743  0.49959509  0.75137785  1
  Mn3.30+  Mn106  1  0.66620150  0.83200157  0.24990445  1
  Mn3.30+  Mn107  1  0.66677146  0.83285996  0.75089615  1
  Mn3.30+  Mn108  1  0.16506543  0.00100079  0.24969406  1
  Mn3.30+  Mn109  1  0.16597916  -0.00080415  0.74966889  1
  Mn3.30+  Mn110  1  0.16635521  0.33422851  0.24975638  1
  Mn3.30+  Mn111  1  0.16637337  0.33381238  0.75084324  1
  Mn3.30+  Mn112  1  0.16676317  0.66529003  0.24775917  1
  Mn3.30+  Mn113  1  0.16662817  0.66546726  0.74983865  1
  Mn3.30+  Mn114  1  0.49985735  -0.00022251  0.24934941  1
  Mn3.30+  Mn115  1  0.50075898  0.00132922  0.75083830  1
  Mn3.30+  Mn116  1  0.49855600  0.33453902  0.24901275  1
  Mn3.30+  Mn117  1  0.50373775  0.33403901  0.75157314  1
  Mn3.30+  Mn118  1  0.50227316  0.66532085  0.24993905  1
  Mn3.30+  Mn119  1  0.50050280  0.66556505  0.75008871  1
  Mn3.30+  Mn120  1  0.83234800  0.00116102  0.24969188  1
  Mn3.30+  Mn121  1  0.82983371  0.00107436  0.75106588  1
  Mn3.30+  Mn122  1  0.83345681  0.33332282  0.24760604  1
  Mn3.30+  Mn123  1  0.83228348  0.33373208  0.75445245  1
  Mn3.30+  Mn124  1  0.83407764  0.66617041  0.24722106  1
  Mn3.30+  Mn125  1  0.83331987  0.66334040  0.75104371  1
  Mn3.30+  Mn126  1  -0.00401418  0.16949524  -0.00306055  1
  Mn3.30+  Mn127  1  0.00000895  0.16666715  0.50121211  1
  Mn3.30+  Mn128  1  -0.00292230  0.49922686  0.00136398  1
  Mn3.30+  Mn129  1  0.00014857  0.50106417  0.50001683  1
  Mn3.30+  Mn130  1  -0.00150069  0.83220785  0.00049264  1
  Mn3.30+  Mn131  1  0.00122666  0.83223615  0.50172958  1
  Mn3.30+  Mn132  1  0.33320232  0.16744590  -0.00133151  1
  Mn3.30+  Mn133  1  0.33607282  0.16810778  0.50147370  1
  Mn3.30+  Mn134  1  0.33258231  0.50030376  0.00077407  1
  Mn3.30+  Mn135  1  0.33675968  0.49884536  0.49966136  1
  Mn3.30+  Mn136  1  0.33375279  0.83325118  -0.00002411  1
  Mn3.30+  Mn137  1  0.33170964  0.83360720  0.49991079  1
  Mn3.30+  Mn138  1  0.67075951  0.16677895  -0.00086712  1
  Mn3.30+  Mn139  1  0.66448509  0.16844716  0.50072853  1
  Mn3.30+  Mn140  1  0.67173089  0.49921187  0.00237801  1
  Mn3.30+  Mn141  1  0.66353353  0.50041485  0.49786082  1
  Mn3.30+  Mn142  1  0.66655093  0.83236309  -0.00017598  1
  Mn3.30+  Mn143  1  0.66613233  0.83245878  0.50033376  1
  O2-  O144  1  0.02356077  0.16312505  0.12171650  1
  O2-  O145  1  0.02403415  0.16096772  0.62752726  1
  O2-  O146  1  0.03001242  0.49042162  0.12342570  1
  O2-  O147  1  0.01789645  0.49607641  0.62748802  1
  O2-  O148  1  0.02437988  0.82895991  0.12265358  1
  O2-  O149  1  0.02793541  0.82529294  0.62592396  1
  O2-  O150  1  0.35740631  0.16069984  0.12229000  1
  O2-  O151  1  0.36236152  0.16031700  0.62777654  1
  O2-  O152  1  0.36016166  0.49519735  0.12421885  1
  O2-  O153  1  0.36275374  0.49430582  0.62394232  1
  O2-  O154  1  0.35247697  0.82959369  0.12486366  1
  O2-  O155  1  0.35874841  0.82736388  0.62518994  1
  O2-  O156  1  0.69543078  0.15782392  0.12389266  1
  O2-  O157  1  0.69246829  0.16336872  0.62746349  1
  O2-  O158  1  0.69699109  0.48935343  0.12479462  1
  O2-  O159  1  0.68642394  0.49766696  0.62335206  1
  O2-  O160  1  0.68948869  0.83126406  0.12535188  1
  O2-  O161  1  0.69049482  0.82557160  0.62491510  1
  O2-  O162  1  0.13949313  0.32496961  0.12340479  1
  O2-  O163  1  0.14229057  0.32964594  0.62604041  1
  O2-  O164  1  0.14107842  0.66108203  0.12407864  1
  O2-  O165  1  0.14153453  0.66019064  0.62757157  1
  O2-  O166  1  0.13744792  0.99537698  0.12302048  1
  O2-  O167  1  0.14080867  0.99500556  0.62821931  1
  O2-  O168  1  0.47280029  0.32695063  0.12199252  1
  O2-  O169  1  0.47791837  0.32714514  0.62650950  1
  O2-  O170  1  0.47529530  0.66128316  0.12480468  1
  O2-  O171  1  0.47418487  0.65853700  0.62263644  1
  O2-  O172  1  0.47694979  0.99981432  0.12136110  1
  O2-  O173  1  0.47495507  0.99308508  0.62645752  1
  O2-  O174  1  0.81034264  0.32305813  0.12464399  1
  O2-  O175  1  0.80718544  0.32857290  0.62603768  1
  O2-  O176  1  0.80661229  0.66264553  0.12520878  1
  O2-  O177  1  0.80943443  0.66350123  0.62520579  1
  O2-  O178  1  0.80797501  0.99246086  0.12434022  1
  O2-  O179  1  0.80610661  0.99467969  0.62605490  1
  O2-  O180  1  0.31744125  0.17421865  0.37600881  1
  O2-  O181  1  0.30643955  0.17323266  0.87384874  1
  O2-  O182  1  0.30771378  0.50583850  0.37379790  1
  O2-  O183  1  0.30775855  0.50529890  0.87747713  1
  O2-  O184  1  0.30719877  0.83428195  0.37415201  1
  O2-  O185  1  0.30691753  0.83722976  0.87532558  1
  O2-  O186  1  0.63854764  0.17291307  0.37390049  1
  O2-  O187  1  0.64244724  0.17555196  0.87557751  1
  O2-  O188  1  0.63772750  0.50542489  0.37227728  1
  O2-  O189  1  0.64305344  0.50722378  0.87944187  1
  O2-  O190  1  0.64025719  0.83882135  0.37729595  1
  O2-  O191  1  0.65051082  0.83676084  0.87330262  1
  O2-  O192  1  0.97409350  0.17161611  0.37661691  1
  O2-  O193  1  0.97113989  0.17398453  0.87367696  1
  O2-  O194  1  0.97601907  0.50583254  0.37102289  1
  O2-  O195  1  0.97006348  0.50743275  0.87836036  1
  O2-  O196  1  0.98159897  0.83937376  0.37599030  1
  O2-  O197  1  0.97301440  0.83819663  0.87542610  1
  O2-  O198  1  0.18216390  0.00066610  0.37342943  1
  O2-  O199  1  0.19147617  0.00724633  0.87411588  1
  O2-  O200  1  0.19314609  0.33933723  0.37477114  1
  O2-  O201  1  0.19290179  0.33661616  0.87579486  1
  O2-  O202  1  0.19266548  0.67301262  0.37328480  1
  O2-  O203  1  0.19357130  0.67150915  0.87491184  1
  O2-  O204  1  0.52475197  0.00736201  0.37734678  1
  O2-  O205  1  0.52658459  0.00695112  0.87400183  1
  O2-  O206  1  0.52413688  0.33739906  0.37401147  1
  O2-  O207  1  0.53020964  0.34132360  0.87738726  1
  O2-  O208  1  0.52479273  0.67452138  0.37573108  1
  O2-  O209  1  0.52529789  0.66720982  0.87761407  1
  O2-  O210  1  0.85983506  0.00752369  0.37582893  1
  O2-  O211  1  0.85665938  0.00331597  0.87379178  1
  O2-  O212  1  0.85784659  0.33813225  0.37322500  1
  O2-  O213  1  0.85870714  0.34264821  0.87647593  1
  O2-  O214  1  0.85802105  0.66675207  0.37218950  1
  O2-  O215  1  0.85744275  0.67514724  0.87727705  1
  O2-  O216  1  0.23697012  0.09328045  0.02012538  1
  O2-  O217  1  0.24126633  0.09348241  0.52268803  1
  O2-  O218  1  0.23540464  0.42747758  0.02110819  1
  O2-  O219  1  0.24332054  0.42654722  0.51869505  1
  O2-  O220  1  0.23752542  0.76082712  0.01947753  1
  O2-  O221  1  0.23704851  0.76134628  0.52191345  1
  O2-  O222  1  0.57271391  0.09588879  0.01920420  1
  O2-  O223  1  0.57271743  0.09780327  0.52308906  1
  O2-  O224  1  0.57221711  0.42818032  0.02316977  1
  O2-  O225  1  0.57074059  0.42812733  0.52095709  1
  O2-  O226  1  0.57658775  0.75802582  0.01660506  1
  O2-  O227  1  0.56944849  0.76028470  0.52086401  1
  O2-  O228  1  0.90370336  0.09428458  0.02016907  1
  O2-  O229  1  0.90320458  0.09377978  0.52207478  1
  O2-  O230  1  0.90369828  0.42916624  0.02603692  1
  O2-  O231  1  0.90848439  0.42487002  0.51419284  1
  O2-  O232  1  0.90332883  0.76211695  0.01920202  1
  O2-  O233  1  0.90820068  0.76002236  0.52199313  1
  O2-  O234  1  0.25924108  0.25971472  0.22675260  1
  O2-  O235  1  0.26345984  0.26002469  0.72819635  1
  O2-  O236  1  0.26520761  0.59665230  0.23186435  1
  O2-  O237  1  0.26369804  0.59693319  0.73338826  1
  O2-  O238  1  0.25647597  0.92793208  0.22598622  1
  O2-  O239  1  0.26349996  0.92849604  0.73267423  1
  O2-  O240  1  0.59613451  0.25979576  0.22718939  1
  O2-  O241  1  0.59748656  0.26370318  0.73155543  1
  O2-  O242  1  0.59855392  0.59388751  0.22579763  1
  O2-  O243  1  0.59756388  0.59572883  0.73506472  1
  O2-  O244  1  0.59542693  0.93040337  0.23470434  1
  O2-  O245  1  0.59212163  0.92741884  0.72807175  1
  O2-  O246  1  0.93037979  0.26398835  0.23420831  1
  O2-  O247  1  0.92797536  0.26120519  0.72682858  1
  O2-  O248  1  0.93314092  0.59691027  0.22888332  1
  O2-  O249  1  0.93075531  0.59811184  0.73481523  1
  O2-  O250  1  0.92673477  0.92894682  0.22981465  1
  O2-  O251  1  0.92691639  0.92758591  0.72892295  1
  O2-  O252  1  0.09155684  0.23967500  0.26825703  1
  O2-  O253  1  0.09686634  0.23732567  0.76688154  1
  O2-  O254  1  0.09629196  0.57258638  0.27159958  1
  O2-  O255  1  0.09239011  0.57157154  0.77507830  1
  O2-  O256  1  0.09427104  0.90463497  0.26716192  1
  O2-  O257  1  0.09170365  0.90692848  0.77393276  1
  O2-  O258  1  0.43164052  0.23846408  0.26499348  1
  O2-  O259  1  0.42920763  0.24216635  0.77467044  1
  O2-  O260  1  0.43070595  0.56920497  0.26964011  1
  O2-  O261  1  0.42783378  0.57298170  0.77371724  1
  O2-  O262  1  0.42676724  0.90561263  0.26853846  1
  O2-  O263  1  0.42478569  0.90759060  0.76822488  1
  O2-  O264  1  0.75773848  0.23969123  0.27325154  1
  O2-  O265  1  0.76710268  0.23415840  0.76973567  1
  O2-  O266  1  0.76142344  0.57204793  0.27146418  1
  O2-  O267  1  0.76213075  0.57092562  0.77388661  1
  O2-  O268  1  0.75773829  0.90795216  0.26841966  1
  O2-  O269  1  0.76477915  0.90288652  0.76498939  1
  O2-  O270  1  0.06898675  0.07029452  0.48577609  1
  O2-  O271  1  0.06857539  0.07379718  0.97751583  1
  O2-  O272  1  0.07335614  0.40873260  0.48023563  1
  O2-  O273  1  0.06882476  0.40387971  0.97572286  1
  O2-  O274  1  0.07167035  0.73840367  0.47872753  1
  O2-  O275  1  0.07502601  0.73911260  0.97731530  1
  O2-  O276  1  0.40713755  0.07354040  0.48298732  1
  O2-  O277  1  0.40546616  0.07418842  0.97785260  1
  O2-  O278  1  0.40320339  0.40116852  0.48061901  1
  O2-  O279  1  0.40507348  0.40610814  0.97929873  1
  O2-  O280  1  0.40489299  0.73685183  0.48006271  1
  O2-  O281  1  0.40317406  0.73803807  0.98435463  1
  O2-  O282  1  0.73571687  0.07490082  0.47995592  1
  O2-  O283  1  0.73435193  0.06740050  0.97938101  1
  O2-  O284  1  0.73675973  0.40655875  0.47859288  1
  O2-  O285  1  0.73576011  0.39940153  0.98178132  1
  O2-  O286  1  0.73647938  0.73626535  0.48214951  1
  O2-  O287  1  0.74171746  0.73896166  0.98174235  1
  O2-  O288  1  0.09270006  0.24257593  0.48388739  1
  O2-  O289  1  0.09713098  0.23657782  0.98097540  1
  O2-  O290  1  0.09512229  0.57406058  0.47699887  1
  O2-  O291  1  0.09445264  0.57104227  0.97692544  1
  O2-  O292  1  0.09320149  0.90532320  0.48163899  1
  O2-  O293  1  0.09351024  0.90602254  0.97764986  1
  O2-  O294  1  0.43156634  0.23923841  0.48403252  1
  O2-  O295  1  0.42998668  0.24066605  0.97690254  1
  O2-  O296  1  0.42886413  0.57026727  0.47363720  1
  O2-  O297  1  0.43065910  0.57244933  0.98109489  1
  O2-  O298  1  0.42913095  0.90236936  0.48374610  1
  O2-  O299  1  0.42196458  0.91072343  0.97972250  1
  O2-  O300  1  0.76058276  0.23814705  0.47933716  1
  O2-  O301  1  0.76458385  0.23576932  0.98001742  1
  O2-  O302  1  0.75839142  0.57163477  0.47535648  1
  O2-  O303  1  0.76471025  0.57100817  0.97835797  1
  O2-  O304  1  0.75968266  0.90872954  0.48234228  1
  O2-  O305  1  0.76341519  0.90288629  0.98428019  1
  O2-  O306  1  0.06685779  0.06990124  0.26421675  1
  O2-  O307  1  0.06933595  0.07393733  0.77192911  1
  O2-  O308  1  0.07105479  0.40569824  0.27213832  1
  O2-  O309  1  0.07118498  0.40629174  0.77202748  1
  O2-  O310  1  0.07508101  0.73930876  0.27014414  1
  O2-  O311  1  0.07208376  0.73709384  0.77315677  1
  O2-  O312  1  0.40848041  0.07473354  0.26513890  1
  O2-  O313  1  0.40496707  0.07276831  0.77283652  1
  O2-  O314  1  0.39988449  0.40285499  0.26679449  1
  O2-  O315  1  0.40838616  0.40499040  0.77231723  1
  O2-  O316  1  0.40560653  0.73769709  0.26862829  1
  O2-  O317  1  0.40247302  0.73693487  0.76646323  1
  O2-  O318  1  0.73770358  0.07300780  0.27375024  1
  O2-  O319  1  0.73296115  0.06796882  0.76824946  1
  O2-  O320  1  0.73805613  0.40589339  0.27140221  1
  O2-  O321  1  0.73531559  0.40138905  0.76765939  1
  O2-  O322  1  0.73842458  0.73899976  0.26730693  1
  O2-  O323  1  0.74036301  0.73554847  0.76965734  1
  O2-  O324  1  0.23936803  0.09178434  0.22785248  1
  O2-  O325  1  0.23867604  0.09429782  0.72856505  1
  O2-  O326  1  0.23667881  0.43073852  0.22666748  1
  O2-  O327  1  0.24418241  0.42504930  0.73395867  1
  O2-  O328  1  0.23747638  0.76040664  0.22819822  1
  O2-  O329  1  0.23702178  0.76351416  0.72946406  1
  O2-  O330  1  0.57434455  0.09484959  0.22810532  1
  O2-  O331  1  0.57003353  0.09867590  0.72942483  1
  O2-  O332  1  0.57296984  0.42537616  0.22619306  1
  O2-  O333  1  0.57034256  0.43113157  0.73080072  1
  O2-  O334  1  0.57311930  0.76082359  0.23663249  1
  O2-  O335  1  0.57207146  0.75832978  0.72786446  1
  O2-  O336  1  0.90276838  0.09816136  0.22818767  1
  O2-  O337  1  0.90437170  0.09201789  0.72815285  1
  O2-  O338  1  0.90530075  0.43128960  0.22821217  1
  O2-  O339  1  0.90731855  0.42330395  0.73156599  1
  O2-  O340  1  0.90631528  0.76105364  0.22958237  1
  O2-  O341  1  0.90519622  0.76069585  0.72932264  1
  O2-  O342  1  0.26129135  0.26156269  0.02010989  1
  O2-  O343  1  0.26193443  0.25791695  0.52487661  1
  O2-  O344  1  0.26292315  0.59665130  0.01925737  1
  O2-  O345  1  0.26648210  0.59588126  0.51599539  1
  O2-  O346  1  0.25918604  0.92716216  0.01961894  1
  O2-  O347  1  0.26066948  0.92844709  0.52122527  1
  O2-  O348  1  0.59516100  0.25813121  0.02421089  1
  O2-  O349  1  0.59817941  0.26545982  0.51733833  1
  O2-  O350  1  0.59897257  0.59266295  0.02350656  1
  O2-  O351  1  0.59671367  0.59717133  0.51719732  1
  O2-  O352  1  0.59556998  0.92820637  0.01586647  1
  O2-  O353  1  0.59361528  0.92921576  0.52126964  1
  O2-  O354  1  0.92963008  0.26450723  0.01834091  1
  O2-  O355  1  0.92727613  0.26034043  0.52150301  1
  O2-  O356  1  0.93288987  0.59861785  0.02211030  1
  O2-  O357  1  0.93078631  0.59585281  0.51484460  1
  O2-  O358  1  0.92624698  0.92961675  0.01873718  1
  O2-  O359  1  0.92880916  0.92582729  0.52259155  1
