# generated using pymatgen
data_Sr7Ca15Pr50Mn72O216
_symmetry_space_group_name_H-M   'P 1'
_cell_length_a   16.55708732
_cell_length_b   16.60194530
_cell_length_c   15.59093315
_cell_angle_alpha   89.99692753
_cell_angle_beta   89.99658772
_cell_angle_gamma   90.01100019
_symmetry_Int_Tables_number   1
_chemical_formula_structural   Sr7Ca15Pr50Mn72O216
_chemical_formula_sum   'Sr7 Ca15 Pr50 Mn72 O216'
_cell_volume   4285.63339667
_cell_formula_units_Z   1
loop_
 _symmetry_equiv_pos_site_id
 _symmetry_equiv_pos_as_xyz
  1  'x, y, z'
loop_
 _atom_type_symbol
 _atom_type_oxidation_number
  Sr2+  2.0
  Ca2+  2.0
  Pr3+  3.0
  Mn3.30+  3.3
  O2-  -2.0
loop_
 _atom_site_type_symbol
 _atom_site_label
 _atom_site_symmetry_multiplicity
 _atom_site_fract_x
 _atom_site_fract_y
 _atom_site_fract_z
 _atom_site_occupancy
  Sr2+  Sr0  1  0.66734244  0.99247235  0.87462743  1
  Sr2+  Sr1  1  0.83190080  0.82240076  0.37555969  1
  Sr2+  Sr2  1  1.00177934  0.32348750  0.87574108  1
  Sr2+  Sr3  1  0.16658388  0.82540543  0.87479016  1
  Sr2+  Sr4  1  -0.00143070  0.67483430  0.12533841  1
  Sr2+  Sr5  1  1.00020543  0.65579556  0.37349063  1
  Sr2+  Sr6  1  0.83422493  0.17436602  0.12385916  1
  Ca2+  Ca7  1  0.49721875  0.15323133  0.37751721  1
  Ca2+  Ca8  1  0.50362461  0.84952204  0.12488669  1
  Ca2+  Ca9  1  0.16440540  0.48512918  0.87631427  1
  Ca2+  Ca10  1  0.16346697  0.15175275  0.37437161  1
  Ca2+  Ca11  1  0.50222773  0.17920331  0.62237477  1
  Ca2+  Ca12  1  0.66084888  0.68452136  0.62491938  1
  Ca2+  Ca13  1  0.66899781  0.31913646  0.37531895  1
  Ca2+  Ca14  1  0.16373313  0.48768780  0.37342269  1
  Ca2+  Ca15  1  0.33255294  0.01518978  0.62450099  1
  Ca2+  Ca16  1  0.50531148  0.51635535  0.62605322  1
  Ca2+  Ca17  1  0.50210164  0.51347193  0.12390910  1
  Ca2+  Ca18  1  0.82929197  0.15311956  0.87600628  1
  Ca2+  Ca19  1  0.49570636  0.48497491  0.87328077  1
  Ca2+  Ca20  1  0.17058259  0.18126500  0.12577384  1
  Ca2+  Ca21  1  0.50287126  0.84858823  0.62553961  1
  Pr3+  Pr22  1  0.66141780  0.68123889  0.12493551  1
  Pr3+  Pr23  1  0.83470458  0.17833187  0.62590527  1
  Pr3+  Pr24  1  -0.00202147  0.67874343  0.62507601  1
  Pr3+  Pr25  1  -0.00218284  0.01157308  0.62504535  1
  Pr3+  Pr26  1  0.82773262  0.82226964  0.87467178  1
  Pr3+  Pr27  1  -0.00193394  0.01129469  0.12460992  1
  Pr3+  Pr28  1  0.33805292  0.98690147  0.87341295  1
  Pr3+  Pr29  1  0.17241909  0.84818219  0.62497041  1
  Pr3+  Pr30  1  1.00348373  0.98779507  0.37474409  1
  Pr3+  Pr31  1  0.33265711  0.67854832  0.12502459  1
  Pr3+  Pr32  1  0.66996206  0.32011886  0.87469134  1
  Pr3+  Pr33  1  0.33615599  0.34470995  0.62424684  1
  Pr3+  Pr34  1  0.83561489  0.51130262  0.12431833  1
  Pr3+  Pr35  1  0.33782646  0.64966447  0.87425668  1
  Pr3+  Pr36  1  1.00515837  0.65270847  0.87604526  1
  Pr3+  Pr37  1  0.83084000  0.48685460  0.87622048  1
  Pr3+  Pr38  1  0.16995647  0.51138845  0.62602683  1
  Pr3+  Pr39  1  0.16899448  0.51223797  0.12427771  1
  Pr3+  Pr40  1  0.17161242  0.17922257  0.62343254  1
  Pr3+  Pr41  1  0.33608517  0.98951899  0.37635941  1
  Pr3+  Pr42  1  0.33001255  0.01503645  0.12485096  1
  Pr3+  Pr43  1  0.33484914  0.31780282  0.37577601  1
  Pr3+  Pr44  1  0.49801355  0.48765953  0.37669441  1
  Pr3+  Pr45  1  0.49683331  0.15384390  0.87334327  1
  Pr3+  Pr46  1  0.99976367  0.99126887  0.87533739  1
  Pr3+  Pr47  1  0.50427896  0.17945167  0.12698113  1
  Pr3+  Pr48  1  0.33132181  0.34589913  0.12554636  1
  Pr3+  Pr49  1  0.33583066  0.65276168  0.37585358  1
  Pr3+  Pr50  1  -0.00234351  0.34618581  0.62511662  1
  Pr3+  Pr51  1  0.66399276  0.01248496  0.12577176  1
  Pr3+  Pr52  1  0.16450110  0.15614591  0.87529111  1
  Pr3+  Pr53  1  0.83230435  0.84494578  0.62401100  1
  Pr3+  Pr54  1  0.82830303  0.48662422  0.37398392  1
  Pr3+  Pr55  1  0.16331231  0.82080189  0.37521789  1
  Pr3+  Pr56  1  0.66701635  0.98734554  0.37520291  1
  Pr3+  Pr57  1  0.49578102  0.82074317  0.87423487  1
  Pr3+  Pr58  1  1.00505892  0.31977735  0.37432166  1
  Pr3+  Pr59  1  0.49690039  0.82021570  0.37586495  1
  Pr3+  Pr60  1  -0.00122147  0.34331399  0.12504518  1
  Pr3+  Pr61  1  0.67134584  0.65662642  0.37778208  1
  Pr3+  Pr62  1  0.66708930  0.65351999  0.87276250  1
  Pr3+  Pr63  1  0.33360982  0.67807923  0.62505420  1
  Pr3+  Pr64  1  0.66045141  0.01444150  0.62460496  1
  Pr3+  Pr65  1  0.66190034  0.34883938  0.12674859  1
  Pr3+  Pr66  1  0.83500053  0.51263370  0.62581960  1
  Pr3+  Pr67  1  0.66003837  0.34663305  0.62300558  1
  Pr3+  Pr68  1  0.16787582  0.84415766  0.12534397  1
  Pr3+  Pr69  1  0.33574122  0.32248222  0.87416950  1
  Pr3+  Pr70  1  0.83042856  0.15552869  0.37413035  1
  Pr3+  Pr71  1  0.83665464  0.84439667  0.12569385  1
  Mn3.30+  Mn72  1  0.16693529  0.00130886  0.00024461  1
  Mn3.30+  Mn73  1  0.16958367  0.00189353  0.50018836  1
  Mn3.30+  Mn74  1  0.16693831  0.33312365  0.00051540  1
  Mn3.30+  Mn75  1  0.16736139  0.33377196  0.49853105  1
  Mn3.30+  Mn76  1  0.16816073  0.66692569  -0.00158799  1
  Mn3.30+  Mn77  1  0.16646300  0.66499858  0.50001541  1
  Mn3.30+  Mn78  1  0.49984024  -0.00071484  0.00067486  1
  Mn3.30+  Mn79  1  0.49830275  0.00170051  0.50168238  1
  Mn3.30+  Mn80  1  0.50011919  0.33573841  0.00009380  1
  Mn3.30+  Mn81  1  0.50157316  0.33181853  0.49812913  1
  Mn3.30+  Mn82  1  0.49984688  0.66474307  0.00004297  1
  Mn3.30+  Mn83  1  0.50273882  0.66691225  0.50239116  1
  Mn3.30+  Mn84  1  0.83229884  0.00107207  -0.00053960  1
  Mn3.30+  Mn85  1  0.83170673  0.00007721  0.49998108  1
  Mn3.30+  Mn86  1  0.83255502  0.33064374  0.00029069  1
  Mn3.30+  Mn87  1  0.83129623  0.33329832  0.49934947  1
  Mn3.30+  Mn88  1  0.83264984  0.66646519  -0.00099503  1
  Mn3.30+  Mn89  1  0.83138167  0.66631602  0.50158150  1
  Mn3.30+  Mn90  1  0.00346832  0.16611531  0.24870559  1
  Mn3.30+  Mn91  1  -0.00062013  0.16726954  0.75161344  1
  Mn3.30+  Mn92  1  0.00053067  0.49920968  0.25157080  1
  Mn3.30+  Mn93  1  0.00223824  0.49943066  0.75061049  1
  Mn3.30+  Mn94  1  0.00048709  0.83139924  0.24986100  1
  Mn3.30+  Mn95  1  -0.00008027  0.83382486  0.75018115  1
  Mn3.30+  Mn96  1  0.33283523  0.16676915  0.25236066  1
  Mn3.30+  Mn97  1  0.33498682  0.16663600  0.74664852  1
  Mn3.30+  Mn98  1  0.33387004  0.49915608  0.25074380  1
  Mn3.30+  Mn99  1  0.33649128  0.49904025  0.74923506  1
  Mn3.30+  Mn100  1  0.33511018  0.83398778  0.24923597  1
  Mn3.30+  Mn101  1  0.33522167  0.83321913  0.74787245  1
  Mn3.30+  Mn102  1  0.66522212  0.16869466  0.25266516  1
  Mn3.30+  Mn103  1  0.66630397  0.16749729  0.74915076  1
  Mn3.30+  Mn104  1  0.66359851  0.50037844  0.25044456  1
  Mn3.30+  Mn105  1  0.66312486  0.50064412  0.74962958  1
  Mn3.30+  Mn106  1  0.66484853  0.83349899  0.24938879  1
  Mn3.30+  Mn107  1  0.66300470  0.83420989  0.74941049  1
  Mn3.30+  Mn108  1  0.16790653  0.00271886  0.24955036  1
  Mn3.30+  Mn109  1  0.16840783  0.00108359  0.74941540  1
  Mn3.30+  Mn110  1  0.16726797  0.33214738  0.25117981  1
  Mn3.30+  Mn111  1  0.16715841  0.33433166  0.74978503  1
  Mn3.30+  Mn112  1  0.16693070  0.66516099  0.25006176  1
  Mn3.30+  Mn113  1  0.16789920  0.66651071  0.75189453  1
  Mn3.30+  Mn114  1  0.49882297  0.00079888  0.25105186  1
  Mn3.30+  Mn115  1  0.49881667  0.00053723  0.74648271  1
  Mn3.30+  Mn116  1  0.50038773  0.33333735  0.25312075  1
  Mn3.30+  Mn117  1  0.50136963  0.33424905  0.74899676  1
  Mn3.30+  Mn118  1  0.50061511  0.66603334  0.24929771  1
  Mn3.30+  Mn119  1  0.50199004  0.66574010  0.74803868  1
  Mn3.30+  Mn120  1  0.83333099  -0.00018029  0.25082966  1
  Mn3.30+  Mn121  1  0.83101154  0.00108596  0.74974407  1
  Mn3.30+  Mn122  1  0.83181655  0.33166578  0.24966630  1
  Mn3.30+  Mn123  1  0.83225543  0.33192601  0.75099993  1
  Mn3.30+  Mn124  1  0.83261857  0.66598361  0.25079884  1
  Mn3.30+  Mn125  1  0.83156025  0.66671490  0.74904521  1
  Mn3.30+  Mn126  1  0.00056861  0.16723344  0.00005941  1
  Mn3.30+  Mn127  1  0.00215162  0.16645826  0.49953420  1
  Mn3.30+  Mn128  1  0.00167382  0.49858973  -0.00036746  1
  Mn3.30+  Mn129  1  0.00120560  0.50006995  0.49826186  1
  Mn3.30+  Mn130  1  -0.00026108  0.83246637  -0.00100355  1
  Mn3.30+  Mn131  1  0.00097597  0.83238319  0.50065206  1
  Mn3.30+  Mn132  1  0.33266665  0.16817471  0.00106634  1
  Mn3.30+  Mn133  1  0.33526021  0.16549606  0.49925814  1
  Mn3.30+  Mn134  1  0.33568668  0.49880586  -0.00063482  1
  Mn3.30+  Mn135  1  0.33428224  0.49921458  0.50045933  1
  Mn3.30+  Mn136  1  0.33501902  0.83278228  0.00104079  1
  Mn3.30+  Mn137  1  0.33518619  0.83455031  0.50178858  1
  Mn3.30+  Mn138  1  0.66762837  0.16725478  0.00048650  1
  Mn3.30+  Mn139  1  0.66361000  0.16837710  0.49763483  1
  Mn3.30+  Mn140  1  0.66247823  0.50052925  -0.00123506  1
  Mn3.30+  Mn141  1  0.66440946  0.50119693  0.50182193  1
  Mn3.30+  Mn142  1  0.66416402  0.83466439  -0.00034469  1
  Mn3.30+  Mn143  1  0.66364857  0.83312591  0.50198326  1
  O2-  O144  1  0.02955132  0.15884472  0.12591858  1
  O2-  O145  1  0.02729061  0.16032748  0.62387713  1
  O2-  O146  1  0.02338782  0.49420659  0.12556489  1
  O2-  O147  1  0.02456991  0.49552537  0.62418676  1
  O2-  O148  1  0.02321059  0.83265459  0.12391469  1
  O2-  O149  1  0.02699919  0.82850771  0.62599610  1
  O2-  O150  1  0.36062179  0.16436472  0.12810373  1
  O2-  O151  1  0.35982962  0.16349311  0.62358188  1
  O2-  O152  1  0.36075155  0.49386593  0.12533540  1
  O2-  O153  1  0.36289075  0.49419965  0.62328536  1
  O2-  O154  1  0.36198103  0.82740453  0.12609445  1
  O2-  O155  1  0.36165596  0.82417306  0.62426423  1
  O2-  O156  1  0.68357228  0.16207111  0.12763577  1
  O2-  O157  1  0.69092900  0.16403303  0.62191723  1
  O2-  O158  1  0.69158086  0.49654295  0.12399939  1
  O2-  O159  1  0.69296689  0.49182242  0.62570005  1
  O2-  O160  1  0.69210366  0.82932369  0.12323259  1
  O2-  O161  1  0.68915091  0.83059778  0.62568097  1
  O2-  O162  1  0.14356797  0.32558229  0.12636158  1
  O2-  O163  1  0.14169069  0.32581996  0.62238128  1
  O2-  O164  1  0.14898816  0.66113199  0.12426072  1
  O2-  O165  1  0.14220300  0.65940866  0.62716270  1
  O2-  O166  1  0.14178489  0.99201846  0.12522812  1
  O2-  O167  1  0.14163909  0.99656135  0.62526421  1
  O2-  O168  1  0.47472800  0.32519427  0.12893242  1
  O2-  O169  1  0.47906853  0.32316328  0.62392794  1
  O2-  O170  1  0.47484794  0.65583616  0.12463889  1
  O2-  O171  1  0.47505197  0.65801196  0.62501054  1
  O2-  O172  1  0.47460707  0.99663471  0.12663202  1
  O2-  O173  1  0.47294200  0.99225002  0.62387927  1
  O2-  O174  1  0.80583443  0.33064270  0.12403647  1
  O2-  O175  1  0.80581191  0.32698893  0.62438919  1
  O2-  O176  1  0.80675748  0.66045508  0.12353116  1
  O2-  O177  1  0.80540476  0.65952313  0.62736727  1
  O2-  O178  1  0.80946891  0.99355030  0.12601456  1
  O2-  O179  1  0.80666513  0.99546958  0.62299468  1
  O2-  O180  1  0.30459387  0.16911128  0.37493905  1
  O2-  O181  1  0.30900780  0.17318355  0.87321204  1
  O2-  O182  1  0.30680414  0.50502223  0.37722310  1
  O2-  O183  1  0.30720024  0.50149587  0.87401923  1
  O2-  O184  1  0.30743798  0.83922351  0.37578093  1
  O2-  O185  1  0.31626768  0.83856608  0.87370037  1
  O2-  O186  1  0.63941376  0.17256885  0.37506642  1
  O2-  O187  1  0.64039194  0.17141626  0.87549096  1
  O2-  O188  1  0.64054524  0.51132418  0.37678016  1
  O2-  O189  1  0.63708932  0.50566400  0.87380531  1
  O2-  O190  1  0.64105916  0.83652521  0.37605954  1
  O2-  O191  1  0.63954839  0.83660140  0.87550802  1
  O2-  O192  1  0.97483659  0.17069985  0.37643953  1
  O2-  O193  1  0.97335805  0.16586473  0.87357672  1
  O2-  O194  1  0.97376167  0.49844256  0.37580812  1
  O2-  O195  1  0.97565663  0.50381437  0.87459635  1
  O2-  O196  1  0.98347305  0.83946619  0.37588658  1
  O2-  O197  1  0.97221956  0.84100708  0.87361833  1
  O2-  O198  1  0.19229910  0.00518215  0.37468151  1
  O2-  O199  1  0.19403632  0.00701370  0.87429483  1
  O2-  O200  1  0.19172124  0.34475433  0.37627342  1
  O2-  O201  1  0.19170022  0.33808558  0.87488896  1
  O2-  O202  1  0.19258691  0.67397499  0.37437347  1
  O2-  O203  1  0.19391816  0.67242542  0.87423883  1
  O2-  O204  1  0.52367028  0.00682189  0.37586347  1
  O2-  O205  1  0.51701865  0.00593060  0.87312157  1
  O2-  O206  1  0.52852835  0.34323717  0.37430037  1
  O2-  O207  1  0.52533399  0.34009984  0.87327497  1
  O2-  O208  1  0.52732429  0.67345125  0.37649029  1
  O2-  O209  1  0.52459117  0.67527582  0.87371413  1
  O2-  O210  1  0.85800413  0.00603711  0.37674036  1
  O2-  O211  1  0.85540269  0.00436876  0.87434475  1
  O2-  O212  1  0.85990947  0.33839402  0.37631686  1
  O2-  O213  1  0.85215254  0.34127804  0.87547702  1
  O2-  O214  1  0.84921647  0.66644385  0.37687272  1
  O2-  O215  1  0.85913882  0.67320282  0.87279968  1
  O2-  O216  1  0.23957636  0.09737098  0.02206578  1
  O2-  O217  1  0.23893875  0.09475143  0.52044347  1
  O2-  O218  1  0.24050984  0.42659550  0.02289545  1
  O2-  O219  1  0.24044864  0.42528461  0.52514880  1
  O2-  O220  1  0.24197504  0.76081266  0.02266618  1
  O2-  O221  1  0.24070616  0.76250768  0.52053206  1
  O2-  O222  1  0.57096314  0.09521149  0.01886757  1
  O2-  O223  1  0.57120494  0.09456637  0.52296913  1
  O2-  O224  1  0.57094168  0.42868915  0.02437411  1
  O2-  O225  1  0.57054398  0.43347604  0.52121023  1
  O2-  O226  1  0.56984097  0.76252082  0.02206268  1
  O2-  O227  1  0.56686910  0.76616886  0.51944687  1
  O2-  O228  1  0.91245045  0.08840023  0.01945963  1
  O2-  O229  1  0.90504916  0.09378203  0.52116023  1
  O2-  O230  1  0.90496411  0.42489639  0.02006643  1
  O2-  O231  1  0.90353199  0.42682855  0.52200361  1
  O2-  O232  1  0.90254227  0.76316142  0.01644392  1
  O2-  O233  1  0.90486694  0.75638854  0.52376809  1
  O2-  O234  1  0.26548953  0.26417180  0.23432362  1
  O2-  O235  1  0.26300777  0.26095225  0.72811236  1
  O2-  O236  1  0.26328697  0.59471022  0.22999775  1
  O2-  O237  1  0.26513203  0.59256963  0.72861030  1
  O2-  O238  1  0.26029695  0.92906901  0.22821639  1
  O2-  O239  1  0.26275334  0.92755447  0.72820155  1
  O2-  O240  1  0.59369934  0.26245844  0.22891737  1
  O2-  O241  1  0.59842917  0.26502119  0.73457510  1
  O2-  O242  1  0.59662115  0.59850383  0.23211839  1
  O2-  O243  1  0.59947642  0.60028963  0.73051540  1
  O2-  O244  1  0.59428251  0.93055160  0.23360436  1
  O2-  O245  1  0.59411313  0.93035130  0.72921503  1
  O2-  O246  1  0.93413231  0.25942084  0.23319415  1
  O2-  O247  1  0.92771013  0.25827693  0.72523083  1
  O2-  O248  1  0.92172016  0.58895680  0.23165476  1
  O2-  O249  1  0.92919743  0.59325484  0.73038326  1
  O2-  O250  1  0.92800975  0.92549169  0.23103873  1
  O2-  O251  1  0.92610847  0.92657520  0.72825614  1
  O2-  O252  1  0.09713593  0.23839987  0.27469048  1
  O2-  O253  1  0.09633971  0.23660582  0.76696505  1
  O2-  O254  1  0.09843538  0.56957205  0.26618286  1
  O2-  O255  1  0.09725680  0.57208497  0.77246072  1
  O2-  O256  1  0.09717780  0.90781446  0.26951041  1
  O2-  O257  1  0.09048481  0.90911411  0.76722421  1
  O2-  O258  1  0.42884711  0.23639978  0.27483362  1
  O2-  O259  1  0.42778285  0.24054109  0.77183118  1
  O2-  O260  1  0.42820326  0.57347036  0.27436828  1
  O2-  O261  1  0.42939363  0.57143332  0.77267804  1
  O2-  O262  1  0.42686369  0.90709019  0.27339840  1
  O2-  O263  1  0.42772213  0.90585488  0.77006853  1
  O2-  O264  1  0.76182848  0.23965361  0.27155791  1
  O2-  O265  1  0.76348752  0.23820251  0.77097562  1
  O2-  O266  1  0.75944278  0.57083218  0.26900647  1
  O2-  O267  1  0.76129860  0.56992957  0.77280766  1
  O2-  O268  1  0.75743251  0.90813210  0.26808259  1
  O2-  O269  1  0.76127715  0.90313193  0.76548194  1
  O2-  O270  1  0.07012212  0.06989053  0.48171621  1
  O2-  O271  1  0.07385977  0.07328468  0.97762252  1
  O2-  O272  1  0.06823466  0.40204212  0.48435101  1
  O2-  O273  1  0.07486696  0.40547957  0.98695626  1
  O2-  O274  1  0.07569350  0.73856263  0.48395795  1
  O2-  O275  1  0.07012150  0.73984248  0.98018197  1
  O2-  O276  1  0.40390147  0.07133031  0.47960418  1
  O2-  O277  1  0.40275513  0.07304842  0.98173640  1
  O2-  O278  1  0.40568456  0.40372393  0.47862166  1
  O2-  O279  1  0.40309790  0.40230438  0.98169995  1
  O2-  O280  1  0.40503878  0.73803290  0.47845137  1
  O2-  O281  1  0.40610808  0.73482132  0.98004139  1
  O2-  O282  1  0.73610785  0.07523247  0.47813559  1
  O2-  O283  1  0.74066142  0.07287307  0.98779974  1
  O2-  O284  1  0.73597473  0.40578640  0.47784038  1
  O2-  O285  1  0.73528845  0.40794972  0.98043064  1
  O2-  O286  1  0.73561634  0.73927134  0.48612592  1
  O2-  O287  1  0.73651241  0.73902805  0.97868426  1
  O2-  O288  1  0.09763226  0.23787408  0.47753225  1
  O2-  O289  1  0.09671819  0.23795684  0.98093932  1
  O2-  O290  1  0.09729098  0.56639276  0.48219123  1
  O2-  O291  1  0.09642237  0.57265988  0.97946469  1
  O2-  O292  1  0.09919659  0.90785443  0.48173457  1
  O2-  O293  1  0.08944169  0.90888380  0.98152911  1
  O2-  O294  1  0.42593609  0.23765857  0.47519811  1
  O2-  O295  1  0.42940162  0.23850927  0.97993865  1
  O2-  O296  1  0.42801905  0.57452621  0.47745267  1
  O2-  O297  1  0.42875149  0.57033503  0.97518058  1
  O2-  O298  1  0.42700200  0.90668486  0.47594004  1
  O2-  O299  1  0.42673744  0.90628615  0.98042676  1
  O2-  O300  1  0.76474840  0.23759828  0.48095040  1
  O2-  O301  1  0.75976849  0.23955835  0.97694724  1
  O2-  O302  1  0.76226147  0.56931789  0.48205715  1
  O2-  O303  1  0.75892901  0.57155709  0.97770345  1
  O2-  O304  1  0.75696206  0.90793376  0.48265449  1
  O2-  O305  1  0.76255968  0.90316558  0.98323056  1
  O2-  O306  1  0.07146208  0.06995932  0.27030749  1
  O2-  O307  1  0.07201764  0.07373558  0.77075312  1
  O2-  O308  1  0.07064880  0.40175510  0.26618771  1
  O2-  O309  1  0.07334547  0.40635564  0.76242194  1
  O2-  O310  1  0.07839399  0.74225246  0.26706188  1
  O2-  O311  1  0.06735234  0.73764728  0.76768071  1
  O2-  O312  1  0.40175787  0.06991226  0.26750962  1
  O2-  O313  1  0.40444569  0.07330273  0.77041423  1
  O2-  O314  1  0.40493757  0.40392687  0.27319868  1
  O2-  O315  1  0.40420675  0.40267300  0.76671729  1
  O2-  O316  1  0.40648676  0.73645408  0.27218630  1
  O2-  O317  1  0.40469395  0.73581117  0.76929969  1
  O2-  O318  1  0.73841046  0.07462492  0.27115057  1
  O2-  O319  1  0.73843130  0.07458262  0.76221954  1
  O2-  O320  1  0.73371830  0.40740576  0.27150249  1
  O2-  O321  1  0.73614772  0.40665349  0.77036894  1
  O2-  O322  1  0.73511000  0.73633769  0.26447369  1
  O2-  O323  1  0.73768971  0.74132969  0.77167083  1
  O2-  O324  1  0.23903355  0.09487365  0.22552622  1
  O2-  O325  1  0.23854670  0.09740371  0.73066434  1
  O2-  O326  1  0.23863437  0.42635615  0.22689005  1
  O2-  O327  1  0.24273026  0.42591591  0.72571788  1
  O2-  O328  1  0.24146583  0.76171526  0.22964797  1
  O2-  O329  1  0.24078564  0.76032850  0.72645510  1
  O2-  O330  1  0.57171159  0.09285678  0.23001188  1
  O2-  O331  1  0.56913904  0.09650931  0.72827092  1
  O2-  O332  1  0.56987002  0.43215348  0.22852679  1
  O2-  O333  1  0.57119038  0.42917133  0.72525635  1
  O2-  O334  1  0.56874979  0.76318235  0.22762307  1
  O2-  O335  1  0.56744139  0.76531280  0.73135282  1
  O2-  O336  1  0.90991634  0.09101669  0.23307031  1
  O2-  O337  1  0.90882097  0.09189284  0.72615273  1
  O2-  O338  1  0.90328555  0.42470540  0.22884292  1
  O2-  O339  1  0.90380475  0.42571415  0.72949737  1
  O2-  O340  1  0.90344410  0.75848506  0.23229365  1
  O2-  O341  1  0.90500247  0.76174194  0.72710634  1
  O2-  O342  1  0.26442726  0.26365028  0.01727211  1
  O2-  O343  1  0.26404715  0.26085169  0.51963238  1
  O2-  O344  1  0.26561612  0.59275397  0.01963180  1
  O2-  O345  1  0.26170773  0.59475069  0.52196624  1
  O2-  O346  1  0.25996608  0.92813255  0.02021540  1
  O2-  O347  1  0.26320843  0.92886267  0.52272658  1
  O2-  O348  1  0.59412282  0.26405089  0.01947803  1
  O2-  O349  1  0.59725185  0.26316614  0.51725847  1
  O2-  O350  1  0.59695848  0.59848505  0.01695875  1
  O2-  O351  1  0.59869715  0.60023691  0.52010418  1
  O2-  O352  1  0.59481315  0.92884330  0.02154658  1
  O2-  O353  1  0.59446732  0.93163250  0.51584779  1
  O2-  O354  1  0.93091894  0.25849237  0.02122443  1
  O2-  O355  1  0.92961795  0.25981582  0.52086650  1
  O2-  O356  1  0.92442405  0.59025140  0.01518229  1
  O2-  O357  1  0.92735296  0.59178837  0.52270375  1
  O2-  O358  1  0.92594652  0.92646609  0.01981219  1
  O2-  O359  1  0.92743622  0.92597073  0.52099267  1
