# generated using pymatgen
data_Sr7Ca15Pr50Mn72O216
_symmetry_space_group_name_H-M   'P 1'
_cell_length_a   16.55562192
_cell_length_b   16.59722795
_cell_length_c   15.58899347
_cell_angle_alpha   90.00377969
_cell_angle_beta   90.00127759
_cell_angle_gamma   90.00376223
_symmetry_Int_Tables_number   1
_chemical_formula_structural   Sr7Ca15Pr50Mn72O216
_chemical_formula_sum   'Sr7 Ca15 Pr50 Mn72 O216'
_cell_volume   4283.50355639
_cell_formula_units_Z   1
loop_
 _symmetry_equiv_pos_site_id
 _symmetry_equiv_pos_as_xyz
  1  'x, y, z'
loop_
 _atom_type_symbol
 _atom_type_oxidation_number
  Sr2+  2.0
  Ca2+  2.0
  Pr3+  3.0
  Mn3.30+  3.3
  O2-  -2.0
loop_
 _atom_site_type_symbol
 _atom_site_label
 _atom_site_symmetry_multiplicity
 _atom_site_fract_x
 _atom_site_fract_y
 _atom_site_fract_z
 _atom_site_occupancy
  Sr2+  Sr0  1  0.16786841  0.50951896  0.62481158  1
  Sr2+  Sr1  1  0.50082401  0.50693987  0.12493000  1
  Sr2+  Sr2  1  0.67194034  0.65488336  0.87328411  1
  Sr2+  Sr3  1  0.33057837  0.67740145  0.62560875  1
  Sr2+  Sr4  1  -0.00125248  0.01120533  0.12648052  1
  Sr2+  Sr5  1  1.00312140  0.32122871  0.37564376  1
  Sr2+  Sr6  1  0.83553326  0.15709329  0.37708490  1
  Ca2+  Ca7  1  0.32543246  0.01947844  0.12519937  1
  Ca2+  Ca8  1  0.33357527  0.34364923  0.12441341  1
  Ca2+  Ca9  1  0.66544317  0.67999264  0.62766994  1
  Ca2+  Ca10  1  0.50033973  0.18056201  0.12442144  1
  Ca2+  Ca11  1  0.33531418  0.98749306  0.37397821  1
  Ca2+  Ca12  1  0.16281036  0.15412140  0.87756095  1
  Ca2+  Ca13  1  1.00137937  0.99006089  0.37387158  1
  Ca2+  Ca14  1  0.83018210  0.15271025  0.87326961  1
  Ca2+  Ca15  1  0.83550056  0.17769169  0.62539394  1
  Ca2+  Ca16  1  0.82809371  0.81835242  0.87469956  1
  Ca2+  Ca17  1  0.82754231  0.48566911  0.87156242  1
  Ca2+  Ca18  1  0.16887563  0.18213806  0.12339364  1
  Ca2+  Ca19  1  0.66474233  0.01508648  0.62535746  1
  Ca2+  Ca20  1  0.16809406  0.17991135  0.62585625  1
  Ca2+  Ca21  1  0.83803937  0.51512894  0.62819344  1
  Pr3+  Pr22  1  0.99801979  0.65313379  0.87434711  1
  Pr3+  Pr23  1  0.16354895  0.82148607  0.87539735  1
  Pr3+  Pr24  1  0.83301271  0.84492760  0.62748285  1
  Pr3+  Pr25  1  0.49843540  0.48606631  0.37459891  1
  Pr3+  Pr26  1  0.16382730  0.48415194  0.37747307  1
  Pr3+  Pr27  1  0.32934884  0.34479507  0.62520811  1
  Pr3+  Pr28  1  0.17023494  0.85206776  0.12350060  1
  Pr3+  Pr29  1  0.67221221  0.32039875  0.87521866  1
  Pr3+  Pr30  1  1.00419119  0.65347521  0.37601412  1
  Pr3+  Pr31  1  0.83766330  0.17722757  0.12389009  1
  Pr3+  Pr32  1  0.83674626  0.51021395  0.12394931  1
  Pr3+  Pr33  1  -0.00280556  0.67944825  0.12458111  1
  Pr3+  Pr34  1  0.66330198  0.67868587  0.12358592  1
  Pr3+  Pr35  1  0.50152439  0.84664040  0.12497441  1
  Pr3+  Pr36  1  0.83275044  0.48439533  0.37819874  1
  Pr3+  Pr37  1  0.16017017  0.15318906  0.37392393  1
  Pr3+  Pr38  1  0.49562270  0.82237716  0.37523036  1
  Pr3+  Pr39  1  0.33465496  0.32008315  0.37351286  1
  Pr3+  Pr40  1  0.49681725  0.15394420  0.87590023  1
  Pr3+  Pr41  1  0.67066370  0.31880134  0.37471361  1
  Pr3+  Pr42  1  0.83603990  0.84683548  0.12257046  1
  Pr3+  Pr43  1  0.33580484  0.31997021  0.87600871  1
  Pr3+  Pr44  1  1.00212955  0.31742332  0.87443890  1
  Pr3+  Pr45  1  0.67032315  0.65425409  0.37639615  1
  Pr3+  Pr46  1  0.50523726  0.84773250  0.62546380  1
  Pr3+  Pr47  1  0.66859369  0.34373310  0.62464460  1
  Pr3+  Pr48  1  0.17140480  0.50812273  0.12513000  1
  Pr3+  Pr49  1  -0.00384832  0.34521831  0.62430891  1
  Pr3+  Pr50  1  0.50240660  0.17770346  0.62546229  1
  Pr3+  Pr51  1  0.32770887  0.01386554  0.62444829  1
  Pr3+  Pr52  1  0.33393842  0.98898207  0.87644983  1
  Pr3+  Pr53  1  -0.00274098  0.67814712  0.62554918  1
  Pr3+  Pr54  1  0.16458031  0.48622711  0.87220661  1
  Pr3+  Pr55  1  0.33145527  0.67991090  0.12472358  1
  Pr3+  Pr56  1  0.49884058  0.81968173  0.87516828  1
  Pr3+  Pr57  1  0.50564750  0.51541618  0.62480254  1
  Pr3+  Pr58  1  0.33793720  0.65334416  0.87390713  1
  Pr3+  Pr59  1  0.66880843  0.98946518  0.37673792  1
  Pr3+  Pr60  1  0.49393771  0.15153424  0.37418351  1
  Pr3+  Pr61  1  0.16350080  0.82503772  0.37429663  1
  Pr3+  Pr62  1  0.66374954  0.34401754  0.12495258  1
  Pr3+  Pr63  1  0.50045198  0.48779980  0.87506543  1
  Pr3+  Pr64  1  -0.00323681  0.01498902  0.62403488  1
  Pr3+  Pr65  1  0.66190000  0.01554803  0.12522974  1
  Pr3+  Pr66  1  0.16968880  0.84540399  0.62581339  1
  Pr3+  Pr67  1  0.67193726  0.98633208  0.87332369  1
  Pr3+  Pr68  1  0.83408580  0.82585642  0.37469949  1
  Pr3+  Pr69  1  0.99831159  0.98974769  0.87609369  1
  Pr3+  Pr70  1  0.33577618  0.65418259  0.37620769  1
  Pr3+  Pr71  1  0.00076097  0.34007725  0.12583074  1
  Mn3.30+  Mn72  1  0.16697480  0.00560073  0.00046683  1
  Mn3.30+  Mn73  1  0.16614044  0.00123664  0.49859598  1
  Mn3.30+  Mn74  1  0.16864397  0.33081484  -0.00059653  1
  Mn3.30+  Mn75  1  0.16646992  0.33011554  0.50216888  1
  Mn3.30+  Mn76  1  0.16616325  0.66589036  -0.00048543  1
  Mn3.30+  Mn77  1  0.16777723  0.66733421  0.50044567  1
  Mn3.30+  Mn78  1  0.49767442  0.00226274  0.00250039  1
  Mn3.30+  Mn79  1  0.49882182  0.00026907  0.50025090  1
  Mn3.30+  Mn80  1  0.50051041  0.33181379  0.00119123  1
  Mn3.30+  Mn81  1  0.50025752  0.33237156  0.50025523  1
  Mn3.30+  Mn82  1  0.50125684  0.66486745  -0.00006907  1
  Mn3.30+  Mn83  1  0.50230173  0.66832094  0.50141895  1
  Mn3.30+  Mn84  1  0.83256459  0.00098095  -0.00112001  1
  Mn3.30+  Mn85  1  0.83280174  0.00158694  0.50159215  1
  Mn3.30+  Mn86  1  0.83428633  0.33248657  -0.00199507  1
  Mn3.30+  Mn87  1  0.83385463  0.33064368  0.50207854  1
  Mn3.30+  Mn88  1  0.83185154  0.66519707  -0.00129277  1
  Mn3.30+  Mn89  1  0.83269791  0.66716533  0.50185894  1
  Mn3.30+  Mn90  1  0.00188427  0.16486502  0.24967764  1
  Mn3.30+  Mn91  1  -0.00075907  0.16598852  0.75006190  1
  Mn3.30+  Mn92  1  0.00200077  0.49811172  0.24965433  1
  Mn3.30+  Mn93  1  -0.00403003  0.49893829  0.75082451  1
  Mn3.30+  Mn94  1  0.00032884  0.83570245  0.24960948  1
  Mn3.30+  Mn95  1  -0.00199060  0.83397943  0.75151888  1
  Mn3.30+  Mn96  1  0.33116301  0.16649512  0.24635527  1
  Mn3.30+  Mn97  1  0.32983794  0.16607240  0.75168216  1
  Mn3.30+  Mn98  1  0.33365504  0.49853079  0.24899332  1
  Mn3.30+  Mn99  1  0.33344539  0.49946334  0.74958212  1
  Mn3.30+  Mn100  1  0.33234981  0.83784926  0.24949276  1
  Mn3.30+  Mn101  1  0.33378480  0.83396919  0.74984378  1
  Mn3.30+  Mn102  1  0.66472674  0.16600838  0.24981159  1
  Mn3.30+  Mn103  1  0.66905731  0.16555287  0.74892619  1
  Mn3.30+  Mn104  1  0.66728586  0.49941013  0.25082170  1
  Mn3.30+  Mn105  1  0.67126431  0.50102937  0.74777343  1
  Mn3.30+  Mn106  1  0.66576684  0.83454922  0.25037749  1
  Mn3.30+  Mn107  1  0.66869498  0.83297039  0.74908337  1
  Mn3.30+  Mn108  1  0.16842997  0.00342262  0.24894800  1
  Mn3.30+  Mn109  1  0.16479389  0.00319337  0.75122830  1
  Mn3.30+  Mn110  1  0.16935186  0.33098501  0.24794489  1
  Mn3.30+  Mn111  1  0.16595682  0.32897156  0.75065877  1
  Mn3.30+  Mn112  1  0.16685497  0.66778621  0.24902654  1
  Mn3.30+  Mn113  1  0.16659186  0.66588243  0.75090266  1
  Mn3.30+  Mn114  1  0.49484595  0.00222973  0.24729331  1
  Mn3.30+  Mn115  1  0.50109811  0.00059137  0.75025985  1
  Mn3.30+  Mn116  1  0.49941850  0.33065894  0.24845856  1
  Mn3.30+  Mn117  1  0.50129915  0.33335253  0.74963039  1
  Mn3.30+  Mn118  1  0.50013795  0.66603138  0.24994087  1
  Mn3.30+  Mn119  1  0.50304108  0.66716932  0.74889356  1
  Mn3.30+  Mn120  1  0.83356865  0.00107879  0.25163161  1
  Mn3.30+  Mn121  1  0.83181455  0.00199248  0.74798029  1
  Mn3.30+  Mn122  1  0.83390606  0.33100512  0.25065099  1
  Mn3.30+  Mn123  1  0.83439389  0.33200928  0.75009938  1
  Mn3.30+  Mn124  1  0.83398360  0.66616334  0.25100709  1
  Mn3.30+  Mn125  1  0.83099771  0.66610228  0.74871160  1
  Mn3.30+  Mn126  1  0.00089912  0.16506629  -0.00093254  1
  Mn3.30+  Mn127  1  0.00044578  0.16600480  0.50116920  1
  Mn3.30+  Mn128  1  -0.00091655  0.49753606  -0.00194680  1
  Mn3.30+  Mn129  1  -0.00104165  0.49983495  0.50286049  1
  Mn3.30+  Mn130  1  -0.00201553  0.83385641  -0.00186066  1
  Mn3.30+  Mn131  1  0.00018295  0.83552704  0.50050354  1
  Mn3.30+  Mn132  1  0.33119325  0.16770532  0.00272182  1
  Mn3.30+  Mn133  1  0.33022856  0.16495316  0.49919633  1
  Mn3.30+  Mn134  1  0.33377539  0.49826524  0.00085331  1
  Mn3.30+  Mn135  1  0.33362629  0.49990956  0.50017413  1
  Mn3.30+  Mn136  1  0.33335061  0.83584960  0.00043469  1
  Mn3.30+  Mn137  1  0.33302080  0.83516959  0.49983928  1
  Mn3.30+  Mn138  1  0.66652432  0.16645048  -0.00056241  1
  Mn3.30+  Mn139  1  0.66734636  0.16487822  0.50185914  1
  Mn3.30+  Mn140  1  0.66893499  0.49944047  -0.00131210  1
  Mn3.30+  Mn141  1  0.66958260  0.50120804  0.50303921  1
  Mn3.30+  Mn142  1  0.66804101  0.83371352  -0.00038419  1
  Mn3.30+  Mn143  1  0.66652538  0.83403317  0.50097113  1
  O2-  O144  1  0.02391786  0.16825660  0.12316936  1
  O2-  O145  1  0.02757739  0.16149660  0.62623346  1
  O2-  O146  1  0.02710972  0.49331421  0.12235942  1
  O2-  O147  1  0.01966115  0.49695382  0.62628807  1
  O2-  O148  1  0.02518906  0.82742260  0.12342082  1
  O2-  O149  1  0.02598521  0.82773990  0.62657410  1
  O2-  O150  1  0.36121123  0.15983876  0.12471972  1
  O2-  O151  1  0.35892558  0.16083420  0.62573500  1
  O2-  O152  1  0.35117840  0.49265012  0.12454962  1
  O2-  O153  1  0.35966870  0.49326854  0.62412250  1
  O2-  O154  1  0.35853092  0.82620226  0.12460216  1
  O2-  O155  1  0.35897163  0.83340679  0.62767257  1
  O2-  O156  1  0.69298042  0.16297347  0.12376895  1
  O2-  O157  1  0.69092062  0.16201189  0.62516933  1
  O2-  O158  1  0.69284647  0.49321240  0.12728626  1
  O2-  O159  1  0.69718738  0.49037642  0.62390214  1
  O2-  O160  1  0.69125446  0.82908902  0.12631119  1
  O2-  O161  1  0.68989884  0.82454312  0.62386518  1
  O2-  O162  1  0.14447992  0.33396013  0.12171168  1
  O2-  O163  1  0.14200406  0.32597242  0.62876476  1
  O2-  O164  1  0.14112627  0.65813119  0.12378130  1
  O2-  O165  1  0.14240898  0.66709842  0.62747871  1
  O2-  O166  1  0.14613292  0.99605334  0.12358108  1
  O2-  O167  1  0.14132082  0.99113167  0.62737696  1
  O2-  O168  1  0.47601067  0.32666576  0.12487006  1
  O2-  O169  1  0.47367158  0.32695229  0.62490936  1
  O2-  O170  1  0.47598848  0.66472919  0.12534369  1
  O2-  O171  1  0.47952236  0.66387184  0.62425061  1
  O2-  O172  1  0.46803230  0.99160308  0.12413882  1
  O2-  O173  1  0.47213386  0.99597004  0.62637566  1
  O2-  O174  1  0.80866253  0.32638419  0.12379730  1
  O2-  O175  1  0.81050934  0.32142399  0.62575637  1
  O2-  O176  1  0.80723027  0.65714178  0.12749109  1
  O2-  O177  1  0.80711006  0.66061748  0.62293153  1
  O2-  O178  1  0.80660816  0.99477721  0.12638727  1
  O2-  O179  1  0.80478364  0.99087935  0.62516120  1
  O2-  O180  1  0.30463519  0.17472987  0.37332766  1
  O2-  O181  1  0.30554977  0.17309017  0.87574753  1
  O2-  O182  1  0.30935722  0.50451566  0.37450890  1
  O2-  O183  1  0.31019832  0.50481806  0.87620387  1
  O2-  O184  1  0.30751052  0.84152967  0.37209997  1
  O2-  O185  1  0.30821515  0.84002084  0.87563814  1
  O2-  O186  1  0.63891983  0.16982295  0.37646921  1
  O2-  O187  1  0.64054531  0.17147268  0.87459974  1
  O2-  O188  1  0.64237961  0.50535615  0.37705551  1
  O2-  O189  1  0.64376095  0.49904633  0.87139777  1
  O2-  O190  1  0.63974443  0.84067771  0.37486730  1
  O2-  O191  1  0.64224454  0.83934547  0.87465863  1
  O2-  O192  1  0.98427520  0.16918634  0.37547121  1
  O2-  O193  1  0.97182150  0.16976786  0.87428287  1
  O2-  O194  1  0.97678305  0.50433181  0.37729230  1
  O2-  O195  1  0.96963314  0.50408166  0.87536845  1
  O2-  O196  1  0.97828878  0.83964115  0.37561249  1
  O2-  O197  1  0.97122049  0.83971831  0.87431089  1
  O2-  O198  1  0.19476484  0.00667814  0.37298824  1
  O2-  O199  1  0.19117613  0.00821714  0.87512713  1
  O2-  O200  1  0.19002539  0.33564202  0.37470101  1
  O2-  O201  1  0.19211397  0.33912510  0.87498956  1
  O2-  O202  1  0.19176133  0.67615632  0.37253993  1
  O2-  O203  1  0.19309361  0.67231672  0.87638543  1
  O2-  O204  1  0.52472632  0.00432981  0.37299094  1
  O2-  O205  1  0.52656774  0.00606885  0.87640940  1
  O2-  O206  1  0.52595741  0.33682517  0.37633566  1
  O2-  O207  1  0.52650476  0.33798569  0.87365875  1
  O2-  O208  1  0.52537453  0.67276554  0.37605574  1
  O2-  O209  1  0.52107091  0.67002272  0.87442287  1
  O2-  O210  1  0.85713251  -0.00141861  0.37661402  1
  O2-  O211  1  0.85492316  0.00879414  0.87155259  1
  O2-  O212  1  0.85296549  0.33726800  0.37684863  1
  O2-  O213  1  0.85894767  0.34323537  0.87486666  1
  O2-  O214  1  0.86105426  0.67570380  0.37505612  1
  O2-  O215  1  0.85612977  0.67507188  0.87445942  1
  O2-  O216  1  0.23665740  0.10011594  0.02051433  1
  O2-  O217  1  0.23512758  0.09593742  0.52225955  1
  O2-  O218  1  0.23608745  0.43125810  0.01331905  1
  O2-  O219  1  0.24183265  0.42293678  0.51674918  1
  O2-  O220  1  0.23974724  0.76408626  0.02047203  1
  O2-  O221  1  0.23632117  0.76451143  0.51647698  1
  O2-  O222  1  0.56781781  0.09513088  0.02292288  1
  O2-  O223  1  0.56764124  0.09588688  0.51796329  1
  O2-  O224  1  0.57534495  0.42444545  0.01704966  1
  O2-  O225  1  0.57458405  0.43006089  0.52107392  1
  O2-  O226  1  0.57275278  0.76222045  0.01947899  1
  O2-  O227  1  0.57042795  0.76546614  0.51657642  1
  O2-  O228  1  0.90278222  0.09425133  0.01779166  1
  O2-  O229  1  0.90494636  0.09306153  0.52428588  1
  O2-  O230  1  0.90902987  0.42374243  0.02602364  1
  O2-  O231  1  0.90318467  0.42720878  0.52056747  1
  O2-  O232  1  0.90575195  0.75673731  0.02348157  1
  O2-  O233  1  0.90426638  0.76085160  0.52152368  1
  O2-  O234  1  0.26738903  0.26652088  0.22995646  1
  O2-  O235  1  0.26465289  0.26183004  0.73146990  1
  O2-  O236  1  0.26127818  0.59676579  0.22999465  1
  O2-  O237  1  0.26053761  0.59352028  0.73806730  1
  O2-  O238  1  0.26207069  0.93075850  0.22548293  1
  O2-  O239  1  0.26193197  0.92900032  0.73225115  1
  O2-  O240  1  0.59520462  0.26094431  0.23196085  1
  O2-  O241  1  0.59541494  0.26099825  0.72894197  1
  O2-  O242  1  0.60004440  0.59501272  0.23423650  1
  O2-  O243  1  0.59781999  0.59221624  0.72596646  1
  O2-  O244  1  0.59067070  0.93006780  0.22761021  1
  O2-  O245  1  0.59708409  0.92825098  0.72851061  1
  O2-  O246  1  0.92687185  0.25791129  0.22897753  1
  O2-  O247  1  0.93299510  0.26370188  0.73338360  1
  O2-  O248  1  0.92966122  0.59387744  0.23006933  1
  O2-  O249  1  0.92841734  0.59835172  0.73235227  1
  O2-  O250  1  0.92261450  0.92225665  0.23093140  1
  O2-  O251  1  0.92685141  0.92942072  0.72822621  1
  O2-  O252  1  0.09878000  0.23824275  0.26302342  1
  O2-  O253  1  0.09444957  0.23675023  0.77519812  1
  O2-  O254  1  0.09508115  0.57122696  0.27171745  1
  O2-  O255  1  0.08945348  0.57226096  0.77354344  1
  O2-  O256  1  0.09926997  0.90625580  0.26501654  1
  O2-  O257  1  0.09463402  0.90684328  0.77304464  1
  O2-  O258  1  0.42670457  0.23856348  0.27306432  1
  O2-  O259  1  0.42682078  0.23768003  0.77085861  1
  O2-  O260  1  0.42658265  0.57305916  0.27249010  1
  O2-  O261  1  0.43005657  0.57187468  0.76817114  1
  O2-  O262  1  0.43007879  0.90368928  0.26804140  1
  O2-  O263  1  0.42929831  0.90650596  0.77238050  1
  O2-  O264  1  0.75779416  0.24027266  0.26794947  1
  O2-  O265  1  0.76307291  0.23996470  0.77397502  1
  O2-  O266  1  0.76572159  0.57176812  0.27349478  1
  O2-  O267  1  0.76585699  0.56817149  0.76813884  1
  O2-  O268  1  0.75885512  0.90618863  0.27093221  1
  O2-  O269  1  0.76273231  0.90364858  0.77092774  1
  O2-  O270  1  0.06995238  0.06855483  0.48051668  1
  O2-  O271  1  0.07018634  0.07210344  0.97809279  1
  O2-  O272  1  0.07654714  0.40693256  0.48565173  1
  O2-  O273  1  0.07198092  0.40474179  0.97710464  1
  O2-  O274  1  0.07181792  0.73981139  0.47998635  1
  O2-  O275  1  0.07102276  0.73925852  0.97817233  1
  O2-  O276  1  0.40056179  0.07140712  0.47892860  1
  O2-  O277  1  0.40450491  0.07428883  0.97559047  1
  O2-  O278  1  0.40804978  0.40535343  0.47842849  1
  O2-  O279  1  0.40848147  0.40719421  0.97765946  1
  O2-  O280  1  0.40430169  0.74192913  0.47712097  1
  O2-  O281  1  0.40572701  0.73913699  0.98048161  1
  O2-  O282  1  0.73601067  0.07041232  0.48164163  1
  O2-  O283  1  0.73318401  0.06936096  0.98350688  1
  O2-  O284  1  0.73772168  0.40551104  0.47984266  1
  O2-  O285  1  0.73883884  0.40243451  0.98369800  1
  O2-  O286  1  0.74075181  0.74172457  0.47584991  1
  O2-  O287  1  0.74010566  0.73640424  0.98827225  1
  O2-  O288  1  0.09771209  0.23648291  0.48438838  1
  O2-  O289  1  0.09438784  0.23974744  0.97802572  1
  O2-  O290  1  0.09471806  0.57569555  0.47857947  1
  O2-  O291  1  0.09177470  0.56946423  0.97674528  1
  O2-  O292  1  0.09810489  0.90572505  0.48206129  1
  O2-  O293  1  0.09499821  0.90734202  0.97943174  1
  O2-  O294  1  0.42512329  0.23586511  0.47937910  1
  O2-  O295  1  0.42752554  0.23987040  0.97668161  1
  O2-  O296  1  0.43096223  0.57247067  0.48018469  1
  O2-  O297  1  0.42621414  0.57204270  0.97864854  1
  O2-  O298  1  0.43060189  0.90489838  0.48245816  1
  O2-  O299  1  0.42885988  0.90570658  0.97773760  1
  O2-  O300  1  0.75498960  0.24205118  0.48115379  1
  O2-  O301  1  0.76426796  0.23821058  0.97759031  1
  O2-  O302  1  0.76247508  0.57371705  0.47460416  1
  O2-  O303  1  0.76707431  0.56659083  0.98329028  1
  O2-  O304  1  0.76056971  0.90467655  0.47932665  1
  O2-  O305  1  0.76121811  0.90500376  0.97951662  1
  O2-  O306  1  0.07267869  0.07070724  0.27197129  1
  O2-  O307  1  0.06559324  0.06939924  0.76816884  1
  O2-  O308  1  0.07618620  0.40624951  0.26675521  1
  O2-  O309  1  0.07211758  0.40426848  0.77071199  1
  O2-  O310  1  0.07159369  0.73874534  0.26898879  1
  O2-  O311  1  0.07170561  0.73927527  0.77333072  1
  O2-  O312  1  0.40219783  0.07242179  0.27433082  1
  O2-  O313  1  0.40219221  0.07324255  0.77184002  1
  O2-  O314  1  0.40939902  0.40555331  0.27227943  1
  O2-  O315  1  0.40821703  0.40577874  0.77107688  1
  O2-  O316  1  0.40332145  0.74081996  0.27041138  1
  O2-  O317  1  0.40532104  0.74153586  0.77259387  1
  O2-  O318  1  0.73267070  0.06998572  0.26637732  1
  O2-  O319  1  0.73583075  0.07033716  0.76865302  1
  O2-  O320  1  0.73993038  0.40646303  0.27061100  1
  O2-  O321  1  0.73675680  0.40108855  0.76592661  1
  O2-  O322  1  0.74015998  0.73802618  0.27093006  1
  O2-  O323  1  0.74060469  0.73995451  0.76456782  1
  O2-  O324  1  0.23443981  0.10165417  0.22870060  1
  O2-  O325  1  0.23727339  0.09415263  0.72636891  1
  O2-  O326  1  0.23701355  0.43026673  0.23624590  1
  O2-  O327  1  0.24140506  0.42380459  0.73322594  1
  O2-  O328  1  0.23875187  0.76423724  0.22677101  1
  O2-  O329  1  0.23740538  0.76557674  0.73510595  1
  O2-  O330  1  0.56689001  0.09498747  0.22703019  1
  O2-  O331  1  0.56793715  0.09612771  0.73216523  1
  O2-  O332  1  0.57455864  0.42347283  0.23414998  1
  O2-  O333  1  0.57424965  0.42914742  0.72724943  1
  O2-  O334  1  0.57267213  0.76189748  0.22975249  1
  O2-  O335  1  0.57050614  0.76472840  0.73378787  1
  O2-  O336  1  0.90273443  0.09388769  0.23119957  1
  O2-  O337  1  0.90452762  0.09491109  0.72499214  1
  O2-  O338  1  0.90755751  0.42615357  0.23050755  1
  O2-  O339  1  0.90492914  0.42573197  0.72551970  1
  O2-  O340  1  0.90412434  0.75884601  0.22777196  1
  O2-  O341  1  0.90609300  0.75868196  0.72638225  1
  O2-  O342  1  0.26692299  0.26617904  0.01918176  1
  O2-  O343  1  0.26411544  0.26190221  0.51911882  1
  O2-  O344  1  0.26245841  0.59454284  0.02004510  1
  O2-  O345  1  0.26179326  0.59508710  0.51184558  1
  O2-  O346  1  0.26184611  0.93240490  0.01806413  1
  O2-  O347  1  0.26049931  0.92816460  0.52168692  1
  O2-  O348  1  0.59757665  0.26135969  0.01750681  1
  O2-  O349  1  0.59304429  0.26037671  0.52149235  1
  O2-  O350  1  0.59695332  0.59361183  0.01867177  1
  O2-  O351  1  0.59983743  0.59563458  0.52152345  1
  O2-  O352  1  0.59222076  0.92914703  0.02146846  1
  O2-  O353  1  0.59625287  0.92910291  0.52200570  1
  O2-  O354  1  0.92913831  0.26088736  0.01882940  1
  O2-  O355  1  0.92913855  0.25953765  0.51995558  1
  O2-  O356  1  0.92891286  0.59393472  0.02155197  1
  O2-  O357  1  0.92902822  0.59796874  0.51697767  1
  O2-  O358  1  0.92453013  0.92604317  0.01792984  1
  O2-  O359  1  0.92492647  0.92584220  0.52390529  1
