# generated using pymatgen
data_Sr7Ca15Pr50Mn72O216
_symmetry_space_group_name_H-M   'P 1'
_cell_length_a   16.55974147
_cell_length_b   16.60673371
_cell_length_c   15.59224365
_cell_angle_alpha   90.00233051
_cell_angle_beta   89.99970504
_cell_angle_gamma   90.00185846
_symmetry_Int_Tables_number   1
_chemical_formula_structural   Sr7Ca15Pr50Mn72O216
_chemical_formula_sum   'Sr7 Ca15 Pr50 Mn72 O216'
_cell_volume   4287.91715791
_cell_formula_units_Z   1
loop_
 _symmetry_equiv_pos_site_id
 _symmetry_equiv_pos_as_xyz
  1  'x, y, z'
loop_
 _atom_type_symbol
 _atom_type_oxidation_number
  Sr2+  2.0
  Ca2+  2.0
  Pr3+  3.0
  Mn3.30+  3.3
  O2-  -2.0
loop_
 _atom_site_type_symbol
 _atom_site_label
 _atom_site_symmetry_multiplicity
 _atom_site_fract_x
 _atom_site_fract_y
 _atom_site_fract_z
 _atom_site_occupancy
  Sr2+  Sr0  1  0.66819740  0.65702806  0.87393447  1
  Sr2+  Sr1  1  0.50082740  0.84313752  0.62476876  1
  Sr2+  Sr2  1  0.33639740  0.98822838  0.37499942  1
  Sr2+  Sr3  1  0.83636351  0.17868204  0.62455942  1
  Sr2+  Sr4  1  1.00129930  0.32605664  0.87228962  1
  Sr2+  Sr5  1  0.33409665  0.99086084  0.87460407  1
  Sr2+  Sr6  1  0.16852267  0.84353365  0.12441319  1
  Ca2+  Ca7  1  0.50429583  0.18281067  0.12286811  1
  Ca2+  Ca8  1  -0.00355558  0.34763278  0.62430432  1
  Ca2+  Ca9  1  0.49547590  0.82080172  0.37578964  1
  Ca2+  Ca10  1  0.16062337  0.48156689  0.37702165  1
  Ca2+  Ca11  1  0.16877331  0.18250392  0.62477857  1
  Ca2+  Ca12  1  1.00861767  0.98457642  0.87450107  1
  Ca2+  Ca13  1  0.49510061  0.15128968  0.87651422  1
  Ca2+  Ca14  1  0.33397892  0.31842042  0.37537718  1
  Ca2+  Ca15  1  1.00363398  0.31946948  0.37905713  1
  Ca2+  Ca16  1  0.66237157  0.34826583  0.12556157  1
  Ca2+  Ca17  1  1.00376291  0.65227305  0.87445509  1
  Ca2+  Ca18  1  0.16269847  0.81707358  0.87570194  1
  Ca2+  Ca19  1  0.83756904  0.51263685  0.62673390  1
  Ca2+  Ca20  1  0.82927073  0.81903393  0.37564124  1
  Ca2+  Ca21  1  0.33481831  0.65462164  0.87476923  1
  Pr3+  Pr22  1  0.66692826  0.98932106  0.87464815  1
  Pr3+  Pr23  1  0.49391968  0.81833011  0.87430657  1
  Pr3+  Pr24  1  0.50207507  0.51119207  0.12581615  1
  Pr3+  Pr25  1  -0.00152331  0.34647734  0.12580013  1
  Pr3+  Pr26  1  0.16125404  0.15264709  0.87377381  1
  Pr3+  Pr27  1  0.83652072  0.84557571  0.62598468  1
  Pr3+  Pr28  1  0.16422914  0.48933103  0.87361422  1
  Pr3+  Pr29  1  0.32968987  0.68052676  0.62700418  1
  Pr3+  Pr30  1  0.66409013  0.67973844  0.12414249  1
  Pr3+  Pr31  1  0.83114039  0.48678393  0.37748756  1
  Pr3+  Pr32  1  0.83260515  0.15568915  0.37639626  1
  Pr3+  Pr33  1  0.66419279  0.01180585  0.62623411  1
  Pr3+  Pr34  1  0.49509843  0.15450922  0.37384835  1
  Pr3+  Pr35  1  0.50126681  0.51212332  0.62396603  1
  Pr3+  Pr36  1  0.33703105  0.31883697  0.87420775  1
  Pr3+  Pr37  1  0.16635990  0.15551415  0.37622154  1
  Pr3+  Pr38  1  0.66783341  0.65751029  0.37616764  1
  Pr3+  Pr39  1  0.50273835  0.17613449  0.62723660  1
  Pr3+  Pr40  1  0.83342667  0.82001936  0.87453647  1
  Pr3+  Pr41  1  0.83566778  0.18135898  0.12523084  1
  Pr3+  Pr42  1  0.17038467  0.84547192  0.62602871  1
  Pr3+  Pr43  1  0.66957452  0.31935040  0.37359373  1
  Pr3+  Pr44  1  0.83733465  0.84676370  0.12463220  1
  Pr3+  Pr45  1  0.83133513  0.48913253  0.87274260  1
  Pr3+  Pr46  1  0.16604864  0.51036696  0.62525124  1
  Pr3+  Pr47  1  0.49421472  0.48376675  0.37511945  1
  Pr3+  Pr48  1  1.00204496  0.98825791  0.37593866  1
  Pr3+  Pr49  1  0.83467594  0.51275790  0.12525589  1
  Pr3+  Pr50  1  0.33106906  0.34442586  0.12692881  1
  Pr3+  Pr51  1  0.67014618  0.98549339  0.37550802  1
  Pr3+  Pr52  1  0.16961873  0.51185343  0.12493570  1
  Pr3+  Pr53  1  0.66231832  0.01518393  0.12374086  1
  Pr3+  Pr54  1  -0.00382090  0.67731154  0.62704435  1
  Pr3+  Pr55  1  0.83473261  0.15642288  0.87365118  1
  Pr3+  Pr56  1  0.17003284  0.17930540  0.12520194  1
  Pr3+  Pr57  1  0.16564514  0.82179586  0.37420249  1
  Pr3+  Pr58  1  0.33493331  0.65706459  0.37499962  1
  Pr3+  Pr59  1  -0.00110147  0.01306851  0.12322120  1
  Pr3+  Pr60  1  0.49714048  0.48959312  0.87479100  1
  Pr3+  Pr61  1  0.32867667  0.68027837  0.12305662  1
  Pr3+  Pr62  1  0.33013887  0.01480666  0.62481925  1
  Pr3+  Pr63  1  0.33094139  0.01327350  0.12491905  1
  Pr3+  Pr64  1  -0.00187464  0.68072912  0.12283878  1
  Pr3+  Pr65  1  0.67056717  0.32209729  0.87640735  1
  Pr3+  Pr66  1  0.66541759  0.67934617  0.62592804  1
  Pr3+  Pr67  1  -0.00192236  0.01473948  0.62671645  1
  Pr3+  Pr68  1  0.32813759  0.34380713  0.62283066  1
  Pr3+  Pr69  1  0.50088146  0.84602740  0.12487853  1
  Pr3+  Pr70  1  0.66587794  0.34606827  0.62421234  1
  Pr3+  Pr71  1  1.00380666  0.65202920  0.37514648  1
  Mn3.30+  Mn72  1  0.16658230  -0.00227895  -0.00112825  1
  Mn3.30+  Mn73  1  0.16661878  0.00092067  0.50008932  1
  Mn3.30+  Mn74  1  0.16695503  0.33334316  -0.00065355  1
  Mn3.30+  Mn75  1  0.16425784  0.33300932  0.49933414  1
  Mn3.30+  Mn76  1  0.16639197  0.66751317  -0.00332737  1
  Mn3.30+  Mn77  1  0.16570259  0.66466884  0.49993829  1
  Mn3.30+  Mn78  1  0.49858390  0.00185509  -0.00046996  1
  Mn3.30+  Mn79  1  0.49983511  -0.00181992  0.49948333  1
  Mn3.30+  Mn80  1  0.50162448  0.33213311  0.00033741  1
  Mn3.30+  Mn81  1  0.49768787  0.33167396  0.49973930  1
  Mn3.30+  Mn82  1  0.49757177  0.66571024  -0.00070638  1
  Mn3.30+  Mn83  1  0.49978417  0.66781974  0.49954864  1
  Mn3.30+  Mn84  1  0.83515970  0.00112235  -0.00260314  1
  Mn3.30+  Mn85  1  0.83411876  -0.00046378  0.50011911  1
  Mn3.30+  Mn86  1  0.83201078  0.33443529  0.00116893  1
  Mn3.30+  Mn87  1  0.83676764  0.33400447  0.50081968  1
  Mn3.30+  Mn88  1  0.83416343  0.66673717  -0.00157418  1
  Mn3.30+  Mn89  1  0.83427194  0.66657679  0.49965561  1
  Mn3.30+  Mn90  1  0.00045097  0.16835883  0.25111481  1
  Mn3.30+  Mn91  1  0.00151794  0.16876002  0.74848946  1
  Mn3.30+  Mn92  1  0.00167109  0.49841841  0.25181947  1
  Mn3.30+  Mn93  1  -0.00129443  0.49990862  0.74908852  1
  Mn3.30+  Mn94  1  -0.00196488  0.83341299  0.25132624  1
  Mn3.30+  Mn95  1  0.00351653  0.83311235  0.75225837  1
  Mn3.30+  Mn96  1  0.33593236  0.16816011  0.24895758  1
  Mn3.30+  Mn97  1  0.33276923  0.16653765  0.75027047  1
  Mn3.30+  Mn98  1  0.33091837  0.49803311  0.25352597  1
  Mn3.30+  Mn99  1  0.33249704  0.50063353  0.74917026  1
  Mn3.30+  Mn100  1  0.33481567  0.83355666  0.25041193  1
  Mn3.30+  Mn101  1  0.33111343  0.83408869  0.75252503  1
  Mn3.30+  Mn102  1  0.66446196  0.16812511  0.24768867  1
  Mn3.30+  Mn103  1  0.66617459  0.16715918  0.75233678  1
  Mn3.30+  Mn104  1  0.66570191  0.49977303  0.25125450  1
  Mn3.30+  Mn105  1  0.66775310  0.50045733  0.74827660  1
  Mn3.30+  Mn106  1  0.66659229  0.83373210  0.25117872  1
  Mn3.30+  Mn107  1  0.66664241  0.83371302  0.75085474  1
  Mn3.30+  Mn108  1  0.16738194  -0.00053179  0.25000714  1
  Mn3.30+  Mn109  1  0.16561618  -0.00047312  0.75064077  1
  Mn3.30+  Mn110  1  0.16579208  0.33380008  0.25405976  1
  Mn3.30+  Mn111  1  0.16504782  0.33229046  0.74750978  1
  Mn3.30+  Mn112  1  0.16687387  0.66486000  0.25075888  1
  Mn3.30+  Mn113  1  0.16514887  0.66714892  0.75259404  1
  Mn3.30+  Mn114  1  0.49998433  0.00007683  0.24986021  1
  Mn3.30+  Mn115  1  0.49843793  -0.00030659  0.75082411  1
  Mn3.30+  Mn116  1  0.49962323  0.33193570  0.24918220  1
  Mn3.30+  Mn117  1  0.49995272  0.33203207  0.75074814  1
  Mn3.30+  Mn118  1  0.49924926  0.66750770  0.25066214  1
  Mn3.30+  Mn119  1  0.49855525  0.66587730  0.75040466  1
  Mn3.30+  Mn120  1  0.83230276  0.00003749  0.24980884  1
  Mn3.30+  Mn121  1  0.83683855  0.00093847  0.75269543  1
  Mn3.30+  Mn122  1  0.83352730  0.33392301  0.25092504  1
  Mn3.30+  Mn123  1  0.83563994  0.33402871  0.74773408  1
  Mn3.30+  Mn124  1  0.83369946  0.66793156  0.25169372  1
  Mn3.30+  Mn125  1  0.83475967  0.66539845  0.75009725  1
  Mn3.30+  Mn126  1  0.00089532  0.16722090  -0.00127301  1
  Mn3.30+  Mn127  1  0.00144069  0.17018439  0.50200558  1
  Mn3.30+  Mn128  1  0.00077314  0.50138501  -0.00053884  1
  Mn3.30+  Mn129  1  -0.00085428  0.49710720  0.50003028  1
  Mn3.30+  Mn130  1  0.00273207  0.83413173  -0.00211211  1
  Mn3.30+  Mn131  1  -0.00116587  0.83241741  0.49932884  1
  Mn3.30+  Mn132  1  0.33632704  0.16669775  0.00020268  1
  Mn3.30+  Mn133  1  0.33241725  0.16803012  0.50000124  1
  Mn3.30+  Mn134  1  0.33338939  0.49991137  -0.00039054  1
  Mn3.30+  Mn135  1  0.33001418  0.49865038  0.49745819  1
  Mn3.30+  Mn136  1  0.33062519  0.83327044  -0.00338192  1
  Mn3.30+  Mn137  1  0.33487842  0.83414056  0.50014898  1
  Mn3.30+  Mn138  1  0.66409184  0.16890293  -0.00027836  1
  Mn3.30+  Mn139  1  0.66686602  0.16647657  0.50058625  1
  Mn3.30+  Mn140  1  0.66615522  0.50008236  0.00033626  1
  Mn3.30+  Mn141  1  0.66728238  0.50025251  0.50034922  1
  Mn3.30+  Mn142  1  0.66717226  0.83406131  -0.00048067  1
  Mn3.30+  Mn143  1  0.66660522  0.83334800  0.49864670  1
  O2-  O144  1  0.02539951  0.16147862  0.12552330  1
  O2-  O145  1  0.02764100  0.15897737  0.62494620  1
  O2-  O146  1  0.02562504  0.49472553  0.12765804  1
  O2-  O147  1  0.02284250  0.49715600  0.62341552  1
  O2-  O148  1  0.01881453  0.82894704  0.12438383  1
  O2-  O149  1  0.02663496  0.82524150  0.62460398  1
  O2-  O150  1  0.36045518  0.16387550  0.12377544  1
  O2-  O151  1  0.35834018  0.16544170  0.62445522  1
  O2-  O152  1  0.35830040  0.49188970  0.12833663  1
  O2-  O153  1  0.35789286  0.49215434  0.62228850  1
  O2-  O154  1  0.35732358  0.82686800  0.12341890  1
  O2-  O155  1  0.35098424  0.82799988  0.62609447  1
  O2-  O156  1  0.69414012  0.16025569  0.12399498  1
  O2-  O157  1  0.68674814  0.15965247  0.62804678  1
  O2-  O158  1  0.69035020  0.49518113  0.12868046  1
  O2-  O159  1  0.69379908  0.49352988  0.62316470  1
  O2-  O160  1  0.69270921  0.82948488  0.12533574  1
  O2-  O161  1  0.69176316  0.83076320  0.62593295  1
  O2-  O162  1  0.14267330  0.32835491  0.12728226  1
  O2-  O163  1  0.14075078  0.32898767  0.62381380  1
  O2-  O164  1  0.14177319  0.65983417  0.12483613  1
  O2-  O165  1  0.13959822  0.66053604  0.62406660  1
  O2-  O166  1  0.14283000  0.99954844  0.12586216  1
  O2-  O167  1  0.14046853  0.99120755  0.62456988  1
  O2-  O168  1  0.47392933  0.33006169  0.12428092  1
  O2-  O169  1  0.47276195  0.32547166  0.62597579  1
  O2-  O170  1  0.47346723  0.66020939  0.12475182  1
  O2-  O171  1  0.47440926  0.66058302  0.62426256  1
  O2-  O172  1  0.47527566  0.99144045  0.12534946  1
  O2-  O173  1  0.47670396  0.99880587  0.62558433  1
  O2-  O174  1  0.80552465  0.32940094  0.12713740  1
  O2-  O175  1  0.80782402  0.33034142  0.62416838  1
  O2-  O176  1  0.80882911  0.66177634  0.12655561  1
  O2-  O177  1  0.80978405  0.66116813  0.62416032  1
  O2-  O178  1  0.80682582  0.99480281  0.12322826  1
  O2-  O179  1  0.80878215  0.99394385  0.62691386  1
  O2-  O180  1  0.31112659  0.17163537  0.37543242  1
  O2-  O181  1  0.30648704  0.17169324  0.87576388  1
  O2-  O182  1  0.30224239  0.51089592  0.37598897  1
  O2-  O183  1  0.30894893  0.50569278  0.87303656  1
  O2-  O184  1  0.30978412  0.83114002  0.37590693  1
  O2-  O185  1  0.30527439  0.83815228  0.87482778  1
  O2-  O186  1  0.63996290  0.17157997  0.37230360  1
  O2-  O187  1  0.63737535  0.17442493  0.87617205  1
  O2-  O188  1  0.63889933  0.50789823  0.37581175  1
  O2-  O189  1  0.64154308  0.50143200  0.87228468  1
  O2-  O190  1  0.63805388  0.83764447  0.37352825  1
  O2-  O191  1  0.64035764  0.83952258  0.87528504  1
  O2-  O192  1  0.97588846  0.17279906  0.37469999  1
  O2-  O193  1  0.97820943  0.17304057  0.87486289  1
  O2-  O194  1  0.97347407  0.50661196  0.37453189  1
  O2-  O195  1  0.97587153  0.50523107  0.87464925  1
  O2-  O196  1  0.97046769  0.83968813  0.37598038  1
  O2-  O197  1  0.97453068  0.84183575  0.87498289  1
  O2-  O198  1  0.18648672  0.00546298  0.37448109  1
  O2-  O199  1  0.18664627  0.00871502  0.87478810  1
  O2-  O200  1  0.19285577  0.33737148  0.37508548  1
  O2-  O201  1  0.19186052  0.34002299  0.87335089  1
  O2-  O202  1  0.19089760  0.67441825  0.37638319  1
  O2-  O203  1  0.19360735  0.66832512  0.87473131  1
  O2-  O204  1  0.52661016  0.00901214  0.37292099  1
  O2-  O205  1  0.52322995  0.00605352  0.87593778  1
  O2-  O206  1  0.52593100  0.33595315  0.37478817  1
  O2-  O207  1  0.52704121  0.34382886  0.87476768  1
  O2-  O208  1  0.52349640  0.67298975  0.37524727  1
  O2-  O209  1  0.51877694  0.66802025  0.87587081  1
  O2-  O210  1  0.85800230  0.00841642  0.37419464  1
  O2-  O211  1  0.86466204  0.00836358  0.87608492  1
  O2-  O212  1  0.86032518  0.33838665  0.37499213  1
  O2-  O213  1  0.85138591  0.33997882  0.87421386  1
  O2-  O214  1  0.85983356  0.67414055  0.37482918  1
  O2-  O215  1  0.86040632  0.67137989  0.87433359  1
  O2-  O216  1  0.23944534  0.09501544  0.02061798  1
  O2-  O217  1  0.24007552  0.09598664  0.52149503  1
  O2-  O218  1  0.24054601  0.42740910  0.02001256  1
  O2-  O219  1  0.23598359  0.42646065  0.52210837  1
  O2-  O220  1  0.23998204  0.75704471  0.01931495  1
  O2-  O221  1  0.23647983  0.75908704  0.51950069  1
  O2-  O222  1  0.57457816  0.09633415  0.02280318  1
  O2-  O223  1  0.57202604  0.09394423  0.51965393  1
  O2-  O224  1  0.56862832  0.42958080  0.01889856  1
  O2-  O225  1  0.56902443  0.42547230  0.51986435  1
  O2-  O226  1  0.57060879  0.75897179  0.01999202  1
  O2-  O227  1  0.57872371  0.75777501  0.52018808  1
  O2-  O228  1  0.90443864  0.09553201  0.02207090  1
  O2-  O229  1  0.91019920  0.09402179  0.51653052  1
  O2-  O230  1  0.90592172  0.42827762  0.02131858  1
  O2-  O231  1  0.90081095  0.43374656  0.51814500  1
  O2-  O232  1  0.90510742  0.76229075  0.01879327  1
  O2-  O233  1  0.90631771  0.76013859  0.52392967  1
  O2-  O234  1  0.26051901  0.26060469  0.22898211  1
  O2-  O235  1  0.26428749  0.26375135  0.73284398  1
  O2-  O236  1  0.26263977  0.59316624  0.22773045  1
  O2-  O237  1  0.25780195  0.59329411  0.72654583  1
  O2-  O238  1  0.26476500  0.92620637  0.23249359  1
  O2-  O239  1  0.26058803  0.92892399  0.72698768  1
  O2-  O240  1  0.59966789  0.26424024  0.23006180  1
  O2-  O241  1  0.59467011  0.26220308  0.72841737  1
  O2-  O242  1  0.59344609  0.59582951  0.22984874  1
  O2-  O243  1  0.59450902  0.59019560  0.72537625  1
  O2-  O244  1  0.59735805  0.93040837  0.22942229  1
  O2-  O245  1  0.59756494  0.93057080  0.73444415  1
  O2-  O246  1  0.92806237  0.25993644  0.22685217  1
  O2-  O247  1  0.92974697  0.26389935  0.73053290  1
  O2-  O248  1  0.93026778  0.59435493  0.22988493  1
  O2-  O249  1  0.92820252  0.59461074  0.73035759  1
  O2-  O250  1  0.92701950  0.92997854  0.22873199  1
  O2-  O251  1  0.92990780  0.92492077  0.72727370  1
  O2-  O252  1  0.09835632  0.23590153  0.26800812  1
  O2-  O253  1  0.09797296  0.23648006  0.76767209  1
  O2-  O254  1  0.09579538  0.56880365  0.27243073  1
  O2-  O255  1  0.09584098  0.57156244  0.76755640  1
  O2-  O256  1  0.08923743  0.90477380  0.27307334  1
  O2-  O257  1  0.09904254  0.90002682  0.76800070  1
  O2-  O258  1  0.42920951  0.23891653  0.26848541  1
  O2-  O259  1  0.43075121  0.23861449  0.77326854  1
  O2-  O260  1  0.42587133  0.56964301  0.27232049  1
  O2-  O261  1  0.42869079  0.56967241  0.76486516  1
  O2-  O262  1  0.43329631  0.90013166  0.26622966  1
  O2-  O263  1  0.42984442  0.90421395  0.76935214  1
  O2-  O264  1  0.76235809  0.23748234  0.27169600  1
  O2-  O265  1  0.75938551  0.24072721  0.77268658  1
  O2-  O266  1  0.76182919  0.57388331  0.27185173  1
  O2-  O267  1  0.76237006  0.57225870  0.76848822  1
  O2-  O268  1  0.76120664  0.90348306  0.27216314  1
  O2-  O269  1  0.76376859  0.90841350  0.77292619  1
  O2-  O270  1  0.07235284  0.07270754  0.47939167  1
  O2-  O271  1  0.07158756  0.06986216  0.98180746  1
  O2-  O272  1  0.06945738  0.40384961  0.47981453  1
  O2-  O273  1  0.07520372  0.40825265  0.98412410  1
  O2-  O274  1  0.07103962  0.73896708  0.47769434  1
  O2-  O275  1  0.06900035  0.73491335  0.98130247  1
  O2-  O276  1  0.40825489  0.07398210  0.48390441  1
  O2-  O277  1  0.40527329  0.07228732  0.98537090  1
  O2-  O278  1  0.40162727  0.40514666  0.47687715  1
  O2-  O279  1  0.40504687  0.40480850  0.97927310  1
  O2-  O280  1  0.40351083  0.73687994  0.48431605  1
  O2-  O281  1  0.40271602  0.73752355  0.97897022  1
  O2-  O282  1  0.73827302  0.07367028  0.47987332  1
  O2-  O283  1  0.73954406  0.07386303  0.97719632  1
  O2-  O284  1  0.73670756  0.40573006  0.47744813  1
  O2-  O285  1  0.73907722  0.40856285  0.97978988  1
  O2-  O286  1  0.73864338  0.73815857  0.48242035  1
  O2-  O287  1  0.74203100  0.74153438  0.98260332  1
  O2-  O288  1  0.09758054  0.23755298  0.47847840  1
  O2-  O289  1  0.09872326  0.23644639  0.98476118  1
  O2-  O290  1  0.09509461  0.57011837  0.47876827  1
  O2-  O291  1  0.09724717  0.57126554  0.98152323  1
  O2-  O292  1  0.09233244  0.90391459  0.47883218  1
  O2-  O293  1  0.09580036  0.90284306  0.97931230  1
  O2-  O294  1  0.42973849  0.23741568  0.48179348  1
  O2-  O295  1  0.42954745  0.24024491  0.97561536  1
  O2-  O296  1  0.42637219  0.57078210  0.47895603  1
  O2-  O297  1  0.42871977  0.56842135  0.98399997  1
  O2-  O298  1  0.43222407  0.90499839  0.48072938  1
  O2-  O299  1  0.43016760  0.90021680  0.98316750  1
  O2-  O300  1  0.76048863  0.24049474  0.47745500  1
  O2-  O301  1  0.76100542  0.23806374  0.97883468  1
  O2-  O302  1  0.76089680  0.57618452  0.47591716  1
  O2-  O303  1  0.76431883  0.57122039  0.98383459  1
  O2-  O304  1  0.76126308  0.90334337  0.47828099  1
  O2-  O305  1  0.76371947  0.90878068  0.97666600  1
  O2-  O306  1  0.06966865  0.07402052  0.27004740  1
  O2-  O307  1  0.07062501  0.06906752  0.76938913  1
  O2-  O308  1  0.06780184  0.40042664  0.26940793  1
  O2-  O309  1  0.07658087  0.41087966  0.76682666  1
  O2-  O310  1  0.07144819  0.73873290  0.27009632  1
  O2-  O311  1  0.06889535  0.73499942  0.77050448  1
  O2-  O312  1  0.40867158  0.07279671  0.26752780  1
  O2-  O313  1  0.40526714  0.07298428  0.76220587  1
  O2-  O314  1  0.40123220  0.40459234  0.27396941  1
  O2-  O315  1  0.40670333  0.40440134  0.77037858  1
  O2-  O316  1  0.40416465  0.73595585  0.26638124  1
  O2-  O317  1  0.40230429  0.73885259  0.76995003  1
  O2-  O318  1  0.73789687  0.07215646  0.26978834  1
  O2-  O319  1  0.73981169  0.07444122  0.77409960  1
  O2-  O320  1  0.73941923  0.40780305  0.27511622  1
  O2-  O321  1  0.73691658  0.40577844  0.76820573  1
  O2-  O322  1  0.73506810  0.73857667  0.26889175  1
  O2-  O323  1  0.74405323  0.74222439  0.76649153  1
  O2-  O324  1  0.24326378  0.09643500  0.22954559  1
  O2-  O325  1  0.23621302  0.09453840  0.72777214  1
  O2-  O326  1  0.23747645  0.42678181  0.22830800  1
  O2-  O327  1  0.23983957  0.42701602  0.72829542  1
  O2-  O328  1  0.24147940  0.75813583  0.23384768  1
  O2-  O329  1  0.23640900  0.75899368  0.72850124  1
  O2-  O330  1  0.57221995  0.09713679  0.22578522  1
  O2-  O331  1  0.57397680  0.09201449  0.73117337  1
  O2-  O332  1  0.56717396  0.42903268  0.23427036  1
  O2-  O333  1  0.57131535  0.42625138  0.72607255  1
  O2-  O334  1  0.57493507  0.76157694  0.22553392  1
  O2-  O335  1  0.57455373  0.75623905  0.73405103  1
  O2-  O336  1  0.90531237  0.09601965  0.22941938  1
  O2-  O337  1  0.90772862  0.09423263  0.73162934  1
  O2-  O338  1  0.90487772  0.42930754  0.22848683  1
  O2-  O339  1  0.90295946  0.43080439  0.73281541  1
  O2-  O340  1  0.90584291  0.76105786  0.22785668  1
  O2-  O341  1  0.90645719  0.76194419  0.72988619  1
  O2-  O342  1  0.26363094  0.26145656  0.01993329  1
  O2-  O343  1  0.26053002  0.26241350  0.51825675  1
  O2-  O344  1  0.26027561  0.59156322  0.02229590  1
  O2-  O345  1  0.26139558  0.59411645  0.52332756  1
  O2-  O346  1  0.26296588  0.92976465  0.02029959  1
  O2-  O347  1  0.25953668  0.92674385  0.51988245  1
  O2-  O348  1  0.59842896  0.26662500  0.02062222  1
  O2-  O349  1  0.59601123  0.25965087  0.52049100  1
  O2-  O350  1  0.59441914  0.59238333  0.02237897  1
  O2-  O351  1  0.59410604  0.59329174  0.52162574  1
  O2-  O352  1  0.59502488  0.92906581  0.01956810  1
  O2-  O353  1  0.59983885  0.93202965  0.51622172  1
  O2-  O354  1  0.92563921  0.26119428  0.02258088  1
  O2-  O355  1  0.93279110  0.26386450  0.51910393  1
  O2-  O356  1  0.92771005  0.59384178  0.02326895  1
  O2-  O357  1  0.93081212  0.59714573  0.51539584  1
  O2-  O358  1  0.92693741  0.92768906  0.02256807  1
  O2-  O359  1  0.92942528  0.92675121  0.52256940  1
