# generated using pymatgen
data_Sr7Ca15Pr50Mn72O216
_symmetry_space_group_name_H-M   'P 1'
_cell_length_a   16.55801824
_cell_length_b   16.60366495
_cell_length_c   15.59340648
_cell_angle_alpha   90.00173867
_cell_angle_beta   90.00068111
_cell_angle_gamma   90.00097561
_symmetry_Int_Tables_number   1
_chemical_formula_structural   Sr7Ca15Pr50Mn72O216
_chemical_formula_sum   'Sr7 Ca15 Pr50 Mn72 O216'
_cell_volume   4286.99836203
_cell_formula_units_Z   1
loop_
 _symmetry_equiv_pos_site_id
 _symmetry_equiv_pos_as_xyz
  1  'x, y, z'
loop_
 _atom_type_symbol
 _atom_type_oxidation_number
  Sr2+  2.0
  Ca2+  2.0
  Pr3+  3.0
  Mn3.30+  3.3
  O2-  -2.0
loop_
 _atom_site_type_symbol
 _atom_site_label
 _atom_site_symmetry_multiplicity
 _atom_site_fract_x
 _atom_site_fract_y
 _atom_site_fract_z
 _atom_site_occupancy
  Sr2+  Sr0  1  0.17114790  0.50961972  0.12538736  1
  Sr2+  Sr1  1  0.49956405  0.15845245  0.37432580  1
  Sr2+  Sr2  1  0.16659258  0.82480945  0.37543388  1
  Sr2+  Sr3  1  0.50290226  0.84276830  0.12378513  1
  Sr2+  Sr4  1  0.66544856  0.99142567  0.37533807  1
  Sr2+  Sr5  1  0.83399671  0.84171347  0.12222932  1
  Sr2+  Sr6  1  0.33242863  0.34422951  0.12817573  1
  Ca2+  Ca7  1  0.33355895  0.34860860  0.62137966  1
  Ca2+  Ca8  1  0.33055851  0.68202210  0.62688051  1
  Ca2+  Ca9  1  0.17170140  0.84733565  0.62585830  1
  Ca2+  Ca10  1  0.33870394  0.31920826  0.37480095  1
  Ca2+  Ca11  1  0.17168307  0.84575187  0.12367248  1
  Ca2+  Ca12  1  0.34072662  0.64794080  0.87302927  1
  Ca2+  Ca13  1  0.66587872  0.31982920  0.37669571  1
  Ca2+  Ca14  1  0.82682994  0.81485662  0.87579077  1
  Ca2+  Ca15  1  0.33766289  0.98280968  0.87461126  1
  Ca2+  Ca16  1  0.49402444  0.48227923  0.37739934  1
  Ca2+  Ca17  1  0.50056039  0.51429714  0.62572486  1
  Ca2+  Ca18  1  0.67136206  0.98127615  0.87581583  1
  Ca2+  Ca19  1  0.66677984  0.65379877  0.87548989  1
  Ca2+  Ca20  1  0.82631234  0.48294596  0.37610677  1
  Ca2+  Ca21  1  0.49770844  0.48914264  0.87272723  1
  Pr3+  Pr22  1  0.16843690  0.81966951  0.87479973  1
  Pr3+  Pr23  1  0.16759897  0.48868184  0.37484091  1
  Pr3+  Pr24  1  0.00090371  0.68028832  0.12426884  1
  Pr3+  Pr25  1  0.17359031  0.51548302  0.62392320  1
  Pr3+  Pr26  1  0.33740214  0.32567911  0.87506866  1
  Pr3+  Pr27  1  -0.00208781  0.01048676  0.12462964  1
  Pr3+  Pr28  1  0.82744597  0.15157290  0.87447885  1
  Pr3+  Pr29  1  0.50093738  0.18101359  0.62340667  1
  Pr3+  Pr30  1  0.32961684  0.67879378  0.12228608  1
  Pr3+  Pr31  1  1.00464175  0.65688006  0.37477436  1
  Pr3+  Pr32  1  0.66253738  0.68136717  0.12304854  1
  Pr3+  Pr33  1  0.66182537  0.01038941  0.12359721  1
  Pr3+  Pr34  1  0.00087064  0.01040218  0.62566181  1
  Pr3+  Pr35  1  0.83584033  0.51317763  0.12694539  1
  Pr3+  Pr36  1  0.83435045  0.17917784  0.62431440  1
  Pr3+  Pr37  1  0.83389550  0.17809308  0.12586334  1
  Pr3+  Pr38  1  0.16874553  0.49047966  0.87489348  1
  Pr3+  Pr39  1  0.66212943  0.01260213  0.62683460  1
  Pr3+  Pr40  1  0.66101285  0.34618540  0.12804077  1
  Pr3+  Pr41  1  0.17298852  0.18240285  0.62506390  1
  Pr3+  Pr42  1  0.50133434  0.51150286  0.12532917  1
  Pr3+  Pr43  1  0.17031851  0.17978063  0.12462322  1
  Pr3+  Pr44  1  0.82765718  0.49065868  0.87385558  1
  Pr3+  Pr45  1  1.00330881  0.32245142  0.87437253  1
  Pr3+  Pr46  1  0.49599070  0.82281755  0.37507976  1
  Pr3+  Pr47  1  0.66192826  0.67852852  0.62683638  1
  Pr3+  Pr48  1  0.49607571  0.81690943  0.87515507  1
  Pr3+  Pr49  1  -0.00317027  0.34814987  0.62365125  1
  Pr3+  Pr50  1  0.66726621  0.65393523  0.37470636  1
  Pr3+  Pr51  1  0.83358848  0.51417278  0.62252673  1
  Pr3+  Pr52  1  0.83075663  0.82287141  0.37389124  1
  Pr3+  Pr53  1  0.50059624  0.84431245  0.62648199  1
  Pr3+  Pr54  1  0.16598389  0.15505681  0.87582210  1
  Pr3+  Pr55  1  0.65897382  0.34974018  0.62218561  1
  Pr3+  Pr56  1  0.16744317  0.15635763  0.37395403  1
  Pr3+  Pr57  1  0.33029933  0.01064732  0.62686607  1
  Pr3+  Pr58  1  0.33806349  0.98668545  0.37536673  1
  Pr3+  Pr59  1  -0.00046213  0.68142533  0.62587708  1
  Pr3+  Pr60  1  0.50211630  0.18008261  0.12633626  1
  Pr3+  Pr61  1  1.00118507  0.32173228  0.37578394  1
  Pr3+  Pr62  1  1.00056353  0.65635977  0.87528281  1
  Pr3+  Pr63  1  1.00351832  0.98747481  0.37466127  1
  Pr3+  Pr64  1  0.66544466  0.32389001  0.87402100  1
  Pr3+  Pr65  1  1.00204146  0.98590862  0.87585247  1
  Pr3+  Pr66  1  0.33226511  0.00932147  0.12289258  1
  Pr3+  Pr67  1  0.33826313  0.65446488  0.37681223  1
  Pr3+  Pr68  1  -0.00287283  0.34722780  0.12650614  1
  Pr3+  Pr69  1  0.83542132  0.84471045  0.62780554  1
  Pr3+  Pr70  1  0.82696330  0.15341859  0.37552314  1
  Pr3+  Pr71  1  0.49565446  0.15162124  0.87492061  1
  Mn3.30+  Mn72  1  0.16834704  -0.00191712  -0.00136357  1
  Mn3.30+  Mn73  1  0.16772811  -0.00000268  0.50096394  1
  Mn3.30+  Mn74  1  0.16830644  0.33500744  0.00020737  1
  Mn3.30+  Mn75  1  0.16997241  0.33495965  0.49934398  1
  Mn3.30+  Mn76  1  0.16964905  0.66635706  -0.00203575  1
  Mn3.30+  Mn77  1  0.17009134  0.66946861  0.50131962  1
  Mn3.30+  Mn78  1  0.50029919  -0.00214427  -0.00325599  1
  Mn3.30+  Mn79  1  0.49891604  0.00030272  0.50055051  1
  Mn3.30+  Mn80  1  0.50001794  0.33575434  -0.00014984  1
  Mn3.30+  Mn81  1  0.49648775  0.33607821  0.49896296  1
  Mn3.30+  Mn82  1  0.49959135  0.66413738  -0.00328182  1
  Mn3.30+  Mn83  1  0.49881099  0.66408041  0.50260427  1
  Mn3.30+  Mn84  1  0.83125453  -0.00320242  -0.00180166  1
  Mn3.30+  Mn85  1  0.83278779  -0.00084921  0.50169829  1
  Mn3.30+  Mn86  1  0.83205299  0.33393757  -0.00009834  1
  Mn3.30+  Mn87  1  0.82990734  0.33473641  0.49927943  1
  Mn3.30+  Mn88  1  0.83154478  0.66705145  -0.00065993  1
  Mn3.30+  Mn89  1  0.83317410  0.66614376  0.49863786  1
  Mn3.30+  Mn90  1  -0.00067946  0.16706080  0.25053355  1
  Mn3.30+  Mn91  1  0.00035168  0.16678868  0.74964767  1
  Mn3.30+  Mn92  1  -0.00136594  0.50132710  0.25227775  1
  Mn3.30+  Mn93  1  0.00041222  0.50158560  0.74907667  1
  Mn3.30+  Mn94  1  0.00173271  0.83379711  0.24781811  1
  Mn3.30+  Mn95  1  0.00054698  0.83341846  0.75208017  1
  Mn3.30+  Mn96  1  0.33437785  0.16665753  0.24999212  1
  Mn3.30+  Mn97  1  0.33401524  0.16760618  0.75058661  1
  Mn3.30+  Mn98  1  0.33533187  0.49952256  0.25233563  1
  Mn3.30+  Mn99  1  0.33696579  0.50120763  0.74683446  1
  Mn3.30+  Mn100  1  0.33197579  0.83210487  0.24804334  1
  Mn3.30+  Mn101  1  0.33277490  0.83121546  0.75080851  1
  Mn3.30+  Mn102  1  0.66670416  0.16691872  0.25116410  1
  Mn3.30+  Mn103  1  0.66502158  0.16660174  0.75067272  1
  Mn3.30+  Mn104  1  0.66617409  0.49844539  0.25405728  1
  Mn3.30+  Mn105  1  0.66226857  0.50196254  0.74997268  1
  Mn3.30+  Mn106  1  0.66576191  0.83419264  0.25011381  1
  Mn3.30+  Mn107  1  0.66716820  0.83213978  0.75263559  1
  Mn3.30+  Mn108  1  0.16717042  -0.00144415  0.24832013  1
  Mn3.30+  Mn109  1  0.16891249  -0.00083514  0.75236068  1
  Mn3.30+  Mn110  1  0.16892059  0.33439989  0.25221946  1
  Mn3.30+  Mn111  1  0.16929934  0.33567828  0.74797524  1
  Mn3.30+  Mn112  1  0.16880579  0.66801771  0.24985513  1
  Mn3.30+  Mn113  1  0.17143147  0.66797704  0.75023499  1
  Mn3.30+  Mn114  1  0.49950165  -0.00046142  0.24908920  1
  Mn3.30+  Mn115  1  0.49979806  -0.00152880  0.75311272  1
  Mn3.30+  Mn116  1  0.49858204  0.33483514  0.25379536  1
  Mn3.30+  Mn117  1  0.49799879  0.33686240  0.74796039  1
  Mn3.30+  Mn118  1  0.50025145  0.66489076  0.25093195  1
  Mn3.30+  Mn119  1  0.49752682  0.66320730  0.74976813  1
  Mn3.30+  Mn120  1  0.83230640  -0.00151248  0.24848338  1
  Mn3.30+  Mn121  1  0.83134325  -0.00268576  0.75198518  1
  Mn3.30+  Mn122  1  0.82987352  0.33431861  0.25216783  1
  Mn3.30+  Mn123  1  0.83198214  0.33441110  0.74893696  1
  Mn3.30+  Mn124  1  0.83396451  0.66604443  0.25110921  1
  Mn3.30+  Mn125  1  0.83049997  0.66690432  0.75082133  1
  Mn3.30+  Mn126  1  -0.00103097  0.16682891  -0.00062625  1
  Mn3.30+  Mn127  1  0.00071117  0.16680635  0.50080488  1
  Mn3.30+  Mn128  1  -0.00000174  0.50096561  0.00025626  1
  Mn3.30+  Mn129  1  -0.00086099  0.50176395  0.49799203  1
  Mn3.30+  Mn130  1  0.00013099  0.83304529  -0.00143740  1
  Mn3.30+  Mn131  1  0.00201147  0.83406175  0.50193930  1
  Mn3.30+  Mn132  1  0.33380288  0.16568408  -0.00159190  1
  Mn3.30+  Mn133  1  0.33464216  0.16881485  0.50040661  1
  Mn3.30+  Mn134  1  0.33572955  0.50061758  -0.00092369  1
  Mn3.30+  Mn135  1  0.33712896  0.49992247  0.50145980  1
  Mn3.30+  Mn136  1  0.33346846  0.83224032  -0.00140249  1
  Mn3.30+  Mn137  1  0.33150403  0.83132193  0.50242029  1
  Mn3.30+  Mn138  1  0.66573111  0.16567718  -0.00189264  1
  Mn3.30+  Mn139  1  0.66602747  0.16811833  0.49982328  1
  Mn3.30+  Mn140  1  0.66553852  0.50115968  -0.00064086  1
  Mn3.30+  Mn141  1  0.66290771  0.49936020  0.49704678  1
  Mn3.30+  Mn142  1  0.66694206  0.83296499  -0.00282634  1
  Mn3.30+  Mn143  1  0.66611334  0.83327831  0.50051954  1
  O2-  O144  1  0.02549494  0.16100652  0.12423606  1
  O2-  O145  1  0.02841951  0.15963672  0.62545858  1
  O2-  O146  1  0.02005286  0.49420047  0.12613660  1
  O2-  O147  1  0.02694372  0.49572171  0.62350321  1
  O2-  O148  1  0.02785132  0.82897319  0.12112825  1
  O2-  O149  1  0.02750806  0.82983341  0.62888184  1
  O2-  O150  1  0.35798279  0.15826067  0.12172037  1
  O2-  O151  1  0.35788664  0.15715993  0.62798073  1
  O2-  O152  1  0.35724800  0.50035400  0.12848983  1
  O2-  O153  1  0.36011281  0.49018525  0.62309695  1
  O2-  O154  1  0.35437738  0.82773910  0.12187420  1
  O2-  O155  1  0.35739503  0.82989786  0.62789288  1
  O2-  O156  1  0.69001086  0.16088529  0.12293798  1
  O2-  O157  1  0.68996722  0.16183600  0.62757502  1
  O2-  O158  1  0.69286899  0.49259580  0.12903778  1
  O2-  O159  1  0.69117058  0.49617045  0.62243899  1
  O2-  O160  1  0.68445160  0.82923625  0.12292863  1
  O2-  O161  1  0.69161803  0.82667726  0.62675568  1
  O2-  O162  1  0.14150751  0.32911018  0.12738432  1
  O2-  O163  1  0.13968725  0.33038674  0.62398946  1
  O2-  O164  1  0.14430992  0.66125042  0.12253199  1
  O2-  O165  1  0.14168856  0.66041488  0.62625048  1
  O2-  O166  1  0.14121255  0.99406723  0.12306100  1
  O2-  O167  1  0.14436798  0.99578700  0.62914451  1
  O2-  O168  1  0.48241016  0.32948880  0.12581582  1
  O2-  O169  1  0.47392240  0.32593680  0.62432228  1
  O2-  O170  1  0.47510436  0.65946897  0.12387300  1
  O2-  O171  1  0.47295310  0.66056458  0.62572206  1
  O2-  O172  1  0.47686245  0.99966760  0.12071741  1
  O2-  O173  1  0.47460227  0.99460458  0.62775463  1
  O2-  O174  1  0.80543365  0.32744173  0.12675517  1
  O2-  O175  1  0.80512410  0.32794332  0.62548504  1
  O2-  O176  1  0.80725832  0.66043101  0.12538127  1
  O2-  O177  1  0.80718310  0.66294931  0.62303651  1
  O2-  O178  1  0.80695019  0.99880039  0.12062961  1
  O2-  O179  1  0.80622261  0.99249538  0.62773599  1
  O2-  O180  1  0.31063963  0.17001483  0.37611054  1
  O2-  O181  1  0.30864024  0.17809111  0.87372633  1
  O2-  O182  1  0.30915853  0.50985806  0.37733845  1
  O2-  O183  1  0.31130285  0.50224956  0.87076635  1
  O2-  O184  1  0.31629730  0.83713674  0.37540669  1
  O2-  O185  1  0.31040536  0.83970372  0.87454561  1
  O2-  O186  1  0.65032607  0.17120775  0.37659546  1
  O2-  O187  1  0.64023512  0.17645553  0.87337772  1
  O2-  O188  1  0.63525517  0.50928323  0.37542232  1
  O2-  O189  1  0.64174521  0.50511991  0.87308429  1
  O2-  O190  1  0.64158752  0.83447748  0.37781122  1
  O2-  O191  1  0.63997374  0.83875620  0.87281782  1
  O2-  O192  1  0.97169371  0.17218243  0.37644826  1
  O2-  O193  1  0.97232050  0.17460392  0.87426848  1
  O2-  O194  1  0.97036246  0.50889523  0.37607746  1
  O2-  O195  1  0.97244484  0.50552104  0.87405627  1
  O2-  O196  1  0.97516223  0.83907043  0.37592113  1
  O2-  O197  1  0.97107895  0.83735943  0.87449457  1
  O2-  O198  1  0.19312902  0.00764853  0.37303104  1
  O2-  O199  1  0.19548061  0.00846089  0.87495750  1
  O2-  O200  1  0.19396263  0.33792274  0.37661308  1
  O2-  O201  1  0.19151097  0.33962119  0.87181250  1
  O2-  O202  1  0.19314690  0.67107455  0.37789185  1
  O2-  O203  1  0.19751263  0.67150309  0.87259128  1
  O2-  O204  1  0.51504360  -0.00183467  0.37767029  1
  O2-  O205  1  0.52965180  0.00539430  0.87408112  1
  O2-  O206  1  0.52544283  0.33745431  0.37615148  1
  O2-  O207  1  0.52315104  0.34173127  0.87385712  1
  O2-  O208  1  0.52344910  0.67658385  0.37769987  1
  O2-  O209  1  0.52618401  0.67095448  0.87291329  1
  O2-  O210  1  0.85881650  0.00503853  0.37745639  1
  O2-  O211  1  0.86005050  0.00788376  0.87446212  1
  O2-  O212  1  0.85815843  0.33685717  0.37562797  1
  O2-  O213  1  0.85926216  0.34164071  0.87252391  1
  O2-  O214  1  0.86051329  0.67629168  0.37623583  1
  O2-  O215  1  0.85632377  0.66450083  0.87538309  1
  O2-  O216  1  0.23681083  0.09325166  0.02062421  1
  O2-  O217  1  0.23833303  0.09640403  0.52003594  1
  O2-  O218  1  0.24010919  0.42869189  0.01095507  1
  O2-  O219  1  0.23624284  0.43303375  0.51705726  1
  O2-  O220  1  0.23678931  0.76252905  0.01873502  1
  O2-  O221  1  0.23795929  0.76342685  0.52283860  1
  O2-  O222  1  0.57053632  0.09626951  0.01881719  1
  O2-  O223  1  0.57318255  0.09252919  0.52222128  1
  O2-  O224  1  0.57485140  0.42719776  0.02195998  1
  O2-  O225  1  0.56779137  0.42958258  0.52338953  1
  O2-  O226  1  0.57202534  0.75723746  0.01451140  1
  O2-  O227  1  0.57129392  0.75927428  0.52302989  1
  O2-  O228  1  0.90446768  0.09518169  0.01944260  1
  O2-  O229  1  0.90621653  0.09218351  0.52392873  1
  O2-  O230  1  0.90332014  0.42684017  0.02091278  1
  O2-  O231  1  0.90370960  0.42595426  0.52179545  1
  O2-  O232  1  0.91032962  0.75502647  0.01736902  1
  O2-  O233  1  0.90728169  0.76325106  0.52219820  1
  O2-  O234  1  0.25654490  0.25345745  0.23142402  1
  O2-  O235  1  0.26124816  0.26560249  0.72659364  1
  O2-  O236  1  0.26550358  0.59841408  0.23552930  1
  O2-  O237  1  0.26425185  0.59396558  0.72573363  1
  O2-  O238  1  0.26202612  0.92916522  0.23142693  1
  O2-  O239  1  0.26262307  0.92832891  0.73245129  1
  O2-  O240  1  0.59391201  0.25900021  0.23079353  1
  O2-  O241  1  0.59239242  0.26489286  0.73000442  1
  O2-  O242  1  0.59671705  0.59435776  0.22868397  1
  O2-  O243  1  0.59464660  0.59535371  0.72809347  1
  O2-  O244  1  0.59394237  0.92934293  0.23242217  1
  O2-  O245  1  0.59490939  0.92620522  0.72809175  1
  O2-  O246  1  0.92682392  0.26204428  0.22908779  1
  O2-  O247  1  0.92902791  0.26097597  0.72719412  1
  O2-  O248  1  0.92813503  0.59530979  0.22826080  1
  O2-  O249  1  0.92800764  0.59445529  0.72829627  1
  O2-  O250  1  0.93037018  0.92979957  0.23210484  1
  O2-  O251  1  0.92928647  0.92915879  0.72890586  1
  O2-  O252  1  0.09157562  0.24042296  0.27220701  1
  O2-  O253  1  0.09663783  0.24096245  0.77045788  1
  O2-  O254  1  0.09484381  0.57616265  0.27352859  1
  O2-  O255  1  0.09616110  0.57489526  0.77118625  1
  O2-  O256  1  0.09105497  0.91042114  0.26958599  1
  O2-  O257  1  0.09400227  0.90813469  0.77596603  1
  O2-  O258  1  0.42720687  0.23946550  0.26236866  1
  O2-  O259  1  0.42980277  0.23845431  0.77072570  1
  O2-  O260  1  0.43127378  0.57042747  0.27248421  1
  O2-  O261  1  0.43087009  0.56847870  0.77049374  1
  O2-  O262  1  0.42479677  0.90483917  0.26750895  1
  O2-  O263  1  0.43108230  0.90175132  0.76802408  1
  O2-  O264  1  0.76497928  0.23640233  0.26618657  1
  O2-  O265  1  0.76185624  0.23882253  0.77062623  1
  O2-  O266  1  0.76123714  0.56871801  0.27367554  1
  O2-  O267  1  0.76220350  0.56886174  0.76421139  1
  O2-  O268  1  0.76234704  0.90513901  0.26852344  1
  O2-  O269  1  0.76617205  0.89975739  0.76939371  1
  O2-  O270  1  0.07307888  0.07460484  0.47856333  1
  O2-  O271  1  0.07291531  0.07242063  0.97815108  1
  O2-  O272  1  0.07033857  0.40710673  0.47769477  1
  O2-  O273  1  0.07138903  0.40672586  0.97946816  1
  O2-  O274  1  0.06850645  0.73827283  0.48434001  1
  O2-  O275  1  0.07471567  0.73872866  0.97625802  1
  O2-  O276  1  0.40204267  0.06922109  0.48605337  1
  O2-  O277  1  0.40546862  0.07024668  0.97536803  1
  O2-  O278  1  0.40143635  0.40241899  0.47724727  1
  O2-  O279  1  0.40609430  0.40517981  0.98285698  1
  O2-  O280  1  0.40723372  0.73964180  0.48194212  1
  O2-  O281  1  0.40425995  0.73531200  0.97816351  1
  O2-  O282  1  0.74307046  0.07305458  0.48621560  1
  O2-  O283  1  0.73836559  0.07044318  0.97642393  1
  O2-  O284  1  0.73061968  0.40367350  0.48064417  1
  O2-  O285  1  0.73767219  0.40555208  0.97874742  1
  O2-  O286  1  0.73990199  0.73784485  0.47890959  1
  O2-  O287  1  0.73750772  0.73515750  0.98127420  1
  O2-  O288  1  0.09551255  0.24058428  0.47870486  1
  O2-  O289  1  0.09250068  0.24014778  0.97894398  1
  O2-  O290  1  0.09681905  0.57502398  0.47932002  1
  O2-  O291  1  0.09384349  0.57601929  0.97465535  1
  O2-  O292  1  0.08986566  0.91102823  0.48208564  1
  O2-  O293  1  0.09489130  0.90760895  0.97416442  1
  O2-  O294  1  0.42808335  0.23750382  0.48573503  1
  O2-  O295  1  0.42969009  0.23990232  0.98020051  1
  O2-  O296  1  0.42959082  0.57137328  0.47666955  1
  O2-  O297  1  0.43299220  0.56769147  0.98122774  1
  O2-  O298  1  0.42720008  0.90359311  0.48501005  1
  O2-  O299  1  0.42914929  0.90413359  0.97838833  1
  O2-  O300  1  0.76473208  0.23712233  0.48467383  1
  O2-  O301  1  0.76159639  0.23869335  0.97884065  1
  O2-  O302  1  0.76127002  0.56879352  0.47789553  1
  O2-  O303  1  0.76275528  0.56856592  0.98424667  1
  O2-  O304  1  0.76506796  0.90303601  0.48433958  1
  O2-  O305  1  0.76430328  0.90327934  0.97653534  1
  O2-  O306  1  0.07366412  0.07412836  0.27099701  1
  O2-  O307  1  0.07198878  0.07337138  0.77260593  1
  O2-  O308  1  0.06984873  0.40756310  0.27307089  1
  O2-  O309  1  0.07135500  0.40645469  0.77011998  1
  O2-  O310  1  0.07148273  0.73787338  0.26638361  1
  O2-  O311  1  0.07192194  0.73898763  0.77310217  1
  O2-  O312  1  0.40278920  0.06993990  0.26487029  1
  O2-  O313  1  0.40573803  0.06900033  0.77362906  1
  O2-  O314  1  0.40511929  0.40486796  0.27236058  1
  O2-  O315  1  0.40270279  0.40347417  0.76779445  1
  O2-  O316  1  0.40612313  0.73745417  0.26816300  1
  O2-  O317  1  0.40531453  0.73680751  0.77196144  1
  O2-  O318  1  0.74179203  0.07478804  0.26658048  1
  O2-  O319  1  0.73795459  0.06831158  0.77110020  1
  O2-  O320  1  0.73372765  0.40104786  0.27263714  1
  O2-  O321  1  0.73552012  0.40695099  0.76946554  1
  O2-  O322  1  0.74094423  0.73832854  0.26962431  1
  O2-  O323  1  0.73482069  0.73503981  0.76990430  1
  O2-  O324  1  0.23772522  0.09270702  0.22801623  1
  O2-  O325  1  0.23752301  0.09703656  0.73078511  1
  O2-  O326  1  0.23901245  0.42992669  0.23866100  1
  O2-  O327  1  0.23565439  0.43258780  0.73212798  1
  O2-  O328  1  0.23976699  0.76101502  0.22688693  1
  O2-  O329  1  0.23444644  0.76552640  0.73121841  1
  O2-  O330  1  0.57413037  0.09358808  0.22904288  1
  O2-  O331  1  0.56960826  0.09534417  0.72930459  1
  O2-  O332  1  0.57241557  0.42747168  0.22903433  1
  O2-  O333  1  0.57112125  0.42863420  0.72591609  1
  O2-  O334  1  0.57431735  0.75708640  0.23397451  1
  O2-  O335  1  0.56980343  0.76021466  0.72925846  1
  O2-  O336  1  0.90666854  0.09396111  0.22916714  1
  O2-  O337  1  0.90363962  0.09341559  0.72861841  1
  O2-  O338  1  0.90272201  0.42496237  0.23003279  1
  O2-  O339  1  0.90408655  0.42778552  0.72650112  1
  O2-  O340  1  0.91072679  0.76025295  0.23121330  1
  O2-  O341  1  0.90644776  0.75862366  0.72944273  1
  O2-  O342  1  0.25696030  0.25792719  0.01803197  1
  O2-  O343  1  0.26164209  0.25997309  0.52401614  1
  O2-  O344  1  0.26461932  0.59544346  0.01461734  1
  O2-  O345  1  0.26558778  0.59614447  0.52244031  1
  O2-  O346  1  0.26139529  0.92776205  0.01841055  1
  O2-  O347  1  0.26327037  0.92985894  0.51703422  1
  O2-  O348  1  0.59429257  0.26289058  0.01828396  1
  O2-  O349  1  0.59191995  0.26167372  0.52113575  1
  O2-  O350  1  0.59539164  0.59261294  0.02380438  1
  O2-  O351  1  0.59796597  0.59800984  0.51775683  1
  O2-  O352  1  0.59667960  0.93032797  0.01570883  1
  O2-  O353  1  0.59224415  0.92644969  0.52409081  1
  O2-  O354  1  0.92658753  0.26276124  0.02172032  1
  O2-  O355  1  0.92944579  0.26009807  0.52248584  1
  O2-  O356  1  0.92764067  0.59360992  0.02102991  1
  O2-  O357  1  0.92835961  0.59624827  0.52271398  1
  O2-  O358  1  0.93116075  0.93191125  0.01722830  1
  O2-  O359  1  0.92795680  0.92803073  0.52258891  1
