# generated using pymatgen
data_Sr7Ca15Pr50Mn72O216
_symmetry_space_group_name_H-M   'P 1'
_cell_length_a   16.55416189
_cell_length_b   16.59730113
_cell_length_c   15.58853695
_cell_angle_alpha   89.99543799
_cell_angle_beta   89.99887488
_cell_angle_gamma   90.00284733
_symmetry_Int_Tables_number   1
_chemical_formula_structural   Sr7Ca15Pr50Mn72O216
_chemical_formula_sum   'Sr7 Ca15 Pr50 Mn72 O216'
_cell_volume   4283.01925217
_cell_formula_units_Z   1
loop_
 _symmetry_equiv_pos_site_id
 _symmetry_equiv_pos_as_xyz
  1  'x, y, z'
loop_
 _atom_type_symbol
 _atom_type_oxidation_number
  Sr2+  2.0
  Ca2+  2.0
  Pr3+  3.0
  Mn3.30+  3.3
  O2-  -2.0
loop_
 _atom_site_type_symbol
 _atom_site_label
 _atom_site_symmetry_multiplicity
 _atom_site_fract_x
 _atom_site_fract_y
 _atom_site_fract_z
 _atom_site_occupancy
  Sr2+  Sr0  1  0.49941382  0.50730662  0.62297176  1
  Sr2+  Sr1  1  0.66573309  0.65476336  0.37330941  1
  Sr2+  Sr2  1  1.00441154  0.98829076  0.87561734  1
  Sr2+  Sr3  1  0.16539296  0.48750255  0.37510700  1
  Sr2+  Sr4  1  0.83273004  0.50857587  0.62403154  1
  Sr2+  Sr5  1  0.66362692  0.67726825  0.12695774  1
  Sr2+  Sr6  1  0.33017609  0.00948457  0.12551420  1
  Ca2+  Ca7  1  0.33820546  0.64873125  0.37774978  1
  Ca2+  Ca8  1  0.83806089  0.18153866  0.12384409  1
  Ca2+  Ca9  1  0.16262758  0.15216454  0.87422689  1
  Ca2+  Ca10  1  0.32996636  0.34847527  0.62378677  1
  Ca2+  Ca11  1  0.66565755  0.34616193  0.12603742  1
  Ca2+  Ca12  1  0.17002846  0.18441602  0.62656982  1
  Ca2+  Ca13  1  0.16307860  0.82143710  0.87655318  1
  Ca2+  Ca14  1  0.16482605  0.81881842  0.37369039  1
  Ca2+  Ca15  1  1.00334920  0.32191182  0.37628642  1
  Ca2+  Ca16  1  0.17063067  0.85056977  0.12483050  1
  Ca2+  Ca17  1  1.00696560  0.98346832  0.37453812  1
  Ca2+  Ca18  1  0.32873885  0.67963033  0.62120289  1
  Ca2+  Ca19  1  1.00535410  0.31445679  0.87362348  1
  Ca2+  Ca20  1  0.66411404  0.35060921  0.62438954  1
  Ca2+  Ca21  1  0.49565387  0.48792668  0.37615497  1
  Pr3+  Pr22  1  0.32959428  0.34593834  0.12479219  1
  Pr3+  Pr23  1  0.66966107  0.65327705  0.87627236  1
  Pr3+  Pr24  1  0.83064197  0.48831413  0.37544258  1
  Pr3+  Pr25  1  -0.00389782  0.34222564  0.12514907  1
  Pr3+  Pr26  1  0.66873735  0.98838324  0.37505873  1
  Pr3+  Pr27  1  0.67029268  0.32255065  0.87263987  1
  Pr3+  Pr28  1  0.33335891  0.98677411  0.37419881  1
  Pr3+  Pr29  1  0.66481886  0.01336587  0.12582244  1
  Pr3+  Pr30  1  0.66732352  0.32741239  0.37715307  1
  Pr3+  Pr31  1  0.49688180  0.15356979  0.87360548  1
  Pr3+  Pr32  1  0.83278507  0.48683327  0.87448717  1
  Pr3+  Pr33  1  1.00434300  0.65331745  0.37495996  1
  Pr3+  Pr34  1  0.33325749  0.65639655  0.87277460  1
  Pr3+  Pr35  1  0.33556268  0.31956154  0.87267630  1
  Pr3+  Pr36  1  0.83619087  0.18104977  0.62606467  1
  Pr3+  Pr37  1  0.16101877  0.48422533  0.87449954  1
  Pr3+  Pr38  1  0.83242671  0.82072983  0.37472502  1
  Pr3+  Pr39  1  0.33618906  0.32538476  0.37822693  1
  Pr3+  Pr40  1  0.83355961  0.51222212  0.12607447  1
  Pr3+  Pr41  1  0.50325337  0.51188445  0.12646317  1
  Pr3+  Pr42  1  1.00515941  0.65641329  0.87493443  1
  Pr3+  Pr43  1  0.49849514  0.84054213  0.62392014  1
  Pr3+  Pr44  1  0.16144886  0.15743296  0.37605113  1
  Pr3+  Pr45  1  0.49798624  0.48722259  0.87466488  1
  Pr3+  Pr46  1  0.49625524  0.82110520  0.87599786  1
  Pr3+  Pr47  1  0.83319346  0.82197618  0.87567835  1
  Pr3+  Pr48  1  0.83432233  0.15405320  0.87563942  1
  Pr3+  Pr49  1  0.67147130  0.98741489  0.87470166  1
  Pr3+  Pr50  1  0.83809216  0.84342432  0.62278690  1
  Pr3+  Pr51  1  0.49346974  0.81680760  0.37403772  1
  Pr3+  Pr52  1  -0.00126706  0.01330676  0.62415910  1
  Pr3+  Pr53  1  -0.00111879  0.67699203  0.62260692  1
  Pr3+  Pr54  1  0.32797485  0.68116336  0.12769617  1
  Pr3+  Pr55  1  0.66277094  0.67394660  0.62173529  1
  Pr3+  Pr56  1  -0.00214144  0.01402142  0.12592123  1
  Pr3+  Pr57  1  0.00015278  0.68046353  0.12754987  1
  Pr3+  Pr58  1  0.32680307  0.01491216  0.62431158  1
  Pr3+  Pr59  1  0.50139457  0.84660587  0.12644028  1
  Pr3+  Pr60  1  0.32998335  0.98753311  0.87597959  1
  Pr3+  Pr61  1  0.17417953  0.51303266  0.62312727  1
  Pr3+  Pr62  1  0.83472226  0.15767566  0.37441712  1
  Pr3+  Pr63  1  -0.00035873  0.34572581  0.62461888  1
  Pr3+  Pr64  1  0.83590880  0.84477442  0.12758904  1
  Pr3+  Pr65  1  0.50328820  0.18059284  0.12520997  1
  Pr3+  Pr66  1  0.17019677  0.84490784  0.62493625  1
  Pr3+  Pr67  1  0.50319325  0.18326142  0.62444403  1
  Pr3+  Pr68  1  0.17014041  0.51241970  0.12685619  1
  Pr3+  Pr69  1  0.66363839  0.01195795  0.62423067  1
  Pr3+  Pr70  1  0.16879845  0.17653099  0.12260864  1
  Pr3+  Pr71  1  0.49551076  0.15630732  0.37583054  1
  Mn3.30+  Mn72  1  0.16533503  -0.00085173  -0.00001265  1
  Mn3.30+  Mn73  1  0.16449086  0.00085280  0.49897437  1
  Mn3.30+  Mn74  1  0.16421508  0.33088080  -0.00206781  1
  Mn3.30+  Mn75  1  0.16742466  0.33283001  0.50104392  1
  Mn3.30+  Mn76  1  0.16703765  0.66890215  0.00121496  1
  Mn3.30+  Mn77  1  0.16930375  0.66697772  0.49698996  1
  Mn3.30+  Mn78  1  0.49984990  0.00084443  -0.00042544  1
  Mn3.30+  Mn79  1  0.49778283  -0.00050251  0.50065955  1
  Mn3.30+  Mn80  1  0.50122713  0.33289842  0.00006115  1
  Mn3.30+  Mn81  1  0.50089844  0.33565939  0.50153557  1
  Mn3.30+  Mn82  1  0.49914118  0.66686489  0.00032789  1
  Mn3.30+  Mn83  1  0.49563154  0.66360660  0.49985504  1
  Mn3.30+  Mn84  1  0.83439582  0.00095434  0.00125006  1
  Mn3.30+  Mn85  1  0.83584120  0.00100950  0.49775114  1
  Mn3.30+  Mn86  1  0.83410186  0.33177824  0.00023885  1
  Mn3.30+  Mn87  1  0.83496442  0.33403587  0.50036706  1
  Mn3.30+  Mn88  1  0.83508548  0.66727671  0.00144515  1
  Mn3.30+  Mn89  1  0.83277315  0.66528756  0.49939399  1
  Mn3.30+  Mn90  1  -0.00110921  0.16709406  0.25109705  1
  Mn3.30+  Mn91  1  0.00471946  0.16674536  0.74924644  1
  Mn3.30+  Mn92  1  0.00116448  0.49749210  0.25024038  1
  Mn3.30+  Mn93  1  0.00098768  0.49866180  0.74999542  1
  Mn3.30+  Mn94  1  0.00463910  0.83555360  0.25088018  1
  Mn3.30+  Mn95  1  0.00311689  0.83310622  0.75056028  1
  Mn3.30+  Mn96  1  0.33178886  0.16708081  0.24974997  1
  Mn3.30+  Mn97  1  0.32971090  0.16810756  0.74877790  1
  Mn3.30+  Mn98  1  0.33468191  0.50013303  0.25233949  1
  Mn3.30+  Mn99  1  0.33236001  0.50035410  0.74886953  1
  Mn3.30+  Mn100  1  0.32849930  0.83216761  0.25162248  1
  Mn3.30+  Mn101  1  0.33086407  0.83247588  0.75022066  1
  Mn3.30+  Mn102  1  0.66840004  0.16998386  0.24930574  1
  Mn3.30+  Mn103  1  0.66679700  0.16839947  0.74912876  1
  Mn3.30+  Mn104  1  0.66443869  0.49870498  0.25093984  1
  Mn3.30+  Mn105  1  0.66616443  0.49967322  0.74841820  1
  Mn3.30+  Mn106  1  0.66601913  0.83323610  0.25068777  1
  Mn3.30+  Mn107  1  0.66691174  0.83208380  0.74883246  1
  Mn3.30+  Mn108  1  0.16513552  -0.00106445  0.25168686  1
  Mn3.30+  Mn109  1  0.16478297  0.00172026  0.74955146  1
  Mn3.30+  Mn110  1  0.16477719  0.33232163  0.25079339  1
  Mn3.30+  Mn111  1  0.16713723  0.33129013  0.75006128  1
  Mn3.30+  Mn112  1  0.16834988  0.66835873  0.25267713  1
  Mn3.30+  Mn113  1  0.16829664  0.66766558  0.74931953  1
  Mn3.30+  Mn114  1  0.49920187  0.00108188  0.25042752  1
  Mn3.30+  Mn115  1  0.49790434  -0.00072779  0.74909629  1
  Mn3.30+  Mn116  1  0.50092854  0.33432232  0.24982328  1
  Mn3.30+  Mn117  1  0.50048557  0.33399526  0.74818285  1
  Mn3.30+  Mn118  1  0.49659321  0.66435189  0.25154649  1
  Mn3.30+  Mn119  1  0.49850885  0.66576336  0.74821316  1
  Mn3.30+  Mn120  1  0.83592947  0.00234290  0.25199712  1
  Mn3.30+  Mn121  1  0.83441812  -0.00043652  0.74924548  1
  Mn3.30+  Mn122  1  0.83309051  0.33222971  0.24927242  1
  Mn3.30+  Mn123  1  0.83622513  0.33362812  0.75046192  1
  Mn3.30+  Mn124  1  0.83322439  0.66678042  0.24961915  1
  Mn3.30+  Mn125  1  0.83436828  0.66604903  0.74947851  1
  Mn3.30+  Mn126  1  0.00085057  0.16635342  -0.00121074  1
  Mn3.30+  Mn127  1  0.00191932  0.16743390  0.50067533  1
  Mn3.30+  Mn128  1  0.00055154  0.49819489  0.00022121  1
  Mn3.30+  Mn129  1  0.00167489  0.49810633  0.49947037  1
  Mn3.30+  Mn130  1  0.00404604  0.83454777  0.00206756  1
  Mn3.30+  Mn131  1  0.00388465  0.83405923  0.49721823  1
  Mn3.30+  Mn132  1  0.33177729  0.16547234  -0.00121539  1
  Mn3.30+  Mn133  1  0.33006957  0.16918161  0.50219439  1
  Mn3.30+  Mn134  1  0.33225628  0.50059317  -0.00101928  1
  Mn3.30+  Mn135  1  0.33441414  0.50009260  0.50002429  1
  Mn3.30+  Mn136  1  0.32924768  0.83370407  0.00010034  1
  Mn3.30+  Mn137  1  0.33061922  0.83068480  0.49871920  1
  Mn3.30+  Mn138  1  0.66853608  0.16914444  0.00186233  1
  Mn3.30+  Mn139  1  0.66678497  0.16892996  0.49954401  1
  Mn3.30+  Mn140  1  0.66664467  0.49827296  0.00104542  1
  Mn3.30+  Mn141  1  0.66418377  0.49990567  0.49911141  1
  Mn3.30+  Mn142  1  0.66628841  0.83331518  0.00080877  1
  Mn3.30+  Mn143  1  0.66651111  0.83235572  0.49952194  1
  O2-  O144  1  0.02425858  0.16366559  0.12511473  1
  O2-  O145  1  0.02674825  0.16052627  0.62468448  1
  O2-  O146  1  0.02661850  0.49082173  0.12500937  1
  O2-  O147  1  0.02830999  0.49508912  0.62620142  1
  O2-  O148  1  0.02890227  0.82830655  0.12716496  1
  O2-  O149  1  0.02598556  0.82568426  0.62264228  1
  O2-  O150  1  0.35834400  0.16530000  0.12363751  1
  O2-  O151  1  0.36066200  0.15971331  0.62568919  1
  O2-  O152  1  0.35763242  0.49462320  0.12376371  1
  O2-  O153  1  0.35021110  0.49234107  0.62661814  1
  O2-  O154  1  0.35845184  0.82903864  0.12544129  1
  O2-  O155  1  0.35516949  0.82961803  0.62447273  1
  O2-  O156  1  0.69626308  0.15849309  0.12572460  1
  O2-  O157  1  0.69285702  0.15753499  0.62236166  1
  O2-  O158  1  0.68971644  0.49277520  0.12409610  1
  O2-  O159  1  0.68435689  0.50118607  0.62591314  1
  O2-  O160  1  0.68992438  0.83471976  0.12537364  1
  O2-  O161  1  0.69345283  0.82522780  0.62392572  1
  O2-  O162  1  0.14100236  0.32640295  0.12167417  1
  O2-  O163  1  0.14285903  0.33103476  0.62680543  1
  O2-  O164  1  0.14314770  0.65805828  0.12603922  1
  O2-  O165  1  0.14246015  0.66088777  0.62222970  1
  O2-  O166  1  0.14220830  0.99600809  0.12816466  1
  O2-  O167  1  0.14122280  0.99028756  0.62273552  1
  O2-  O168  1  0.47308929  0.32752433  0.12399446  1
  O2-  O169  1  0.47320883  0.32887448  0.62662191  1
  O2-  O170  1  0.47251688  0.66050680  0.12568574  1
  O2-  O171  1  0.47268378  0.66784655  0.62552827  1
  O2-  O172  1  0.48080555  0.99624353  0.12496499  1
  O2-  O173  1  0.47178962  0.99088168  0.62471031  1
  O2-  O174  1  0.80709926  0.32586616  0.12401547  1
  O2-  O175  1  0.80769536  0.32751168  0.62577474  1
  O2-  O176  1  0.81321265  0.66331771  0.12499044  1
  O2-  O177  1  0.80817152  0.66745922  0.62435884  1
  O2-  O178  1  0.80781407  0.99224270  0.12747283  1
  O2-  O179  1  0.80775784  0.99318180  0.62381487  1
  O2-  O180  1  0.30750609  0.17574694  0.37688982  1
  O2-  O181  1  0.30653417  0.17264512  0.87297356  1
  O2-  O182  1  0.31398407  0.49845067  0.37436345  1
  O2-  O183  1  0.30546885  0.50805629  0.87510231  1
  O2-  O184  1  0.30638071  0.84099987  0.37574391  1
  O2-  O185  1  0.30602663  0.83756831  0.87507233  1
  O2-  O186  1  0.63874709  0.17626675  0.37610490  1
  O2-  O187  1  0.64022871  0.17457443  0.87618350  1
  O2-  O188  1  0.64070256  0.49479612  0.37413200  1
  O2-  O189  1  0.64322771  0.50414602  0.87560831  1
  O2-  O190  1  0.63954332  0.84055157  0.37599057  1
  O2-  O191  1  0.64090721  0.83966226  0.87465668  1
  O2-  O192  1  0.97732593  0.17768140  0.37637850  1
  O2-  O193  1  0.97695491  0.16932612  0.87348782  1
  O2-  O194  1  0.97518687  0.50574856  0.37294551  1
  O2-  O195  1  0.97649112  0.50955255  0.87590645  1
  O2-  O196  1  0.97486828  0.83782604  0.37446852  1
  O2-  O197  1  0.97654312  0.83095473  0.87625782  1
  O2-  O198  1  0.19161202  0.01165488  0.37681138  1
  O2-  O199  1  0.18799801  0.00890231  0.87243473  1
  O2-  O200  1  0.19162884  0.32875581  0.37615202  1
  O2-  O201  1  0.19327945  0.33915414  0.87522968  1
  O2-  O202  1  0.19488407  0.67344165  0.37407707  1
  O2-  O203  1  0.18953597  0.67456674  0.87757391  1
  O2-  O204  1  0.52398350  0.00666044  0.37618957  1
  O2-  O205  1  0.52739589  0.00473324  0.87387493  1
  O2-  O206  1  0.52295930  0.33621699  0.37449071  1
  O2-  O207  1  0.52536844  0.33626589  0.87491571  1
  O2-  O208  1  0.51754681  0.67247641  0.37502409  1
  O2-  O209  1  0.52576121  0.67385988  0.87452479  1
  O2-  O210  1  0.86440217  0.01002424  0.37465610  1
  O2-  O211  1  0.85295723  0.00423453  0.87402776  1
  O2-  O212  1  0.86066735  0.33997386  0.37495016  1
  O2-  O213  1  0.86254062  0.33974813  0.87552818  1
  O2-  O214  1  0.85891698  0.67006392  0.37331770  1
  O2-  O215  1  0.86030544  0.67277399  0.87723559  1
  O2-  O216  1  0.23762508  0.09375070  0.01699616  1
  O2-  O217  1  0.23507370  0.09696363  0.52258856  1
  O2-  O218  1  0.23628894  0.42778696  0.01961082  1
  O2-  O219  1  0.23865140  0.42784079  0.51678206  1
  O2-  O220  1  0.23818706  0.76124577  0.02499348  1
  O2-  O221  1  0.23776646  0.76158006  0.52094591  1
  O2-  O222  1  0.57423958  0.09767405  0.02044751  1
  O2-  O223  1  0.57107411  0.09415346  0.52097538  1
  O2-  O224  1  0.56831190  0.42815588  0.01656391  1
  O2-  O225  1  0.57597685  0.42335210  0.51790119  1
  O2-  O226  1  0.56793263  0.76435613  0.01807927  1
  O2-  O227  1  0.57011088  0.75897242  0.51952000  1
  O2-  O228  1  0.90434742  0.09554397  0.01990914  1
  O2-  O229  1  0.90431926  0.09558033  0.52229840  1
  O2-  O230  1  0.90310785  0.42691449  0.02261916  1
  O2-  O231  1  0.90860820  0.42465444  0.51927901  1
  O2-  O232  1  0.90754834  0.76314798  0.02242512  1
  O2-  O233  1  0.90828295  0.76106370  0.51754309  1
  O2-  O234  1  0.26030819  0.26095506  0.22784133  1
  O2-  O235  1  0.26713620  0.26742065  0.73083470  1
  O2-  O236  1  0.26061878  0.59287039  0.22940905  1
  O2-  O237  1  0.26337878  0.59733006  0.72974174  1
  O2-  O238  1  0.26118466  0.92944571  0.23706130  1
  O2-  O239  1  0.26051295  0.93147940  0.73088419  1
  O2-  O240  1  0.59534708  0.26179113  0.22713531  1
  O2-  O241  1  0.59775271  0.26116192  0.72728618  1
  O2-  O242  1  0.59040850  0.59040724  0.23050224  1
  O2-  O243  1  0.59619199  0.59858974  0.73534576  1
  O2-  O244  1  0.59463893  0.92939405  0.23198115  1
  O2-  O245  1  0.59488505  0.92603736  0.72760775  1
  O2-  O246  1  0.92658444  0.26029459  0.23012639  1
  O2-  O247  1  0.93002844  0.25845013  0.72802557  1
  O2-  O248  1  0.92791748  0.59208589  0.22900188  1
  O2-  O249  1  0.93004644  0.59639817  0.73210505  1
  O2-  O250  1  0.92850573  0.92626624  0.22825399  1
  O2-  O251  1  0.92884915  0.92424824  0.72689582  1
  O2-  O252  1  0.09542484  0.23497252  0.26480590  1
  O2-  O253  1  0.09948661  0.23593837  0.76918005  1
  O2-  O254  1  0.09321956  0.57473635  0.26688075  1
  O2-  O255  1  0.09717426  0.57174950  0.76980449  1
  O2-  O256  1  0.09618933  0.90520844  0.27411278  1
  O2-  O257  1  0.09793830  0.89957738  0.76651776  1
  O2-  O258  1  0.42857299  0.23986347  0.26982069  1
  O2-  O259  1  0.42930387  0.23706149  0.77006217  1
  O2-  O260  1  0.42965887  0.56728172  0.26741853  1
  O2-  O261  1  0.42713257  0.57457122  0.77436577  1
  O2-  O262  1  0.42561040  0.90271228  0.26958822  1
  O2-  O263  1  0.42653571  0.90588470  0.77142742  1
  O2-  O264  1  0.75948066  0.24194862  0.27633453  1
  O2-  O265  1  0.76583216  0.24050878  0.77213794  1
  O2-  O266  1  0.76085005  0.56903914  0.26596478  1
  O2-  O267  1  0.76036845  0.57408360  0.77330521  1
  O2-  O268  1  0.76395610  0.91076841  0.27424908  1
  O2-  O269  1  0.76141325  0.90521308  0.76933234  1
  O2-  O270  1  0.06790944  0.06964183  0.47879693  1
  O2-  O271  1  0.07046595  0.07013130  0.98938868  1
  O2-  O272  1  0.07116958  0.40105314  0.48321510  1
  O2-  O273  1  0.07023630  0.40216904  0.97703950  1
  O2-  O274  1  0.07136777  0.73676146  0.48018556  1
  O2-  O275  1  0.06926523  0.73496769  0.98560597  1
  O2-  O276  1  0.40130949  0.07430245  0.47998617  1
  O2-  O277  1  0.40803037  0.07327725  0.97502771  1
  O2-  O278  1  0.40657499  0.40569115  0.48242886  1
  O2-  O279  1  0.40373950  0.40583270  0.97826081  1
  O2-  O280  1  0.40440983  0.73904614  0.47864694  1
  O2-  O281  1  0.40265245  0.73924048  0.97977706  1
  O2-  O282  1  0.73777037  0.07461322  0.47724718  1
  O2-  O283  1  0.73642549  0.07350486  0.97892574  1
  O2-  O284  1  0.74270290  0.40796601  0.48012268  1
  O2-  O285  1  0.74135613  0.40573193  0.97668836  1
  O2-  O286  1  0.74175121  0.74279831  0.47965033  1
  O2-  O287  1  0.74037907  0.74150080  0.97829776  1
  O2-  O288  1  0.09655175  0.23748906  0.48542067  1
  O2-  O289  1  0.09730948  0.23443964  0.98012255  1
  O2-  O290  1  0.09353237  0.57477293  0.48125415  1
  O2-  O291  1  0.09703179  0.57170883  0.98132348  1
  O2-  O292  1  0.09836749  0.90197254  0.47953894  1
  O2-  O293  1  0.09695285  0.90231046  0.98158722  1
  O2-  O294  1  0.43011628  0.23945572  0.48114635  1
  O2-  O295  1  0.42957299  0.23896763  0.97873564  1
  O2-  O296  1  0.42774364  0.57006462  0.47973412  1
  O2-  O297  1  0.42740258  0.57332860  0.97787615  1
  O2-  O298  1  0.42628766  0.90412815  0.47898198  1
  O2-  O299  1  0.42590100  0.90440651  0.97971843  1
  O2-  O300  1  0.76285045  0.24059717  0.47843213  1
  O2-  O301  1  0.76169553  0.24001542  0.97405095  1
  O2-  O302  1  0.75866424  0.57178371  0.47998487  1
  O2-  O303  1  0.76225189  0.57192837  0.98041518  1
  O2-  O304  1  0.76282656  0.90872856  0.47726911  1
  O2-  O305  1  0.76135174  0.90622272  0.98008920  1
  O2-  O306  1  0.06831349  0.07066630  0.26997114  1
  O2-  O307  1  0.06998584  0.06871248  0.76245211  1
  O2-  O308  1  0.06911435  0.40084282  0.26746320  1
  O2-  O309  1  0.07181836  0.40148808  0.77213420  1
  O2-  O310  1  0.07060743  0.73698812  0.26949937  1
  O2-  O311  1  0.06972321  0.73497571  0.76476943  1
  O2-  O312  1  0.40623531  0.07479169  0.27303407  1
  O2-  O313  1  0.40219263  0.07236504  0.77128184  1
  O2-  O314  1  0.40376351  0.40220144  0.26534435  1
  O2-  O315  1  0.40562751  0.40877213  0.77430730  1
  O2-  O316  1  0.39901244  0.73557080  0.27006226  1
  O2-  O317  1  0.40872785  0.74117697  0.77335412  1
  O2-  O318  1  0.73816178  0.07472176  0.27418273  1
  O2-  O319  1  0.73676756  0.07373807  0.76927844  1
  O2-  O320  1  0.74085374  0.40642721  0.27109939  1
  O2-  O321  1  0.74217256  0.40792405  0.77133849  1
  O2-  O322  1  0.74397241  0.74512942  0.26834592  1
  O2-  O323  1  0.74016167  0.74001416  0.77367003  1
  O2-  O324  1  0.23463465  0.09628619  0.23390706  1
  O2-  O325  1  0.23864579  0.09642423  0.72496883  1
  O2-  O326  1  0.23997800  0.42599034  0.22827623  1
  O2-  O327  1  0.23366671  0.43116731  0.73580484  1
  O2-  O328  1  0.23667197  0.76276336  0.22496102  1
  O2-  O329  1  0.23855441  0.76120970  0.73042623  1
  O2-  O330  1  0.57500413  0.09774585  0.23073387  1
  O2-  O331  1  0.56861098  0.09286331  0.72799675  1
  O2-  O332  1  0.57155322  0.42559447  0.22810121  1
  O2-  O333  1  0.57383159  0.42779302  0.73735057  1
  O2-  O334  1  0.56424088  0.76156040  0.23382489  1
  O2-  O335  1  0.57233380  0.76044220  0.72839239  1
  O2-  O336  1  0.90371511  0.09670392  0.22758887  1
  O2-  O337  1  0.90500669  0.09431264  0.72897306  1
  O2-  O338  1  0.90324127  0.42637052  0.22719354  1
  O2-  O339  1  0.90795639  0.42564122  0.73114295  1
  O2-  O340  1  0.90972455  0.76250075  0.23088543  1
  O2-  O341  1  0.90614900  0.76181113  0.72976573  1
  O2-  O342  1  0.26146886  0.26236419  0.01939833  1
  O2-  O343  1  0.26474279  0.26468460  0.52123409  1
  O2-  O344  1  0.26124159  0.59624356  0.02053001  1
  O2-  O345  1  0.26149964  0.59386490  0.51992222  1
  O2-  O346  1  0.26122410  0.92901414  0.01364487  1
  O2-  O347  1  0.26185820  0.93029837  0.51892449  1
  O2-  O348  1  0.59834323  0.26159593  0.02351219  1
  O2-  O349  1  0.59593903  0.26165350  0.52297485  1
  O2-  O350  1  0.59220844  0.59279585  0.01663061  1
  O2-  O351  1  0.59268806  0.59580223  0.51719354  1
  O2-  O352  1  0.59490850  0.92979443  0.01874986  1
  O2-  O353  1  0.59530275  0.92574707  0.52192013  1
  O2-  O354  1  0.92835549  0.26032222  0.01795526  1
  O2-  O355  1  0.92705731  0.25856613  0.52388968  1
  O2-  O356  1  0.92977891  0.59333111  0.02271009  1
  O2-  O357  1  0.92854898  0.59450020  0.51643763  1
  O2-  O358  1  0.92843063  0.92511557  0.02361602  1
  O2-  O359  1  0.92919250  0.92489850  0.52151009  1
