# generated using pymatgen
data_Sr7Ca15Pr50Mn72O216
_symmetry_space_group_name_H-M   'P 1'
_cell_length_a   16.55886205
_cell_length_b   16.60426173
_cell_length_c   15.59406588
_cell_angle_alpha   89.99382168
_cell_angle_beta   90.00188508
_cell_angle_gamma   89.99828277
_symmetry_Int_Tables_number   1
_chemical_formula_structural   Sr7Ca15Pr50Mn72O216
_chemical_formula_sum   'Sr7 Ca15 Pr50 Mn72 O216'
_cell_volume   4287.55219642
_cell_formula_units_Z   1
loop_
 _symmetry_equiv_pos_site_id
 _symmetry_equiv_pos_as_xyz
  1  'x, y, z'
loop_
 _atom_type_symbol
 _atom_type_oxidation_number
  Sr2+  2.0
  Ca2+  2.0
  Pr3+  3.0
  Mn3.30+  3.3
  O2-  -2.0
loop_
 _atom_site_type_symbol
 _atom_site_label
 _atom_site_symmetry_multiplicity
 _atom_site_fract_x
 _atom_site_fract_y
 _atom_site_fract_z
 _atom_site_occupancy
  Sr2+  Sr0  1  0.49849271  0.83970916  0.62594333  1
  Sr2+  Sr1  1  0.16272723  0.82477787  0.87548545  1
  Sr2+  Sr2  1  0.33060548  0.34246151  0.12403891  1
  Sr2+  Sr3  1  0.83470560  0.82549585  0.87355280  1
  Sr2+  Sr4  1  0.33179118  0.65910345  0.87242824  1
  Sr2+  Sr5  1  -0.00271876  0.67458966  0.12686426  1
  Sr2+  Sr6  1  0.83346462  0.17410989  0.12573304  1
  Ca2+  Ca7  1  0.33075036  0.68270159  0.62634723  1
  Ca2+  Ca8  1  1.00255456  0.98292290  0.87871005  1
  Ca2+  Ca9  1  0.16433748  0.48742424  0.87513815  1
  Ca2+  Ca10  1  0.16903619  0.18155299  0.12405122  1
  Ca2+  Ca11  1  0.66459714  0.68399433  0.62488454  1
  Ca2+  Ca12  1  0.66927294  0.65313609  0.37887932  1
  Ca2+  Ca13  1  -0.00342393  0.01296715  0.12087616  1
  Ca2+  Ca14  1  0.50451482  0.85084057  0.12511327  1
  Ca2+  Ca15  1  0.83381761  0.84520095  0.62635827  1
  Ca2+  Ca16  1  0.83141304  0.48693746  0.87346429  1
  Ca2+  Ca17  1  0.33853765  0.98336194  0.37451810  1
  Ca2+  Ca18  1  1.00182218  0.65194096  0.37459781  1
  Ca2+  Ca19  1  0.66507247  0.01256203  0.12412054  1
  Ca2+  Ca20  1  0.66358235  0.34926767  0.62609175  1
  Ca2+  Ca21  1  -0.00403500  0.35044241  0.62593447  1
  Pr3+  Pr22  1  0.49697076  0.15332737  0.87572734  1
  Pr3+  Pr23  1  0.67207562  0.65552116  0.87209381  1
  Pr3+  Pr24  1  0.16803479  0.17955079  0.62559589  1
  Pr3+  Pr25  1  0.83166968  0.15297587  0.37372140  1
  Pr3+  Pr26  1  0.16105961  0.15165042  0.87738405  1
  Pr3+  Pr27  1  0.33415942  0.98601528  0.87657963  1
  Pr3+  Pr28  1  0.50452025  0.17916277  0.12516611  1
  Pr3+  Pr29  1  0.83764453  0.51223332  0.12282970  1
  Pr3+  Pr30  1  0.33162512  0.34686049  0.62607115  1
  Pr3+  Pr31  1  0.66369116  0.68093114  0.12606837  1
  Pr3+  Pr32  1  0.83285773  0.15224012  0.87653884  1
  Pr3+  Pr33  1  0.16921344  0.51085227  0.12225055  1
  Pr3+  Pr34  1  1.00200359  0.32207687  0.87304422  1
  Pr3+  Pr35  1  0.67144680  0.32067437  0.37705382  1
  Pr3+  Pr36  1  1.00050033  0.98744575  0.37126482  1
  Pr3+  Pr37  1  -0.00462594  0.68222070  0.62325770  1
  Pr3+  Pr38  1  0.32873849  0.01434008  0.12583097  1
  Pr3+  Pr39  1  0.82783929  0.81645880  0.37553861  1
  Pr3+  Pr40  1  0.16426612  0.81822958  0.37378585  1
  Pr3+  Pr41  1  0.50099863  0.51196950  0.12434397  1
  Pr3+  Pr42  1  0.33036876  0.67877029  0.12483223  1
  Pr3+  Pr43  1  0.49631530  0.48960965  0.87392054  1
  Pr3+  Pr44  1  -0.00336573  0.00670834  0.62747728  1
  Pr3+  Pr45  1  0.16967190  0.51608285  0.62725327  1
  Pr3+  Pr46  1  0.67262819  0.32179548  0.87263389  1
  Pr3+  Pr47  1  1.00458322  0.65397356  0.87535346  1
  Pr3+  Pr48  1  0.83839124  0.84686648  0.12408414  1
  Pr3+  Pr49  1  0.49581109  0.81988473  0.87559956  1
  Pr3+  Pr50  1  0.16275255  0.48858358  0.37524350  1
  Pr3+  Pr51  1  0.50609570  0.51655850  0.62589856  1
  Pr3+  Pr52  1  0.49834779  0.82075521  0.37463684  1
  Pr3+  Pr53  1  0.83783891  0.18135966  0.62487140  1
  Pr3+  Pr54  1  0.16570010  0.15409520  0.37301967  1
  Pr3+  Pr55  1  0.50553166  0.17943981  0.62526055  1
  Pr3+  Pr56  1  0.66551443  0.00576738  0.62610931  1
  Pr3+  Pr57  1  0.33301711  0.32274515  0.87509312  1
  Pr3+  Pr58  1  0.17069547  0.84421377  0.62543663  1
  Pr3+  Pr59  1  0.33014787  0.00924970  0.62423670  1
  Pr3+  Pr60  1  0.66444478  0.34753682  0.12455139  1
  Pr3+  Pr61  1  0.66952401  0.98537318  0.87752499  1
  Pr3+  Pr62  1  0.33587830  0.32109770  0.37524153  1
  Pr3+  Pr63  1  0.83285364  0.49060338  0.37551334  1
  Pr3+  Pr64  1  0.67025919  0.98645701  0.37277569  1
  Pr3+  Pr65  1  0.83452475  0.51299242  0.62708773  1
  Pr3+  Pr66  1  0.16563063  0.84478753  0.12407069  1
  Pr3+  Pr67  1  0.49518183  0.15017978  0.37492075  1
  Pr3+  Pr68  1  1.00296344  0.32059063  0.37672607  1
  Pr3+  Pr69  1  0.49947258  0.48868978  0.37617667  1
  Pr3+  Pr70  1  -0.00140590  0.34304109  0.12378015  1
  Pr3+  Pr71  1  0.33730406  0.65402899  0.37747048  1
  Mn3.30+  Mn72  1  0.16262561  0.00059212  0.00355034  1
  Mn3.30+  Mn73  1  0.16726843  -0.00067525  0.49613944  1
  Mn3.30+  Mn74  1  0.16636702  0.33321227  -0.00170889  1
  Mn3.30+  Mn75  1  0.16580966  0.33434923  0.50307195  1
  Mn3.30+  Mn76  1  0.16591647  0.66643186  -0.00095421  1
  Mn3.30+  Mn77  1  0.16631080  0.66665745  0.49971456  1
  Mn3.30+  Mn78  1  0.50085176  -0.00051945  0.00239688  1
  Mn3.30+  Mn79  1  0.49918084  -0.00235971  0.50002912  1
  Mn3.30+  Mn80  1  0.50055271  0.33427597  -0.00100690  1
  Mn3.30+  Mn81  1  0.50247142  0.33375893  0.50144159  1
  Mn3.30+  Mn82  1  0.49994645  0.66784613  0.00048935  1
  Mn3.30+  Mn83  1  0.50308243  0.66802573  0.50107221  1
  Mn3.30+  Mn84  1  0.83479995  -0.00056115  0.00074192  1
  Mn3.30+  Mn85  1  0.83333063  -0.00220555  0.50054851  1
  Mn3.30+  Mn86  1  0.83385376  0.33329011  -0.00091514  1
  Mn3.30+  Mn87  1  0.83409273  0.33469799  0.50265525  1
  Mn3.30+  Mn88  1  0.83385988  0.66701448  -0.00219977  1
  Mn3.30+  Mn89  1  0.83127460  0.66726758  0.50132107  1
  Mn3.30+  Mn90  1  0.00137191  0.16530550  0.24741460  1
  Mn3.30+  Mn91  1  -0.00013819  0.16549515  0.74960563  1
  Mn3.30+  Mn92  1  -0.00003662  0.50001711  0.25061031  1
  Mn3.30+  Mn93  1  0.00011507  0.49986465  0.75018933  1
  Mn3.30+  Mn94  1  -0.00150206  0.83151985  0.25020103  1
  Mn3.30+  Mn95  1  -0.00140638  0.83301867  0.75016602  1
  Mn3.30+  Mn96  1  0.33215751  0.16591907  0.24996064  1
  Mn3.30+  Mn97  1  0.33291955  0.16610122  0.74987015  1
  Mn3.30+  Mn98  1  0.33294024  0.49945696  0.24987944  1
  Mn3.30+  Mn99  1  0.33294730  0.50292550  0.75012985  1
  Mn3.30+  Mn100  1  0.33486762  0.83437414  0.24872271  1
  Mn3.30+  Mn101  1  0.33267362  0.83200426  0.75039909  1
  Mn3.30+  Mn102  1  0.66603760  0.16571876  0.24939201  1
  Mn3.30+  Mn103  1  0.66814954  0.16644142  0.74927169  1
  Mn3.30+  Mn104  1  0.66738217  0.50239378  0.25121593  1
  Mn3.30+  Mn105  1  0.66837041  0.50089093  0.74918592  1
  Mn3.30+  Mn106  1  0.66542116  0.83375511  0.24844315  1
  Mn3.30+  Mn107  1  0.66719827  0.83199712  0.74898729  1
  Mn3.30+  Mn108  1  0.16717763  0.00074575  0.24937768  1
  Mn3.30+  Mn109  1  0.16325792  -0.00098262  0.75077168  1
  Mn3.30+  Mn110  1  0.16746685  0.33236634  0.24974462  1
  Mn3.30+  Mn111  1  0.16457094  0.33501658  0.74907072  1
  Mn3.30+  Mn112  1  0.16521938  0.66573436  0.24999824  1
  Mn3.30+  Mn113  1  0.16653623  0.66718785  0.75110258  1
  Mn3.30+  Mn114  1  0.50005034  -0.00116525  0.24879667  1
  Mn3.30+  Mn115  1  0.49960369  -0.00119192  0.74976599  1
  Mn3.30+  Mn116  1  0.50071719  0.33362081  0.25050556  1
  Mn3.30+  Mn117  1  0.50221699  0.33422966  0.74962335  1
  Mn3.30+  Mn118  1  0.50130670  0.66791450  0.25053465  1
  Mn3.30+  Mn119  1  0.50153006  0.66793505  0.74811791  1
  Mn3.30+  Mn120  1  0.83431966  -0.00028350  0.24683033  1
  Mn3.30+  Mn121  1  0.83371834  -0.00209052  0.75106138  1
  Mn3.30+  Mn122  1  0.83421067  0.33262477  0.24993485  1
  Mn3.30+  Mn123  1  0.83431583  0.33503735  0.74814647  1
  Mn3.30+  Mn124  1  0.83173076  0.66565776  0.25195258  1
  Mn3.30+  Mn125  1  0.83318069  0.66845995  0.74889426  1
  Mn3.30+  Mn126  1  0.00008495  0.16472184  0.00172429  1
  Mn3.30+  Mn127  1  0.00060448  0.16611075  0.50067373  1
  Mn3.30+  Mn128  1  -0.00016672  0.49901072  -0.00320129  1
  Mn3.30+  Mn129  1  -0.00005301  0.50089649  0.50228795  1
  Mn3.30+  Mn130  1  -0.00035507  0.83241936  0.00088890  1
  Mn3.30+  Mn131  1  -0.00194661  0.83231257  0.49760580  1
  Mn3.30+  Mn132  1  0.33074349  0.16717535  0.00036253  1
  Mn3.30+  Mn133  1  0.33393227  0.16494876  0.50057721  1
  Mn3.30+  Mn134  1  0.33211109  0.50054828  -0.00278092  1
  Mn3.30+  Mn135  1  0.33408962  0.50186233  0.50260011  1
  Mn3.30+  Mn136  1  0.33464688  0.83336863  0.00280636  1
  Mn3.30+  Mn137  1  0.33308749  0.83338102  0.49881267  1
  Mn3.30+  Mn138  1  0.66689573  0.16635027  0.00037649  1
  Mn3.30+  Mn139  1  0.66742420  0.16616341  0.50126160  1
  Mn3.30+  Mn140  1  0.66866022  0.50164193  -0.00194935  1
  Mn3.30+  Mn141  1  0.66733970  0.50176178  0.50126876  1
  Mn3.30+  Mn142  1  0.66609740  0.83399126  0.00197347  1
  Mn3.30+  Mn143  1  0.66672183  0.83132821  0.50102773  1
  O2-  O144  1  0.02753007  0.16123301  0.12582098  1
  O2-  O145  1  0.02628392  0.15331724  0.62487297  1
  O2-  O146  1  0.02427074  0.49234780  0.12337148  1
  O2-  O147  1  0.02573382  0.49615645  0.62574162  1
  O2-  O148  1  0.02212666  0.82649754  0.12888695  1
  O2-  O149  1  0.02628052  0.83030810  0.61953484  1
  O2-  O150  1  0.36014409  0.16270444  0.12542772  1
  O2-  O151  1  0.36007247  0.15863752  0.62546791  1
  O2-  O152  1  0.35690440  0.49776312  0.12295076  1
  O2-  O153  1  0.36196651  0.49209197  0.62521691  1
  O2-  O154  1  0.36174454  0.82696578  0.12640774  1
  O2-  O155  1  0.34810961  0.83221366  0.62281550  1
  O2-  O156  1  0.68281111  0.16084985  0.12604847  1
  O2-  O157  1  0.69393887  0.15346599  0.62618135  1
  O2-  O158  1  0.69295098  0.49552054  0.12263918  1
  O2-  O159  1  0.69149296  0.49147275  0.62448664  1
  O2-  O160  1  0.69442534  0.82613605  0.12617974  1
  O2-  O161  1  0.69135934  0.83251194  0.62384927  1
  O2-  O162  1  0.14313210  0.32931109  0.12264392  1
  O2-  O163  1  0.13863167  0.32666347  0.62522171  1
  O2-  O164  1  0.14709499  0.65902822  0.12608422  1
  O2-  O165  1  0.14046515  0.66453644  0.62444044  1
  O2-  O166  1  0.13819632  0.99221519  0.12773961  1
  O2-  O167  1  0.14130339  0.99381185  0.62056960  1
  O2-  O168  1  0.48138537  0.32940437  0.12521620  1
  O2-  O169  1  0.47508319  0.32757681  0.62609725  1
  O2-  O170  1  0.47397951  0.65765540  0.12698679  1
  O2-  O171  1  0.47348650  0.66283725  0.62389451  1
  O2-  O172  1  0.47288162  0.99841889  0.12489976  1
  O2-  O173  1  0.47420342  0.99773318  0.62392088  1
  O2-  O174  1  0.80784471  0.33164766  0.12495155  1
  O2-  O175  1  0.80476128  0.32755492  0.62475391  1
  O2-  O176  1  0.80789810  0.65895459  0.12529440  1
  O2-  O177  1  0.80545292  0.65887789  0.62528333  1
  O2-  O178  1  0.80655835  0.99499990  0.12496597  1
  O2-  O179  1  0.80989905  0.99417987  0.62448016  1
  O2-  O180  1  0.30940204  0.17455770  0.37687135  1
  O2-  O181  1  0.30690698  0.17181365  0.87318542  1
  O2-  O182  1  0.30748157  0.50571526  0.37894545  1
  O2-  O183  1  0.30807867  0.50257199  0.87260447  1
  O2-  O184  1  0.30913077  0.83744283  0.37252392  1
  O2-  O185  1  0.31453202  0.83843258  0.87835731  1
  O2-  O186  1  0.64084725  0.17247962  0.37589916  1
  O2-  O187  1  0.64094561  0.17383510  0.87284613  1
  O2-  O188  1  0.64197819  0.50700883  0.37812051  1
  O2-  O189  1  0.63981434  0.50756263  0.87445594  1
  O2-  O190  1  0.64163279  0.84094765  0.37213034  1
  O2-  O191  1  0.64043142  0.83730812  0.87843508  1
  O2-  O192  1  0.97525202  0.17304679  0.37619511  1
  O2-  O193  1  0.97511945  0.17581288  0.87321196  1
  O2-  O194  1  0.97784980  0.50389037  0.37828888  1
  O2-  O195  1  0.97278832  0.50561704  0.87259725  1
  O2-  O196  1  0.97188035  0.84120862  0.37390871  1
  O2-  O197  1  0.98398930  0.83673910  0.87629608  1
  O2-  O198  1  0.19770591  0.00739069  0.37236657  1
  O2-  O199  1  0.19071501  0.00454605  0.87883503  1
  O2-  O200  1  0.19190845  0.33996527  0.37986789  1
  O2-  O201  1  0.18955455  0.33804630  0.87213863  1
  O2-  O202  1  0.19344595  0.66797079  0.37421576  1
  O2-  O203  1  0.18271543  0.67125467  0.87425439  1
  O2-  O204  1  0.52615331  0.00397442  0.37476334  1
  O2-  O205  1  0.52430461  0.00540437  0.87717415  1
  O2-  O206  1  0.52663326  0.33904847  0.37615773  1
  O2-  O207  1  0.52795096  0.33960668  0.87297666  1
  O2-  O208  1  0.52690452  0.67143465  0.37404617  1
  O2-  O209  1  0.52678514  0.67103508  0.87472783  1
  O2-  O210  1  0.85590384  0.00424561  0.37450548  1
  O2-  O211  1  0.85911863  0.00454387  0.87590745  1
  O2-  O212  1  0.85941959  0.34026274  0.37714614  1
  O2-  O213  1  0.85799987  0.33854966  0.87273250  1
  O2-  O214  1  0.85960017  0.66951603  0.37775164  1
  O2-  O215  1  0.86013879  0.67279386  0.87150462  1
  O2-  O216  1  0.23516791  0.09459113  0.02257462  1
  O2-  O217  1  0.23814177  0.09490071  0.52186631  1
  O2-  O218  1  0.23705737  0.42830261  0.01530982  1
  O2-  O219  1  0.23873410  0.42884596  0.52389493  1
  O2-  O220  1  0.24242265  0.76049431  0.02395904  1
  O2-  O221  1  0.23444819  0.76228091  0.51363440  1
  O2-  O222  1  0.56661125  0.09724102  0.01535964  1
  O2-  O223  1  0.57019779  0.09366718  0.51986051  1
  O2-  O224  1  0.57312432  0.42994336  0.01953809  1
  O2-  O225  1  0.57099735  0.43082062  0.51800879  1
  O2-  O226  1  0.57132230  0.76366056  0.02330056  1
  O2-  O227  1  0.57250621  0.76243111  0.51481126  1
  O2-  O228  1  0.90565169  0.09435268  0.01579414  1
  O2-  O229  1  0.90548611  0.09491618  0.51915232  1
  O2-  O230  1  0.90671495  0.42516648  0.02074567  1
  O2-  O231  1  0.90309045  0.42952432  0.52031988  1
  O2-  O232  1  0.90325613  0.76095857  0.01891238  1
  O2-  O233  1  0.90082304  0.76291821  0.52150231  1
  O2-  O234  1  0.26122713  0.26124320  0.23789448  1
  O2-  O235  1  0.26197749  0.26076308  0.72821750  1
  O2-  O236  1  0.26231021  0.59450776  0.23147789  1
  O2-  O237  1  0.26212860  0.59450953  0.72471799  1
  O2-  O238  1  0.25901915  0.92688003  0.22513701  1
  O2-  O239  1  0.25937006  0.92924175  0.73242945  1
  O2-  O240  1  0.59575402  0.26254170  0.23141243  1
  O2-  O241  1  0.59812549  0.26043445  0.72668049  1
  O2-  O242  1  0.59247495  0.59406194  0.22732323  1
  O2-  O243  1  0.59751328  0.59584658  0.72735479  1
  O2-  O244  1  0.59788346  0.93304427  0.22986125  1
  O2-  O245  1  0.59495074  0.92917031  0.73471606  1
  O2-  O246  1  0.93147796  0.26163848  0.23333780  1
  O2-  O247  1  0.93021863  0.26057319  0.72611622  1
  O2-  O248  1  0.92308654  0.58888485  0.23350835  1
  O2-  O249  1  0.92935851  0.59535644  0.72767374  1
  O2-  O250  1  0.92791598  0.92993905  0.22773147  1
  O2-  O251  1  0.92741577  0.92540549  0.73118207  1
  O2-  O252  1  0.09381624  0.24030496  0.27265196  1
  O2-  O253  1  0.09517059  0.23537822  0.76927696  1
  O2-  O254  1  0.09624678  0.56973864  0.26726659  1
  O2-  O255  1  0.09601506  0.57042231  0.76920401  1
  O2-  O256  1  0.09649312  0.90672803  0.27273437  1
  O2-  O257  1  0.09366937  0.90476750  0.76028260  1
  O2-  O258  1  0.42770669  0.23747612  0.27121540  1
  O2-  O259  1  0.42904477  0.23969273  0.77048288  1
  O2-  O260  1  0.42738254  0.57165995  0.27193332  1
  O2-  O261  1  0.43218429  0.57064632  0.76646891  1
  O2-  O262  1  0.43125334  0.90579148  0.26894198  1
  O2-  O263  1  0.42534600  0.90822923  0.77198513  1
  O2-  O264  1  0.76140793  0.24145477  0.27347451  1
  O2-  O265  1  0.76344531  0.23730232  0.77002841  1
  O2-  O266  1  0.76178474  0.57066574  0.26908722  1
  O2-  O267  1  0.76334024  0.57120176  0.77124644  1
  O2-  O268  1  0.76221086  0.90344571  0.27008059  1
  O2-  O269  1  0.75521622  0.90924986  0.76940659  1
  O2-  O270  1  0.07477273  0.07063351  0.47499754  1
  O2-  O271  1  0.07019826  0.07221004  0.97637061  1
  O2-  O272  1  0.07379182  0.40597035  0.47947694  1
  O2-  O273  1  0.06963892  0.40238204  0.98066460  1
  O2-  O274  1  0.06752845  0.73794052  0.47650853  1
  O2-  O275  1  0.07081643  0.73668382  0.98537900  1
  O2-  O276  1  0.40538926  0.06945419  0.47800029  1
  O2-  O277  1  0.40261448  0.07251115  0.97989753  1
  O2-  O278  1  0.40415310  0.40620816  0.48022492  1
  O2-  O279  1  0.40668601  0.40710234  0.97616104  1
  O2-  O280  1  0.40767309  0.73967713  0.47827932  1
  O2-  O281  1  0.40929655  0.73868398  0.98179539  1
  O2-  O282  1  0.73870503  0.07223412  0.47870040  1
  O2-  O283  1  0.73938987  0.07440569  0.97820926  1
  O2-  O284  1  0.74034618  0.40693659  0.47728815  1
  O2-  O285  1  0.73583155  0.40555902  0.98090098  1
  O2-  O286  1  0.73812490  0.73817674  0.47653177  1
  O2-  O287  1  0.73520838  0.73512642  0.98412814  1
  O2-  O288  1  0.09587570  0.23717293  0.48002293  1
  O2-  O289  1  0.09323088  0.23888110  0.97827299  1
  O2-  O290  1  0.09859528  0.57112663  0.48396098  1
  O2-  O291  1  0.09296196  0.56799574  0.97945939  1
  O2-  O292  1  0.09560073  0.90537487  0.47472904  1
  O2-  O293  1  0.09420511  0.90517810  0.98911694  1
  O2-  O294  1  0.42907896  0.23836645  0.48118621  1
  O2-  O295  1  0.42838324  0.23979525  0.97827296  1
  O2-  O296  1  0.43080958  0.57260203  0.47890404  1
  O2-  O297  1  0.43042924  0.57027501  0.98291342  1
  O2-  O298  1  0.42881562  0.90544896  0.47895630  1
  O2-  O299  1  0.42814301  0.90820143  0.98041513  1
  O2-  O300  1  0.76460829  0.23854516  0.47956581  1
  O2-  O301  1  0.76142189  0.24130278  0.97686153  1
  O2-  O302  1  0.76356955  0.57024354  0.48164239  1
  O2-  O303  1  0.76219633  0.57144980  0.97640675  1
  O2-  O304  1  0.75924832  0.90522371  0.47800763  1
  O2-  O305  1  0.75886615  0.90698798  0.98228615  1
  O2-  O306  1  0.07514245  0.07402378  0.27525508  1
  O2-  O307  1  0.06989293  0.06974077  0.77297411  1
  O2-  O308  1  0.07181107  0.40432562  0.27052105  1
  O2-  O309  1  0.07045208  0.40612868  0.76946473  1
  O2-  O310  1  0.07392337  0.73757878  0.27454745  1
  O2-  O311  1  0.06612115  0.73563757  0.76284853  1
  O2-  O312  1  0.40247863  0.07018745  0.27129681  1
  O2-  O313  1  0.40467055  0.07233133  0.77185860  1
  O2-  O314  1  0.40751233  0.40689593  0.27326757  1
  O2-  O315  1  0.40444224  0.40619368  0.77060675  1
  O2-  O316  1  0.40574659  0.73687335  0.27208335  1
  O2-  O317  1  0.41073134  0.74273952  0.76702899  1
  O2-  O318  1  0.74037383  0.07393504  0.27071960  1
  O2-  O319  1  0.73845473  0.07277655  0.77308312  1
  O2-  O320  1  0.73847672  0.40652887  0.27111259  1
  O2-  O321  1  0.73746608  0.40703003  0.76993589  1
  O2-  O322  1  0.73485365  0.73524951  0.27179008  1
  O2-  O323  1  0.73807870  0.73842599  0.76785153  1
  O2-  O324  1  0.23727715  0.09623587  0.22599244  1
  O2-  O325  1  0.23615988  0.09319363  0.72961470  1
  O2-  O326  1  0.23609502  0.43033538  0.23443180  1
  O2-  O327  1  0.24129807  0.42736857  0.72619593  1
  O2-  O328  1  0.23801401  0.76009209  0.23007076  1
  O2-  O329  1  0.23761451  0.76030249  0.73170499  1
  O2-  O330  1  0.56524657  0.09692047  0.23529706  1
  O2-  O331  1  0.57183094  0.09452836  0.73078015  1
  O2-  O332  1  0.57445648  0.42996847  0.23052913  1
  O2-  O333  1  0.57085854  0.43069952  0.73154849  1
  O2-  O334  1  0.57011974  0.76475002  0.22691248  1
  O2-  O335  1  0.57417049  0.76080857  0.73527028  1
  O2-  O336  1  0.90784826  0.09371293  0.23698776  1
  O2-  O337  1  0.90454691  0.09523160  0.72942212  1
  O2-  O338  1  0.90580999  0.42600196  0.22981004  1
  O2-  O339  1  0.90589247  0.42851031  0.72832790  1
  O2-  O340  1  0.89732358  0.76161224  0.23460565  1
  O2-  O341  1  0.90541222  0.76115681  0.72392790  1
  O2-  O342  1  0.26044976  0.26098498  0.01252765  1
  O2-  O343  1  0.26109527  0.26230699  0.52232947  1
  O2-  O344  1  0.26031883  0.59322198  0.02066144  1
  O2-  O345  1  0.26539467  0.59574147  0.52329328  1
  O2-  O346  1  0.26036188  0.92921070  0.02209592  1
  O2-  O347  1  0.25871029  0.92811700  0.51948977  1
  O2-  O348  1  0.59583018  0.26212704  0.01877020  1
  O2-  O349  1  0.59849353  0.26069171  0.52329859  1
  O2-  O350  1  0.59535318  0.59552690  0.02092998  1
  O2-  O351  1  0.59531118  0.59561553  0.52445886  1
  O2-  O352  1  0.59660964  0.93187639  0.02017625  1
  O2-  O353  1  0.59711744  0.93038677  0.51580850  1
  O2-  O354  1  0.93115445  0.26083764  0.01766238  1
  O2-  O355  1  0.92875500  0.26386456  0.52292452  1
  O2-  O356  1  0.92563396  0.59132603  0.01702574  1
  O2-  O357  1  0.92562908  0.59470239  0.52282591  1
  O2-  O358  1  0.92636259  0.92596431  0.02225126  1
  O2-  O359  1  0.93109757  0.92982167  0.51626953  1
