# generated using pymatgen
data_Sr7Ca15Pr50Mn72O216
_symmetry_space_group_name_H-M   'P 1'
_cell_length_a   16.55682988
_cell_length_b   16.60255947
_cell_length_c   15.58964759
_cell_angle_alpha   89.99924581
_cell_angle_beta   90.00347873
_cell_angle_gamma   90.00710707
_symmetry_Int_Tables_number   1
_chemical_formula_structural   Sr7Ca15Pr50Mn72O216
_chemical_formula_sum   'Sr7 Ca15 Pr50 Mn72 O216'
_cell_volume   4285.37197046
_cell_formula_units_Z   1
loop_
 _symmetry_equiv_pos_site_id
 _symmetry_equiv_pos_as_xyz
  1  'x, y, z'
loop_
 _atom_type_symbol
 _atom_type_oxidation_number
  Sr2+  2.0
  Ca2+  2.0
  Pr3+  3.0
  Mn3.30+  3.3
  O2-  -2.0
loop_
 _atom_site_type_symbol
 _atom_site_label
 _atom_site_symmetry_multiplicity
 _atom_site_fract_x
 _atom_site_fract_y
 _atom_site_fract_z
 _atom_site_occupancy
  Sr2+  Sr0  1  0.66542428  0.67383791  0.62509867  1
  Sr2+  Sr1  1  1.00409056  0.32388093  0.37577066  1
  Sr2+  Sr2  1  0.50309897  0.84021483  0.62479031  1
  Sr2+  Sr3  1  0.49651909  0.82020276  0.87308954  1
  Sr2+  Sr4  1  0.49934644  0.82389361  0.37691009  1
  Sr2+  Sr5  1  0.33341834  0.34531414  0.62449827  1
  Sr2+  Sr6  1  1.00298618  0.65434849  0.37524467  1
  Ca2+  Ca7  1  0.33000398  0.01555288  0.12640722  1
  Ca2+  Ca8  1  0.33825557  0.65359250  0.87325481  1
  Ca2+  Ca9  1  0.83850594  0.84867500  0.12519614  1
  Ca2+  Ca10  1  0.15860482  0.15079637  0.37629363  1
  Ca2+  Ca11  1  0.17012329  0.84694018  0.62370472  1
  Ca2+  Ca12  1  0.83782387  0.51242817  0.12626381  1
  Ca2+  Ca13  1  1.00378119  0.98747224  0.37465402  1
  Ca2+  Ca14  1  0.83688879  0.18111321  0.62391787  1
  Ca2+  Ca15  1  0.67243387  0.31686883  0.37563926  1
  Ca2+  Ca16  1  0.16079068  0.48655089  0.37686989  1
  Ca2+  Ca17  1  0.50298756  0.51606383  0.62505701  1
  Ca2+  Ca18  1  0.50275035  0.18108510  0.12615679  1
  Ca2+  Ca19  1  1.00383836  0.98456639  0.87584227  1
  Ca2+  Ca20  1  0.83696231  0.51528885  0.62488341  1
  Ca2+  Ca21  1  0.82723558  0.48589464  0.87201908  1
  Pr3+  Pr22  1  0.83476387  0.84216580  0.62519869  1
  Pr3+  Pr23  1  0.66374874  0.00821350  0.62457466  1
  Pr3+  Pr24  1  0.16945664  0.51031826  0.62160944  1
  Pr3+  Pr25  1  0.50341322  0.51352964  0.12536450  1
  Pr3+  Pr26  1  0.83726786  0.18016799  0.12543631  1
  Pr3+  Pr27  1  0.16341280  0.15152066  0.87400284  1
  Pr3+  Pr28  1  0.66980571  0.65648961  0.37798088  1
  Pr3+  Pr29  1  0.33044587  0.00772765  0.62394042  1
  Pr3+  Pr30  1  0.50182586  0.17680643  0.62373964  1
  Pr3+  Pr31  1  0.33397702  0.98836525  0.37357968  1
  Pr3+  Pr32  1  0.67052045  0.32186690  0.87439513  1
  Pr3+  Pr33  1  0.16985872  0.17960019  0.62315900  1
  Pr3+  Pr34  1  0.16113670  0.82157786  0.37563266  1
  Pr3+  Pr35  1  0.66988228  0.65228915  0.87193224  1
  Pr3+  Pr36  1  0.83076751  0.15257786  0.87360292  1
  Pr3+  Pr37  1  -0.00531932  0.68087739  0.12591322  1
  Pr3+  Pr38  1  0.33214635  0.68029928  0.62598750  1
  Pr3+  Pr39  1  0.83291904  0.82076938  0.37342525  1
  Pr3+  Pr40  1  0.66687128  0.67919832  0.12437657  1
  Pr3+  Pr41  1  -0.00361008  0.01265068  0.12531794  1
  Pr3+  Pr42  1  0.66711975  0.98569831  0.87587361  1
  Pr3+  Pr43  1  0.50144858  0.84654478  0.12507581  1
  Pr3+  Pr44  1  0.66450745  0.01408417  0.12504652  1
  Pr3+  Pr45  1  0.49705883  0.15538185  0.87586786  1
  Pr3+  Pr46  1  0.66947133  0.98590121  0.37435036  1
  Pr3+  Pr47  1  0.49911425  0.15739254  0.37390461  1
  Pr3+  Pr48  1  0.33734636  0.98704949  0.87591275  1
  Pr3+  Pr49  1  0.33050387  0.32276370  0.37652289  1
  Pr3+  Pr50  1  0.33043656  0.67975932  0.12337295  1
  Pr3+  Pr51  1  0.66412698  0.34608090  0.12780371  1
  Pr3+  Pr52  1  0.16380616  0.81981402  0.87444449  1
  Pr3+  Pr53  1  0.33548753  0.65571832  0.37529864  1
  Pr3+  Pr54  1  1.00102807  0.65258546  0.87482565  1
  Pr3+  Pr55  1  0.83161815  0.82115823  0.87672742  1
  Pr3+  Pr56  1  0.49968713  0.48878817  0.37756153  1
  Pr3+  Pr57  1  0.33757794  0.32109730  0.87417278  1
  Pr3+  Pr58  1  0.16620163  0.48824478  0.87432854  1
  Pr3+  Pr59  1  -0.00248642  0.67938260  0.62441364  1
  Pr3+  Pr60  1  0.16910636  0.17811091  0.12682813  1
  Pr3+  Pr61  1  0.83206040  0.15378891  0.37649632  1
  Pr3+  Pr62  1  -0.00430907  0.01358758  0.62509850  1
  Pr3+  Pr63  1  0.33302431  0.34465707  0.12599205  1
  Pr3+  Pr64  1  0.99949662  0.32232838  0.87406645  1
  Pr3+  Pr65  1  -0.00519794  0.34885808  0.12657095  1
  Pr3+  Pr66  1  0.16757148  0.51128816  0.12760002  1
  Pr3+  Pr67  1  0.66308962  0.34755858  0.62203125  1
  Pr3+  Pr68  1  0.49784444  0.49163510  0.87226036  1
  Pr3+  Pr69  1  0.82949058  0.48497250  0.37764811  1
  Pr3+  Pr70  1  -0.00535865  0.34742609  0.62343060  1
  Pr3+  Pr71  1  0.17036055  0.84961222  0.12610446  1
  Mn3.30+  Mn72  1  0.16733742  0.00000911  -0.00021344  1
  Mn3.30+  Mn73  1  0.16328573  0.00008353  0.50001670  1
  Mn3.30+  Mn74  1  0.16640999  0.33290988  0.00004063  1
  Mn3.30+  Mn75  1  0.16524488  0.33318528  0.49927355  1
  Mn3.30+  Mn76  1  0.16695799  0.66615517  -0.00106908  1
  Mn3.30+  Mn77  1  0.16587592  0.66644583  0.50027791  1
  Mn3.30+  Mn78  1  0.49819337  0.00177305  0.00338082  1
  Mn3.30+  Mn79  1  0.49909654  -0.00006181  0.49852193  1
  Mn3.30+  Mn80  1  0.50142515  0.33389829  0.00102788  1
  Mn3.30+  Mn81  1  0.50133714  0.33400081  0.49890253  1
  Mn3.30+  Mn82  1  0.49896944  0.66711458  -0.00077429  1
  Mn3.30+  Mn83  1  0.50071263  0.66625300  0.49990145  1
  Mn3.30+  Mn84  1  0.83506080  -0.00109443  -0.00092558  1
  Mn3.30+  Mn85  1  0.83529165  0.00010599  0.50041635  1
  Mn3.30+  Mn86  1  0.83302147  0.33596595  -0.00015014  1
  Mn3.30+  Mn87  1  0.83214809  0.33208684  0.50110236  1
  Mn3.30+  Mn88  1  0.83330507  0.66437869  0.00061516  1
  Mn3.30+  Mn89  1  0.83529280  0.66528480  0.50056915  1
  Mn3.30+  Mn90  1  0.00202039  0.16678018  0.25257322  1
  Mn3.30+  Mn91  1  -0.00173667  0.16606345  0.74968871  1
  Mn3.30+  Mn92  1  -0.00043973  0.50076981  0.25111075  1
  Mn3.30+  Mn93  1  -0.00298297  0.49995735  0.75087306  1
  Mn3.30+  Mn94  1  -0.00062805  0.83493281  0.24960882  1
  Mn3.30+  Mn95  1  0.00196807  0.83467602  0.74994205  1
  Mn3.30+  Mn96  1  0.33177040  0.16681464  0.25093885  1
  Mn3.30+  Mn97  1  0.33261216  0.16635856  0.74926098  1
  Mn3.30+  Mn98  1  0.33211169  0.49981119  0.25234854  1
  Mn3.30+  Mn99  1  0.33411104  0.50139758  0.74783776  1
  Mn3.30+  Mn100  1  0.33311554  0.83473330  0.24976361  1
  Mn3.30+  Mn101  1  0.33167031  0.83257497  0.74952653  1
  Mn3.30+  Mn102  1  0.66646692  0.16741339  0.25028465  1
  Mn3.30+  Mn103  1  0.66835438  0.16619284  0.74815672  1
  Mn3.30+  Mn104  1  0.66889808  0.49973788  0.25031070  1
  Mn3.30+  Mn105  1  0.66752378  0.49933444  0.74738195  1
  Mn3.30+  Mn106  1  0.66910648  0.83326784  0.24746318  1
  Mn3.30+  Mn107  1  0.66588256  0.83136013  0.75096251  1
  Mn3.30+  Mn108  1  0.16602918  0.00220964  0.25100511  1
  Mn3.30+  Mn109  1  0.16429221  -0.00202322  0.74941529  1
  Mn3.30+  Mn110  1  0.16450705  0.33330628  0.25058252  1
  Mn3.30+  Mn111  1  0.16696212  0.33328986  0.75020545  1
  Mn3.30+  Mn112  1  0.16519009  0.66583388  0.25012791  1
  Mn3.30+  Mn113  1  0.16791989  0.66657799  0.75067544  1
  Mn3.30+  Mn114  1  0.49828910  0.00207326  0.24825794  1
  Mn3.30+  Mn115  1  0.49933797  -0.00064447  0.74972994  1
  Mn3.30+  Mn116  1  0.50115409  0.33300955  0.25281187  1
  Mn3.30+  Mn117  1  0.50141578  0.33511899  0.74734370  1
  Mn3.30+  Mn118  1  0.50038417  0.66755854  0.25038880  1
  Mn3.30+  Mn119  1  0.49987931  0.66572643  0.74989382  1
  Mn3.30+  Mn120  1  0.83529758  -0.00062476  0.24978094  1
  Mn3.30+  Mn121  1  0.83412726  -0.00032900  0.75042557  1
  Mn3.30+  Mn122  1  0.83260566  0.33347993  0.25232933  1
  Mn3.30+  Mn123  1  0.83258237  0.33456539  0.74745074  1
  Mn3.30+  Mn124  1  0.83419288  0.66486085  0.24927688  1
  Mn3.30+  Mn125  1  0.83428982  0.66469278  0.74977713  1
  Mn3.30+  Mn126  1  0.00031025  0.16557688  -0.00156844  1
  Mn3.30+  Mn127  1  -0.00000538  0.16682718  0.49986977  1
  Mn3.30+  Mn128  1  -0.00351190  0.50010292  -0.00159088  1
  Mn3.30+  Mn129  1  -0.00026488  0.50039060  0.50006935  1
  Mn3.30+  Mn130  1  -0.00078809  0.83419596  -0.00017049  1
  Mn3.30+  Mn131  1  0.00206067  0.83508963  0.50093184  1
  Mn3.30+  Mn132  1  0.33431522  0.16626159  0.00329575  1
  Mn3.30+  Mn133  1  0.33046076  0.16675682  0.49706293  1
  Mn3.30+  Mn134  1  0.33362556  0.50089265  -0.00009507  1
  Mn3.30+  Mn135  1  0.33266648  0.50022709  0.49958690  1
  Mn3.30+  Mn136  1  0.33351353  0.83377273  -0.00031643  1
  Mn3.30+  Mn137  1  0.33113586  0.83374463  0.50066853  1
  Mn3.30+  Mn138  1  0.66596709  0.16735866  0.00068919  1
  Mn3.30+  Mn139  1  0.66918588  0.16599356  0.50071270  1
  Mn3.30+  Mn140  1  0.67033035  0.49992131  0.00084347  1
  Mn3.30+  Mn141  1  0.66613270  0.49926983  0.50105561  1
  Mn3.30+  Mn142  1  0.66810364  0.83289471  0.00137101  1
  Mn3.30+  Mn143  1  0.66698340  0.83183524  0.49983719  1
  O2-  O144  1  0.02431809  0.16049589  0.12334488  1
  O2-  O145  1  0.02619516  0.16114152  0.62672299  1
  O2-  O146  1  0.02375591  0.49716054  0.12131858  1
  O2-  O147  1  0.02498154  0.49712656  0.62677032  1
  O2-  O148  1  0.02566674  0.82910457  0.12313834  1
  O2-  O149  1  0.02794824  0.82740775  0.62695424  1
  O2-  O150  1  0.36013967  0.16271980  0.12661661  1
  O2-  O151  1  0.35735215  0.15770697  0.62160580  1
  O2-  O152  1  0.35982012  0.49336240  0.12763935  1
  O2-  O153  1  0.35943359  0.49950725  0.62334487  1
  O2-  O154  1  0.35796034  0.82600791  0.12393245  1
  O2-  O155  1  0.35319342  0.83123380  0.62478756  1
  O2-  O156  1  0.69397107  0.16186885  0.12575555  1
  O2-  O157  1  0.69475397  0.15547579  0.62545870  1
  O2-  O158  1  0.69538657  0.49328162  0.12578217  1
  O2-  O159  1  0.69501392  0.49399294  0.62401525  1
  O2-  O160  1  0.69595295  0.82845262  0.12383832  1
  O2-  O161  1  0.68975435  0.83622593  0.62552976  1
  O2-  O162  1  0.14018841  0.32649618  0.12421314  1
  O2-  O163  1  0.14123413  0.32855878  0.62830665  1
  O2-  O164  1  0.13985473  0.65996283  0.12437930  1
  O2-  O165  1  0.14004882  0.65723306  0.62692240  1
  O2-  O166  1  0.14003506  0.99785265  0.12462126  1
  O2-  O167  1  0.13916498  0.99353064  0.62558861  1
  O2-  O168  1  0.47643778  0.32873319  0.12891121  1
  O2-  O169  1  0.48088536  0.32304148  0.62280375  1
  O2-  O170  1  0.47516190  0.66107912  0.12568835  1
  O2-  O171  1  0.47734523  0.66217594  0.62447764  1
  O2-  O172  1  0.47205513  0.99320501  0.12585702  1
  O2-  O173  1  0.47665115  1.00137866  0.62244011  1
  O2-  O174  1  0.80787405  0.32580463  0.12772455  1
  O2-  O175  1  0.80630836  0.32319747  0.62523855  1
  O2-  O176  1  0.80868466  0.65441009  0.12441875  1
  O2-  O177  1  0.81673375  0.66598623  0.62635754  1
  O2-  O178  1  0.80872838  0.99667005  0.12244038  1
  O2-  O179  1  0.80665436  0.99025395  0.62559539  1
  O2-  O180  1  0.30140946  0.17414845  0.37428502  1
  O2-  O181  1  0.30900229  0.17264803  0.87719849  1
  O2-  O182  1  0.30336770  0.50781377  0.37400132  1
  O2-  O183  1  0.30946057  0.50670572  0.87447463  1
  O2-  O184  1  0.30582808  0.83791156  0.37514645  1
  O2-  O185  1  0.30671800  0.84163011  0.87571219  1
  O2-  O186  1  0.64346511  0.16886922  0.37439923  1
  O2-  O187  1  0.64068681  0.17252759  0.87448308  1
  O2-  O188  1  0.64273230  0.50861726  0.37464643  1
  O2-  O189  1  0.64226926  0.50086359  0.87554999  1
  O2-  O190  1  0.65003067  0.83654697  0.37174760  1
  O2-  O191  1  0.64692053  0.83752379  0.87831263  1
  O2-  O192  1  0.97428904  0.17080101  0.37652723  1
  O2-  O193  1  0.97339330  0.17475488  0.87419393  1
  O2-  O194  1  0.97457003  0.49962480  0.37735186  1
  O2-  O195  1  0.96949406  0.50392429  0.87519724  1
  O2-  O196  1  0.97655931  0.84067064  0.37450507  1
  O2-  O197  1  0.97536526  0.83832411  0.87592738  1
  O2-  O198  1  0.19054386  0.00578171  0.37478217  1
  O2-  O199  1  0.19390126  0.00468832  0.87495903  1
  O2-  O200  1  0.18731713  0.34240526  0.37222207  1
  O2-  O201  1  0.19283378  0.33939576  0.87491186  1
  O2-  O202  1  0.19193047  0.67545982  0.37369631  1
  O2-  O203  1  0.19565660  0.67205926  0.87518293  1
  O2-  O204  1  0.52532271  0.00751398  0.37252090  1
  O2-  O205  1  0.52317255  0.00812598  0.87855486  1
  O2-  O206  1  0.53004689  0.33947383  0.37576905  1
  O2-  O207  1  0.52653585  0.34125581  0.87259363  1
  O2-  O208  1  0.52425732  0.66777155  0.37216280  1
  O2-  O209  1  0.52410643  0.66265478  0.87697079  1
  O2-  O210  1  0.86102997  0.00608666  0.37731954  1
  O2-  O211  1  0.86132914  0.00605350  0.87476620  1
  O2-  O212  1  0.85449141  0.33746812  0.37534607  1
  O2-  O213  1  0.85620603  0.34121089  0.87195877  1
  O2-  O214  1  0.85376985  0.67293491  0.37429142  1
  O2-  O215  1  0.85864790  0.67504360  0.87540948  1
  O2-  O216  1  0.23601725  0.09646524  0.01780058  1
  O2-  O217  1  0.23720512  0.09026607  0.52267723  1
  O2-  O218  1  0.23933985  0.42729320  0.02071493  1
  O2-  O219  1  0.23962107  0.42825040  0.51721936  1
  O2-  O220  1  0.23746494  0.76349240  0.02171807  1
  O2-  O221  1  0.23788088  0.76100759  0.52146117  1
  O2-  O222  1  0.57071641  0.09590994  0.02282695  1
  O2-  O223  1  0.57372634  0.09433788  0.51911594  1
  O2-  O224  1  0.57282983  0.42884884  0.02231738  1
  O2-  O225  1  0.57049004  0.42902683  0.52216367  1
  O2-  O226  1  0.57248059  0.75982840  0.02323384  1
  O2-  O227  1  0.57697862  0.75860953  0.51299436  1
  O2-  O228  1  0.90416223  0.09513646  0.01997025  1
  O2-  O229  1  0.90376723  0.09556821  0.52358043  1
  O2-  O230  1  0.90486559  0.42808068  0.02413721  1
  O2-  O231  1  0.90279609  0.42890729  0.52187687  1
  O2-  O232  1  0.90266526  0.76112691  0.02192179  1
  O2-  O233  1  0.90958693  0.76294497  0.51908310  1
  O2-  O234  1  0.26166310  0.26175508  0.22789762  1
  O2-  O235  1  0.26036172  0.25752058  0.73219671  1
  O2-  O236  1  0.26169702  0.59507352  0.22771622  1
  O2-  O237  1  0.25981051  0.59328465  0.72661721  1
  O2-  O238  1  0.26091045  0.93048137  0.22945910  1
  O2-  O239  1  0.26031061  0.92891751  0.73131605  1
  O2-  O240  1  0.59593617  0.25937420  0.23122521  1
  O2-  O241  1  0.59747564  0.25992391  0.72831250  1
  O2-  O242  1  0.59590679  0.59401029  0.22796120  1
  O2-  O243  1  0.59531241  0.59008631  0.73617547  1
  O2-  O244  1  0.59618940  0.92784956  0.22844253  1
  O2-  O245  1  0.59503313  0.93084062  0.73615789  1
  O2-  O246  1  0.92865812  0.25984323  0.22809771  1
  O2-  O247  1  0.92881814  0.26459315  0.73258793  1
  O2-  O248  1  0.92895198  0.59543439  0.23081203  1
  O2-  O249  1  0.93144170  0.59743372  0.73324353  1
  O2-  O250  1  0.92859061  0.92864818  0.22884234  1
  O2-  O251  1  0.92632071  0.92637370  0.72747845  1
  O2-  O252  1  0.09823666  0.23346100  0.26660571  1
  O2-  O253  1  0.09438414  0.23858846  0.77136339  1
  O2-  O254  1  0.09878405  0.56915007  0.26713996  1
  O2-  O255  1  0.09538066  0.57287397  0.77389931  1
  O2-  O256  1  0.09886947  0.90511998  0.26600969  1
  O2-  O257  1  0.09446312  0.90523464  0.77289275  1
  O2-  O258  1  0.42360429  0.24186303  0.27561843  1
  O2-  O259  1  0.43100212  0.24158350  0.76986071  1
  O2-  O260  1  0.42690928  0.57069322  0.27094826  1
  O2-  O261  1  0.42662388  0.57246828  0.76835655  1
  O2-  O262  1  0.42606074  0.90860843  0.26856441  1
  O2-  O263  1  0.42224645  0.90969616  0.76818580  1
  O2-  O264  1  0.76379527  0.23560541  0.26887515  1
  O2-  O265  1  0.76104992  0.23874102  0.77318017  1
  O2-  O266  1  0.76091630  0.57195786  0.27401186  1
  O2-  O267  1  0.76056806  0.57184531  0.77133626  1
  O2-  O268  1  0.76253041  0.90672442  0.27040204  1
  O2-  O269  1  0.76229432  0.90579286  0.77155311  1
  O2-  O270  1  0.06734949  0.06869144  0.48304139  1
  O2-  O271  1  0.07215830  0.06987151  0.97700329  1
  O2-  O272  1  0.07139484  0.40530181  0.48954445  1
  O2-  O273  1  0.06909945  0.40712481  0.97905197  1
  O2-  O274  1  0.07465911  0.74061868  0.48230231  1
  O2-  O275  1  0.07176120  0.73777160  0.97880459  1
  O2-  O276  1  0.40461231  0.07647108  0.47523651  1
  O2-  O277  1  0.40554785  0.07463592  0.97827103  1
  O2-  O278  1  0.40573746  0.40837433  0.47448888  1
  O2-  O279  1  0.40578121  0.40562637  0.98013506  1
  O2-  O280  1  0.40238392  0.73838056  0.48405463  1
  O2-  O281  1  0.40028423  0.73588158  0.98212220  1
  O2-  O282  1  0.73853584  0.06975224  0.47833222  1
  O2-  O283  1  0.73840266  0.07197410  0.97877499  1
  O2-  O284  1  0.73438646  0.40382268  0.47933835  1
  O2-  O285  1  0.73593535  0.40234837  0.98255616  1
  O2-  O286  1  0.74353664  0.74149929  0.48096995  1
  O2-  O287  1  0.73929684  0.73486579  0.98061118  1
  O2-  O288  1  0.09736400  0.23350420  0.48473076  1
  O2-  O289  1  0.09476748  0.23797572  0.97790363  1
  O2-  O290  1  0.09817269  0.56968271  0.48274986  1
  O2-  O291  1  0.09287418  0.57069764  0.97698198  1
  O2-  O292  1  0.09444517  0.90603773  0.47930686  1
  O2-  O293  1  0.09947371  0.90375654  0.98272169  1
  O2-  O294  1  0.42757058  0.24109893  0.47752515  1
  O2-  O295  1  0.42819217  0.24159036  0.97826014  1
  O2-  O296  1  0.42412378  0.57394604  0.47607386  1
  O2-  O297  1  0.43026346  0.56915651  0.98477187  1
  O2-  O298  1  0.42087580  0.91137472  0.48038202  1
  O2-  O299  1  0.42656194  0.90683892  0.98203941  1
  O2-  O300  1  0.76151981  0.23580040  0.48046609  1
  O2-  O301  1  0.76325625  0.23879309  0.97916225  1
  O2-  O302  1  0.75941066  0.57216237  0.47992977  1
  O2-  O303  1  0.76126849  0.57124583  0.97391749  1
  O2-  O304  1  0.76348011  0.90538143  0.47900533  1
  O2-  O305  1  0.76185416  0.90813418  0.97758173  1
  O2-  O306  1  0.06855304  0.06887153  0.26811370  1
  O2-  O307  1  0.07054881  0.06986511  0.77214687  1
  O2-  O308  1  0.07189004  0.40522641  0.25975077  1
  O2-  O309  1  0.06995887  0.40690948  0.77153354  1
  O2-  O310  1  0.07374407  0.74126306  0.26640808  1
  O2-  O311  1  0.07274912  0.73777931  0.77301481  1
  O2-  O312  1  0.40434636  0.07725324  0.27507345  1
  O2-  O313  1  0.40600740  0.07434502  0.77041320  1
  O2-  O314  1  0.40521184  0.40700299  0.27395873  1
  O2-  O315  1  0.40560910  0.40795655  0.77231773  1
  O2-  O316  1  0.40310107  0.73734385  0.26649292  1
  O2-  O317  1  0.39996133  0.73752082  0.76605659  1
  O2-  O318  1  0.73888929  0.07120439  0.26928889  1
  O2-  O319  1  0.73743754  0.07044232  0.77342580  1
  O2-  O320  1  0.73615941  0.40367795  0.27278013  1
  O2-  O321  1  0.73453955  0.40191020  0.76577693  1
  O2-  O322  1  0.73917981  0.73637326  0.26737359  1
  O2-  O323  1  0.74391793  0.73948098  0.77112859  1
  O2-  O324  1  0.23817457  0.09458932  0.22905427  1
  O2-  O325  1  0.23505098  0.09088410  0.72956427  1
  O2-  O326  1  0.24161043  0.42530515  0.22589375  1
  O2-  O327  1  0.23715485  0.43047959  0.73358069  1
  O2-  O328  1  0.23811410  0.76073452  0.22811902  1
  O2-  O329  1  0.23569383  0.76240800  0.72821229  1
  O2-  O330  1  0.57187128  0.09536398  0.22734286  1
  O2-  O331  1  0.57271850  0.09557904  0.73050374  1
  O2-  O332  1  0.57295561  0.42985353  0.22940436  1
  O2-  O333  1  0.57099263  0.42785393  0.72618262  1
  O2-  O334  1  0.57549236  0.76154293  0.22597205  1
  O2-  O335  1  0.57522519  0.75775382  0.73710544  1
  O2-  O336  1  0.90496510  0.09542217  0.22923020  1
  O2-  O337  1  0.90191593  0.09552532  0.72811711  1
  O2-  O338  1  0.90345284  0.42843514  0.23020201  1
  O2-  O339  1  0.90261316  0.42704515  0.72421855  1
  O2-  O340  1  0.90336586  0.76120753  0.22839895  1
  O2-  O341  1  0.90881904  0.76231512  0.73119856  1
  O2-  O342  1  0.26413206  0.25993417  0.02168397  1
  O2-  O343  1  0.25995527  0.25977624  0.51817905  1
  O2-  O344  1  0.25891030  0.59182290  0.02384306  1
  O2-  O345  1  0.26166035  0.59604662  0.52076203  1
  O2-  O346  1  0.26255309  0.93071204  0.02272369  1
  O2-  O347  1  0.25918842  0.92923369  0.51716562  1
  O2-  O348  1  0.59688807  0.26389185  0.01845768  1
  O2-  O349  1  0.59518978  0.25649955  0.52090538  1
  O2-  O350  1  0.59772203  0.59296832  0.02101690  1
  O2-  O351  1  0.59385891  0.59072884  0.51449766  1
  O2-  O352  1  0.59336294  0.92981990  0.02227895  1
  O2-  O353  1  0.59742483  0.92851146  0.51292962  1
  O2-  O354  1  0.92755560  0.26338260  0.01884804  1
  O2-  O355  1  0.92972391  0.26047490  0.52102041  1
  O2-  O356  1  0.93116174  0.59825365  0.01718071  1
  O2-  O357  1  0.92943697  0.59445895  0.51980630  1
  O2-  O358  1  0.92850753  0.92924582  0.01945474  1
  O2-  O359  1  0.92657190  0.92631243  0.52492731  1
