# generated using pymatgen
data_Sr7Ca15Pr50Mn72O216
_symmetry_space_group_name_H-M   'P 1'
_cell_length_a   16.55846713
_cell_length_b   16.60593735
_cell_length_c   15.59260377
_cell_angle_alpha   89.99394660
_cell_angle_beta   89.99755624
_cell_angle_gamma   89.98919768
_symmetry_Int_Tables_number   1
_chemical_formula_structural   Sr7Ca15Pr50Mn72O216
_chemical_formula_sum   'Sr7 Ca15 Pr50 Mn72 O216'
_cell_volume   4287.48049888
_cell_formula_units_Z   1
loop_
 _symmetry_equiv_pos_site_id
 _symmetry_equiv_pos_as_xyz
  1  'x, y, z'
loop_
 _atom_type_symbol
 _atom_type_oxidation_number
  Sr2+  2.0
  Ca2+  2.0
  Pr3+  3.0
  Mn3.30+  3.3
  O2-  -2.0
loop_
 _atom_site_type_symbol
 _atom_site_label
 _atom_site_symmetry_multiplicity
 _atom_site_fract_x
 _atom_site_fract_y
 _atom_site_fract_z
 _atom_site_occupancy
  Sr2+  Sr0  1  0.49698191  0.82300825  0.37579098  1
  Sr2+  Sr1  1  0.50298561  0.17470321  0.62416731  1
  Sr2+  Sr2  1  0.33271225  0.32438906  0.37394300  1
  Sr2+  Sr3  1  0.16964789  0.49359862  0.37428758  1
  Sr2+  Sr4  1  0.33142075  0.67629207  0.12741380  1
  Sr2+  Sr5  1  0.33321091  0.00920655  0.12731476  1
  Sr2+  Sr6  1  0.66402501  0.00900772  0.62428099  1
  Ca2+  Ca7  1  0.65909103  0.68402012  0.62455856  1
  Ca2+  Ca8  1  0.50538403  0.51751639  0.62385240  1
  Ca2+  Ca9  1  0.16646494  0.81953172  0.87757115  1
  Ca2+  Ca10  1  0.67019451  0.31907163  0.87400999  1
  Ca2+  Ca11  1  0.33710008  0.65564652  0.37473285  1
  Ca2+  Ca12  1  0.66222266  0.01274274  0.12673366  1
  Ca2+  Ca13  1  0.16776029  0.81857752  0.37261131  1
  Ca2+  Ca14  1  0.83681488  0.51521456  0.12369407  1
  Ca2+  Ca15  1  0.17071831  0.17831835  0.12807801  1
  Ca2+  Ca16  1  0.49990667  0.84728499  0.12821035  1
  Ca2+  Ca17  1  0.50477056  0.84675963  0.62254336  1
  Ca2+  Ca18  1  0.82555379  0.48220349  0.87560410  1
  Ca2+  Ca19  1  0.82790276  0.81770144  0.37524909  1
  Ca2+  Ca20  1  -0.00017036  0.01459389  0.12574675  1
  Ca2+  Ca21  1  0.16485244  0.15244884  0.37020945  1
  Pr3+  Pr22  1  0.33526996  0.00985945  0.62198455  1
  Pr3+  Pr23  1  0.82973527  0.48857093  0.37387764  1
  Pr3+  Pr24  1  0.66841947  0.98790868  0.87562615  1
  Pr3+  Pr25  1  1.00119894  0.65477992  0.37534343  1
  Pr3+  Pr26  1  0.83299727  0.51416515  0.62645214  1
  Pr3+  Pr27  1  0.33597744  0.31840971  0.87577880  1
  Pr3+  Pr28  1  0.33633972  0.98661171  0.87692450  1
  Pr3+  Pr29  1  -0.00230784  0.67643655  0.12718183  1
  Pr3+  Pr30  1  1.00502264  0.98311397  0.87820875  1
  Pr3+  Pr31  1  0.33421324  0.67975667  0.62291738  1
  Pr3+  Pr32  1  0.17162963  0.17802201  0.62306686  1
  Pr3+  Pr33  1  0.66255204  0.68152239  0.12513005  1
  Pr3+  Pr34  1  0.82932663  0.82075725  0.87527894  1
  Pr3+  Pr35  1  0.33017253  0.34258008  0.12548750  1
  Pr3+  Pr36  1  1.00813990  0.31863035  0.37430384  1
  Pr3+  Pr37  1  0.49889881  0.82342988  0.87448488  1
  Pr3+  Pr38  1  0.83188186  0.15376986  0.37349616  1
  Pr3+  Pr39  1  0.16934328  0.51250194  0.12587373  1
  Pr3+  Pr40  1  0.83011271  0.15436965  0.87641465  1
  Pr3+  Pr41  1  0.49550041  0.15423029  0.37474942  1
  Pr3+  Pr42  1  0.17011698  0.84536283  0.62346341  1
  Pr3+  Pr43  1  0.17252260  0.84430065  0.12633947  1
  Pr3+  Pr44  1  0.66488756  0.34825041  0.12362464  1
  Pr3+  Pr45  1  1.00580920  0.98454771  0.37221771  1
  Pr3+  Pr46  1  0.49850728  0.48751359  0.87431839  1
  Pr3+  Pr47  1  0.50237186  0.17812056  0.12623801  1
  Pr3+  Pr48  1  0.83935167  0.84829107  0.12722548  1
  Pr3+  Pr49  1  0.16331813  0.48758197  0.87567374  1
  Pr3+  Pr50  1  1.00057775  0.65484454  0.87507103  1
  Pr3+  Pr51  1  0.67002726  0.98355962  0.37469689  1
  Pr3+  Pr52  1  0.16404107  0.15197261  0.87727416  1
  Pr3+  Pr53  1  0.66745515  0.65722923  0.37639748  1
  Pr3+  Pr54  1  0.33544544  0.65617598  0.87547975  1
  Pr3+  Pr55  1  0.83578289  0.17744659  0.12486041  1
  Pr3+  Pr56  1  0.65933476  0.34680481  0.62595611  1
  Pr3+  Pr57  1  0.16956891  0.51312899  0.62438551  1
  Pr3+  Pr58  1  -0.00398091  0.01233046  0.62471909  1
  Pr3+  Pr59  1  0.50023260  0.51459397  0.12519209  1
  Pr3+  Pr60  1  0.67204658  0.65226529  0.87323866  1
  Pr3+  Pr61  1  0.49915690  0.15315816  0.87541673  1
  Pr3+  Pr62  1  -0.00405499  0.34637020  0.62495322  1
  Pr3+  Pr63  1  0.83409016  0.84603618  0.62297932  1
  Pr3+  Pr64  1  0.33411364  0.98876363  0.37261379  1
  Pr3+  Pr65  1  0.66707116  0.32148315  0.37469413  1
  Pr3+  Pr66  1  1.00030860  0.32035417  0.87543368  1
  Pr3+  Pr67  1  -0.00401540  0.34732447  0.12493384  1
  Pr3+  Pr68  1  0.33481915  0.34564700  0.62393658  1
  Pr3+  Pr69  1  -0.00214308  0.68043613  0.62332767  1
  Pr3+  Pr70  1  0.49245545  0.49330922  0.37629277  1
  Pr3+  Pr71  1  0.83365454  0.17905017  0.62465474  1
  Mn3.30+  Mn72  1  0.16694764  -0.00134503  0.00273422  1
  Mn3.30+  Mn73  1  0.16601913  -0.00085281  0.49783333  1
  Mn3.30+  Mn74  1  0.16544722  0.33104647  0.00091121  1
  Mn3.30+  Mn75  1  0.16670174  0.33307796  0.49881268  1
  Mn3.30+  Mn76  1  0.16615931  0.66756995  -0.00094391  1
  Mn3.30+  Mn77  1  0.16779839  0.66772058  0.49790976  1
  Mn3.30+  Mn78  1  0.50226351  -0.00089524  0.00350497  1
  Mn3.30+  Mn79  1  0.50155363  -0.00172691  0.49867310  1
  Mn3.30+  Mn80  1  0.50191615  0.33338207  -0.00124513  1
  Mn3.30+  Mn81  1  0.49932267  0.33495417  0.50057940  1
  Mn3.30+  Mn82  1  0.50132026  0.66983457  0.00016416  1
  Mn3.30+  Mn83  1  0.50070063  0.66803791  0.50150295  1
  Mn3.30+  Mn84  1  0.83429789  0.00000889  0.00313523  1
  Mn3.30+  Mn85  1  0.83418524  -0.00130650  0.49769210  1
  Mn3.30+  Mn86  1  0.83127626  0.33511906  -0.00002214  1
  Mn3.30+  Mn87  1  0.83269728  0.33382682  0.49914029  1
  Mn3.30+  Mn88  1  0.83241818  0.66477544  0.00058605  1
  Mn3.30+  Mn89  1  0.83055259  0.66795866  0.50134061  1
  Mn3.30+  Mn90  1  0.00296357  0.16478380  0.24744260  1
  Mn3.30+  Mn91  1  0.00016079  0.16600945  0.75047797  1
  Mn3.30+  Mn92  1  -0.00167029  0.49984360  0.24955411  1
  Mn3.30+  Mn93  1  -0.00326927  0.50027350  0.75159478  1
  Mn3.30+  Mn94  1  0.00147990  0.83336947  0.25125392  1
  Mn3.30+  Mn95  1  0.00147386  0.83259578  0.75048729  1
  Mn3.30+  Mn96  1  0.33014635  0.16640528  0.25052610  1
  Mn3.30+  Mn97  1  0.33392476  0.16525228  0.74895160  1
  Mn3.30+  Mn98  1  0.33261607  0.50123489  0.25082627  1
  Mn3.30+  Mn99  1  0.33570287  0.50044651  0.74902370  1
  Mn3.30+  Mn100  1  0.33376283  0.83198878  0.25083659  1
  Mn3.30+  Mn101  1  0.33415737  0.83341279  0.74942243  1
  Mn3.30+  Mn102  1  0.66681901  0.16525377  0.24941667  1
  Mn3.30+  Mn103  1  0.66611608  0.16751436  0.75083333  1
  Mn3.30+  Mn104  1  0.66657830  0.50199662  0.24889243  1
  Mn3.30+  Mn105  1  0.66609966  0.49998364  0.75017364  1
  Mn3.30+  Mn106  1  0.66788907  0.83419991  0.24928900  1
  Mn3.30+  Mn107  1  0.66451027  0.83262946  0.74882371  1
  Mn3.30+  Mn108  1  0.16629284  0.00036096  0.24879893  1
  Mn3.30+  Mn109  1  0.16670773  -0.00261211  0.75053429  1
  Mn3.30+  Mn110  1  0.16586991  0.33125965  0.25023576  1
  Mn3.30+  Mn111  1  0.16627046  0.33273663  0.74964051  1
  Mn3.30+  Mn112  1  0.16730953  0.66718447  0.25295568  1
  Mn3.30+  Mn113  1  0.16686204  0.66807859  0.74977829  1
  Mn3.30+  Mn114  1  0.50152552  -0.00143093  0.24844519  1
  Mn3.30+  Mn115  1  0.50174228  -0.00120215  0.74951181  1
  Mn3.30+  Mn116  1  0.49919486  0.33498420  0.24953792  1
  Mn3.30+  Mn117  1  0.50194314  0.33351348  0.75130063  1
  Mn3.30+  Mn118  1  0.49830619  0.67050714  0.24951810  1
  Mn3.30+  Mn119  1  0.50301253  0.66760484  0.74919329  1
  Mn3.30+  Mn120  1  0.83491971  -0.00095659  0.24896094  1
  Mn3.30+  Mn121  1  0.83376017  -0.00007421  0.75036760  1
  Mn3.30+  Mn122  1  0.83421427  0.33428278  0.24947391  1
  Mn3.30+  Mn123  1  0.82966403  0.33432872  0.75075406  1
  Mn3.30+  Mn124  1  0.83211661  0.66714068  0.24986224  1
  Mn3.30+  Mn125  1  0.83100998  0.66614782  0.74874863  1
  Mn3.30+  Mn126  1  0.00124168  0.16526241  0.00282634  1
  Mn3.30+  Mn127  1  0.00223916  0.16538988  0.49876550  1
  Mn3.30+  Mn128  1  -0.00465515  0.50019347  -0.00161671  1
  Mn3.30+  Mn129  1  -0.00060076  0.49992762  0.50067479  1
  Mn3.30+  Mn130  1  0.00214506  0.83265546  0.00187854  1
  Mn3.30+  Mn131  1  0.00046829  0.83309831  0.49638893  1
  Mn3.30+  Mn132  1  0.33175540  0.16455237  0.00223481  1
  Mn3.30+  Mn133  1  0.33236624  0.16738416  0.49770774  1
  Mn3.30+  Mn134  1  0.33232593  0.49972301  -0.00150391  1
  Mn3.30+  Mn135  1  0.33569285  0.50158247  0.50208457  1
  Mn3.30+  Mn136  1  0.33357699  0.83286090  0.00129783  1
  Mn3.30+  Mn137  1  0.33475651  0.83236758  0.49844257  1
  Mn3.30+  Mn138  1  0.66714328  0.16684958  0.00091376  1
  Mn3.30+  Mn139  1  0.66570358  0.16586399  0.49908499  1
  Mn3.30+  Mn140  1  0.66961530  0.50012991  0.00000971  1
  Mn3.30+  Mn141  1  0.66346069  0.50243751  0.50065866  1
  Mn3.30+  Mn142  1  0.66622417  0.83562345  0.00319324  1
  Mn3.30+  Mn143  1  0.66580948  0.83151603  0.49955236  1
  O2-  O144  1  0.02798675  0.16102776  0.12432159  1
  O2-  O145  1  0.02674969  0.16058348  0.62627415  1
  O2-  O146  1  0.02468349  0.49761035  0.12206252  1
  O2-  O147  1  0.02422759  0.49489969  0.62632622  1
  O2-  O148  1  0.02853882  0.82243512  0.12571941  1
  O2-  O149  1  0.02610851  0.82933653  0.62238559  1
  O2-  O150  1  0.35839003  0.16804946  0.12475166  1
  O2-  O151  1  0.35299261  0.15948895  0.62377215  1
  O2-  O152  1  0.35521073  0.49329378  0.12134858  1
  O2-  O153  1  0.36182236  0.49376263  0.62872314  1
  O2-  O154  1  0.35663059  0.82964841  0.12490888  1
  O2-  O155  1  0.36114737  0.82928292  0.62503925  1
  O2-  O156  1  0.69185642  0.15941820  0.12642323  1
  O2-  O157  1  0.69000061  0.16587294  0.62441068  1
  O2-  O158  1  0.69568369  0.49565295  0.12414210  1
  O2-  O159  1  0.69185436  0.49152367  0.62589502  1
  O2-  O160  1  0.69629565  0.82709458  0.12511242  1
  O2-  O161  1  0.69122243  0.82960168  0.62335289  1
  O2-  O162  1  0.14019036  0.32646842  0.12360662  1
  O2-  O163  1  0.13983315  0.32606844  0.62598260  1
  O2-  O164  1  0.14243339  0.66137710  0.12602469  1
  O2-  O165  1  0.14197410  0.66251380  0.62554665  1
  O2-  O166  1  0.13941236  0.98850374  0.12507288  1
  O2-  O167  1  0.13887763  0.99202953  0.62550766  1
  O2-  O168  1  0.47513198  0.32812626  0.12260340  1
  O2-  O169  1  0.47795698  0.32770568  0.62728432  1
  O2-  O170  1  0.48107681  0.66123928  0.12255331  1
  O2-  O171  1  0.47626701  0.66017054  0.62815650  1
  O2-  O172  1  0.48269289  0.99637324  0.12497538  1
  O2-  O173  1  0.47993389  0.99485296  0.62323523  1
  O2-  O174  1  0.80798305  0.32491656  0.12479807  1
  O2-  O175  1  0.80536576  0.32704682  0.62275558  1
  O2-  O176  1  0.80714698  0.65941836  0.12257221  1
  O2-  O177  1  0.80311316  0.66077879  0.62458763  1
  O2-  O178  1  0.80534413  0.99517202  0.12565864  1
  O2-  O179  1  0.81557768  0.99499719  0.62272267  1
  O2-  O180  1  0.30706010  0.16784444  0.37505276  1
  O2-  O181  1  0.30820268  0.16953150  0.87511462  1
  O2-  O182  1  0.32013979  0.50750891  0.37691017  1
  O2-  O183  1  0.30757757  0.50523532  0.87353341  1
  O2-  O184  1  0.30827137  0.84181459  0.37650258  1
  O2-  O185  1  0.30794654  0.83921931  0.87334592  1
  O2-  O186  1  0.64135009  0.17421050  0.37250132  1
  O2-  O187  1  0.64347245  0.17378284  0.87691970  1
  O2-  O188  1  0.63771434  0.50759178  0.37452498  1
  O2-  O189  1  0.64050850  0.50705206  0.87497301  1
  O2-  O190  1  0.64746086  0.83419093  0.37383275  1
  O2-  O191  1  0.64437103  0.83869821  0.87817887  1
  O2-  O192  1  0.97537168  0.17155810  0.37306936  1
  O2-  O193  1  0.97482795  0.17137732  0.87563299  1
  O2-  O194  1  0.97393234  0.50434927  0.37704772  1
  O2-  O195  1  0.96896897  0.50643620  0.87474335  1
  O2-  O196  1  0.96975492  0.83796108  0.37429457  1
  O2-  O197  1  0.97301205  0.83599838  0.87777278  1
  O2-  O198  1  0.19011974  0.00883643  0.37425695  1
  O2-  O199  1  0.19283373  0.00628363  0.87545002  1
  O2-  O200  1  0.18281896  0.33920653  0.37504981  1
  O2-  O201  1  0.19101833  0.33930279  0.87415245  1
  O2-  O202  1  0.19263516  0.67073656  0.37678565  1
  O2-  O203  1  0.19085854  0.67197954  0.87168928  1
  O2-  O204  1  0.52409719  0.00537527  0.37300637  1
  O2-  O205  1  0.52326271  0.00320779  0.87857926  1
  O2-  O206  1  0.52442048  0.34396621  0.37358889  1
  O2-  O207  1  0.52816510  0.34018658  0.87679302  1
  O2-  O208  1  0.52354666  0.66427276  0.37418598  1
  O2-  O209  1  0.52830965  0.67578221  0.87595539  1
  O2-  O210  1  0.86197001  0.00748996  0.37405552  1
  O2-  O211  1  0.86015371  0.00452525  0.87763208  1
  O2-  O212  1  0.86154323  0.33985941  0.37488688  1
  O2-  O213  1  0.85771019  0.33722474  0.87708411  1
  O2-  O214  1  0.85707068  0.67161057  0.37773426  1
  O2-  O215  1  0.85757379  0.67552484  0.87570631  1
  O2-  O216  1  0.23453694  0.09763779  0.01830002  1
  O2-  O217  1  0.23872938  0.09054869  0.52218703  1
  O2-  O218  1  0.23532499  0.42553203  0.01931016  1
  O2-  O219  1  0.24176066  0.42727408  0.52380153  1
  O2-  O220  1  0.23848395  0.76168023  0.01664357  1
  O2-  O221  1  0.24031932  0.76085099  0.52287613  1
  O2-  O222  1  0.57005424  0.09814808  0.01605567  1
  O2-  O223  1  0.57310936  0.09434979  0.51074969  1
  O2-  O224  1  0.57259914  0.43109804  0.02202996  1
  O2-  O225  1  0.57098935  0.43144930  0.52120652  1
  O2-  O226  1  0.57280552  0.76755306  0.02292068  1
  O2-  O227  1  0.56924051  0.76148999  0.52003120  1
  O2-  O228  1  0.90432467  0.09549719  0.01998995  1
  O2-  O229  1  0.90635827  0.09614516  0.51976129  1
  O2-  O230  1  0.90384584  0.42783650  0.02371150  1
  O2-  O231  1  0.90306016  0.42825648  0.52217456  1
  O2-  O232  1  0.90494655  0.76109736  0.02210089  1
  O2-  O233  1  0.90551190  0.75995427  0.52400462  1
  O2-  O234  1  0.26063542  0.26122379  0.22901721  1
  O2-  O235  1  0.26278851  0.26012183  0.73000954  1
  O2-  O236  1  0.25508941  0.58826907  0.23181632  1
  O2-  O237  1  0.26106442  0.59409824  0.72835174  1
  O2-  O238  1  0.25788881  0.92594416  0.23356902  1
  O2-  O239  1  0.26198399  0.92850014  0.72686702  1
  O2-  O240  1  0.59566170  0.26267014  0.22944195  1
  O2-  O241  1  0.59676123  0.26438210  0.73422975  1
  O2-  O242  1  0.59482834  0.59535051  0.22838111  1
  O2-  O243  1  0.60005241  0.59948886  0.73302552  1
  O2-  O244  1  0.60270782  0.92953390  0.23418200  1
  O2-  O245  1  0.59483260  0.92748229  0.73826984  1
  O2-  O246  1  0.93061976  0.25948140  0.22874944  1
  O2-  O247  1  0.92625226  0.26219653  0.72965311  1
  O2-  O248  1  0.92553767  0.59547694  0.23368320  1
  O2-  O249  1  0.92744219  0.59623857  0.72741408  1
  O2-  O250  1  0.93280141  0.92808371  0.22590670  1
  O2-  O251  1  0.93042648  0.92638782  0.73188824  1
  O2-  O252  1  0.09442133  0.23762835  0.27152393  1
  O2-  O253  1  0.09462365  0.23764445  0.77098562  1
  O2-  O254  1  0.08973100  0.57507978  0.26776746  1
  O2-  O255  1  0.09400783  0.57168908  0.77094824  1
  O2-  O256  1  0.09521461  0.90264833  0.27356490  1
  O2-  O257  1  0.09761122  0.90270477  0.77293647  1
  O2-  O258  1  0.42898308  0.23852684  0.26657667  1
  O2-  O259  1  0.42819824  0.24095046  0.77428414  1
  O2-  O260  1  0.42999064  0.57315700  0.26178098  1
  O2-  O261  1  0.42950536  0.57607798  0.77536372  1
  O2-  O262  1  0.42406246  0.90933509  0.26700289  1
  O2-  O263  1  0.42505364  0.90688307  0.77233002  1
  O2-  O264  1  0.76174607  0.23969378  0.27028743  1
  O2-  O265  1  0.76422194  0.23645092  0.76766354  1
  O2-  O266  1  0.75797164  0.57386864  0.27434673  1
  O2-  O267  1  0.76346085  0.56777840  0.77138233  1
  O2-  O268  1  0.76646978  0.90318932  0.27160465  1
  O2-  O269  1  0.76131059  0.90542377  0.76916288  1
  O2-  O270  1  0.06844711  0.06659398  0.48367743  1
  O2-  O271  1  0.07330120  0.07020090  0.97752277  1
  O2-  O272  1  0.06854772  0.40091029  0.48644149  1
  O2-  O273  1  0.06822357  0.40665692  0.97839128  1
  O2-  O274  1  0.06836791  0.73819215  0.48115372  1
  O2-  O275  1  0.06960646  0.73556645  0.98125134  1
  O2-  O276  1  0.40520518  0.07322223  0.47958164  1
  O2-  O277  1  0.40573324  0.07345803  0.97953346  1
  O2-  O278  1  0.40679296  0.40645609  0.48456584  1
  O2-  O279  1  0.40499484  0.40586246  0.97803833  1
  O2-  O280  1  0.40166433  0.73454749  0.48339220  1
  O2-  O281  1  0.40657831  0.74167352  0.97504488  1
  O2-  O282  1  0.74306900  0.07216852  0.47634611  1
  O2-  O283  1  0.73910988  0.07455374  0.97748076  1
  O2-  O284  1  0.73624382  0.40746401  0.47707654  1
  O2-  O285  1  0.73413508  0.40114926  0.98077686  1
  O2-  O286  1  0.73795924  0.73822979  0.48096190  1
  O2-  O287  1  0.73842866  0.73772357  0.98037813  1
  O2-  O288  1  0.09535397  0.23304846  0.47966796  1
  O2-  O289  1  0.09290912  0.24046449  0.97584064  1
  O2-  O290  1  0.09098994  0.57417425  0.48405178  1
  O2-  O291  1  0.09140366  0.57091256  0.97763806  1
  O2-  O292  1  0.09676190  0.90298476  0.47582964  1
  O2-  O293  1  0.09607202  0.90257211  0.97749530  1
  O2-  O294  1  0.42830475  0.24001748  0.48039972  1
  O2-  O295  1  0.42753951  0.23853480  0.97834529  1
  O2-  O296  1  0.43106591  0.57264469  0.48675422  1
  O2-  O297  1  0.42751176  0.57334572  0.97868359  1
  O2-  O298  1  0.42234959  0.91070026  0.48104432  1
  O2-  O299  1  0.42729772  0.90663671  0.97996648  1
  O2-  O300  1  0.76234987  0.23917987  0.47788583  1
  O2-  O301  1  0.76401249  0.23659237  0.98371967  1
  O2-  O302  1  0.76077037  0.57070817  0.47880716  1
  O2-  O303  1  0.76189478  0.57067515  0.97489791  1
  O2-  O304  1  0.76405196  0.90440813  0.47937322  1
  O2-  O305  1  0.76395086  0.90447939  0.97994001  1
  O2-  O306  1  0.07015818  0.06959517  0.26860574  1
  O2-  O307  1  0.07232177  0.06819132  0.77161782  1
  O2-  O308  1  0.06812718  0.40237537  0.26303223  1
  O2-  O309  1  0.06964988  0.40574800  0.77135416  1
  O2-  O310  1  0.06983292  0.73720597  0.27109198  1
  O2-  O311  1  0.06820001  0.73679460  0.76644936  1
  O2-  O312  1  0.40508651  0.07588198  0.27068954  1
  O2-  O313  1  0.40569961  0.07155747  0.76903129  1
  O2-  O314  1  0.40822116  0.40982124  0.26431648  1
  O2-  O315  1  0.40619833  0.40368531  0.77311765  1
  O2-  O316  1  0.40353441  0.73746487  0.27092704  1
  O2-  O317  1  0.40518581  0.73869556  0.77154405  1
  O2-  O318  1  0.73958849  0.07384664  0.27379328  1
  O2-  O319  1  0.74091762  0.07476448  0.77269852  1
  O2-  O320  1  0.73658626  0.40760803  0.27200665  1
  O2-  O321  1  0.73386189  0.40192140  0.76876553  1
  O2-  O322  1  0.73703673  0.73650798  0.26586666  1
  O2-  O323  1  0.73865706  0.74016954  0.77118679  1
  O2-  O324  1  0.23593779  0.09496646  0.22995129  1
  O2-  O325  1  0.23616612  0.09212808  0.72991609  1
  O2-  O326  1  0.23887593  0.42370094  0.22783380  1
  O2-  O327  1  0.23729222  0.42649376  0.72873642  1
  O2-  O328  1  0.23645806  0.76129184  0.23328521  1
  O2-  O329  1  0.24178589  0.76058323  0.72627437  1
  O2-  O330  1  0.57080009  0.09768041  0.23311575  1
  O2-  O331  1  0.57392940  0.09581557  0.74040905  1
  O2-  O332  1  0.57443740  0.42962089  0.22563808  1
  O2-  O333  1  0.56909723  0.43255869  0.72978278  1
  O2-  O334  1  0.57280361  0.76223303  0.22756283  1
  O2-  O335  1  0.56822903  0.76547235  0.73164125  1
  O2-  O336  1  0.90424366  0.09635703  0.23062412  1
  O2-  O337  1  0.90611748  0.09533733  0.72947883  1
  O2-  O338  1  0.90327286  0.42902851  0.22746727  1
  O2-  O339  1  0.90297835  0.42598191  0.72741990  1
  O2-  O340  1  0.90733961  0.75998540  0.22763942  1
  O2-  O341  1  0.90425249  0.76159211  0.72792518  1
  O2-  O342  1  0.26414656  0.26208812  0.01567781  1
  O2-  O343  1  0.26005130  0.26052431  0.52335514  1
  O2-  O344  1  0.25596141  0.59102409  0.01577700  1
  O2-  O345  1  0.26096254  0.59131082  0.52455132  1
  O2-  O346  1  0.26054708  0.92702647  0.01768357  1
  O2-  O347  1  0.25955732  0.92743951  0.52175784  1
  O2-  O348  1  0.59511492  0.25951938  0.02468069  1
  O2-  O349  1  0.59588101  0.26697228  0.51339194  1
  O2-  O350  1  0.59716122  0.59540966  0.01864538  1
  O2-  O351  1  0.59849323  0.59910328  0.51948357  1
  O2-  O352  1  0.60162256  0.93328234  0.01713835  1
  O2-  O353  1  0.59623367  0.92592526  0.51102709  1
  O2-  O354  1  0.92753897  0.26193649  0.02005848  1
  O2-  O355  1  0.92955434  0.26017111  0.52066115  1
  O2-  O356  1  0.92933887  0.59726483  0.01860161  1
  O2-  O357  1  0.92420313  0.59519740  0.52172247  1
  O2-  O358  1  0.93192797  0.92738283  0.02327250  1
  O2-  O359  1  0.93022364  0.92774909  0.51964273  1
