# generated using pymatgen
data_Sr7Ca15Pr50Mn72O216
_symmetry_space_group_name_H-M   'P 1'
_cell_length_a   16.55878000
_cell_length_b   16.60401861
_cell_length_c   15.59445130
_cell_angle_alpha   89.99672088
_cell_angle_beta   89.99995101
_cell_angle_gamma   89.98822521
_symmetry_Int_Tables_number   1
_chemical_formula_structural   Sr7Ca15Pr50Mn72O216
_chemical_formula_sum   'Sr7 Ca15 Pr50 Mn72 O216'
_cell_volume   4287.57407378
_cell_formula_units_Z   1
loop_
 _symmetry_equiv_pos_site_id
 _symmetry_equiv_pos_as_xyz
  1  'x, y, z'
loop_
 _atom_type_symbol
 _atom_type_oxidation_number
  Sr2+  2.0
  Ca2+  2.0
  Pr3+  3.0
  Mn3.30+  3.3
  O2-  -2.0
loop_
 _atom_site_type_symbol
 _atom_site_label
 _atom_site_symmetry_multiplicity
 _atom_site_fract_x
 _atom_site_fract_y
 _atom_site_fract_z
 _atom_site_occupancy
  Sr2+  Sr0  1  0.83509010  0.84160160  0.12820731  1
  Sr2+  Sr1  1  0.66988770  0.65907990  0.37317774  1
  Sr2+  Sr2  1  -0.00264343  0.67914758  0.12584630  1
  Sr2+  Sr3  1  0.16803812  0.51044274  0.62526539  1
  Sr2+  Sr4  1  -0.00059398  0.01112434  0.62331737  1
  Sr2+  Sr5  1  0.33138896  0.00935136  0.12379957  1
  Sr2+  Sr6  1  0.33557710  0.33823745  0.12432572  1
  Ca2+  Ca7  1  0.82971731  0.15054698  0.37318283  1
  Ca2+  Ca8  1  0.16712782  0.17898836  0.62250413  1
  Ca2+  Ca9  1  0.16042340  0.14919617  0.37382991  1
  Ca2+  Ca10  1  0.66238494  0.01637182  0.12403177  1
  Ca2+  Ca11  1  0.16860404  0.85040431  0.12579404  1
  Ca2+  Ca12  1  0.33675072  0.98683605  0.87731808  1
  Ca2+  Ca13  1  0.83310300  0.17574876  0.12592609  1
  Ca2+  Ca14  1  0.83450923  0.82177245  0.37219168  1
  Ca2+  Ca15  1  0.50204854  0.17848632  0.12496905  1
  Ca2+  Ca16  1  0.99842022  0.98821840  0.37259577  1
  Ca2+  Ca17  1  0.83687060  0.51572115  0.12556333  1
  Ca2+  Ca18  1  0.67023824  0.31537850  0.87724843  1
  Ca2+  Ca19  1  0.67188734  0.65265299  0.87706339  1
  Ca2+  Ca20  1  0.50239805  0.18126939  0.62473039  1
  Ca2+  Ca21  1  0.66953145  0.98686477  0.87766984  1
  Pr3+  Pr22  1  0.16349136  0.48637178  0.87527419  1
  Pr3+  Pr23  1  0.49775025  0.82090680  0.37334833  1
  Pr3+  Pr24  1  0.99941895  0.98899575  0.87506790  1
  Pr3+  Pr25  1  0.49928052  0.82323424  0.87585273  1
  Pr3+  Pr26  1  0.50288265  0.51154384  0.12381311  1
  Pr3+  Pr27  1  0.82621688  0.15107525  0.87701988  1
  Pr3+  Pr28  1  0.66221705  0.01565617  0.62636795  1
  Pr3+  Pr29  1  0.16522124  0.15443641  0.87594512  1
  Pr3+  Pr30  1  0.17010310  0.51189091  0.12485808  1
  Pr3+  Pr31  1  0.32976971  0.68004183  0.62597852  1
  Pr3+  Pr32  1  0.16331519  0.82534248  0.37285649  1
  Pr3+  Pr33  1  0.32751227  0.01651224  0.62651009  1
  Pr3+  Pr34  1  0.83665205  0.84763683  0.62265920  1
  Pr3+  Pr35  1  0.50328853  0.84776712  0.62493774  1
  Pr3+  Pr36  1  0.16600641  0.82514381  0.87737332  1
  Pr3+  Pr37  1  0.82778349  0.48368146  0.87879176  1
  Pr3+  Pr38  1  0.66368780  0.34337213  0.62573851  1
  Pr3+  Pr39  1  0.50751701  0.85019904  0.12491262  1
  Pr3+  Pr40  1  0.67205638  0.98675238  0.37373327  1
  Pr3+  Pr41  1  0.33841960  0.65372588  0.37435499  1
  Pr3+  Pr42  1  0.50416166  0.51170365  0.62576591  1
  Pr3+  Pr43  1  0.33747258  0.65331237  0.87566680  1
  Pr3+  Pr44  1  1.00315514  0.31655346  0.37453104  1
  Pr3+  Pr45  1  0.33571796  0.32050873  0.87580464  1
  Pr3+  Pr46  1  0.82996506  0.48874946  0.37088549  1
  Pr3+  Pr47  1  0.49675283  0.15453640  0.37369550  1
  Pr3+  Pr48  1  0.67120878  0.31671539  0.37371924  1
  Pr3+  Pr49  1  0.33388230  0.98864905  0.37310812  1
  Pr3+  Pr50  1  0.16907397  0.17683146  0.12707825  1
  Pr3+  Pr51  1  0.50269113  0.48512288  0.87570759  1
  Pr3+  Pr52  1  -0.00716973  0.34596024  0.12582274  1
  Pr3+  Pr53  1  -0.00467915  0.01047197  0.12670125  1
  Pr3+  Pr54  1  0.66412834  0.34298183  0.12410466  1
  Pr3+  Pr55  1  0.66823976  0.67968799  0.12421118  1
  Pr3+  Pr56  1  0.82881045  0.81945333  0.87644954  1
  Pr3+  Pr57  1  1.00229101  0.65509166  0.87780344  1
  Pr3+  Pr58  1  -0.00164304  0.34288761  0.62456377  1
  Pr3+  Pr59  1  0.49911911  0.48659538  0.37405356  1
  Pr3+  Pr60  1  0.83709808  0.17730697  0.62357708  1
  Pr3+  Pr61  1  0.66476920  0.68082837  0.62569837  1
  Pr3+  Pr62  1  0.83742513  0.51161091  0.62478237  1
  Pr3+  Pr63  1  0.32873617  0.68278799  0.12381861  1
  Pr3+  Pr64  1  0.16301713  0.48750336  0.37502123  1
  Pr3+  Pr65  1  0.33079397  0.34403149  0.62528609  1
  Pr3+  Pr66  1  0.99977842  0.65800107  0.37265911  1
  Pr3+  Pr67  1  0.16850299  0.84782356  0.62528378  1
  Pr3+  Pr68  1  -0.00192713  0.68030518  0.62501462  1
  Pr3+  Pr69  1  0.33406216  0.31967978  0.37426317  1
  Pr3+  Pr70  1  1.00182035  0.31924341  0.87575477  1
  Pr3+  Pr71  1  0.49723354  0.15297516  0.87634663  1
  Mn3.30+  Mn72  1  0.16729760  -0.00016237  -0.00016520  1
  Mn3.30+  Mn73  1  0.16454705  0.00326996  0.49955695  1
  Mn3.30+  Mn74  1  0.16578436  0.33215113  0.00157521  1
  Mn3.30+  Mn75  1  0.16650095  0.33014997  0.49958127  1
  Mn3.30+  Mn76  1  0.16730656  0.66913279  0.00114002  1
  Mn3.30+  Mn77  1  0.16734853  0.66797960  0.49918024  1
  Mn3.30+  Mn78  1  0.50180535  0.00234155  -0.00027523  1
  Mn3.30+  Mn79  1  0.49944084  0.00230474  0.50064900  1
  Mn3.30+  Mn80  1  0.50270188  0.33059638  -0.00023371  1
  Mn3.30+  Mn81  1  0.50026171  0.33172436  0.50010054  1
  Mn3.30+  Mn82  1  0.50269947  0.66720038  -0.00140929  1
  Mn3.30+  Mn83  1  0.50078927  0.66638807  0.50012837  1
  Mn3.30+  Mn84  1  0.82908602  -0.00065102  0.00398608  1
  Mn3.30+  Mn85  1  0.83460859  0.00064842  0.49666253  1
  Mn3.30+  Mn86  1  0.83086860  0.33029047  0.00218122  1
  Mn3.30+  Mn87  1  0.83314088  0.33135537  0.49784961  1
  Mn3.30+  Mn88  1  0.83390804  0.66544276  0.00006385  1
  Mn3.30+  Mn89  1  0.83254441  0.66782240  0.49961743  1
  Mn3.30+  Mn90  1  -0.00285159  0.16371906  0.25205402  1
  Mn3.30+  Mn91  1  -0.00025898  0.16575379  0.74858563  1
  Mn3.30+  Mn92  1  -0.00190592  0.50023377  0.24946243  1
  Mn3.30+  Mn93  1  -0.00105967  0.49968221  0.75025490  1
  Mn3.30+  Mn94  1  -0.00050762  0.83564385  0.24991786  1
  Mn3.30+  Mn95  1  -0.00082386  0.83459842  0.75086483  1
  Mn3.30+  Mn96  1  0.33124403  0.16533063  0.24995675  1
  Mn3.30+  Mn97  1  0.33360249  0.16622775  0.74917098  1
  Mn3.30+  Mn98  1  0.33314929  0.49882843  0.24847549  1
  Mn3.30+  Mn99  1  0.33440917  0.49926083  0.75101197  1
  Mn3.30+  Mn100  1  0.33221752  0.83533457  0.24787153  1
  Mn3.30+  Mn101  1  0.33465578  0.83561045  0.75185874  1
  Mn3.30+  Mn102  1  0.66793126  0.16464288  0.24769102  1
  Mn3.30+  Mn103  1  0.66425019  0.16638370  0.75128115  1
  Mn3.30+  Mn104  1  0.66842905  0.50036019  0.24788475  1
  Mn3.30+  Mn105  1  0.66878193  0.49900125  0.75159126  1
  Mn3.30+  Mn106  1  0.67007976  0.83542290  0.24925067  1
  Mn3.30+  Mn107  1  0.66699029  0.83485136  0.75139282  1
  Mn3.30+  Mn108  1  0.16424974  0.00042453  0.25040954  1
  Mn3.30+  Mn109  1  0.16793932  0.00268711  0.75080926  1
  Mn3.30+  Mn110  1  0.16551360  0.33117199  0.25028362  1
  Mn3.30+  Mn111  1  0.16704912  0.33143031  0.74911506  1
  Mn3.30+  Mn112  1  0.16742989  0.66908167  0.24887280  1
  Mn3.30+  Mn113  1  0.16720490  0.66777134  0.75108173  1
  Mn3.30+  Mn114  1  0.50227670  0.00292567  0.24801499  1
  Mn3.30+  Mn115  1  0.49902911  0.00193371  0.75112816  1
  Mn3.30+  Mn116  1  0.50104559  0.33158780  0.24862571  1
  Mn3.30+  Mn117  1  0.50188118  0.33074195  0.75113904  1
  Mn3.30+  Mn118  1  0.50049828  0.66690757  0.24803414  1
  Mn3.30+  Mn119  1  0.50277745  0.66657226  0.75211783  1
  Mn3.30+  Mn120  1  0.83219888  0.00074404  0.24928985  1
  Mn3.30+  Mn121  1  0.83101749  -0.00030009  0.75038865  1
  Mn3.30+  Mn122  1  0.83286843  0.33006097  0.24893859  1
  Mn3.30+  Mn123  1  0.83098081  0.33118536  0.75133105  1
  Mn3.30+  Mn124  1  0.83435845  0.66772730  0.24976083  1
  Mn3.30+  Mn125  1  0.83185474  0.66566697  0.75084742  1
  Mn3.30+  Mn126  1  -0.00340967  0.16567161  0.00173839  1
  Mn3.30+  Mn127  1  0.00072708  0.16337924  0.49762175  1
  Mn3.30+  Mn128  1  -0.00264051  0.49977116  0.00093166  1
  Mn3.30+  Mn129  1  -0.00034026  0.50004362  0.50007798  1
  Mn3.30+  Mn130  1  -0.00073478  0.83463702  0.00218947  1
  Mn3.30+  Mn131  1  -0.00056662  0.83613985  0.49774675  1
  Mn3.30+  Mn132  1  0.33396764  0.16412818  0.00135742  1
  Mn3.30+  Mn133  1  0.33101347  0.16681088  0.49994764  1
  Mn3.30+  Mn134  1  0.33439563  0.49834975  0.00077376  1
  Mn3.30+  Mn135  1  0.33305801  0.49946990  0.50007817  1
  Mn3.30+  Mn136  1  0.33362131  0.83622313  0.00023346  1
  Mn3.30+  Mn137  1  0.33365409  0.83488501  0.50009581  1
  Mn3.30+  Mn138  1  0.66544882  0.16492039  0.00156135  1
  Mn3.30+  Mn139  1  0.66662470  0.16567519  0.49946123  1
  Mn3.30+  Mn140  1  0.66923726  0.49963866  0.00072684  1
  Mn3.30+  Mn141  1  0.66807683  0.49988315  0.49914537  1
  Mn3.30+  Mn142  1  0.66755818  0.83593316  -0.00045761  1
  Mn3.30+  Mn143  1  0.66918834  0.83408004  0.49910048  1
  O2-  O144  1  0.02549199  0.16027316  0.12527459  1
  O2-  O145  1  0.02412461  0.16661652  0.62269580  1
  O2-  O146  1  0.02656443  0.49353882  0.12539500  1
  O2-  O147  1  0.01833943  0.49295178  0.62551131  1
  O2-  O148  1  0.02510038  0.83609940  0.12363588  1
  O2-  O149  1  0.02438323  0.82753691  0.62559682  1
  O2-  O150  1  0.35714756  0.16419546  0.12430540  1
  O2-  O151  1  0.36103918  0.16281975  0.62514339  1
  O2-  O152  1  0.35803635  0.49674134  0.12406909  1
  O2-  O153  1  0.36010882  0.49398255  0.62698424  1
  O2-  O154  1  0.36196867  0.82958829  0.12327700  1
  O2-  O155  1  0.35895041  0.82785502  0.62580506  1
  O2-  O156  1  0.69200904  0.16117873  0.12581535  1
  O2-  O157  1  0.69280471  0.16313583  0.62500379  1
  O2-  O158  1  0.69455583  0.49097713  0.12431476  1
  O2-  O159  1  0.69360846  0.49036715  0.62736293  1
  O2-  O160  1  0.68513725  0.82622495  0.12331322  1
  O2-  O161  1  0.69150136  0.82916300  0.62613147  1
  O2-  O162  1  0.13818894  0.32631404  0.12545205  1
  O2-  O163  1  0.14243963  0.32556387  0.62363624  1
  O2-  O164  1  0.14643119  0.65725833  0.12495589  1
  O2-  O165  1  0.14244119  0.66619269  0.62689248  1
  O2-  O166  1  0.14086807  0.99718206  0.12324402  1
  O2-  O167  1  0.14814424  0.99404453  0.62540093  1
  O2-  O168  1  0.48437503  0.32862229  0.12483802  1
  O2-  O169  1  0.47565842  0.32967159  0.62449220  1
  O2-  O170  1  0.47332747  0.66118924  0.12296807  1
  O2-  O171  1  0.47410890  0.66086749  0.62633433  1
  O2-  O172  1  0.47986308  0.99460925  0.12505151  1
  O2-  O173  1  0.47142305  0.99292158  0.62516363  1
  O2-  O174  1  0.80681645  0.32024819  0.12611688  1
  O2-  O175  1  0.80728293  0.32547885  0.62360660  1
  O2-  O176  1  0.81216656  0.66228080  0.12215147  1
  O2-  O177  1  0.80837740  0.65960478  0.62633620  1
  O2-  O178  1  0.80414985  0.99346219  0.12501472  1
  O2-  O179  1  0.80699432  0.99518958  0.62385911  1
  O2-  O180  1  0.30493953  0.17201088  0.37612223  1
  O2-  O181  1  0.30853424  0.17398473  0.87456542  1
  O2-  O182  1  0.30792359  0.50639542  0.37291416  1
  O2-  O183  1  0.30848451  0.50397694  0.87607919  1
  O2-  O184  1  0.30952896  0.83849842  0.37524067  1
  O2-  O185  1  0.31047709  0.83844995  0.87578516  1
  O2-  O186  1  0.64056922  0.16879468  0.37483149  1
  O2-  O187  1  0.64103077  0.17288328  0.87443870  1
  O2-  O188  1  0.64247619  0.50323199  0.37246870  1
  O2-  O189  1  0.64454270  0.50928089  0.87502512  1
  O2-  O190  1  0.64076013  0.83818335  0.37490964  1
  O2-  O191  1  0.64198055  0.84180993  0.87445369  1
  O2-  O192  1  0.96968169  0.17274574  0.37424279  1
  O2-  O193  1  0.97168720  0.17129631  0.87711234  1
  O2-  O194  1  0.97510936  0.50625816  0.37575524  1
  O2-  O195  1  0.97338037  0.50429936  0.87409752  1
  O2-  O196  1  0.97701558  0.83889156  0.37651134  1
  O2-  O197  1  0.97385837  0.83938896  0.87464601  1
  O2-  O198  1  0.19117249  0.00318841  0.37721405  1
  O2-  O199  1  0.19394026  0.00721204  0.87410054  1
  O2-  O200  1  0.19035500  0.34088646  0.37522978  1
  O2-  O201  1  0.18992868  0.33802503  0.87606142  1
  O2-  O202  1  0.19583007  0.67626476  0.37251903  1
  O2-  O203  1  0.19410951  0.67581001  0.87584564  1
  O2-  O204  1  0.52640525  0.00697796  0.37522389  1
  O2-  O205  1  0.52824499  0.00650007  0.87426376  1
  O2-  O206  1  0.52582513  0.33823416  0.37444843  1
  O2-  O207  1  0.52841640  0.33712232  0.87558199  1
  O2-  O208  1  0.51848555  0.67158566  0.37434222  1
  O2-  O209  1  0.52993017  0.67449530  0.87528540  1
  O2-  O210  1  0.85689667  0.00935912  0.37438024  1
  O2-  O211  1  0.85552116  0.00488086  0.87696021  1
  O2-  O212  1  0.85913187  0.34279922  0.37319652  1
  O2-  O213  1  0.85894594  0.33675090  0.87734346  1
  O2-  O214  1  0.85514159  0.67028259  0.37796692  1
  O2-  O215  1  0.85816423  0.67057103  0.87393319  1
  O2-  O216  1  0.23434688  0.09657944  0.01699490  1
  O2-  O217  1  0.23800787  0.09567243  0.52311423  1
  O2-  O218  1  0.23312414  0.42743128  0.01724698  1
  O2-  O219  1  0.24252847  0.42673341  0.51773383  1
  O2-  O220  1  0.23864622  0.76165571  0.02213413  1
  O2-  O221  1  0.23843947  0.76278996  0.52133767  1
  O2-  O222  1  0.56709258  0.09991051  0.01829396  1
  O2-  O223  1  0.56807661  0.09571585  0.52254074  1
  O2-  O224  1  0.57380095  0.42987305  0.01897036  1
  O2-  O225  1  0.57258756  0.42831925  0.51993319  1
  O2-  O226  1  0.57162046  0.76239278  0.01989132  1
  O2-  O227  1  0.57179882  0.76129382  0.52008656  1
  O2-  O228  1  0.90194764  0.09418343  0.02153284  1
  O2-  O229  1  0.90307985  0.09547373  0.51934146  1
  O2-  O230  1  0.90066015  0.42561179  0.02267673  1
  O2-  O231  1  0.90327779  0.42468700  0.51995342  1
  O2-  O232  1  0.90643819  0.76094351  0.01176689  1
  O2-  O233  1  0.90763067  0.75821324  0.52240597  1
  O2-  O234  1  0.25835267  0.25895092  0.23185815  1
  O2-  O235  1  0.26463191  0.26255401  0.73290887  1
  O2-  O236  1  0.26385770  0.59571307  0.22986604  1
  O2-  O237  1  0.26567276  0.59701639  0.73439404  1
  O2-  O238  1  0.26138162  0.92707894  0.23613575  1
  O2-  O239  1  0.26117419  0.92791960  0.72955878  1
  O2-  O240  1  0.59999009  0.26151850  0.23462546  1
  O2-  O241  1  0.59529658  0.26066872  0.72867803  1
  O2-  O242  1  0.59369407  0.59292881  0.22450005  1
  O2-  O243  1  0.59637714  0.59215786  0.72683272  1
  O2-  O244  1  0.59800275  0.92989775  0.23121250  1
  O2-  O245  1  0.59159653  0.92903714  0.72647017  1
  O2-  O246  1  0.93124735  0.26299019  0.23290640  1
  O2-  O247  1  0.92746302  0.26148538  0.72993526  1
  O2-  O248  1  0.92827617  0.59322480  0.23664777  1
  O2-  O249  1  0.92876300  0.59581022  0.72960577  1
  O2-  O250  1  0.92772264  0.93087601  0.23276093  1
  O2-  O251  1  0.92644767  0.92545552  0.73241701  1
  O2-  O252  1  0.09186755  0.23507758  0.27173032  1
  O2-  O253  1  0.09220740  0.24066384  0.77301871  1
  O2-  O254  1  0.09680414  0.57421755  0.27125879  1
  O2-  O255  1  0.09473442  0.57579201  0.77424048  1
  O2-  O256  1  0.09476813  0.90632261  0.26884561  1
  O2-  O257  1  0.09609367  0.90791557  0.77077393  1
  O2-  O258  1  0.42447391  0.24062859  0.27184319  1
  O2-  O259  1  0.42651175  0.23873914  0.77273426  1
  O2-  O260  1  0.42784462  0.57079986  0.26922021  1
  O2-  O261  1  0.43107185  0.57168938  0.77302809  1
  O2-  O262  1  0.43064539  0.90735389  0.27009952  1
  O2-  O263  1  0.43124045  0.90429475  0.76933179  1
  O2-  O264  1  0.76134200  0.23709529  0.27422802  1
  O2-  O265  1  0.76284439  0.23550026  0.76871644  1
  O2-  O266  1  0.76139949  0.57041499  0.26531485  1
  O2-  O267  1  0.76635239  0.56632416  0.76711911  1
  O2-  O268  1  0.76268408  0.90613266  0.27572652  1
  O2-  O269  1  0.76290108  0.90176831  0.76668631  1
  O2-  O270  1  0.06909015  0.06988122  0.47648476  1
  O2-  O271  1  0.07032502  0.07364161  0.97848629  1
  O2-  O272  1  0.07257588  0.40527802  0.48032551  1
  O2-  O273  1  0.06959966  0.40594614  0.97933855  1
  O2-  O274  1  0.07237270  0.74061287  0.47890373  1
  O2-  O275  1  0.07502972  0.74188612  0.97674131  1
  O2-  O276  1  0.40188437  0.07290562  0.47843290  1
  O2-  O277  1  0.40574256  0.07181823  0.97550206  1
  O2-  O278  1  0.40655476  0.40558628  0.47819228  1
  O2-  O279  1  0.41050922  0.40555491  0.97823079  1
  O2-  O280  1  0.40489194  0.73955099  0.48088845  1
  O2-  O281  1  0.40679987  0.73849552  0.97853743  1
  O2-  O282  1  0.73451601  0.06913886  0.48403967  1
  O2-  O283  1  0.73521952  0.07153509  0.97781293  1
  O2-  O284  1  0.73844812  0.40362504  0.47876221  1
  O2-  O285  1  0.73710927  0.40164686  0.97828651  1
  O2-  O286  1  0.73950218  0.73727544  0.48828280  1
  O2-  O287  1  0.73796239  0.73712040  0.97958599  1
  O2-  O288  1  0.09231817  0.23658551  0.47508907  1
  O2-  O289  1  0.09325199  0.23958933  0.97920053  1
  O2-  O290  1  0.09556152  0.57662822  0.47689994  1
  O2-  O291  1  0.09729472  0.57420633  0.97817337  1
  O2-  O292  1  0.09864907  0.90401900  0.48498346  1
  O2-  O293  1  0.09143324  0.90965144  0.97500356  1
  O2-  O294  1  0.42559148  0.23945639  0.47706887  1
  O2-  O295  1  0.42573054  0.24017710  0.97827631  1
  O2-  O296  1  0.42906777  0.57079809  0.48001680  1
  O2-  O297  1  0.43254592  0.57374799  0.97706992  1
  O2-  O298  1  0.42978787  0.90619659  0.47823913  1
  O2-  O299  1  0.43274192  0.90585841  0.98173021  1
  O2-  O300  1  0.76382483  0.23759416  0.47721930  1
  O2-  O301  1  0.76111674  0.23587027  0.98057623  1
  O2-  O302  1  0.76516561  0.56784564  0.48442880  1
  O2-  O303  1  0.76222036  0.57024773  0.98168674  1
  O2-  O304  1  0.76337264  0.90468928  0.47827926  1
  O2-  O305  1  0.76192653  0.90361091  0.97844231  1
  O2-  O306  1  0.06574081  0.06990272  0.26866490  1
  O2-  O307  1  0.07257813  0.07453670  0.77367964  1
  O2-  O308  1  0.07056713  0.40554033  0.27084002  1
  O2-  O309  1  0.07242054  0.40612957  0.77017180  1
  O2-  O310  1  0.07526937  0.74137053  0.27298540  1
  O2-  O311  1  0.07104199  0.74134853  0.77181944  1
  O2-  O312  1  0.40485069  0.07446325  0.27376656  1
  O2-  O313  1  0.40204000  0.07001634  0.77196514  1
  O2-  O314  1  0.40615456  0.40772238  0.27192795  1
  O2-  O315  1  0.40816331  0.40488046  0.77187675  1
  O2-  O316  1  0.40392788  0.74013952  0.26810070  1
  O2-  O317  1  0.40619964  0.73882307  0.77162148  1
  O2-  O318  1  0.73613938  0.07028128  0.26962039  1
  O2-  O319  1  0.73329062  0.07026735  0.76951759  1
  O2-  O320  1  0.73848955  0.40311601  0.27006883  1
  O2-  O321  1  0.73714633  0.40166291  0.77303936  1
  O2-  O322  1  0.73986049  0.74017048  0.26138502  1
  O2-  O323  1  0.73770807  0.73398600  0.77068598  1
  O2-  O324  1  0.23506234  0.09394239  0.23305083  1
  O2-  O325  1  0.23731188  0.09856594  0.72796218  1
  O2-  O326  1  0.23659590  0.43122711  0.23294800  1
  O2-  O327  1  0.24133544  0.42477895  0.73302558  1
  O2-  O328  1  0.23789307  0.76218994  0.22566670  1
  O2-  O329  1  0.23930690  0.76262943  0.73060185  1
  O2-  O330  1  0.56820661  0.09947491  0.23163947  1
  O2-  O331  1  0.56800924  0.09712768  0.72697550  1
  O2-  O332  1  0.57343065  0.42908967  0.22976447  1
  O2-  O333  1  0.57312410  0.42879680  0.73048311  1
  O2-  O334  1  0.57214191  0.76226709  0.23157399  1
  O2-  O335  1  0.57248457  0.76250963  0.72820175  1
  O2-  O336  1  0.90317102  0.09414332  0.22451642  1
  O2-  O337  1  0.90162786  0.09589277  0.73414277  1
  O2-  O338  1  0.90219945  0.42651932  0.22718686  1
  O2-  O339  1  0.90210132  0.42442401  0.73114722  1
  O2-  O340  1  0.91068086  0.76030358  0.23925798  1
  O2-  O341  1  0.90320997  0.75939587  0.72889030  1
  O2-  O342  1  0.25723501  0.25835721  0.01667783  1
  O2-  O343  1  0.26458523  0.26283605  0.51886862  1
  O2-  O344  1  0.26261149  0.59607302  0.01814159  1
  O2-  O345  1  0.26527485  0.59809085  0.51693687  1
  O2-  O346  1  0.25718581  0.92597478  0.01567658  1
  O2-  O347  1  0.26333185  0.92956509  0.51937190  1
  O2-  O348  1  0.59686691  0.26080184  0.01909304  1
  O2-  O349  1  0.59736865  0.26239180  0.51686682  1
  O2-  O350  1  0.59486167  0.59370653  0.02365383  1
  O2-  O351  1  0.59473219  0.59279201  0.52389763  1
  O2-  O352  1  0.59510661  0.92994500  0.02108601  1
  O2-  O353  1  0.59491210  0.92878497  0.52116523  1
  O2-  O354  1  0.92990279  0.26265949  0.01868200  1
  O2-  O355  1  0.92901729  0.26170939  0.51959829  1
  O2-  O356  1  0.92958543  0.59338372  0.01433163  1
  O2-  O357  1  0.92802467  0.59558221  0.52048916  1
  O2-  O358  1  0.92837330  0.93141002  0.01579649  1
  O2-  O359  1  0.92475082  0.92479163  0.51983155  1
