# generated using pymatgen
data_Sr7Ca15Pr50Mn72O216
_symmetry_space_group_name_H-M   'P 1'
_cell_length_a   16.55975794
_cell_length_b   16.60437295
_cell_length_c   15.59338714
_cell_angle_alpha   90.00193908
_cell_angle_beta   90.00363886
_cell_angle_gamma   90.00840079
_symmetry_Int_Tables_number   1
_chemical_formula_structural   Sr7Ca15Pr50Mn72O216
_chemical_formula_sum   'Sr7 Ca15 Pr50 Mn72 O216'
_cell_volume   4287.62623172
_cell_formula_units_Z   1
loop_
 _symmetry_equiv_pos_site_id
 _symmetry_equiv_pos_as_xyz
  1  'x, y, z'
loop_
 _atom_type_symbol
 _atom_type_oxidation_number
  Sr2+  2.0
  Ca2+  2.0
  Pr3+  3.0
  Mn3.30+  3.3
  O2-  -2.0
loop_
 _atom_site_type_symbol
 _atom_site_label
 _atom_site_symmetry_multiplicity
 _atom_site_fract_x
 _atom_site_fract_y
 _atom_site_fract_z
 _atom_site_occupancy
  Sr2+  Sr0  1  0.33570163  0.65564452  0.37298439  1
  Sr2+  Sr1  1  0.66521255  0.34435084  0.12387097  1
  Sr2+  Sr2  1  1.00308582  0.98669378  0.87444419  1
  Sr2+  Sr3  1  0.67047503  0.65892815  0.87614740  1
  Sr2+  Sr4  1  0.33293581  0.67395807  0.12317796  1
  Sr2+  Sr5  1  0.33372587  0.98970552  0.87397737  1
  Sr2+  Sr6  1  0.16863438  0.51098699  0.12357342  1
  Ca2+  Ca7  1  0.50462511  0.51797551  0.12487645  1
  Ca2+  Ca8  1  0.83566555  0.18156101  0.62497763  1
  Ca2+  Ca9  1  0.67016273  0.31968926  0.87613624  1
  Ca2+  Ca10  1  1.00322794  0.31847735  0.37365480  1
  Ca2+  Ca11  1  0.33176357  0.01559491  0.62652343  1
  Ca2+  Ca12  1  0.50223962  0.17974357  0.62639406  1
  Ca2+  Ca13  1  0.16641613  0.81927955  0.87625604  1
  Ca2+  Ca14  1  0.65972623  0.68276238  0.12264574  1
  Ca2+  Ca15  1  0.33728484  0.65425119  0.87863596  1
  Ca2+  Ca16  1  0.82780676  0.81775304  0.87476832  1
  Ca2+  Ca17  1  0.49539706  0.15304237  0.37544607  1
  Ca2+  Ca18  1  0.50092441  0.84209066  0.12350142  1
  Ca2+  Ca19  1  0.83447930  0.18117288  0.12550599  1
  Ca2+  Ca20  1  1.00452702  0.65278544  0.37404418  1
  Ca2+  Ca21  1  0.66372947  0.68138617  0.62709900  1
  Pr3+  Pr22  1  0.33643770  0.32188461  0.87606835  1
  Pr3+  Pr23  1  0.82430389  0.48549679  0.87575565  1
  Pr3+  Pr24  1  0.17188326  0.84798561  0.62658644  1
  Pr3+  Pr25  1  0.83438591  0.51383542  0.62483719  1
  Pr3+  Pr26  1  0.66584800  0.32011426  0.37364917  1
  Pr3+  Pr27  1  0.50096935  0.15528934  0.87531936  1
  Pr3+  Pr28  1  0.16309032  0.15197580  0.87464831  1
  Pr3+  Pr29  1  0.67154032  0.98516457  0.87419927  1
  Pr3+  Pr30  1  0.17111371  0.84052675  0.12295172  1
  Pr3+  Pr31  1  0.17073793  0.17806932  0.62631292  1
  Pr3+  Pr32  1  0.16723271  0.49205347  0.87757728  1
  Pr3+  Pr33  1  0.83238393  0.48594188  0.37415433  1
  Pr3+  Pr34  1  0.16942741  0.17768430  0.12362247  1
  Pr3+  Pr35  1  0.83411383  0.51384290  0.12523466  1
  Pr3+  Pr36  1  -0.00473852  0.01493507  0.62626266  1
  Pr3+  Pr37  1  0.66887883  0.65413807  0.37424844  1
  Pr3+  Pr38  1  0.50468550  0.51543757  0.62471900  1
  Pr3+  Pr39  1  0.16906610  0.51219343  0.62568939  1
  Pr3+  Pr40  1  0.83081181  0.15531892  0.37535432  1
  Pr3+  Pr41  1  0.49505868  0.48896874  0.37196718  1
  Pr3+  Pr42  1  0.16411039  0.48795595  0.37212264  1
  Pr3+  Pr43  1  -0.00547347  0.34524820  0.62317138  1
  Pr3+  Pr44  1  0.50017474  0.49031226  0.87757878  1
  Pr3+  Pr45  1  0.33790394  0.31913887  0.37377603  1
  Pr3+  Pr46  1  0.66328465  0.01667513  0.62584611  1
  Pr3+  Pr47  1  0.49546753  0.81794480  0.87625264  1
  Pr3+  Pr48  1  0.33754704  0.98810899  0.37638311  1
  Pr3+  Pr49  1  -0.00548890  0.01394107  0.12365353  1
  Pr3+  Pr50  1  0.33042924  0.67904402  0.62641161  1
  Pr3+  Pr51  1  0.33487868  0.00656903  0.12324130  1
  Pr3+  Pr52  1  0.49679712  0.81962381  0.37335367  1
  Pr3+  Pr53  1  0.66636778  0.98833789  0.37636847  1
  Pr3+  Pr54  1  0.66403536  0.34346542  0.62574436  1
  Pr3+  Pr55  1  0.83103481  0.82068383  0.37553571  1
  Pr3+  Pr56  1  0.16327496  0.15398742  0.37524061  1
  Pr3+  Pr57  1  -0.00037265  0.67864019  0.12580243  1
  Pr3+  Pr58  1  0.82829820  0.15591759  0.87505546  1
  Pr3+  Pr59  1  -0.00190693  0.67986366  0.62435040  1
  Pr3+  Pr60  1  0.66311822  0.01056527  0.12465480  1
  Pr3+  Pr61  1  0.33269055  0.34415377  0.62569126  1
  Pr3+  Pr62  1  0.99845392  0.65936178  0.87553963  1
  Pr3+  Pr63  1  0.50180469  0.84596659  0.62530832  1
  Pr3+  Pr64  1  0.33181486  0.34721469  0.12413475  1
  Pr3+  Pr65  1  0.50395083  0.17867347  0.12475406  1
  Pr3+  Pr66  1  0.83428237  0.84256869  0.12142236  1
  Pr3+  Pr67  1  1.00126480  0.32126540  0.87591909  1
  Pr3+  Pr68  1  0.83398134  0.84347949  0.62865565  1
  Pr3+  Pr69  1  0.16426709  0.81641102  0.37506230  1
  Pr3+  Pr70  1  1.00348920  0.98817499  0.37559269  1
  Pr3+  Pr71  1  -0.00627598  0.34602725  0.12732250  1
  Mn3.30+  Mn72  1  0.16516224  -0.00334292  -0.00056175  1
  Mn3.30+  Mn73  1  0.16879140  0.00018636  0.50159874  1
  Mn3.30+  Mn74  1  0.16636523  0.33357452  -0.00000197  1
  Mn3.30+  Mn75  1  0.16534867  0.33310274  0.49899713  1
  Mn3.30+  Mn76  1  0.16869635  0.66754505  -0.00270767  1
  Mn3.30+  Mn77  1  0.16538517  0.66516768  0.49958514  1
  Mn3.30+  Mn78  1  0.50081387  -0.00246682  -0.00120071  1
  Mn3.30+  Mn79  1  0.49891142  0.00371795  0.50248942  1
  Mn3.30+  Mn80  1  0.50312888  0.33540684  -0.00056304  1
  Mn3.30+  Mn81  1  0.49928576  0.33144591  0.50062653  1
  Mn3.30+  Mn82  1  0.50152742  0.66680582  0.00118740  1
  Mn3.30+  Mn83  1  0.50110841  0.66732684  0.50045061  1
  Mn3.30+  Mn84  1  0.83293746  -0.00057137  -0.00110707  1
  Mn3.30+  Mn85  1  0.83322242  0.00085747  0.50155338  1
  Mn3.30+  Mn86  1  0.83050819  0.33279430  0.00183117  1
  Mn3.30+  Mn87  1  0.83318946  0.33195818  0.49815573  1
  Mn3.30+  Mn88  1  0.83039413  0.66787967  0.00174178  1
  Mn3.30+  Mn89  1  0.83420710  0.66629255  0.49864588  1
  Mn3.30+  Mn90  1  -0.00160229  0.16748811  0.25006614  1
  Mn3.30+  Mn91  1  -0.00193068  0.16704525  0.74924130  1
  Mn3.30+  Mn92  1  -0.00040583  0.50092601  0.25065557  1
  Mn3.30+  Mn93  1  -0.00144694  0.50083032  0.75119286  1
  Mn3.30+  Mn94  1  0.00025436  0.83258385  0.25011776  1
  Mn3.30+  Mn95  1  0.00168313  0.83334687  0.75224935  1
  Mn3.30+  Mn96  1  0.33457153  0.16523193  0.24940891  1
  Mn3.30+  Mn97  1  0.33574453  0.16558025  0.74936783  1
  Mn3.30+  Mn98  1  0.33353602  0.50072328  0.24798956  1
  Mn3.30+  Mn99  1  0.33527546  0.50079169  0.75098156  1
  Mn3.30+  Mn100  1  0.33521651  0.83176656  0.24795355  1
  Mn3.30+  Mn101  1  0.33289819  0.83366241  0.75260590  1
  Mn3.30+  Mn102  1  0.66512724  0.16609099  0.25110407  1
  Mn3.30+  Mn103  1  0.66666210  0.16884059  0.74846562  1
  Mn3.30+  Mn104  1  0.66430104  0.50114711  0.24785112  1
  Mn3.30+  Mn105  1  0.66628993  0.50097819  0.75035014  1
  Mn3.30+  Mn106  1  0.66553123  0.83327059  0.24940305  1
  Mn3.30+  Mn107  1  0.66689851  0.83234053  0.74952390  1
  Mn3.30+  Mn108  1  0.16708334  -0.00166842  0.24891605  1
  Mn3.30+  Mn109  1  0.16740976  -0.00167875  0.75048948  1
  Mn3.30+  Mn110  1  0.16585482  0.33270794  0.25008252  1
  Mn3.30+  Mn111  1  0.16592737  0.33398117  0.75067357  1
  Mn3.30+  Mn112  1  0.16661164  0.66477789  0.24976172  1
  Mn3.30+  Mn113  1  0.16776283  0.66796459  0.75269197  1
  Mn3.30+  Mn114  1  0.50033852  -0.00021280  0.25048264  1
  Mn3.30+  Mn115  1  0.49893999  0.00115359  0.74868601  1
  Mn3.30+  Mn116  1  0.50043729  0.33386245  0.24833644  1
  Mn3.30+  Mn117  1  0.50220213  0.33293051  0.75151549  1
  Mn3.30+  Mn118  1  0.50201479  0.66725392  0.24638544  1
  Mn3.30+  Mn119  1  0.50031105  0.66667968  0.75134215  1
  Mn3.30+  Mn120  1  0.83275698  0.00025818  0.24959591  1
  Mn3.30+  Mn121  1  0.83347417  0.00019813  0.75062341  1
  Mn3.30+  Mn122  1  0.83285980  0.33225866  0.25116007  1
  Mn3.30+  Mn123  1  0.83103714  0.33256861  0.74926004  1
  Mn3.30+  Mn124  1  0.83291882  0.66700583  0.25051662  1
  Mn3.30+  Mn125  1  0.83125191  0.66768413  0.74888064  1
  Mn3.30+  Mn126  1  -0.00234942  0.16666286  0.00083598  1
  Mn3.30+  Mn127  1  -0.00121477  0.16815888  0.50001807  1
  Mn3.30+  Mn128  1  -0.00197112  0.50148494  -0.00040332  1
  Mn3.30+  Mn129  1  0.00010978  0.49985401  0.49799830  1
  Mn3.30+  Mn130  1  0.00090654  0.83318632  -0.00274574  1
  Mn3.30+  Mn131  1  0.00056497  0.83269448  0.50054658  1
  Mn3.30+  Mn132  1  0.33459471  0.16508235  -0.00042603  1
  Mn3.30+  Mn133  1  0.33576256  0.16616785  0.50188223  1
  Mn3.30+  Mn134  1  0.33523500  0.50181755  0.00047884  1
  Mn3.30+  Mn135  1  0.33370124  0.49968477  0.50004918  1
  Mn3.30+  Mn136  1  0.33398050  0.83150634  -0.00191895  1
  Mn3.30+  Mn137  1  0.33432227  0.83434289  0.50099412  1
  Mn3.30+  Mn138  1  0.66805408  0.16756301  0.00117620  1
  Mn3.30+  Mn139  1  0.66399976  0.16736743  0.50017385  1
  Mn3.30+  Mn140  1  0.66453046  0.50142070  0.00214015  1
  Mn3.30+  Mn141  1  0.66610687  0.50043106  0.49947572  1
  Mn3.30+  Mn142  1  0.66631417  0.83246928  0.00022380  1
  Mn3.30+  Mn143  1  0.66630435  0.83291363  0.50092988  1
  O2-  O144  1  0.02532396  0.16273268  0.12579960  1
  O2-  O145  1  0.02623377  0.16456584  0.62403097  1
  O2-  O146  1  0.01888862  0.49383010  0.12473890  1
  O2-  O147  1  0.02485615  0.49271659  0.62497535  1
  O2-  O148  1  0.02647863  0.82710877  0.12484052  1
  O2-  O149  1  0.02757592  0.82714561  0.62427426  1
  O2-  O150  1  0.35971768  0.15847161  0.12445602  1
  O2-  O151  1  0.35972287  0.16394826  0.62648458  1
  O2-  O152  1  0.35960432  0.49330653  0.12311124  1
  O2-  O153  1  0.35899800  0.49270671  0.62616075  1
  O2-  O154  1  0.35735303  0.83414618  0.12448836  1
  O2-  O155  1  0.35819945  0.82470136  0.62581878  1
  O2-  O156  1  0.69221499  0.15835337  0.12719150  1
  O2-  O157  1  0.69432452  0.16491890  0.62348864  1
  O2-  O158  1  0.69238490  0.49562290  0.12656237  1
  O2-  O159  1  0.69167902  0.48992875  0.62291773  1
  O2-  O160  1  0.69061950  0.83342611  0.12811092  1
  O2-  O161  1  0.68964546  0.82910889  0.62425924  1
  O2-  O162  1  0.13898687  0.32610294  0.12403858  1
  O2-  O163  1  0.13930861  0.32735087  0.62606530  1
  O2-  O164  1  0.14386996  0.66941447  0.12435830  1
  O2-  O165  1  0.14169740  0.66055931  0.62558336  1
  O2-  O166  1  0.13902267  0.99091422  0.12517373  1
  O2-  O167  1  0.13960340  0.99592215  0.62568216  1
  O2-  O168  1  0.47469344  0.32431951  0.12345544  1
  O2-  O169  1  0.47555874  0.32604423  0.62537237  1
  O2-  O170  1  0.48103953  0.66285256  0.12452056  1
  O2-  O171  1  0.47429070  0.66351316  0.62697288  1
  O2-  O172  1  0.47908210  0.99192849  0.12296264  1
  O2-  O173  1  0.47259865  0.99226467  0.62513795  1
  O2-  O174  1  0.81497633  0.32814321  0.12706636  1
  O2-  O175  1  0.80848783  0.32844458  0.62226623  1
  O2-  O176  1  0.80475851  0.66281194  0.12782351  1
  O2-  O177  1  0.80694579  0.66118895  0.62147054  1
  O2-  O178  1  0.80698691  0.98959681  0.12426570  1
  O2-  O179  1  0.80749345  0.99062762  0.62583697  1
  O2-  O180  1  0.30626706  0.17075470  0.37378580  1
  O2-  O181  1  0.30709812  0.17315085  0.87532067  1
  O2-  O182  1  0.31091300  0.49841092  0.37603292  1
  O2-  O183  1  0.31164221  0.50275982  0.87336192  1
  O2-  O184  1  0.30901382  0.84091310  0.37643184  1
  O2-  O185  1  0.30737130  0.83827913  0.87342335  1
  O2-  O186  1  0.63684161  0.17071042  0.37597840  1
  O2-  O187  1  0.64513852  0.17185955  0.87407203  1
  O2-  O188  1  0.63915823  0.50684254  0.37527622  1
  O2-  O189  1  0.64415862  0.50564193  0.87550351  1
  O2-  O190  1  0.64186304  0.83906523  0.37568965  1
  O2-  O191  1  0.64126779  0.83785442  0.87221438  1
  O2-  O192  1  0.97568568  0.16849814  0.37538971  1
  O2-  O193  1  0.97362161  0.17245658  0.87497530  1
  O2-  O194  1  0.97481454  0.51043116  0.37529063  1
  O2-  O195  1  0.96962127  0.50803382  0.87528457  1
  O2-  O196  1  0.97409805  0.84240236  0.37646748  1
  O2-  O197  1  0.97125483  0.82990536  0.87463508  1
  O2-  O198  1  0.19231147  0.00645007  0.37508979  1
  O2-  O199  1  0.18476972  0.00735380  0.87443403  1
  O2-  O200  1  0.19398003  0.33843706  0.37461185  1
  O2-  O201  1  0.19150154  0.34024290  0.87474816  1
  O2-  O202  1  0.18583705  0.66818705  0.37619455  1
  O2-  O203  1  0.19415586  0.67223161  0.87294726  1
  O2-  O204  1  0.52346134  0.00880746  0.37866785  1
  O2-  O205  1  0.52706884  0.00624373  0.87358023  1
  O2-  O206  1  0.52243511  0.34229102  0.37526549  1
  O2-  O207  1  0.52886239  0.34177457  0.87581892  1
  O2-  O208  1  0.52475221  0.67079566  0.37303797  1
  O2-  O209  1  0.52192641  0.66967250  0.87528737  1
  O2-  O210  1  0.85966970  0.00691810  0.37666169  1
  O2-  O211  1  0.85402936  0.01091496  0.87373759  1
  O2-  O212  1  0.86046457  0.33736334  0.37553007  1
  O2-  O213  1  0.85761923  0.33773436  0.87532889  1
  O2-  O214  1  0.86280145  0.67344095  0.37498941  1
  O2-  O215  1  0.85428598  0.67073468  0.87582641  1
  O2-  O216  1  0.23872620  0.09013378  0.02044665  1
  O2-  O217  1  0.23738733  0.09738815  0.51933003  1
  O2-  O218  1  0.24265427  0.42323617  0.01668235  1
  O2-  O219  1  0.23663360  0.42595040  0.52174308  1
  O2-  O220  1  0.23860091  0.76138994  0.01719006  1
  O2-  O221  1  0.23706107  0.76105745  0.51877610  1
  O2-  O222  1  0.57367173  0.09446194  0.01945162  1
  O2-  O223  1  0.57150663  0.09598727  0.52678865  1
  O2-  O224  1  0.56789366  0.43355366  0.01920551  1
  O2-  O225  1  0.56967386  0.42702426  0.52035220  1
  O2-  O226  1  0.56979336  0.76471602  0.01703637  1
  O2-  O227  1  0.57061996  0.76279980  0.51710266  1
  O2-  O228  1  0.90277203  0.09458382  0.02305592  1
  O2-  O229  1  0.90330592  0.09431570  0.52274848  1
  O2-  O230  1  0.90215263  0.42702364  0.01937101  1
  O2-  O231  1  0.90520532  0.42944641  0.52002757  1
  O2-  O232  1  0.90907175  0.75823224  0.02321517  1
  O2-  O233  1  0.90474187  0.76193549  0.52252706  1
  O2-  O234  1  0.26306133  0.25843717  0.22726377  1
  O2-  O235  1  0.26213031  0.25978276  0.72973828  1
  O2-  O236  1  0.26040744  0.58964370  0.23470553  1
  O2-  O237  1  0.25885876  0.59275638  0.72793020  1
  O2-  O238  1  0.26212829  0.92657717  0.22949801  1
  O2-  O239  1  0.26192902  0.92849593  0.72546672  1
  O2-  O240  1  0.59259448  0.26024418  0.23238834  1
  O2-  O241  1  0.59551398  0.26219538  0.73092568  1
  O2-  O242  1  0.60054079  0.60087172  0.23272197  1
  O2-  O243  1  0.59522820  0.59401398  0.72585425  1
  O2-  O244  1  0.59847223  0.93108409  0.23686482  1
  O2-  O245  1  0.59575708  0.92959431  0.72874236  1
  O2-  O246  1  0.92953559  0.26073197  0.23275823  1
  O2-  O247  1  0.92947085  0.26489826  0.73231534  1
  O2-  O248  1  0.92546794  0.59454718  0.22677260  1
  O2-  O249  1  0.92837334  0.59447917  0.72821804  1
  O2-  O250  1  0.93024992  0.92682249  0.22974420  1
  O2-  O251  1  0.92934786  0.92593680  0.72717068  1
  O2-  O252  1  0.09792194  0.23711536  0.26889273  1
  O2-  O253  1  0.09442540  0.24025828  0.77217507  1
  O2-  O254  1  0.09258367  0.57116409  0.26766092  1
  O2-  O255  1  0.09578724  0.57380971  0.77182384  1
  O2-  O256  1  0.09521567  0.90446510  0.27327927  1
  O2-  O257  1  0.09818215  0.89987043  0.76748897  1
  O2-  O258  1  0.42669921  0.23598388  0.27033506  1
  O2-  O259  1  0.42795750  0.24201049  0.77535342  1
  O2-  O260  1  0.43017140  0.57112310  0.26582398  1
  O2-  O261  1  0.43172968  0.57005961  0.76638664  1
  O2-  O262  1  0.42747911  0.90856371  0.27280989  1
  O2-  O263  1  0.43063393  0.90069213  0.76722690  1
  O2-  O264  1  0.75777992  0.23868211  0.27400735  1
  O2-  O265  1  0.76326094  0.23842638  0.76829673  1
  O2-  O266  1  0.76218343  0.57171908  0.27355687  1
  O2-  O267  1  0.76390998  0.56720770  0.76428623  1
  O2-  O268  1  0.76234386  0.90623846  0.27234423  1
  O2-  O269  1  0.76223864  0.90527086  0.77071136  1
  O2-  O270  1  0.07127360  0.07210108  0.48094321  1
  O2-  O271  1  0.07295249  0.07393473  0.98537687  1
  O2-  O272  1  0.06904752  0.40498891  0.47669681  1
  O2-  O273  1  0.07189308  0.40901615  0.97820789  1
  O2-  O274  1  0.06870912  0.73783096  0.47925761  1
  O2-  O275  1  0.07098051  0.73770578  0.98101010  1
  O2-  O276  1  0.40327331  0.07234569  0.48050894  1
  O2-  O277  1  0.41048620  0.07438066  0.98220721  1
  O2-  O278  1  0.40430438  0.40299315  0.48203789  1
  O2-  O279  1  0.40652172  0.40483013  0.97853240  1
  O2-  O280  1  0.40732299  0.74160391  0.48254094  1
  O2-  O281  1  0.40604576  0.73915978  0.97750795  1
  O2-  O282  1  0.73594436  0.07351451  0.47972968  1
  O2-  O283  1  0.73709873  0.07164278  0.97986850  1
  O2-  O284  1  0.73767554  0.40590984  0.47674921  1
  O2-  O285  1  0.73765910  0.40465652  0.97877898  1
  O2-  O286  1  0.74319346  0.73865320  0.47640651  1
  O2-  O287  1  0.74184090  0.74209228  0.98663431  1
  O2-  O288  1  0.09796927  0.23811139  0.48025546  1
  O2-  O289  1  0.09480094  0.23944341  0.97819519  1
  O2-  O290  1  0.09696989  0.56713637  0.48387723  1
  O2-  O291  1  0.09184009  0.57695425  0.97641946  1
  O2-  O292  1  0.09637872  0.90451288  0.47944691  1
  O2-  O293  1  0.09692038  0.90093159  0.98087028  1
  O2-  O294  1  0.42742279  0.23920754  0.47574769  1
  O2-  O295  1  0.42861707  0.24121519  0.97786851  1
  O2-  O296  1  0.43256663  0.57016981  0.48455324  1
  O2-  O297  1  0.42925593  0.57245126  0.98142150  1
  O2-  O298  1  0.43024684  0.90710677  0.47906748  1
  O2-  O299  1  0.42882206  0.90469322  0.98036525  1
  O2-  O300  1  0.75763723  0.23923845  0.47495765  1
  O2-  O301  1  0.76293574  0.23756123  0.98297012  1
  O2-  O302  1  0.76399725  0.57187364  0.47700521  1
  O2-  O303  1  0.76407770  0.56826331  0.98512115  1
  O2-  O304  1  0.76187354  0.90655253  0.47979416  1
  O2-  O305  1  0.76290801  0.90498666  0.97739167  1
  O2-  O306  1  0.07081190  0.07168070  0.26912011  1
  O2-  O307  1  0.07361255  0.07423607  0.76497127  1
  O2-  O308  1  0.07063437  0.40556620  0.27201780  1
  O2-  O309  1  0.07017477  0.40869630  0.77254003  1
  O2-  O310  1  0.06882990  0.73930610  0.27093391  1
  O2-  O311  1  0.07054683  0.73614958  0.76790922  1
  O2-  O312  1  0.40206276  0.06983106  0.26637019  1
  O2-  O313  1  0.40974115  0.07687411  0.77150951  1
  O2-  O314  1  0.40433132  0.40319275  0.26788358  1
  O2-  O315  1  0.40758750  0.40397624  0.77060879  1
  O2-  O316  1  0.40948033  0.74295767  0.26917660  1
  O2-  O317  1  0.40290306  0.73637429  0.77103253  1
  O2-  O318  1  0.73665682  0.07279059  0.27371573  1
  O2-  O319  1  0.73612291  0.07307848  0.76783351  1
  O2-  O320  1  0.73866999  0.40731335  0.27342872  1
  O2-  O321  1  0.73668549  0.40314015  0.77009439  1
  O2-  O322  1  0.74059978  0.74119513  0.27426637  1
  O2-  O323  1  0.74110658  0.74150393  0.76315883  1
  O2-  O324  1  0.23829759  0.09322410  0.22740849  1
  O2-  O325  1  0.23837362  0.09533723  0.73260320  1
  O2-  O326  1  0.24041482  0.42316329  0.23052287  1
  O2-  O327  1  0.23876565  0.42632074  0.72998608  1
  O2-  O328  1  0.23717608  0.76265695  0.23686466  1
  O2-  O329  1  0.23946709  0.76010238  0.72581724  1
  O2-  O330  1  0.57193633  0.09296863  0.22763643  1
  O2-  O331  1  0.57356398  0.09736902  0.72809611  1
  O2-  O332  1  0.56921325  0.43434422  0.23300839  1
  O2-  O333  1  0.57176905  0.42881814  0.72839934  1
  O2-  O334  1  0.57104325  0.76633310  0.23238326  1
  O2-  O335  1  0.56912184  0.76320816  0.73204644  1
  O2-  O336  1  0.90245079  0.09383585  0.22823598  1
  O2-  O337  1  0.90396867  0.09547764  0.72667559  1
  O2-  O338  1  0.90504804  0.42995928  0.23240530  1
  O2-  O339  1  0.90167152  0.42651894  0.72901601  1
  O2-  O340  1  0.90447951  0.76217527  0.22832822  1
  O2-  O341  1  0.90907475  0.75913476  0.72667975  1
  O2-  O342  1  0.26119178  0.25829704  0.02147782  1
  O2-  O343  1  0.26365429  0.26025436  0.52121917  1
  O2-  O344  1  0.25885207  0.59058640  0.01183135  1
  O2-  O345  1  0.26157877  0.59181314  0.52292578  1
  O2-  O346  1  0.25974199  0.92529969  0.02212235  1
  O2-  O347  1  0.26368800  0.92925748  0.52267994  1
  O2-  O348  1  0.59139425  0.25727386  0.01848421  1
  O2-  O349  1  0.59653495  0.26450375  0.51735682  1
  O2-  O350  1  0.59657881  0.59705662  0.02030212  1
  O2-  O351  1  0.59795388  0.59629727  0.52170554  1
  O2-  O352  1  0.59859060  0.93102244  0.01438863  1
  O2-  O353  1  0.59301442  0.93223474  0.52042337  1
  O2-  O354  1  0.93078320  0.26438323  0.01698303  1
  O2-  O355  1  0.92838360  0.26056793  0.51924879  1
  O2-  O356  1  0.92609059  0.59572670  0.02192396  1
  O2-  O357  1  0.92770944  0.59349314  0.52331195  1
  O2-  O358  1  0.92815605  0.92603272  0.02194676  1
  O2-  O359  1  0.93030640  0.92713803  0.52159525  1
