# generated using pymatgen
data_Sr7Ca15Pr50Mn72O216
_symmetry_space_group_name_H-M   'P 1'
_cell_length_a   16.55594733
_cell_length_b   16.59979053
_cell_length_c   15.58911365
_cell_angle_alpha   90.00679122
_cell_angle_beta   90.00195858
_cell_angle_gamma   89.98488530
_symmetry_Int_Tables_number   1
_chemical_formula_structural   Sr7Ca15Pr50Mn72O216
_chemical_formula_sum   'Sr7 Ca15 Pr50 Mn72 O216'
_cell_volume   4284.28199584
_cell_formula_units_Z   1
loop_
 _symmetry_equiv_pos_site_id
 _symmetry_equiv_pos_as_xyz
  1  'x, y, z'
loop_
 _atom_type_symbol
 _atom_type_oxidation_number
  Sr2+  2.0
  Ca2+  2.0
  Pr3+  3.0
  Mn3.30+  3.3
  O2-  -2.0
loop_
 _atom_site_type_symbol
 _atom_site_label
 _atom_site_symmetry_multiplicity
 _atom_site_fract_x
 _atom_site_fract_y
 _atom_site_fract_z
 _atom_site_occupancy
  Sr2+  Sr0  1  0.66349865  0.99052131  0.87602117  1
  Sr2+  Sr1  1  0.50080788  0.17341893  0.62625520  1
  Sr2+  Sr2  1  0.16698654  0.82539444  0.37576390  1
  Sr2+  Sr3  1  0.33521688  0.00741387  0.62549447  1
  Sr2+  Sr4  1  0.16979958  0.82572240  0.87429669  1
  Sr2+  Sr5  1  -0.00058251  0.67686808  0.12594481  1
  Sr2+  Sr6  1  0.66175644  0.68002542  0.62407170  1
  Ca2+  Ca7  1  0.33107563  0.01119973  0.12385971  1
  Ca2+  Ca8  1  0.49956291  0.84668617  0.62584183  1
  Ca2+  Ca9  1  0.33053940  0.68261691  0.62349656  1
  Ca2+  Ca10  1  0.16230872  0.14828792  0.37418677  1
  Ca2+  Ca11  1  0.33090857  0.68196421  0.12714327  1
  Ca2+  Ca12  1  0.49395923  0.14642444  0.87559674  1
  Ca2+  Ca13  1  0.65967463  0.68354737  0.12586564  1
  Ca2+  Ca14  1  0.50457510  0.51903723  0.12616645  1
  Ca2+  Ca15  1  1.00758492  0.98464059  0.37384715  1
  Ca2+  Ca16  1  0.33677828  0.65284093  0.37313597  1
  Ca2+  Ca17  1  0.16883019  0.49133934  0.37220503  1
  Ca2+  Ca18  1  0.65982141  0.35113917  0.12738888  1
  Ca2+  Ca19  1  0.34061079  0.98460042  0.87517380  1
  Ca2+  Ca20  1  0.49912291  0.84762476  0.12450890  1
  Ca2+  Ca21  1  0.66976842  0.31964098  0.37288216  1
  Pr3+  Pr22  1  0.83250905  0.84562761  0.62438035  1
  Pr3+  Pr23  1  0.66693727  0.98662673  0.37430073  1
  Pr3+  Pr24  1  0.66242657  0.00998954  0.12447872  1
  Pr3+  Pr25  1  0.16679983  0.48992558  0.87710872  1
  Pr3+  Pr26  1  0.65813220  0.01066003  0.62618236  1
  Pr3+  Pr27  1  0.16838630  0.15124036  0.87573863  1
  Pr3+  Pr28  1  0.34097628  0.31798333  0.87662225  1
  Pr3+  Pr29  1  0.83388380  0.51369412  0.12548354  1
  Pr3+  Pr30  1  0.66059016  0.34537356  0.62310449  1
  Pr3+  Pr31  1  1.00357190  0.31944179  0.87606919  1
  Pr3+  Pr32  1  0.49683509  0.48906469  0.87712155  1
  Pr3+  Pr33  1  0.83466526  0.84326257  0.12548889  1
  Pr3+  Pr34  1  0.17431081  0.17714571  0.62226479  1
  Pr3+  Pr35  1  0.17309853  0.51473509  0.62295827  1
  Pr3+  Pr36  1  0.83384033  0.17712802  0.62606630  1
  Pr3+  Pr37  1  -0.00000264  0.00776037  0.12656451  1
  Pr3+  Pr38  1  0.66566464  0.65798455  0.87684772  1
  Pr3+  Pr39  1  0.17149677  0.84527921  0.12575378  1
  Pr3+  Pr40  1  0.49723930  0.48861300  0.37313574  1
  Pr3+  Pr41  1  1.00346257  0.98522247  0.87522278  1
  Pr3+  Pr42  1  -0.00168227  0.34479025  0.62459275  1
  Pr3+  Pr43  1  0.49954311  0.15517347  0.37490050  1
  Pr3+  Pr44  1  0.00024935  0.01003352  0.62314681  1
  Pr3+  Pr45  1  -0.00203159  0.67960203  0.62368874  1
  Pr3+  Pr46  1  0.82869718  0.48440729  0.37367750  1
  Pr3+  Pr47  1  0.83424509  0.17799541  0.12407535  1
  Pr3+  Pr48  1  0.50280868  0.17881043  0.12408848  1
  Pr3+  Pr49  1  0.49203377  0.81881557  0.37471157  1
  Pr3+  Pr50  1  0.17126480  0.84612248  0.62404958  1
  Pr3+  Pr51  1  1.00620582  0.31910807  0.37349516  1
  Pr3+  Pr52  1  0.33450979  0.98795370  0.37484241  1
  Pr3+  Pr53  1  1.00383492  0.65549116  0.87589810  1
  Pr3+  Pr54  1  0.66654837  0.65514035  0.37349019  1
  Pr3+  Pr55  1  0.66657965  0.32058345  0.87783590  1
  Pr3+  Pr56  1  0.33667502  0.65658997  0.87623474  1
  Pr3+  Pr57  1  0.33273096  0.32174075  0.37360413  1
  Pr3+  Pr58  1  0.33323681  0.34308273  0.62346649  1
  Pr3+  Pr59  1  -0.00199289  0.34571146  0.12535792  1
  Pr3+  Pr60  1  1.00699149  0.65189916  0.37378197  1
  Pr3+  Pr61  1  0.17194590  0.51828258  0.12780501  1
  Pr3+  Pr62  1  0.49474285  0.82532674  0.87505002  1
  Pr3+  Pr63  1  0.82955270  0.15139011  0.87556804  1
  Pr3+  Pr64  1  0.82919507  0.48900296  0.87640564  1
  Pr3+  Pr65  1  0.82664610  0.82163858  0.87580937  1
  Pr3+  Pr66  1  0.17324043  0.17730668  0.12748220  1
  Pr3+  Pr67  1  0.50127795  0.51437049  0.62382471  1
  Pr3+  Pr68  1  0.83134479  0.15374410  0.37422625  1
  Pr3+  Pr69  1  0.33253905  0.34793250  0.12628217  1
  Pr3+  Pr70  1  0.83231419  0.82093329  0.37399107  1
  Pr3+  Pr71  1  0.83523897  0.51274335  0.62402016  1
  Mn3.30+  Mn72  1  0.17061679  -0.00126551  -0.00029212  1
  Mn3.30+  Mn73  1  0.16624663  0.00059920  0.49850735  1
  Mn3.30+  Mn74  1  0.16911264  0.33359413  0.00095148  1
  Mn3.30+  Mn75  1  0.16627574  0.33411307  0.49788073  1
  Mn3.30+  Mn76  1  0.16910231  0.66941218  0.00119163  1
  Mn3.30+  Mn77  1  0.17012631  0.66620606  0.49736903  1
  Mn3.30+  Mn78  1  0.49612252  -0.00076754  0.00221593  1
  Mn3.30+  Mn79  1  0.49987370  -0.00108774  0.49982804  1
  Mn3.30+  Mn80  1  0.50194714  0.33446333  0.00284966  1
  Mn3.30+  Mn81  1  0.50091299  0.33270362  0.49711748  1
  Mn3.30+  Mn82  1  0.49983031  0.66931105  0.00479201  1
  Mn3.30+  Mn83  1  0.49667811  0.66821209  0.50056758  1
  Mn3.30+  Mn84  1  0.83211761  -0.00160441  0.00078364  1
  Mn3.30+  Mn85  1  0.83397149  -0.00012724  0.49837618  1
  Mn3.30+  Mn86  1  0.83109104  0.33358829  0.00145339  1
  Mn3.30+  Mn87  1  0.83244067  0.33181497  0.49915919  1
  Mn3.30+  Mn88  1  0.83135425  0.66697606  0.00185570  1
  Mn3.30+  Mn89  1  0.83326629  0.66657275  0.49915328  1
  Mn3.30+  Mn90  1  0.00221295  0.16412592  0.25045407  1
  Mn3.30+  Mn91  1  0.00181976  0.16540032  0.74991340  1
  Mn3.30+  Mn92  1  0.00083987  0.49949173  0.25005418  1
  Mn3.30+  Mn93  1  0.00120403  0.49947664  0.74992627  1
  Mn3.30+  Mn94  1  0.00170096  0.83269599  0.25039889  1
  Mn3.30+  Mn95  1  -0.00019681  0.83259125  0.74991893  1
  Mn3.30+  Mn96  1  0.33303476  0.16556339  0.25117154  1
  Mn3.30+  Mn97  1  0.33610378  0.16502343  0.75001053  1
  Mn3.30+  Mn98  1  0.33525498  0.50373020  0.24965720  1
  Mn3.30+  Mn99  1  0.33379179  0.50108249  0.74954693  1
  Mn3.30+  Mn100  1  0.33428481  0.83218126  0.24860317  1
  Mn3.30+  Mn101  1  0.33386129  0.83291123  0.74869575  1
  Mn3.30+  Mn102  1  0.66681351  0.16893009  0.24885380  1
  Mn3.30+  Mn103  1  0.66441158  0.16615863  0.75251874  1
  Mn3.30+  Mn104  1  0.66365887  0.50046991  0.24784168  1
  Mn3.30+  Mn105  1  0.66494605  0.50132929  0.75069055  1
  Mn3.30+  Mn106  1  0.66284947  0.83189657  0.24891748  1
  Mn3.30+  Mn107  1  0.66285963  0.83348412  0.74962786  1
  Mn3.30+  Mn108  1  0.16732610  -0.00006729  0.24988970  1
  Mn3.30+  Mn109  1  0.16987717  -0.00077508  0.75128718  1
  Mn3.30+  Mn110  1  0.16682910  0.33455181  0.25052880  1
  Mn3.30+  Mn111  1  0.16842389  0.33325678  0.75108581  1
  Mn3.30+  Mn112  1  0.17064013  0.66868351  0.25222722  1
  Mn3.30+  Mn113  1  0.16871304  0.66724176  0.74958277  1
  Mn3.30+  Mn114  1  0.49796618  -0.00060929  0.24780399  1
  Mn3.30+  Mn115  1  0.49814753  -0.00064621  0.75117228  1
  Mn3.30+  Mn116  1  0.50257731  0.33515143  0.24994306  1
  Mn3.30+  Mn117  1  0.50026167  0.33168465  0.75041044  1
  Mn3.30+  Mn118  1  0.49814159  0.66794415  0.24682393  1
  Mn3.30+  Mn119  1  0.49856314  0.66938985  0.74812092  1
  Mn3.30+  Mn120  1  0.83474341  -0.00099880  0.25184062  1
  Mn3.30+  Mn121  1  0.83149452  -0.00094390  0.74896419  1
  Mn3.30+  Mn122  1  0.83033879  0.33245970  0.24805457  1
  Mn3.30+  Mn123  1  0.83238338  0.33309993  0.75096344  1
  Mn3.30+  Mn124  1  0.83230533  0.66629931  0.24966198  1
  Mn3.30+  Mn125  1  0.83247416  0.66715355  0.74920818  1
  Mn3.30+  Mn126  1  0.00150725  0.16479432  0.00060161  1
  Mn3.30+  Mn127  1  0.00236084  0.16479230  0.49901749  1
  Mn3.30+  Mn128  1  -0.00033518  0.50029678  0.00062952  1
  Mn3.30+  Mn129  1  0.00261960  0.49848874  0.49885519  1
  Mn3.30+  Mn130  1  0.00045319  0.83166730  0.00018899  1
  Mn3.30+  Mn131  1  0.00090409  0.83389692  0.49884455  1
  Mn3.30+  Mn132  1  0.33646836  0.16372997  0.00099869  1
  Mn3.30+  Mn133  1  0.33253500  0.16619715  0.49771306  1
  Mn3.30+  Mn134  1  0.33599255  0.50294838  0.00445848  1
  Mn3.30+  Mn135  1  0.33300274  0.50228835  0.49747932  1
  Mn3.30+  Mn136  1  0.33488512  0.83391259  0.00263950  1
  Mn3.30+  Mn137  1  0.33328441  0.83089285  0.50019475  1
  Mn3.30+  Mn138  1  0.66457737  0.16725227  0.00018122  1
  Mn3.30+  Mn139  1  0.66700586  0.16751915  0.49844605  1
  Mn3.30+  Mn140  1  0.66312483  0.50213377  0.00318796  1
  Mn3.30+  Mn141  1  0.66570189  0.49965507  0.49807876  1
  Mn3.30+  Mn142  1  0.66236698  0.83303597  0.00238648  1
  Mn3.30+  Mn143  1  0.66301275  0.83260692  0.49912615  1
  O2-  O144  1  0.02915966  0.15820191  0.12455223  1
  O2-  O145  1  0.03003946  0.15960680  0.62534433  1
  O2-  O146  1  0.02575762  0.49425657  0.12456346  1
  O2-  O147  1  0.02746724  0.49262874  0.62537097  1
  O2-  O148  1  0.02425656  0.83318832  0.12390565  1
  O2-  O149  1  0.02530295  0.82764211  0.62483222  1
  O2-  O150  1  0.35808420  0.16072801  0.12712681  1
  O2-  O151  1  0.35044171  0.16945843  0.62346038  1
  O2-  O152  1  0.36367179  0.49259923  0.12606868  1
  O2-  O153  1  0.35878453  0.48974634  0.62281800  1
  O2-  O154  1  0.35912823  0.82403352  0.12638134  1
  O2-  O155  1  0.35748731  0.82661037  0.62327215  1
  O2-  O156  1  0.69082546  0.15720276  0.12469503  1
  O2-  O157  1  0.68970707  0.16061835  0.62563468  1
  O2-  O158  1  0.69257904  0.49338509  0.12594570  1
  O2-  O159  1  0.69131531  0.49282888  0.62370909  1
  O2-  O160  1  0.69130421  0.82998347  0.12743503  1
  O2-  O161  1  0.68929660  0.83508102  0.62179236  1
  O2-  O162  1  0.14256611  0.32564037  0.12421371  1
  O2-  O163  1  0.14212245  0.32502616  0.62365559  1
  O2-  O164  1  0.14772149  0.66563828  0.12630042  1
  O2-  O165  1  0.14056219  0.66039450  0.62425154  1
  O2-  O166  1  0.14356731  0.99750918  0.12369191  1
  O2-  O167  1  0.14463348  0.99873985  0.62530503  1
  O2-  O168  1  0.47404483  0.32531501  0.12644777  1
  O2-  O169  1  0.47714371  0.33050900  0.62210914  1
  O2-  O170  1  0.47098341  0.65905809  0.12580949  1
  O2-  O171  1  0.47215908  0.65879262  0.62428591  1
  O2-  O172  1  0.47340307  0.99831394  0.12690819  1
  O2-  O173  1  0.48641859  0.99738648  0.62326212  1
  O2-  O174  1  0.80348812  0.32520974  0.12462460  1
  O2-  O175  1  0.80562235  0.32637398  0.62732034  1
  O2-  O176  1  0.80497841  0.66161765  0.12777783  1
  O2-  O177  1  0.81273120  0.66027223  0.62518510  1
  O2-  O178  1  0.80738011  0.99333504  0.12679835  1
  O2-  O179  1  0.80350795  0.99559584  0.62224502  1
  O2-  O180  1  0.30561889  0.17333469  0.37299703  1
  O2-  O181  1  0.30991613  0.17420083  0.87655443  1
  O2-  O182  1  0.30915047  0.50603477  0.37456239  1
  O2-  O183  1  0.30995263  0.50670702  0.87757571  1
  O2-  O184  1  0.31541439  0.84208826  0.37418874  1
  O2-  O185  1  0.31790259  0.83904862  0.87616005  1
  O2-  O186  1  0.64412029  0.17361357  0.37148069  1
  O2-  O187  1  0.63920594  0.17348400  0.87841069  1
  O2-  O188  1  0.64112859  0.50836062  0.37238913  1
  O2-  O189  1  0.64007736  0.50877520  0.87792379  1
  O2-  O190  1  0.63783273  0.83736698  0.37311359  1
  O2-  O191  1  0.64079609  0.83099569  0.87758888  1
  O2-  O192  1  0.97313582  0.17430804  0.37403087  1
  O2-  O193  1  0.97305756  0.17133401  0.87572736  1
  O2-  O194  1  0.97429349  0.50210399  0.37439663  1
  O2-  O195  1  0.97487417  0.50591863  0.87510052  1
  O2-  O196  1  0.97637556  0.83915131  0.37628370  1
  O2-  O197  1  0.97200103  0.83759800  0.87461114  1
  O2-  O198  1  0.19008366  0.00309321  0.37367096  1
  O2-  O199  1  0.19499448  0.00346383  0.87682581  1
  O2-  O200  1  0.18888380  0.34569675  0.37408749  1
  O2-  O201  1  0.19538559  0.34140677  0.87848205  1
  O2-  O202  1  0.19493821  0.67073392  0.37556080  1
  O2-  O203  1  0.19179706  0.66538177  0.87453577  1
  O2-  O204  1  0.52312690  0.00479120  0.37275376  1
  O2-  O205  1  0.51547484  -0.00255839  0.87742486  1
  O2-  O206  1  0.52892888  0.34071559  0.37256196  1
  O2-  O207  1  0.52400584  0.34294527  0.87847605  1
  O2-  O208  1  0.52455796  0.67193340  0.37311821  1
  O2-  O209  1  0.52316555  0.67496695  0.87677905  1
  O2-  O210  1  0.86450100  0.00590291  0.37513220  1
  O2-  O211  1  0.85924825  0.00252694  0.87546360  1
  O2-  O212  1  0.86128645  0.33618885  0.37228186  1
  O2-  O213  1  0.86006667  0.34036169  0.87528305  1
  O2-  O214  1  0.86019490  0.67144360  0.37446618  1
  O2-  O215  1  0.85823302  0.67256624  0.87283413  1
  O2-  O216  1  0.23693499  0.09879818  0.01754946  1
  O2-  O217  1  0.23660368  0.09478263  0.51446997  1
  O2-  O218  1  0.24102221  0.43225415  0.02344481  1
  O2-  O219  1  0.23961590  0.42664101  0.52127387  1
  O2-  O220  1  0.24013166  0.76320590  0.01728287  1
  O2-  O221  1  0.23709854  0.76086544  0.52138305  1
  O2-  O222  1  0.57066471  0.09218892  0.02080256  1
  O2-  O223  1  0.57659600  0.09322805  0.51283738  1
  O2-  O224  1  0.56907189  0.43504317  0.02011741  1
  O2-  O225  1  0.57090421  0.42841054  0.51999653  1
  O2-  O226  1  0.56774255  0.76436532  0.02259567  1
  O2-  O227  1  0.56512337  0.76509499  0.51672270  1
  O2-  O228  1  0.90840643  0.09312165  0.02143297  1
  O2-  O229  1  0.90547825  0.09422664  0.52393589  1
  O2-  O230  1  0.90405023  0.42539357  0.02238005  1
  O2-  O231  1  0.90267209  0.42556572  0.52127060  1
  O2-  O232  1  0.90214061  0.76215955  0.01774665  1
  O2-  O233  1  0.90534447  0.76133852  0.51957741  1
  O2-  O234  1  0.26298644  0.26235554  0.23004599  1
  O2-  O235  1  0.26311353  0.26310858  0.73229420  1
  O2-  O236  1  0.26380938  0.59515660  0.22686642  1
  O2-  O237  1  0.26224574  0.59508452  0.72790292  1
  O2-  O238  1  0.26319682  0.92826362  0.22899562  1
  O2-  O239  1  0.25730883  0.92214799  0.72984849  1
  O2-  O240  1  0.59383657  0.26290597  0.22623461  1
  O2-  O241  1  0.59795500  0.26583011  0.73409850  1
  O2-  O242  1  0.59725747  0.60083845  0.23097887  1
  O2-  O243  1  0.59108283  0.59429134  0.73287331  1
  O2-  O244  1  0.59614864  0.93121877  0.23250636  1
  O2-  O245  1  0.59434969  0.92759802  0.73348110  1
  O2-  O246  1  0.92930565  0.25925114  0.22587154  1
  O2-  O247  1  0.92910949  0.25884885  0.72935634  1
  O2-  O248  1  0.92484538  0.59040148  0.23258253  1
  O2-  O249  1  0.92948347  0.59236978  0.72920107  1
  O2-  O250  1  0.92452344  0.92514434  0.22796064  1
  O2-  O251  1  0.92465350  0.92771660  0.72732360  1
  O2-  O252  1  0.09476716  0.23566127  0.27090782  1
  O2-  O253  1  0.09633980  0.24007223  0.77382607  1
  O2-  O254  1  0.09840715  0.57327609  0.26955307  1
  O2-  O255  1  0.09692077  0.57151709  0.77042762  1
  O2-  O256  1  0.09514544  0.90699085  0.26225151  1
  O2-  O257  1  0.08888533  0.90810172  0.76682266  1
  O2-  O258  1  0.42867583  0.23989060  0.27120651  1
  O2-  O259  1  0.42896494  0.23832286  0.77314497  1
  O2-  O260  1  0.43029169  0.57194898  0.27108290  1
  O2-  O261  1  0.42829893  0.57280915  0.77100118  1
  O2-  O262  1  0.42643485  0.90662637  0.27033486  1
  O2-  O263  1  0.42744041  0.90487867  0.76354354  1
  O2-  O264  1  0.76581794  0.23582903  0.26717960  1
  O2-  O265  1  0.76171638  0.23886839  0.77277468  1
  O2-  O266  1  0.76115216  0.57084722  0.27131504  1
  O2-  O267  1  0.76095990  0.57247753  0.77034393  1
  O2-  O268  1  0.76066650  0.90602899  0.27267836  1
  O2-  O269  1  0.76148011  0.90315071  0.76651342  1
  O2-  O270  1  0.06799214  0.06971069  0.48033295  1
  O2-  O271  1  0.07229420  0.07147332  0.97760000  1
  O2-  O272  1  0.06801902  0.40035364  0.48447814  1
  O2-  O273  1  0.07143609  0.40606023  0.97922174  1
  O2-  O274  1  0.07029602  0.73326579  0.48320801  1
  O2-  O275  1  0.06999455  0.73949051  0.97981303  1
  O2-  O276  1  0.40836044  0.07408869  0.47764827  1
  O2-  O277  1  0.40204114  0.06918443  0.98098324  1
  O2-  O278  1  0.40570590  0.40534324  0.47683224  1
  O2-  O279  1  0.40455206  0.40460575  0.98117248  1
  O2-  O280  1  0.40338406  0.73679777  0.47572022  1
  O2-  O281  1  0.40598763  0.73997688  0.97869682  1
  O2-  O282  1  0.74204041  0.07235414  0.47569986  1
  O2-  O283  1  0.74338301  0.07482127  0.98245688  1
  O2-  O284  1  0.73786035  0.40369805  0.47708853  1
  O2-  O285  1  0.73740452  0.40967429  0.97703887  1
  O2-  O286  1  0.73687964  0.74222926  0.47725125  1
  O2-  O287  1  0.73841341  0.73952109  0.98005460  1
  O2-  O288  1  0.09714994  0.23730405  0.47691789  1
  O2-  O289  1  0.09357293  0.23724143  0.97763021  1
  O2-  O290  1  0.09917545  0.56994254  0.47761271  1
  O2-  O291  1  0.09567259  0.57350722  0.98181434  1
  O2-  O292  1  0.09222417  0.90704641  0.48799940  1
  O2-  O293  1  0.09028340  0.90793970  0.98179924  1
  O2-  O294  1  0.42672354  0.24221644  0.47434760  1
  O2-  O295  1  0.43092608  0.23504776  0.98150839  1
  O2-  O296  1  0.42998974  0.56956206  0.48134848  1
  O2-  O297  1  0.42876909  0.57471161  0.97750425  1
  O2-  O298  1  0.42604879  0.90710465  0.48096216  1
  O2-  O299  1  0.42856384  0.90346635  0.98608662  1
  O2-  O300  1  0.76572354  0.23584040  0.48319836  1
  O2-  O301  1  0.76326991  0.23961023  0.97748216  1
  O2-  O302  1  0.76164386  0.57109324  0.47938465  1
  O2-  O303  1  0.76022767  0.57236163  0.97945725  1
  O2-  O304  1  0.76096828  0.90631123  0.47562218  1
  O2-  O305  1  0.75957090  0.90249013  0.98426149  1
  O2-  O306  1  0.06853907  0.06895352  0.26831683  1
  O2-  O307  1  0.07280858  0.07220794  0.77271872  1
  O2-  O308  1  0.06829292  0.40247584  0.26430797  1
  O2-  O309  1  0.07222334  0.40436999  0.77183361  1
  O2-  O310  1  0.07158569  0.73744169  0.26992709  1
  O2-  O311  1  0.06981707  0.73450699  0.76661340  1
  O2-  O312  1  0.40675714  0.07505160  0.27443546  1
  O2-  O313  1  0.40465137  0.07137380  0.76840011  1
  O2-  O314  1  0.40489890  0.40495571  0.27183584  1
  O2-  O315  1  0.40571988  0.40463656  0.77004002  1
  O2-  O316  1  0.40446395  0.73776166  0.27333559  1
  O2-  O317  1  0.40470627  0.73918686  0.77147833  1
  O2-  O318  1  0.74132041  0.07096209  0.27127764  1
  O2-  O319  1  0.74356203  0.07496950  0.76906476  1
  O2-  O320  1  0.73792403  0.40527226  0.27294411  1
  O2-  O321  1  0.73743454  0.40705675  0.77318415  1
  O2-  O322  1  0.73902725  0.74006583  0.27314159  1
  O2-  O323  1  0.73714038  0.74143302  0.76982739  1
  O2-  O324  1  0.23772755  0.09422639  0.23197090  1
  O2-  O325  1  0.23726778  0.09930981  0.73510272  1
  O2-  O326  1  0.24198293  0.43014842  0.22746041  1
  O2-  O327  1  0.23798884  0.42852512  0.73034046  1
  O2-  O328  1  0.23870459  0.76397324  0.23066619  1
  O2-  O329  1  0.23794705  0.75997291  0.73045562  1
  O2-  O330  1  0.57218257  0.09515834  0.23075760  1
  O2-  O331  1  0.57580702  0.09094388  0.73613147  1
  O2-  O332  1  0.56829830  0.43420603  0.22927290  1
  O2-  O333  1  0.57115341  0.42861092  0.73052441  1
  O2-  O334  1  0.56565968  0.76410460  0.22998564  1
  O2-  O335  1  0.56695343  0.76411379  0.73100591  1
  O2-  O336  1  0.90581431  0.09416945  0.22680874  1
  O2-  O337  1  0.90692910  0.09204084  0.72833362  1
  O2-  O338  1  0.90138885  0.42453215  0.22672421  1
  O2-  O339  1  0.90468554  0.42654955  0.72835125  1
  O2-  O340  1  0.90226629  0.76151522  0.23358152  1
  O2-  O341  1  0.90465550  0.76137721  0.72813094  1
  O2-  O342  1  0.26559524  0.26084429  0.02116649  1
  O2-  O343  1  0.26023569  0.26464474  0.51708544  1
  O2-  O344  1  0.26471651  0.59519839  0.02253501  1
  O2-  O345  1  0.26219171  0.59408341  0.52505711  1
  O2-  O346  1  0.26171758  0.92529718  0.02536566  1
  O2-  O347  1  0.25829495  0.92499135  0.51620803  1
  O2-  O348  1  0.59698853  0.26609050  0.02287427  1
  O2-  O349  1  0.59595322  0.26290472  0.51608778  1
  O2-  O350  1  0.59743001  0.60127886  0.01932172  1
  O2-  O351  1  0.59112355  0.59446130  0.51620898  1
  O2-  O352  1  0.59243029  0.92898956  0.02148962  1
  O2-  O353  1  0.59786924  0.93068421  0.51279713  1
  O2-  O354  1  0.92969318  0.25863103  0.02166248  1
  O2-  O355  1  0.93048527  0.25908795  0.52245008  1
  O2-  O356  1  0.92380225  0.59105872  0.01754390  1
  O2-  O357  1  0.93168570  0.59090748  0.51956373  1
  O2-  O358  1  0.92643468  0.92617289  0.02040416  1
  O2-  O359  1  0.92284351  0.92636463  0.52497291  1
