# generated using pymatgen
data_Sr7Ca15Pr50Mn72O216
_symmetry_space_group_name_H-M   'P 1'
_cell_length_a   16.55737841
_cell_length_b   16.60355712
_cell_length_c   15.59540907
_cell_angle_alpha   90.00161099
_cell_angle_beta   89.99975711
_cell_angle_gamma   90.01004924
_symmetry_Int_Tables_number   1
_chemical_formula_structural   Sr7Ca15Pr50Mn72O216
_chemical_formula_sum   'Sr7 Ca15 Pr50 Mn72 O216'
_cell_volume   4287.35533497
_cell_formula_units_Z   1
loop_
 _symmetry_equiv_pos_site_id
 _symmetry_equiv_pos_as_xyz
  1  'x, y, z'
loop_
 _atom_type_symbol
 _atom_type_oxidation_number
  Sr2+  2.0
  Ca2+  2.0
  Pr3+  3.0
  Mn3.30+  3.3
  O2-  -2.0
loop_
 _atom_site_type_symbol
 _atom_site_label
 _atom_site_symmetry_multiplicity
 _atom_site_fract_x
 _atom_site_fract_y
 _atom_site_fract_z
 _atom_site_occupancy
  Sr2+  Sr0  1  1.00223638  0.99201293  0.37133328  1
  Sr2+  Sr1  1  0.83245177  0.50999920  0.62434783  1
  Sr2+  Sr2  1  0.16518408  0.15781161  0.37493881  1
  Sr2+  Sr3  1  0.33486658  0.32452605  0.87738497  1
  Sr2+  Sr4  1  0.83512569  0.50954863  0.12578955  1
  Sr2+  Sr5  1  -0.00456150  0.67465155  0.12334262  1
  Sr2+  Sr6  1  0.49523790  0.48955376  0.87778850  1
  Ca2+  Ca7  1  1.00140728  0.64870052  0.87702667  1
  Ca2+  Ca8  1  0.17113127  0.18097015  0.62279402  1
  Ca2+  Ca9  1  0.33825795  0.64828836  0.87681234  1
  Ca2+  Ca10  1  0.83984139  0.84825785  0.12495307  1
  Ca2+  Ca11  1  0.66837144  0.31965660  0.37293836  1
  Ca2+  Ca12  1  0.50062122  0.51024286  0.12438538  1
  Ca2+  Ca13  1  0.33356390  0.34669916  0.12659383  1
  Ca2+  Ca14  1  0.83938139  0.18085617  0.12750750  1
  Ca2+  Ca15  1  -0.00446243  0.01681677  0.12604523  1
  Ca2+  Ca16  1  1.00458780  0.31718240  0.37379886  1
  Ca2+  Ca17  1  0.16424542  0.15551531  0.87649783  1
  Ca2+  Ca18  1  0.66359206  0.68021805  0.62595163  1
  Ca2+  Ca19  1  0.49479452  0.48095858  0.37188764  1
  Ca2+  Ca20  1  0.33679377  0.31708906  0.37221914  1
  Ca2+  Ca21  1  0.50236103  0.18479081  0.12567926  1
  Pr3+  Pr22  1  0.66895730  0.65380578  0.37530851  1
  Pr3+  Pr23  1  0.66597639  0.67704552  0.12384679  1
  Pr3+  Pr24  1  0.83234149  0.48938602  0.87701003  1
  Pr3+  Pr25  1  0.67210463  0.98906129  0.37350197  1
  Pr3+  Pr26  1  0.49766736  0.82100226  0.37320378  1
  Pr3+  Pr27  1  0.16736049  0.48793057  0.87622771  1
  Pr3+  Pr28  1  0.66789338  0.65157547  0.87443374  1
  Pr3+  Pr29  1  0.50525730  0.51428669  0.62478266  1
  Pr3+  Pr30  1  -0.00407353  0.34363659  0.12877076  1
  Pr3+  Pr31  1  0.49523151  0.81718740  0.87646599  1
  Pr3+  Pr32  1  0.32819906  0.01597372  0.62484335  1
  Pr3+  Pr33  1  0.33353526  0.99102872  0.87649620  1
  Pr3+  Pr34  1  0.50147073  0.18156717  0.62399488  1
  Pr3+  Pr35  1  0.82950477  0.48491228  0.37315532  1
  Pr3+  Pr36  1  0.33165957  0.01355196  0.12466343  1
  Pr3+  Pr37  1  0.33315010  0.99010288  0.37309657  1
  Pr3+  Pr38  1  0.49617448  0.15954961  0.87764396  1
  Pr3+  Pr39  1  0.83048859  0.15591137  0.87745579  1
  Pr3+  Pr40  1  0.50352899  0.84506940  0.12417313  1
  Pr3+  Pr41  1  0.16592633  0.84643198  0.12380001  1
  Pr3+  Pr42  1  1.00417297  0.98784452  0.87839280  1
  Pr3+  Pr43  1  0.33103669  0.34511281  0.62281647  1
  Pr3+  Pr44  1  0.16929832  0.50978537  0.12559967  1
  Pr3+  Pr45  1  1.00633246  0.32119348  0.87631736  1
  Pr3+  Pr46  1  0.16343099  0.48298083  0.37466997  1
  Pr3+  Pr47  1  0.16960969  0.51055466  0.62462926  1
  Pr3+  Pr48  1  0.16933433  0.84679149  0.62634604  1
  Pr3+  Pr49  1  0.16146998  0.82402438  0.37389234  1
  Pr3+  Pr50  1  0.16204454  0.81489856  0.87618499  1
  Pr3+  Pr51  1  0.66523040  0.01805368  0.12468301  1
  Pr3+  Pr52  1  0.16883483  0.17937356  0.12665438  1
  Pr3+  Pr53  1  0.83638298  0.18023586  0.62392280  1
  Pr3+  Pr54  1  0.66688420  0.32602815  0.87598044  1
  Pr3+  Pr55  1  0.33012652  0.67806257  0.62731825  1
  Pr3+  Pr56  1  0.49704791  0.15630226  0.37233457  1
  Pr3+  Pr57  1  0.83410596  0.84491553  0.62620755  1
  Pr3+  Pr58  1  0.50348625  0.84502582  0.62566790  1
  Pr3+  Pr59  1  -0.00018849  0.34451391  0.62133515  1
  Pr3+  Pr60  1  0.33826474  0.65044547  0.37378918  1
  Pr3+  Pr61  1  0.83198373  0.82202171  0.37308549  1
  Pr3+  Pr62  1  1.00078865  0.65525582  0.37420077  1
  Pr3+  Pr63  1  -0.00022111  0.01444273  0.62487838  1
  Pr3+  Pr64  1  -0.00439789  0.67744509  0.62719330  1
  Pr3+  Pr65  1  0.67056637  0.98818735  0.87635257  1
  Pr3+  Pr66  1  0.66314337  0.34765398  0.12778480  1
  Pr3+  Pr67  1  0.66324067  0.34665087  0.62206219  1
  Pr3+  Pr68  1  0.66325117  0.01461564  0.62512996  1
  Pr3+  Pr69  1  0.83185401  0.81899432  0.87716818  1
  Pr3+  Pr70  1  0.33047580  0.67529058  0.12277549  1
  Pr3+  Pr71  1  0.83352677  0.15517938  0.37205225  1
  Mn3.30+  Mn72  1  0.16501465  0.00188657  0.00064400  1
  Mn3.30+  Mn73  1  0.16574590  0.00169184  0.49988419  1
  Mn3.30+  Mn74  1  0.16863992  0.33191078  0.00142149  1
  Mn3.30+  Mn75  1  0.16722661  0.33073913  0.49799924  1
  Mn3.30+  Mn76  1  0.16518009  0.66430248  -0.00085954  1
  Mn3.30+  Mn77  1  0.16688556  0.66653784  0.49984898  1
  Mn3.30+  Mn78  1  0.50108065  0.00251677  0.00048933  1
  Mn3.30+  Mn79  1  0.49978303  0.00036416  0.49919964  1
  Mn3.30+  Mn80  1  0.49799167  0.33461354  0.00423855  1
  Mn3.30+  Mn81  1  0.49897302  0.33435187  0.49463769  1
  Mn3.30+  Mn82  1  0.49798610  0.66437508  0.00140521  1
  Mn3.30+  Mn83  1  0.50099754  0.66569397  0.49896557  1
  Mn3.30+  Mn84  1  0.83610381  0.00087390  0.00285078  1
  Mn3.30+  Mn85  1  0.83409954  0.00012143  0.49985106  1
  Mn3.30+  Mn86  1  0.83433255  0.33258185  0.00140602  1
  Mn3.30+  Mn87  1  0.83315183  0.33298813  0.49710213  1
  Mn3.30+  Mn88  1  0.83485316  0.66620437  -0.00016266  1
  Mn3.30+  Mn89  1  0.83154441  0.66641304  0.50211093  1
  Mn3.30+  Mn90  1  0.00044341  0.16659897  0.24912697  1
  Mn3.30+  Mn91  1  0.00293847  0.16727806  0.75016837  1
  Mn3.30+  Mn92  1  -0.00090249  0.49869905  0.25192983  1
  Mn3.30+  Mn93  1  -0.00006180  0.49934472  0.74977012  1
  Mn3.30+  Mn94  1  -0.00240302  0.83388501  0.24720519  1
  Mn3.30+  Mn95  1  0.00069253  0.83186435  0.75225893  1
  Mn3.30+  Mn96  1  0.33509732  0.16919007  0.24774309  1
  Mn3.30+  Mn97  1  0.33023116  0.16822482  0.75205485  1
  Mn3.30+  Mn98  1  0.33604526  0.49573629  0.25042627  1
  Mn3.30+  Mn99  1  0.33499084  0.49993963  0.74979728  1
  Mn3.30+  Mn100  1  0.33253307  0.83262763  0.24853609  1
  Mn3.30+  Mn101  1  0.33305112  0.83282513  0.75207190  1
  Mn3.30+  Mn102  1  0.66693426  0.17003094  0.24818123  1
  Mn3.30+  Mn103  1  0.66629394  0.16888816  0.75090223  1
  Mn3.30+  Mn104  1  0.66251767  0.49950348  0.25164826  1
  Mn3.30+  Mn105  1  0.66639222  0.50073792  0.74896239  1
  Mn3.30+  Mn106  1  0.66875244  0.83394056  0.24709506  1
  Mn3.30+  Mn107  1  0.66619201  0.83267081  0.75111924  1
  Mn3.30+  Mn108  1  0.16413968  0.00119056  0.24740153  1
  Mn3.30+  Mn109  1  0.16671991  0.00282157  0.75203784  1
  Mn3.30+  Mn110  1  0.16814823  0.33220416  0.25090077  1
  Mn3.30+  Mn111  1  0.16784004  0.33053320  0.75006214  1
  Mn3.30+  Mn112  1  0.16673889  0.66651603  0.24948115  1
  Mn3.30+  Mn113  1  0.16557029  0.66413947  0.75240911  1
  Mn3.30+  Mn114  1  0.50163397  0.00185751  0.24797266  1
  Mn3.30+  Mn115  1  0.49912335  0.00097328  0.75116006  1
  Mn3.30+  Mn116  1  0.49859864  0.33438051  0.24978612  1
  Mn3.30+  Mn117  1  0.49812562  0.33476256  0.75063557  1
  Mn3.30+  Mn118  1  0.50037173  0.66338637  0.24946020  1
  Mn3.30+  Mn119  1  0.49843918  0.66644456  0.75010658  1
  Mn3.30+  Mn120  1  0.83590460  -0.00010374  0.24668919  1
  Mn3.30+  Mn121  1  0.83430058  0.00093287  0.75093822  1
  Mn3.30+  Mn122  1  0.83252095  0.33146901  0.25178582  1
  Mn3.30+  Mn123  1  0.83528348  0.33439863  0.74948788  1
  Mn3.30+  Mn124  1  0.83377770  0.66664524  0.24889482  1
  Mn3.30+  Mn125  1  0.83281362  0.66585728  0.74983896  1
  Mn3.30+  Mn126  1  -0.00049513  0.16618248  0.00073373  1
  Mn3.30+  Mn127  1  0.00306062  0.16756518  0.50025039  1
  Mn3.30+  Mn128  1  -0.00038465  0.49924263  0.00017404  1
  Mn3.30+  Mn129  1  -0.00098056  0.49901687  0.49904638  1
  Mn3.30+  Mn130  1  -0.00193666  0.83183581  0.00124280  1
  Mn3.30+  Mn131  1  -0.00015471  0.83405481  0.50061457  1
  Mn3.30+  Mn132  1  0.33313628  0.16951485  0.00216222  1
  Mn3.30+  Mn133  1  0.33229134  0.16786265  0.49785601  1
  Mn3.30+  Mn134  1  0.33510493  0.49826364  0.00303679  1
  Mn3.30+  Mn135  1  0.33581795  0.49737192  0.49705152  1
  Mn3.30+  Mn136  1  0.33260793  0.83258476  -0.00074894  1
  Mn3.30+  Mn137  1  0.33319778  0.83305346  0.49964358  1
  Mn3.30+  Mn138  1  0.66659306  0.17022306  0.00289297  1
  Mn3.30+  Mn139  1  0.66667818  0.16857345  0.49746200  1
  Mn3.30+  Mn140  1  0.66497956  0.50006563  0.00194548  1
  Mn3.30+  Mn141  1  0.66411274  0.50000514  0.49700651  1
  Mn3.30+  Mn142  1  0.66877547  0.83385997  0.00101432  1
  Mn3.30+  Mn143  1  0.66609742  0.83279128  0.50023224  1
  O2-  O144  1  0.02384086  0.16452761  0.12344756  1
  O2-  O145  1  0.02701864  0.16207776  0.62708872  1
  O2-  O146  1  0.02369099  0.49322976  0.12770032  1
  O2-  O147  1  0.02539771  0.49485175  0.62267184  1
  O2-  O148  1  0.02431360  0.82576723  0.12257254  1
  O2-  O149  1  0.02604069  0.82484508  0.62957926  1
  O2-  O150  1  0.36212450  0.15775756  0.12537353  1
  O2-  O151  1  0.35884505  0.16225429  0.62401480  1
  O2-  O152  1  0.35766494  0.49514782  0.12909068  1
  O2-  O153  1  0.35978341  0.49413559  0.61986726  1
  O2-  O154  1  0.35964460  0.82567429  0.12354363  1
  O2-  O155  1  0.35941457  0.82652383  0.62700738  1
  O2-  O156  1  0.69705322  0.16520273  0.12462321  1
  O2-  O157  1  0.69133558  0.16272313  0.62531150  1
  O2-  O158  1  0.68683655  0.49679916  0.12687814  1
  O2-  O159  1  0.68387984  0.49236269  0.62119178  1
  O2-  O160  1  0.69511993  0.82502545  0.12354536  1
  O2-  O161  1  0.68965170  0.82772179  0.62780471  1
  O2-  O162  1  0.14014332  0.33056316  0.12585216  1
  O2-  O163  1  0.14406093  0.32977125  0.62474115  1
  O2-  O164  1  0.14568964  0.65886009  0.12627295  1
  O2-  O165  1  0.13982397  0.65948919  0.62719197  1
  O2-  O166  1  0.13966683  0.99458849  0.12248784  1
  O2-  O167  1  0.14333042  0.99240773  0.62874829  1
  O2-  O168  1  0.47457432  0.32650177  0.12739158  1
  O2-  O169  1  0.47595591  0.32869761  0.62139449  1
  O2-  O170  1  0.47520444  0.66319091  0.12597243  1
  O2-  O171  1  0.47370434  0.66444069  0.62229245  1
  O2-  O172  1  0.47536029  0.99158803  0.12366685  1
  O2-  O173  1  0.47283299  0.99248992  0.62587970  1
  O2-  O174  1  0.80833283  0.32716611  0.12769950  1
  O2-  O175  1  0.80738725  0.32737076  0.62344783  1
  O2-  O176  1  0.80930250  0.66189863  0.12352862  1
  O2-  O177  1  0.80589606  0.66620577  0.62489517  1
  O2-  O178  1  0.80682842  0.99194485  0.12394549  1
  O2-  O179  1  0.80683894  0.99548520  0.62787384  1
  O2-  O180  1  0.31553750  0.16796215  0.37297400  1
  O2-  O181  1  0.30736856  0.16870796  0.87697264  1
  O2-  O182  1  0.30616080  0.50641388  0.37545050  1
  O2-  O183  1  0.31149193  0.50435877  0.87645740  1
  O2-  O184  1  0.30669419  0.84009809  0.37295689  1
  O2-  O185  1  0.30587169  0.84345976  0.87595353  1
  O2-  O186  1  0.64128316  0.16924372  0.37325322  1
  O2-  O187  1  0.64084219  0.17522776  0.87600201  1
  O2-  O188  1  0.63577784  0.50909899  0.37513756  1
  O2-  O189  1  0.64579163  0.50103991  0.87601819  1
  O2-  O190  1  0.64139013  0.84096406  0.37209366  1
  O2-  O191  1  0.64000536  0.84073171  0.87591248  1
  O2-  O192  1  0.97745790  0.17034171  0.37529234  1
  O2-  O193  1  0.97335941  0.17329637  0.87456124  1
  O2-  O194  1  0.97466886  0.50779418  0.37673257  1
  O2-  O195  1  0.97713446  0.49932453  0.87392736  1
  O2-  O196  1  0.97643508  0.83587305  0.37367737  1
  O2-  O197  1  0.97494225  0.84176478  0.87520878  1
  O2-  O198  1  0.18906315  -0.00248962  0.37186901  1
  O2-  O199  1  0.19040902  0.00868548  0.87571148  1
  O2-  O200  1  0.19496983  0.33665138  0.37409921  1
  O2-  O201  1  0.18610309  0.34069571  0.87569077  1
  O2-  O202  1  0.19417596  0.67611888  0.37340528  1
  O2-  O203  1  0.19582087  0.66727501  0.87411535  1
  O2-  O204  1  0.52768670  0.00616669  0.37207101  1
  O2-  O205  1  0.52693020  0.01026219  0.87723488  1
  O2-  O206  1  0.52728225  0.33628649  0.37346752  1
  O2-  O207  1  0.52248263  0.33175181  0.87718012  1
  O2-  O208  1  0.52520316  0.67567070  0.37472572  1
  O2-  O209  1  0.52379826  0.67033561  0.87692788  1
  O2-  O210  1  0.85161875  0.00463787  0.37281912  1
  O2-  O211  1  0.85950335  0.00825671  0.87486595  1
  O2-  O212  1  0.86118631  0.33664972  0.37566561  1
  O2-  O213  1  0.86053442  0.34015568  0.87320644  1
  O2-  O214  1  0.85687861  0.67472190  0.37731015  1
  O2-  O215  1  0.85857362  0.67153836  0.87437039  1
  O2-  O216  1  0.24158495  0.09397699  0.02366599  1
  O2-  O217  1  0.24090077  0.09321591  0.52024494  1
  O2-  O218  1  0.23736951  0.42834971  0.01823766  1
  O2-  O219  1  0.23807960  0.42785302  0.51966475  1
  O2-  O220  1  0.23780418  0.76090349  0.01983719  1
  O2-  O221  1  0.23770360  0.75992863  0.52307189  1
  O2-  O222  1  0.57363385  0.09882772  0.02307325  1
  O2-  O223  1  0.57174673  0.09430105  0.52108058  1
  O2-  O224  1  0.57311260  0.42627117  0.02289187  1
  O2-  O225  1  0.56964649  0.42757998  0.51952978  1
  O2-  O226  1  0.57036138  0.76097382  0.01965557  1
  O2-  O227  1  0.56930194  0.76551687  0.51650220  1
  O2-  O228  1  0.90079616  0.09892609  0.01869271  1
  O2-  O229  1  0.90665932  0.09458789  0.52076746  1
  O2-  O230  1  0.90883206  0.42419913  0.01879464  1
  O2-  O231  1  0.90632654  0.42490478  0.51786554  1
  O2-  O232  1  0.90010585  0.76676118  0.01566432  1
  O2-  O233  1  0.90513867  0.76211826  0.52172075  1
  O2-  O234  1  0.26179598  0.25970427  0.22583966  1
  O2-  O235  1  0.26201931  0.26151284  0.72834465  1
  O2-  O236  1  0.26332514  0.59413980  0.23148936  1
  O2-  O237  1  0.25919546  0.59205952  0.72640567  1
  O2-  O238  1  0.25974655  0.92810731  0.22676382  1
  O2-  O239  1  0.26333335  0.92846748  0.73007913  1
  O2-  O240  1  0.59593454  0.26409283  0.23043021  1
  O2-  O241  1  0.59400500  0.26316232  0.72940278  1
  O2-  O242  1  0.59692580  0.59828511  0.23147132  1
  O2-  O243  1  0.59505293  0.59690098  0.72994084  1
  O2-  O244  1  0.59623679  0.92880297  0.22675199  1
  O2-  O245  1  0.59564881  0.92881545  0.72992380  1
  O2-  O246  1  0.92769568  0.25869553  0.23180271  1
  O2-  O247  1  0.92915554  0.26080317  0.72769337  1
  O2-  O248  1  0.92665986  0.59537514  0.23923374  1
  O2-  O249  1  0.92803770  0.59544719  0.73201925  1
  O2-  O250  1  0.92870989  0.92968119  0.22742097  1
  O2-  O251  1  0.92787571  0.92836707  0.72939899  1
  O2-  O252  1  0.09513365  0.24044034  0.26355147  1
  O2-  O253  1  0.09406875  0.23809904  0.77408289  1
  O2-  O254  1  0.09649028  0.57270212  0.27212771  1
  O2-  O255  1  0.09729519  0.56854219  0.76869717  1
  O2-  O256  1  0.09612913  0.90108623  0.26359840  1
  O2-  O257  1  0.09771207  0.90456169  0.77210770  1
  O2-  O258  1  0.43128410  0.23818472  0.26937353  1
  O2-  O259  1  0.42996938  0.23551754  0.76496685  1
  O2-  O260  1  0.42645164  0.56907087  0.27343163  1
  O2-  O261  1  0.42784142  0.57310337  0.76213105  1
  O2-  O262  1  0.42671801  0.90515065  0.26900085  1
  O2-  O263  1  0.43037702  0.90684168  0.77362242  1
  O2-  O264  1  0.76111719  0.23897861  0.27342218  1
  O2-  O265  1  0.76380872  0.24221464  0.77058160  1
  O2-  O266  1  0.75862403  0.57344947  0.27347330  1
  O2-  O267  1  0.76133378  0.57381296  0.77269474  1
  O2-  O268  1  0.76024999  0.90642428  0.27110682  1
  O2-  O269  1  0.76269604  0.90733489  0.77176449  1
  O2-  O270  1  0.07150298  0.07007940  0.48771319  1
  O2-  O271  1  0.06916986  0.07372174  0.98034327  1
  O2-  O272  1  0.07386636  0.40419995  0.47863380  1
  O2-  O273  1  0.07322585  0.40489967  0.98272444  1
  O2-  O274  1  0.07134631  0.73908837  0.48067637  1
  O2-  O275  1  0.07175728  0.73712253  0.97587901  1
  O2-  O276  1  0.40546642  0.07100622  0.47958153  1
  O2-  O277  1  0.40508749  0.07298933  0.97926275  1
  O2-  O278  1  0.40165289  0.39975652  0.47799569  1
  O2-  O279  1  0.40557764  0.40623050  0.98731112  1
  O2-  O280  1  0.40496145  0.73737089  0.47866565  1
  O2-  O281  1  0.40345446  0.73905498  0.97824542  1
  O2-  O282  1  0.73808059  0.07306234  0.48099440  1
  O2-  O283  1  0.73746231  0.07331233  0.97975773  1
  O2-  O284  1  0.73754295  0.40437318  0.47645327  1
  O2-  O285  1  0.74111724  0.40732528  0.98119817  1
  O2-  O286  1  0.73938442  0.74084777  0.47793181  1
  O2-  O287  1  0.73695718  0.73826341  0.97675928  1
  O2-  O288  1  0.09274157  0.24091297  0.48394833  1
  O2-  O289  1  0.09594327  0.23776038  0.98080754  1
  O2-  O290  1  0.09645125  0.57308747  0.47846419  1
  O2-  O291  1  0.09536866  0.56794425  0.98172148  1
  O2-  O292  1  0.09696918  0.90224753  0.48672484  1
  O2-  O293  1  0.09597277  0.90266315  0.97905093  1
  O2-  O294  1  0.43168286  0.23561385  0.48226302  1
  O2-  O295  1  0.42944266  0.23736676  0.98366316  1
  O2-  O296  1  0.43021461  0.56927021  0.47748184  1
  O2-  O297  1  0.42493120  0.57499740  0.98660584  1
  O2-  O298  1  0.42875799  0.90601256  0.47738976  1
  O2-  O299  1  0.42755866  0.90527998  0.97907225  1
  O2-  O300  1  0.76418723  0.23677457  0.48084104  1
  O2-  O301  1  0.75935650  0.24296515  0.97513498  1
  O2-  O302  1  0.75925657  0.57209843  0.47559508  1
  O2-  O303  1  0.75869930  0.57431297  0.97832836  1
  O2-  O304  1  0.75993973  0.90500506  0.48146871  1
  O2-  O305  1  0.76276874  0.90888832  0.97583468  1
  O2-  O306  1  0.07412767  0.07427419  0.26217397  1
  O2-  O307  1  0.06759777  0.06926372  0.76845874  1
  O2-  O308  1  0.07245700  0.40463950  0.27306956  1
  O2-  O309  1  0.07442009  0.40376103  0.76715496  1
  O2-  O310  1  0.07292328  0.73998869  0.27154553  1
  O2-  O311  1  0.07138759  0.73422549  0.77444675  1
  O2-  O312  1  0.40686792  0.07113627  0.26996938  1
  O2-  O313  1  0.40283316  0.07288778  0.77030237  1
  O2-  O314  1  0.40236219  0.40160944  0.27263972  1
  O2-  O315  1  0.40583899  0.40383935  0.76200564  1
  O2-  O316  1  0.40634283  0.73738714  0.26997036  1
  O2-  O317  1  0.40243314  0.73809948  0.77304103  1
  O2-  O318  1  0.73783420  0.07201523  0.26740852  1
  O2-  O319  1  0.73868361  0.07377220  0.77155838  1
  O2-  O320  1  0.73583760  0.40638402  0.27255712  1
  O2-  O321  1  0.74108437  0.40669016  0.76866458  1
  O2-  O322  1  0.73745500  0.73881819  0.27097820  1
  O2-  O323  1  0.73875710  0.74014464  0.77388310  1
  O2-  O324  1  0.24286359  0.09242439  0.22754601  1
  O2-  O325  1  0.23882544  0.09511265  0.72670182  1
  O2-  O326  1  0.23584793  0.42993842  0.23284597  1
  O2-  O327  1  0.24022611  0.42757023  0.72934709  1
  O2-  O328  1  0.23863038  0.76078281  0.22689351  1
  O2-  O329  1  0.23553865  0.75977530  0.73009977  1
  O2-  O330  1  0.57401478  0.09792319  0.22608648  1
  O2-  O331  1  0.56996020  0.09329742  0.72791856  1
  O2-  O332  1  0.56838338  0.42855862  0.22732148  1
  O2-  O333  1  0.57290701  0.42587828  0.72924085  1
  O2-  O334  1  0.57367752  0.76383819  0.22881958  1
  O2-  O335  1  0.56645092  0.76290089  0.73432089  1
  O2-  O336  1  0.90264109  0.09589774  0.23204806  1
  O2-  O337  1  0.90511260  0.09559777  0.72893944  1
  O2-  O338  1  0.90482895  0.42362791  0.23423023  1
  O2-  O339  1  0.90828525  0.42418494  0.72936208  1
  O2-  O340  1  0.90147743  0.76566928  0.23394186  1
  O2-  O341  1  0.90259566  0.76122248  0.73019717  1
  O2-  O342  1  0.26109009  0.26025788  0.02700332  1
  O2-  O343  1  0.26236451  0.26024771  0.51878067  1
  O2-  O344  1  0.25991202  0.59013476  0.02254410  1
  O2-  O345  1  0.26290731  0.59432618  0.52014972  1
  O2-  O346  1  0.26251758  0.92727076  0.02099373  1
  O2-  O347  1  0.26160750  0.92857464  0.52034184  1
  O2-  O348  1  0.59708553  0.26515551  0.01964676  1
  O2-  O349  1  0.59415890  0.26124284  0.52000642  1
  O2-  O350  1  0.59587954  0.59656757  0.01701937  1
  O2-  O351  1  0.59482838  0.59894320  0.52273539  1
  O2-  O352  1  0.59666007  0.92904072  0.02124298  1
  O2-  O353  1  0.59479693  0.92916446  0.52076125  1
  O2-  O354  1  0.93061784  0.26200080  0.01777547  1
  O2-  O355  1  0.92696058  0.25810423  0.52309071  1
  O2-  O356  1  0.92635882  0.59157282  0.01122485  1
  O2-  O357  1  0.92888152  0.59825607  0.51768857  1
  O2-  O358  1  0.93195097  0.93337713  0.01787590  1
  O2-  O359  1  0.92689293  0.92535693  0.52487532  1
