# generated using pymatgen
data_Sr7Ca15Pr50Mn72O216
_symmetry_space_group_name_H-M   'P 1'
_cell_length_a   16.55985312
_cell_length_b   16.60587019
_cell_length_c   15.59090285
_cell_angle_alpha   90.00360306
_cell_angle_beta   90.00365639
_cell_angle_gamma   89.99726212
_symmetry_Int_Tables_number   1
_chemical_formula_structural   Sr7Ca15Pr50Mn72O216
_chemical_formula_sum   'Sr7 Ca15 Pr50 Mn72 O216'
_cell_volume   4287.35437807
_cell_formula_units_Z   1
loop_
 _symmetry_equiv_pos_site_id
 _symmetry_equiv_pos_as_xyz
  1  'x, y, z'
loop_
 _atom_type_symbol
 _atom_type_oxidation_number
  Sr2+  2.0
  Ca2+  2.0
  Pr3+  3.0
  Mn3.30+  3.3
  O2-  -2.0
loop_
 _atom_site_type_symbol
 _atom_site_label
 _atom_site_symmetry_multiplicity
 _atom_site_fract_x
 _atom_site_fract_y
 _atom_site_fract_z
 _atom_site_occupancy
  Sr2+  Sr0  1  0.16867293  0.51038204  0.62309801  1
  Sr2+  Sr1  1  0.50006678  0.49238037  0.87312894  1
  Sr2+  Sr2  1  0.16311819  0.48792922  0.37543179  1
  Sr2+  Sr3  1  0.33111073  0.34219185  0.12467133  1
  Sr2+  Sr4  1  0.82982185  0.49086264  0.87522689  1
  Sr2+  Sr5  1  0.50343251  0.51233081  0.62599919  1
  Sr2+  Sr6  1  0.83326996  0.15797286  0.37686843  1
  Ca2+  Ca7  1  0.83461990  0.51317731  0.12442938  1
  Ca2+  Ca8  1  0.16959576  0.18335064  0.12344598  1
  Ca2+  Ca9  1  0.49505492  0.15188327  0.87570595  1
  Ca2+  Ca10  1  0.67272056  0.65169848  0.37794993  1
  Ca2+  Ca11  1  0.16304752  0.81845379  0.37567893  1
  Ca2+  Ca12  1  0.66296656  0.35003041  0.12455366  1
  Ca2+  Ca13  1  0.49596382  0.81895334  0.87358604  1
  Ca2+  Ca14  1  0.66295229  0.67809086  0.62732824  1
  Ca2+  Ca15  1  0.66517164  0.01546367  0.62630795  1
  Ca2+  Ca16  1  0.83398177  0.17862391  0.62579890  1
  Ca2+  Ca17  1  0.83632192  0.51576134  0.62518071  1
  Ca2+  Ca18  1  0.33968846  0.98225497  0.87496212  1
  Ca2+  Ca19  1  1.00535232  0.98195569  0.87435853  1
  Ca2+  Ca20  1  -0.00419424  0.34993177  0.12540700  1
  Ca2+  Ca21  1  0.16523312  0.81879971  0.87386499  1
  Pr3+  Pr22  1  1.00285875  0.98698834  0.37542852  1
  Pr3+  Pr23  1  0.66903529  0.32414791  0.87518027  1
  Pr3+  Pr24  1  0.83528566  0.18334565  0.12443314  1
  Pr3+  Pr25  1  0.49678067  0.15437832  0.37505067  1
  Pr3+  Pr26  1  0.66598713  0.98868938  0.87279694  1
  Pr3+  Pr27  1  0.16356894  0.15064286  0.87804118  1
  Pr3+  Pr28  1  0.50391228  0.17793099  0.62802083  1
  Pr3+  Pr29  1  0.49970794  0.48738537  0.37653357  1
  Pr3+  Pr30  1  0.50313090  0.51015894  0.12383213  1
  Pr3+  Pr31  1  0.83202390  0.82150419  0.87419423  1
  Pr3+  Pr32  1  1.00283221  0.65291044  0.37520533  1
  Pr3+  Pr33  1  0.66656208  0.67662578  0.12370539  1
  Pr3+  Pr34  1  0.33184545  0.67647384  0.12449947  1
  Pr3+  Pr35  1  0.33068492  0.34699286  0.62558489  1
  Pr3+  Pr36  1  0.16856297  0.51007853  0.12645497  1
  Pr3+  Pr37  1  0.83776002  0.84605826  0.12369650  1
  Pr3+  Pr38  1  0.33484747  0.98561727  0.37520106  1
  Pr3+  Pr39  1  0.50508771  0.84568627  0.62795265  1
  Pr3+  Pr40  1  0.16928049  0.17878768  0.62676195  1
  Pr3+  Pr41  1  0.16291676  0.48745248  0.87443912  1
  Pr3+  Pr42  1  0.83145283  0.15608371  0.87414022  1
  Pr3+  Pr43  1  0.32792744  0.01515229  0.12239656  1
  Pr3+  Pr44  1  0.82972639  0.48779039  0.37485404  1
  Pr3+  Pr45  1  -0.00377179  0.01346439  0.62917100  1
  Pr3+  Pr46  1  -0.00402230  0.67745717  0.12518297  1
  Pr3+  Pr47  1  0.33892570  0.32038296  0.87585261  1
  Pr3+  Pr48  1  0.16177569  0.15679366  0.37198634  1
  Pr3+  Pr49  1  0.33204337  0.32222447  0.37434919  1
  Pr3+  Pr50  1  0.82844513  0.82014059  0.37517815  1
  Pr3+  Pr51  1  0.50207115  0.84608751  0.12200091  1
  Pr3+  Pr52  1  1.00249131  0.32034817  0.37274209  1
  Pr3+  Pr53  1  0.33586857  0.65541788  0.87481724  1
  Pr3+  Pr54  1  0.50408478  0.18318708  0.12252372  1
  Pr3+  Pr55  1  0.66796021  0.34607239  0.62449764  1
  Pr3+  Pr56  1  0.67052698  0.32027345  0.37456798  1
  Pr3+  Pr57  1  0.50044193  0.81959577  0.37562012  1
  Pr3+  Pr58  1  1.00211495  0.65291169  0.87441947  1
  Pr3+  Pr59  1  0.17035083  0.84375516  0.12447410  1
  Pr3+  Pr60  1  0.83342325  0.84469713  0.62632564  1
  Pr3+  Pr61  1  0.33050935  0.01195280  0.62749939  1
  Pr3+  Pr62  1  -0.00241720  0.67725604  0.62412243  1
  Pr3+  Pr63  1  -0.00111682  0.01290899  0.12093708  1
  Pr3+  Pr64  1  0.66785374  0.65379927  0.87275380  1
  Pr3+  Pr65  1  0.67161356  0.99032999  0.37679055  1
  Pr3+  Pr66  1  0.33441762  0.65318577  0.37545055  1
  Pr3+  Pr67  1  -0.00654472  0.34676190  0.62460140  1
  Pr3+  Pr68  1  1.00090832  0.32240833  0.87673716  1
  Pr3+  Pr69  1  0.17091537  0.84427849  0.62592465  1
  Pr3+  Pr70  1  0.33190150  0.67727905  0.62626715  1
  Pr3+  Pr71  1  0.66454534  0.01364585  0.12373679  1
  Mn3.30+  Mn72  1  0.16694060  -0.00263955  -0.00302605  1
  Mn3.30+  Mn73  1  0.16624528  -0.00118920  0.50009144  1
  Mn3.30+  Mn74  1  0.16656307  0.33213377  0.00151111  1
  Mn3.30+  Mn75  1  0.16487286  0.33275043  0.50042929  1
  Mn3.30+  Mn76  1  0.16611817  0.66690121  -0.00039962  1
  Mn3.30+  Mn77  1  0.16597005  0.66733370  0.49960030  1
  Mn3.30+  Mn78  1  0.49670196  0.00070812  -0.00230491  1
  Mn3.30+  Mn79  1  0.50233363  -0.00047158  0.50163661  1
  Mn3.30+  Mn80  1  0.50176321  0.33418993  -0.00085897  1
  Mn3.30+  Mn81  1  0.50095297  0.33291988  0.50068292  1
  Mn3.30+  Mn82  1  0.49943699  0.66733567  -0.00048193  1
  Mn3.30+  Mn83  1  0.50456264  0.66647262  0.49959872  1
  Mn3.30+  Mn84  1  0.83463806  0.00103693  -0.00352974  1
  Mn3.30+  Mn85  1  0.83310444  0.00175393  0.50305539  1
  Mn3.30+  Mn86  1  0.83314330  0.33682852  0.00290722  1
  Mn3.30+  Mn87  1  0.83310236  0.33291008  0.50089426  1
  Mn3.30+  Mn88  1  0.83328989  0.66597378  -0.00035105  1
  Mn3.30+  Mn89  1  0.83010730  0.66674429  0.50199229  1
  Mn3.30+  Mn90  1  0.00013881  0.16765286  0.24567012  1
  Mn3.30+  Mn91  1  -0.00059678  0.16592646  0.75205461  1
  Mn3.30+  Mn92  1  -0.00242266  0.49874734  0.24836932  1
  Mn3.30+  Mn93  1  -0.00232068  0.49956941  0.74903844  1
  Mn3.30+  Mn94  1  0.00142728  0.83371033  0.25082705  1
  Mn3.30+  Mn95  1  0.00262762  0.83323364  0.75098531  1
  Mn3.30+  Mn96  1  0.33056722  0.16675320  0.24851502  1
  Mn3.30+  Mn97  1  0.33506954  0.16421516  0.75261358  1
  Mn3.30+  Mn98  1  0.33362597  0.49830778  0.25064383  1
  Mn3.30+  Mn99  1  0.33290510  0.50039268  0.74933544  1
  Mn3.30+  Mn100  1  0.33312791  0.83227333  0.25090609  1
  Mn3.30+  Mn101  1  0.33481692  0.83398268  0.75282328  1
  Mn3.30+  Mn102  1  0.66734414  0.16832246  0.24912987  1
  Mn3.30+  Mn103  1  0.66578705  0.16648218  0.75086941  1
  Mn3.30+  Mn104  1  0.66775654  0.50108427  0.24957080  1
  Mn3.30+  Mn105  1  0.66847623  0.50095814  0.74769961  1
  Mn3.30+  Mn106  1  0.66740745  0.83294767  0.24926733  1
  Mn3.30+  Mn107  1  0.66496335  0.83387792  0.75066904  1
  Mn3.30+  Mn108  1  0.16639725  -0.00041107  0.24891517  1
  Mn3.30+  Mn109  1  0.16723950  -0.00269316  0.75416267  1
  Mn3.30+  Mn110  1  0.16451820  0.33265086  0.24664596  1
  Mn3.30+  Mn111  1  0.16697811  0.33248709  0.75103964  1
  Mn3.30+  Mn112  1  0.16545393  0.66666053  0.25084162  1
  Mn3.30+  Mn113  1  0.16647763  0.66717185  0.75000628  1
  Mn3.30+  Mn114  1  0.49959046  0.00034637  0.24895795  1
  Mn3.30+  Mn115  1  0.49928114  0.00005322  0.75198241  1
  Mn3.30+  Mn116  1  0.50125880  0.33368780  0.24933485  1
  Mn3.30+  Mn117  1  0.50109134  0.33351357  0.75106096  1
  Mn3.30+  Mn118  1  0.50307983  0.66604327  0.25173295  1
  Mn3.30+  Mn119  1  0.50068452  0.66782944  0.74922636  1
  Mn3.30+  Mn120  1  0.83433028  0.00168063  0.24964040  1
  Mn3.30+  Mn121  1  0.83348040  0.00135848  0.75054669  1
  Mn3.30+  Mn122  1  0.83277039  0.33595925  0.24657547  1
  Mn3.30+  Mn123  1  0.83355871  0.33368426  0.75038241  1
  Mn3.30+  Mn124  1  0.83195995  0.66602144  0.25081825  1
  Mn3.30+  Mn125  1  0.83165086  0.66630793  0.74749167  1
  Mn3.30+  Mn126  1  0.00120155  0.16718955  0.00102029  1
  Mn3.30+  Mn127  1  -0.00154918  0.16574703  0.50104251  1
  Mn3.30+  Mn128  1  -0.00219242  0.49844455  0.00110736  1
  Mn3.30+  Mn129  1  -0.00227506  0.50003532  0.50115293  1
  Mn3.30+  Mn130  1  0.00342125  0.83330071  -0.00222978  1
  Mn3.30+  Mn131  1  0.00062810  0.83369258  0.50030255  1
  Mn3.30+  Mn132  1  0.33234578  0.16568089  -0.00108914  1
  Mn3.30+  Mn133  1  0.33255259  0.16551364  0.50035781  1
  Mn3.30+  Mn134  1  0.33343102  0.49858383  0.00039087  1
  Mn3.30+  Mn135  1  0.33347685  0.50004541  0.49969534  1
  Mn3.30+  Mn136  1  0.33397844  0.83392041  -0.00248190  1
  Mn3.30+  Mn137  1  0.33393527  0.83213696  0.49906806  1
  Mn3.30+  Mn138  1  0.66494966  0.16874200  -0.00228827  1
  Mn3.30+  Mn139  1  0.66791909  0.16581504  0.50309425  1
  Mn3.30+  Mn140  1  0.66837795  0.49905733  0.00109207  1
  Mn3.30+  Mn141  1  0.66786343  0.50325033  0.50138968  1
  Mn3.30+  Mn142  1  0.66576368  0.83390003  -0.00233313  1
  Mn3.30+  Mn143  1  0.66689416  0.83296415  0.50180937  1
  O2-  O144  1  0.02877570  0.15749888  0.12202836  1
  O2-  O145  1  0.02656845  0.16111625  0.62898276  1
  O2-  O146  1  0.02522304  0.49792255  0.12415130  1
  O2-  O147  1  0.02013249  0.49570292  0.62496703  1
  O2-  O148  1  0.02561551  0.82666564  0.12300032  1
  O2-  O149  1  0.02694145  0.82679212  0.62608433  1
  O2-  O150  1  0.35960541  0.16142159  0.12493119  1
  O2-  O151  1  0.35926324  0.15953117  0.62781076  1
  O2-  O152  1  0.35786931  0.49943513  0.12735697  1
  O2-  O153  1  0.35245810  0.49591278  0.62342347  1
  O2-  O154  1  0.35877092  0.82662125  0.12550649  1
  O2-  O155  1  0.35997976  0.82728803  0.62484296  1
  O2-  O156  1  0.69137038  0.15886368  0.12189597  1
  O2-  O157  1  0.69178361  0.16079531  0.62686107  1
  O2-  O158  1  0.69178376  0.49682851  0.12628090  1
  O2-  O159  1  0.69515433  0.49284436  0.62346145  1
  O2-  O160  1  0.69412138  0.82700554  0.12156034  1
  O2-  O161  1  0.69093142  0.82316117  0.62582228  1
  O2-  O162  1  0.13979953  0.32933600  0.12261330  1
  O2-  O163  1  0.14006928  0.32567650  0.62599516  1
  O2-  O164  1  0.14085229  0.66093739  0.12511018  1
  O2-  O165  1  0.14284105  0.66793503  0.62473721  1
  O2-  O166  1  0.14066933  0.98827085  0.12400338  1
  O2-  O167  1  0.14105380  0.99270100  0.62794795  1
  O2-  O168  1  0.48015965  0.33132307  0.12474006  1
  O2-  O169  1  0.47457845  0.32567948  0.62550066  1
  O2-  O170  1  0.47600670  0.66067750  0.12694360  1
  O2-  O171  1  0.47583919  0.67016494  0.62355066  1
  O2-  O172  1  0.47289447  0.99360425  0.12279774  1
  O2-  O173  1  0.47345633  0.99440529  0.62671659  1
  O2-  O174  1  0.80304594  0.32735891  0.12496752  1
  O2-  O175  1  0.81137693  0.32251720  0.62604719  1
  O2-  O176  1  0.81110330  0.66546613  0.12685304  1
  O2-  O177  1  0.80595402  0.66400431  0.62471721  1
  O2-  O178  1  0.80915927  0.99362649  0.12039164  1
  O2-  O179  1  0.80724897  0.99143572  0.62776939  1
  O2-  O180  1  0.30634867  0.17181563  0.37338302  1
  O2-  O181  1  0.30665544  0.17441049  0.87402740  1
  O2-  O182  1  0.31353331  0.50412256  0.37481074  1
  O2-  O183  1  0.30793836  0.50569627  0.87457468  1
  O2-  O184  1  0.30611956  0.83853059  0.37414101  1
  O2-  O185  1  0.30646782  0.83686003  0.87598551  1
  O2-  O186  1  0.64095692  0.17087382  0.37604959  1
  O2-  O187  1  0.63753110  0.17608108  0.87555923  1
  O2-  O188  1  0.64275890  0.50684923  0.37539489  1
  O2-  O189  1  0.64962314  0.50440915  0.87459009  1
  O2-  O190  1  0.64286638  0.84506118  0.37666334  1
  O2-  O191  1  0.63782707  0.84138032  0.87570246  1
  O2-  O192  1  0.98250008  0.17098189  0.37126112  1
  O2-  O193  1  0.97491713  0.17506593  0.87699570  1
  O2-  O194  1  0.97434798  0.50331117  0.37518414  1
  O2-  O195  1  0.97975388  0.50389992  0.87513607  1
  O2-  O196  1  0.97225455  0.84017475  0.37667871  1
  O2-  O197  1  0.97541333  0.83575670  0.87428253  1
  O2-  O198  1  0.19270463  0.01071398  0.37312638  1
  O2-  O199  1  0.19839057  0.00625704  0.87547772  1
  O2-  O200  1  0.18627908  0.32894773  0.37522248  1
  O2-  O201  1  0.19251481  0.33968935  0.87565535  1
  O2-  O202  1  0.18960379  0.67343635  0.37439726  1
  O2-  O203  1  0.19084226  0.67072377  0.87599892  1
  O2-  O204  1  0.52671806  0.00602014  0.37544090  1
  O2-  O205  1  0.52449281  0.00854099  0.87555266  1
  O2-  O206  1  0.52586217  0.33522060  0.37535301  1
  O2-  O207  1  0.52503358  0.33831162  0.87440429  1
  O2-  O208  1  0.53148625  0.67329900  0.37431092  1
  O2-  O209  1  0.52302293  0.67222284  0.87502870  1
  O2-  O210  1  0.85813743  0.00207901  0.37779164  1
  O2-  O211  1  0.86236676  0.00733191  0.87423822  1
  O2-  O212  1  0.85850506  0.33944975  0.37210521  1
  O2-  O213  1  0.85751901  0.33572808  0.87717047  1
  O2-  O214  1  0.85945258  0.67318710  0.37486314  1
  O2-  O215  1  0.85802840  0.67286052  0.87266943  1
  O2-  O216  1  0.23377718  0.09404452  0.02217267  1
  O2-  O217  1  0.23799273  0.09339472  0.52191687  1
  O2-  O218  1  0.23546726  0.42966653  0.01728015  1
  O2-  O219  1  0.24068412  0.41983112  0.51620940  1
  O2-  O220  1  0.24015154  0.75828398  0.02257951  1
  O2-  O221  1  0.24179397  0.76018357  0.52159973  1
  O2-  O222  1  0.57059188  0.09370898  0.02170467  1
  O2-  O223  1  0.56958727  0.09715617  0.51891458  1
  O2-  O224  1  0.57276453  0.42905735  0.01919618  1
  O2-  O225  1  0.57649990  0.42742440  0.51631769  1
  O2-  O226  1  0.57439724  0.75926273  0.02293424  1
  O2-  O227  1  0.56912823  0.76646275  0.51615330  1
  O2-  O228  1  0.90460875  0.09657608  0.02089381  1
  O2-  O229  1  0.90635082  0.09402315  0.52509605  1
  O2-  O230  1  0.90338425  0.43006920  0.02277589  1
  O2-  O231  1  0.90215518  0.42785229  0.52084925  1
  O2-  O232  1  0.90591908  0.76171371  0.01893765  1
  O2-  O233  1  0.90330620  0.76108130  0.52164736  1
  O2-  O234  1  0.25970007  0.25997060  0.23486712  1
  O2-  O235  1  0.26316625  0.25937403  0.72882187  1
  O2-  O236  1  0.26045987  0.59335839  0.23125952  1
  O2-  O237  1  0.25995773  0.59773446  0.73315145  1
  O2-  O238  1  0.26135713  0.92974050  0.22931796  1
  O2-  O239  1  0.26251537  0.92579644  0.72718868  1
  O2-  O240  1  0.59507370  0.26218262  0.22930618  1
  O2-  O241  1  0.59531121  0.26026425  0.72700457  1
  O2-  O242  1  0.59499358  0.59373304  0.22583926  1
  O2-  O243  1  0.59588206  0.59734459  0.73430036  1
  O2-  O244  1  0.59534110  0.92766479  0.22709491  1
  O2-  O245  1  0.59699320  0.93018650  0.72904102  1
  O2-  O246  1  0.92742857  0.26352577  0.22654286  1
  O2-  O247  1  0.92993552  0.26385334  0.73491607  1
  O2-  O248  1  0.92837266  0.59734606  0.23338758  1
  O2-  O249  1  0.92899710  0.59550875  0.73127026  1
  O2-  O250  1  0.93081214  0.92820686  0.22863536  1
  O2-  O251  1  0.92853197  0.92489187  0.72941635  1
  O2-  O252  1  0.09294095  0.23875571  0.26762578  1
  O2-  O253  1  0.09638221  0.23703117  0.77224884  1
  O2-  O254  1  0.09047477  0.57327718  0.26742050  1
  O2-  O255  1  0.09280774  0.57327606  0.77020729  1
  O2-  O256  1  0.09654981  0.90372902  0.27264373  1
  O2-  O257  1  0.09983835  0.90206739  0.77055673  1
  O2-  O258  1  0.42616369  0.23800777  0.26974513  1
  O2-  O259  1  0.42806376  0.23513497  0.77184040  1
  O2-  O260  1  0.43146663  0.57415740  0.27219651  1
  O2-  O261  1  0.42303688  0.57777845  0.76647816  1
  O2-  O262  1  0.42819007  0.90465132  0.27094822  1
  O2-  O263  1  0.43204464  0.90247104  0.76964391  1
  O2-  O264  1  0.76034028  0.24117469  0.26780007  1
  O2-  O265  1  0.75952159  0.24057454  0.77302386  1
  O2-  O266  1  0.76195681  0.57279155  0.26970372  1
  O2-  O267  1  0.75829721  0.57701236  0.76828993  1
  O2-  O268  1  0.76217952  0.90475616  0.26779199  1
  O2-  O269  1  0.76159508  0.90691452  0.77274130  1
  O2-  O270  1  0.07071992  0.07099004  0.48175940  1
  O2-  O271  1  0.07231872  0.06455932  0.97681776  1
  O2-  O272  1  0.06881632  0.40084413  0.48372165  1
  O2-  O273  1  0.07280892  0.40651701  0.97879699  1
  O2-  O274  1  0.06938217  0.73971893  0.48069537  1
  O2-  O275  1  0.06990034  0.73524430  0.98190327  1
  O2-  O276  1  0.40441609  0.07150260  0.47906138  1
  O2-  O277  1  0.40004244  0.06755325  0.98120301  1
  O2-  O278  1  0.40745367  0.40489447  0.48008626  1
  O2-  O279  1  0.40581411  0.40418038  0.98136618  1
  O2-  O280  1  0.40730392  0.73797169  0.47610995  1
  O2-  O281  1  0.40280123  0.73879239  0.98326808  1
  O2-  O282  1  0.73620583  0.07201813  0.48279141  1
  O2-  O283  1  0.73649281  0.07425268  0.97651225  1
  O2-  O284  1  0.73876321  0.40646956  0.47842864  1
  O2-  O285  1  0.73683812  0.40407924  0.98195765  1
  O2-  O286  1  0.73948397  0.74089014  0.47560044  1
  O2-  O287  1  0.73834850  0.74186327  0.97691712  1
  O2-  O288  1  0.09488974  0.23564381  0.48279514  1
  O2-  O289  1  0.09392441  0.23967378  0.97633830  1
  O2-  O290  1  0.08922181  0.57630631  0.48187232  1
  O2-  O291  1  0.09523982  0.57185626  0.98045384  1
  O2-  O292  1  0.09702750  0.90567563  0.47775103  1
  O2-  O293  1  0.10009647  0.89924472  0.97961209  1
  O2-  O294  1  0.42528301  0.23790042  0.47897486  1
  O2-  O295  1  0.43060395  0.23781317  0.98052954  1
  O2-  O296  1  0.43136164  0.57569954  0.47779026  1
  O2-  O297  1  0.42372746  0.57538113  0.98325197  1
  O2-  O298  1  0.42849194  0.90486753  0.47847706  1
  O2-  O299  1  0.43171116  0.90166166  0.98053787  1
  O2-  O300  1  0.75665016  0.24357181  0.48116365  1
  O2-  O301  1  0.76241276  0.23889344  0.97917432  1
  O2-  O302  1  0.76286902  0.57261285  0.47861817  1
  O2-  O303  1  0.75679539  0.57819710  0.98391967  1
  O2-  O304  1  0.76255537  0.90501490  0.48171237  1
  O2-  O305  1  0.76120496  0.90672768  0.97679351  1
  O2-  O306  1  0.07185262  0.06891214  0.26883844  1
  O2-  O307  1  0.07155637  0.06859288  0.77323520  1
  O2-  O308  1  0.06815727  0.40365849  0.26609307  1
  O2-  O309  1  0.07071626  0.40531937  0.76970147  1
  O2-  O310  1  0.06903476  0.73887524  0.26864495  1
  O2-  O311  1  0.07122187  0.73628756  0.76888243  1
  O2-  O312  1  0.40273204  0.07211089  0.27125583  1
  O2-  O313  1  0.40093101  0.06693892  0.76898654  1
  O2-  O314  1  0.40802276  0.40556191  0.27366228  1
  O2-  O315  1  0.40487371  0.40256161  0.76542528  1
  O2-  O316  1  0.40825907  0.73723518  0.27210740  1
  O2-  O317  1  0.40294400  0.73897693  0.76916571  1
  O2-  O318  1  0.73591365  0.07039191  0.26543906  1
  O2-  O319  1  0.73771845  0.07571689  0.77533659  1
  O2-  O320  1  0.73785209  0.40757926  0.27388383  1
  O2-  O321  1  0.73840419  0.40228816  0.76545595  1
  O2-  O322  1  0.73825868  0.73782668  0.27102167  1
  O2-  O323  1  0.73946699  0.74377084  0.77422812  1
  O2-  O324  1  0.23633315  0.09528684  0.22553581  1
  O2-  O325  1  0.23699915  0.09364252  0.72950121  1
  O2-  O326  1  0.23500688  0.42506492  0.23268705  1
  O2-  O327  1  0.23994976  0.42491802  0.73270699  1
  O2-  O328  1  0.24157234  0.75847876  0.22737406  1
  O2-  O329  1  0.24081815  0.76058213  0.72931875  1
  O2-  O330  1  0.57011956  0.09598134  0.22892568  1
  O2-  O331  1  0.57054810  0.09408461  0.73147185  1
  O2-  O332  1  0.57149706  0.43212192  0.23435245  1
  O2-  O333  1  0.57900061  0.42509351  0.72934276  1
  O2-  O334  1  0.57205498  0.76202840  0.22770252  1
  O2-  O335  1  0.57132112  0.76264296  0.73296494  1
  O2-  O336  1  0.90799900  0.09543025  0.22548321  1
  O2-  O337  1  0.90379571  0.09590104  0.72844742  1
  O2-  O338  1  0.90073063  0.43232869  0.22945638  1
  O2-  O339  1  0.90502263  0.42710299  0.72732041  1
  O2-  O340  1  0.90475744  0.76288706  0.23011092  1
  O2-  O341  1  0.90543627  0.75996912  0.72849196  1
  O2-  O342  1  0.26010754  0.26033656  0.01437495  1
  O2-  O343  1  0.26070023  0.25894667  0.52174911  1
  O2-  O344  1  0.25846575  0.59423842  0.02120460  1
  O2-  O345  1  0.26355461  0.59685223  0.51479509  1
  O2-  O346  1  0.26217446  0.92601845  0.02353194  1
  O2-  O347  1  0.26241205  0.92828167  0.52029975  1
  O2-  O348  1  0.59638724  0.26322243  0.02227249  1
  O2-  O349  1  0.59397746  0.25958883  0.52167223  1
  O2-  O350  1  0.59374774  0.59286372  0.01918870  1
  O2-  O351  1  0.59818396  0.59844885  0.52105184  1
  O2-  O352  1  0.59525432  0.92856249  0.02106683  1
  O2-  O353  1  0.59712670  0.92903963  0.52372290  1
  O2-  O354  1  0.92568349  0.26586795  0.02330694  1
  O2-  O355  1  0.93058950  0.26191377  0.51517330  1
  O2-  O356  1  0.93066075  0.59570831  0.01667673  1
  O2-  O357  1  0.92552565  0.59782325  0.51820930  1
  O2-  O358  1  0.93000462  0.92508252  0.01942655  1
  O2-  O359  1  0.92998385  0.92762845  0.52309748  1
