# generated using pymatgen
data_Sr7Ca15Pr50Mn72O216
_symmetry_space_group_name_H-M   'P 1'
_cell_length_a   16.55496490
_cell_length_b   16.59740393
_cell_length_c   15.58871848
_cell_angle_alpha   89.99602980
_cell_angle_beta   89.99755777
_cell_angle_gamma   90.00464391
_symmetry_Int_Tables_number   1
_chemical_formula_structural   Sr7Ca15Pr50Mn72O216
_chemical_formula_sum   'Sr7 Ca15 Pr50 Mn72 O216'
_cell_volume   4283.30341046
_cell_formula_units_Z   1
loop_
 _symmetry_equiv_pos_site_id
 _symmetry_equiv_pos_as_xyz
  1  'x, y, z'
loop_
 _atom_type_symbol
 _atom_type_oxidation_number
  Sr2+  2.0
  Ca2+  2.0
  Pr3+  3.0
  Mn3.30+  3.3
  O2-  -2.0
loop_
 _atom_site_type_symbol
 _atom_site_label
 _atom_site_symmetry_multiplicity
 _atom_site_fract_x
 _atom_site_fract_y
 _atom_site_fract_z
 _atom_site_occupancy
  Sr2+  Sr0  1  0.50354149  0.50845043  0.12740118  1
  Sr2+  Sr1  1  0.16698948  0.84489529  0.12603790  1
  Sr2+  Sr2  1  0.16813059  0.84744002  0.62404526  1
  Sr2+  Sr3  1  0.33538597  0.65722792  0.37526903  1
  Sr2+  Sr4  1  0.16332871  0.15504303  0.87524504  1
  Sr2+  Sr5  1  -0.00055725  0.00822360  0.12674140  1
  Sr2+  Sr6  1  -0.00094122  0.00903012  0.62326944  1
  Ca2+  Ca7  1  0.83546629  0.51179293  0.12360614  1
  Ca2+  Ca8  1  0.33617543  0.98587541  0.37715744  1
  Ca2+  Ca9  1  0.82846055  0.48611370  0.37543858  1
  Ca2+  Ca10  1  1.00488416  0.98998292  0.87471722  1
  Ca2+  Ca11  1  1.00192362  0.65121242  0.87499153  1
  Ca2+  Ca12  1  0.67202853  0.32031840  0.87635528  1
  Ca2+  Ca13  1  0.49959813  0.48793121  0.37380363  1
  Ca2+  Ca14  1  0.83631048  0.51219689  0.62639072  1
  Ca2+  Ca15  1  0.66640748  0.34852065  0.62518393  1
  Ca2+  Ca16  1  0.32621590  0.01434530  0.62160243  1
  Ca2+  Ca17  1  1.00295056  0.98723532  0.37493553  1
  Ca2+  Ca18  1  0.82775587  0.48175189  0.87461890  1
  Ca2+  Ca19  1  0.49406394  0.15009180  0.37555946  1
  Ca2+  Ca20  1  0.66483170  0.35084510  0.12499148  1
  Ca2+  Ca21  1  0.83207354  0.15166493  0.37519637  1
  Pr3+  Pr22  1  0.33108472  0.34562136  0.62471824  1
  Pr3+  Pr23  1  0.83123149  0.15482329  0.87523522  1
  Pr3+  Pr24  1  0.67315911  0.65021148  0.87504499  1
  Pr3+  Pr25  1  0.66934325  0.32151615  0.37457678  1
  Pr3+  Pr26  1  0.15874117  0.82423590  0.87472906  1
  Pr3+  Pr27  1  0.16017782  0.48695604  0.87488781  1
  Pr3+  Pr28  1  0.33438264  0.65571072  0.87421118  1
  Pr3+  Pr29  1  0.67110741  0.65003704  0.37504847  1
  Pr3+  Pr30  1  -0.00385488  0.68003524  0.62643680  1
  Pr3+  Pr31  1  0.32789277  0.01253841  0.12807335  1
  Pr3+  Pr32  1  0.16796051  0.17362072  0.62558580  1
  Pr3+  Pr33  1  0.16520746  0.82366419  0.37522682  1
  Pr3+  Pr34  1  -0.00506183  0.34554744  0.62587368  1
  Pr3+  Pr35  1  0.33228702  0.34719718  0.12513762  1
  Pr3+  Pr36  1  0.50167738  0.84529874  0.12613343  1
  Pr3+  Pr37  1  -0.00454646  0.34607393  0.12412565  1
  Pr3+  Pr38  1  0.83816845  0.84658709  0.62405653  1
  Pr3+  Pr39  1  0.16705025  0.17578741  0.12493704  1
  Pr3+  Pr40  1  0.16496368  0.15199833  0.37494161  1
  Pr3+  Pr41  1  0.50125531  0.48544013  0.87545692  1
  Pr3+  Pr42  1  0.50405161  0.18109579  0.62171330  1
  Pr3+  Pr43  1  0.66737374  0.67733712  0.62564195  1
  Pr3+  Pr44  1  0.33629403  0.31995892  0.87476961  1
  Pr3+  Pr45  1  0.83529050  0.82164498  0.87488229  1
  Pr3+  Pr46  1  0.50053684  0.84725713  0.62372786  1
  Pr3+  Pr47  1  0.16807798  0.51267173  0.62552780  1
  Pr3+  Pr48  1  0.99912058  0.32045429  0.87526012  1
  Pr3+  Pr49  1  0.83733553  0.84531193  0.12584926  1
  Pr3+  Pr50  1  0.16367841  0.48710765  0.37513722  1
  Pr3+  Pr51  1  0.83666124  0.17995277  0.62230447  1
  Pr3+  Pr52  1  0.99891475  0.32118065  0.37500577  1
  Pr3+  Pr53  1  0.16934913  0.51308090  0.12451203  1
  Pr3+  Pr54  1  0.33069754  0.67975208  0.12555872  1
  Pr3+  Pr55  1  0.66584811  0.67532743  0.12467073  1
  Pr3+  Pr56  1  0.66719077  0.98830244  0.37531457  1
  Pr3+  Pr57  1  0.49926251  0.15654689  0.87435943  1
  Pr3+  Pr58  1  0.66449640  0.01329278  0.62339866  1
  Pr3+  Pr59  1  0.50454903  0.51125277  0.62331220  1
  Pr3+  Pr60  1  0.66984625  0.98791440  0.87457953  1
  Pr3+  Pr61  1  0.66322133  0.01331748  0.12623951  1
  Pr3+  Pr62  1  0.49483419  0.82102861  0.37507675  1
  Pr3+  Pr63  1  0.49667512  0.82069347  0.87469601  1
  Pr3+  Pr64  1  -0.00369844  0.67905888  0.12381598  1
  Pr3+  Pr65  1  0.83500126  0.18028521  0.12802370  1
  Pr3+  Pr66  1  0.50691390  0.18311217  0.12772960  1
  Pr3+  Pr67  1  0.83341753  0.82244795  0.37517827  1
  Pr3+  Pr68  1  0.33193424  0.98937055  0.87310852  1
  Pr3+  Pr69  1  0.34132070  0.32214304  0.37525413  1
  Pr3+  Pr70  1  1.00301793  0.65306138  0.37508246  1
  Pr3+  Pr71  1  0.32947863  0.68029171  0.62378782  1
  Mn3.30+  Mn72  1  0.16484130  0.00074504  0.00073863  1
  Mn3.30+  Mn73  1  0.16811065  0.00054949  0.49860092  1
  Mn3.30+  Mn74  1  0.16546947  0.33226080  0.00033818  1
  Mn3.30+  Mn75  1  0.16700061  0.33207305  0.49978329  1
  Mn3.30+  Mn76  1  0.16422506  0.66753755  -0.00144300  1
  Mn3.30+  Mn77  1  0.16642155  0.66686220  0.49978532  1
  Mn3.30+  Mn78  1  0.49915471  0.00116694  -0.00016741  1
  Mn3.30+  Mn79  1  0.49591686  0.00221324  0.50027351  1
  Mn3.30+  Mn80  1  0.50503705  0.33415830  -0.00028082  1
  Mn3.30+  Mn81  1  0.50326273  0.33431361  0.49975507  1
  Mn3.30+  Mn82  1  0.50116292  0.66527991  -0.00026205  1
  Mn3.30+  Mn83  1  0.50034395  0.66549689  0.49951930  1
  Mn3.30+  Mn84  1  0.83475090  0.00028200  0.00007767  1
  Mn3.30+  Mn85  1  0.83398619  0.00150672  0.49699941  1
  Mn3.30+  Mn86  1  0.82978143  0.33517406  0.00145048  1
  Mn3.30+  Mn87  1  0.83153516  0.33506937  0.49930949  1
  Mn3.30+  Mn88  1  0.83487633  0.66251234  -0.00206136  1
  Mn3.30+  Mn89  1  0.83374160  0.66329782  0.50002155  1
  Mn3.30+  Mn90  1  -0.00151086  0.16501116  0.25201699  1
  Mn3.30+  Mn91  1  -0.00033140  0.16494269  0.74939500  1
  Mn3.30+  Mn92  1  -0.00368359  0.49883676  0.24989803  1
  Mn3.30+  Mn93  1  -0.00451021  0.50037546  0.75180671  1
  Mn3.30+  Mn94  1  -0.00033820  0.83427890  0.25063766  1
  Mn3.30+  Mn95  1  -0.00048618  0.83520180  0.75030521  1
  Mn3.30+  Mn96  1  0.33648379  0.16681951  0.25154392  1
  Mn3.30+  Mn97  1  0.33447291  0.16535809  0.74883139  1
  Mn3.30+  Mn98  1  0.33553699  0.50107658  0.25111080  1
  Mn3.30+  Mn99  1  0.33337155  0.49996652  0.75062651  1
  Mn3.30+  Mn100  1  0.33320272  0.83464727  0.25076242  1
  Mn3.30+  Mn101  1  0.33065178  0.83570156  0.74930974  1
  Mn3.30+  Mn102  1  0.66723458  0.16801080  0.25348102  1
  Mn3.30+  Mn103  1  0.66734344  0.16995595  0.74822918  1
  Mn3.30+  Mn104  1  0.66853982  0.49826445  0.25020862  1
  Mn3.30+  Mn105  1  0.67074563  0.49670489  0.74907422  1
  Mn3.30+  Mn106  1  0.66634075  0.83227217  0.25032832  1
  Mn3.30+  Mn107  1  0.66703351  0.83296788  0.74975848  1
  Mn3.30+  Mn108  1  0.16660178  -0.00004060  0.25225007  1
  Mn3.30+  Mn109  1  0.16595926  0.00116776  0.74862989  1
  Mn3.30+  Mn110  1  0.16740772  0.33281093  0.25049015  1
  Mn3.30+  Mn111  1  0.16498304  0.33176717  0.74938744  1
  Mn3.30+  Mn112  1  0.16663671  0.66658001  0.25062806  1
  Mn3.30+  Mn113  1  0.16413977  0.66770236  0.75105131  1
  Mn3.30+  Mn114  1  0.49710254  0.00178419  0.25168093  1
  Mn3.30+  Mn115  1  0.49846785  0.00156111  0.74784601  1
  Mn3.30+  Mn116  1  0.50387324  0.33493458  0.25111395  1
  Mn3.30+  Mn117  1  0.50420113  0.33335576  0.74940553  1
  Mn3.30+  Mn118  1  0.50046514  0.66423485  0.25042275  1
  Mn3.30+  Mn119  1  0.50102358  0.66616135  0.75014582  1
  Mn3.30+  Mn120  1  0.83353920  0.00121724  0.25210926  1
  Mn3.30+  Mn121  1  0.83486611  0.00075767  0.75052676  1
  Mn3.30+  Mn122  1  0.83146471  0.33546005  0.25030595  1
  Mn3.30+  Mn123  1  0.82976912  0.33474843  0.74915447  1
  Mn3.30+  Mn124  1  0.83334349  0.66289061  0.25025516  1
  Mn3.30+  Mn125  1  0.83522092  0.66306370  0.75189810  1
  Mn3.30+  Mn126  1  -0.00090210  0.16477395  0.00131051  1
  Mn3.30+  Mn127  1  -0.00082718  0.16464786  0.49718348  1
  Mn3.30+  Mn128  1  -0.00430152  0.50046104  -0.00162345  1
  Mn3.30+  Mn129  1  -0.00384758  0.49877924  0.50005106  1
  Mn3.30+  Mn130  1  -0.00074824  0.83444312  -0.00043501  1
  Mn3.30+  Mn131  1  0.00029613  0.83483984  0.49928906  1
  Mn3.30+  Mn132  1  0.33536342  0.16675395  0.00059293  1
  Mn3.30+  Mn133  1  0.33557891  0.16530444  0.49903169  1
  Mn3.30+  Mn134  1  0.33342925  0.50067134  -0.00062058  1
  Mn3.30+  Mn135  1  0.33552373  0.50034513  0.49878269  1
  Mn3.30+  Mn136  1  0.33133421  0.83448994  -0.00088814  1
  Mn3.30+  Mn137  1  0.33259504  0.83641655  0.50060769  1
  Mn3.30+  Mn138  1  0.66751661  0.16967611  0.00054587  1
  Mn3.30+  Mn139  1  0.66710297  0.16836058  0.49737376  1
  Mn3.30+  Mn140  1  0.67027866  0.49738463  0.00060700  1
  Mn3.30+  Mn141  1  0.66920544  0.49795584  0.50098614  1
  Mn3.30+  Mn142  1  0.66714563  0.83237865  -0.00029413  1
  Mn3.30+  Mn143  1  0.66614218  0.83270174  0.50007353  1
  O2-  O144  1  0.02262189  0.16594640  0.12775724  1
  O2-  O145  1  0.02268054  0.16639881  0.62077714  1
  O2-  O146  1  0.02628549  0.49435137  0.12456448  1
  O2-  O147  1  0.02546404  0.49378965  0.62536704  1
  O2-  O148  1  0.01715943  0.82675634  0.12529995  1
  O2-  O149  1  0.01753016  0.82785032  0.62441952  1
  O2-  O150  1  0.36239272  0.15938034  0.12606127  1
  O2-  O151  1  0.35973498  0.15966251  0.62456300  1
  O2-  O152  1  0.35274347  0.49631210  0.12374440  1
  O2-  O153  1  0.35895725  0.49466360  0.62620766  1
  O2-  O154  1  0.35774501  0.82889367  0.12352861  1
  O2-  O155  1  0.35774351  0.82641020  0.62600791  1
  O2-  O156  1  0.69171952  0.15809180  0.12857699  1
  O2-  O157  1  0.69348062  0.15830054  0.62286490  1
  O2-  O158  1  0.69342371  0.49727646  0.12404769  1
  O2-  O159  1  0.69475647  0.49506792  0.62620688  1
  O2-  O160  1  0.69262197  0.82685518  0.12515692  1
  O2-  O161  1  0.69363979  0.82833684  0.62507771  1
  O2-  O162  1  0.14169794  0.32706053  0.12584060  1
  O2-  O163  1  0.14079766  0.32585133  0.62339981  1
  O2-  O164  1  0.14128542  0.66127169  0.12464002  1
  O2-  O165  1  0.14121845  0.66093239  0.62609137  1
  O2-  O166  1  0.14977371  1.00458573  0.12795870  1
  O2-  O167  1  0.14808275  1.00707660  0.62297767  1
  O2-  O168  1  0.47582152  0.32971521  0.12360347  1
  O2-  O169  1  0.47443085  0.32992615  0.62462349  1
  O2-  O170  1  0.47533502  0.66397190  0.12212296  1
  O2-  O171  1  0.47432569  0.65917454  0.62642685  1
  O2-  O172  1  0.47281836  0.99476219  0.12635534  1
  O2-  O173  1  0.46990718  0.99520889  0.62513838  1
  O2-  O174  1  0.80504750  0.32483410  0.12657277  1
  O2-  O175  1  0.80712120  0.32398558  0.62364395  1
  O2-  O176  1  0.80906000  0.65916192  0.12451598  1
  O2-  O177  1  0.81023891  0.66004686  0.62571343  1
  O2-  O178  1  0.80620131  0.99385344  0.12566071  1
  O2-  O179  1  0.80818339  0.99518218  0.62228729  1
  O2-  O180  1  0.30885452  0.17799394  0.37460361  1
  O2-  O181  1  0.31489499  0.17302259  0.87497697  1
  O2-  O182  1  0.30770254  0.49981096  0.37535823  1
  O2-  O183  1  0.30496344  0.50562017  0.87449852  1
  O2-  O184  1  0.31073026  0.83883630  0.37597943  1
  O2-  O185  1  0.30532860  0.83977378  0.87405076  1
  O2-  O186  1  0.63585079  0.17331256  0.37525318  1
  O2-  O187  1  0.64253988  0.17311940  0.87245521  1
  O2-  O188  1  0.64134475  0.50433978  0.37712304  1
  O2-  O189  1  0.64276166  0.50579352  0.87318293  1
  O2-  O190  1  0.63910218  0.83806989  0.37530577  1
  O2-  O191  1  0.64038244  0.83882182  0.87430283  1
  O2-  O192  1  0.97335557  0.17571977  0.37428079  1
  O2-  O193  1  0.97439779  0.17380866  0.87711318  1
  O2-  O194  1  0.97200794  0.50506707  0.37516089  1
  O2-  O195  1  0.97051641  0.50554015  0.87501328  1
  O2-  O196  1  0.97733154  0.83526416  0.37494752  1
  O2-  O197  1  0.97776395  0.84408820  0.87514061  1
  O2-  O198  1  0.19542189  0.00428958  0.37494854  1
  O2-  O199  1  0.18845379  -0.00220992  0.87431820  1
  O2-  O200  1  0.19494230  0.33970059  0.37549414  1
  O2-  O201  1  0.19132067  0.33883433  0.87518637  1
  O2-  O202  1  0.18468089  0.67050226  0.37527492  1
  O2-  O203  1  0.19073801  0.67259148  0.87397982  1
  O2-  O204  1  0.52436875  0.00319191  0.37545980  1
  O2-  O205  1  0.52680679  0.00671066  0.87285205  1
  O2-  O206  1  0.52426489  0.34285966  0.37797343  1
  O2-  O207  1  0.52754557  0.33573940  0.87426425  1
  O2-  O208  1  0.52703693  0.67522897  0.37697612  1
  O2-  O209  1  0.52753684  0.67345752  0.87435281  1
  O2-  O210  1  0.85802179  0.00333517  0.37451592  1
  O2-  O211  1  0.85933013  0.00651026  0.87728980  1
  O2-  O212  1  0.85842748  0.34523974  0.37484730  1
  O2-  O213  1  0.85672692  0.33609017  0.87525162  1
  O2-  O214  1  0.85965242  0.67443842  0.37530747  1
  O2-  O215  1  0.86186898  0.67552163  0.87457199  1
  O2-  O216  1  0.24206690  0.09510426  0.02008425  1
  O2-  O217  1  0.23624604  0.09904938  0.51481191  1
  O2-  O218  1  0.23816701  0.42706060  0.01964910  1
  O2-  O219  1  0.23797720  0.42704692  0.52172084  1
  O2-  O220  1  0.24158446  0.76011447  0.01749396  1
  O2-  O221  1  0.24255613  0.76036018  0.51669038  1
  O2-  O222  1  0.57275480  0.09751090  0.01980063  1
  O2-  O223  1  0.57080282  0.09265359  0.52193276  1
  O2-  O224  1  0.57179747  0.42980160  0.01328730  1
  O2-  O225  1  0.57322904  0.42870229  0.52242486  1
  O2-  O226  1  0.57235619  0.76094218  0.02044173  1
  O2-  O227  1  0.57366279  0.75993323  0.52363978  1
  O2-  O228  1  0.90134222  0.09779531  0.01952708  1
  O2-  O229  1  0.90322311  0.09643581  0.51662796  1
  O2-  O230  1  0.90411960  0.42637431  0.02320223  1
  O2-  O231  1  0.90524629  0.42782801  0.52544134  1
  O2-  O232  1  0.90360279  0.75996105  0.01916883  1
  O2-  O233  1  0.90336241  0.75876808  0.51934404  1
  O2-  O234  1  0.26507502  0.26033325  0.22742888  1
  O2-  O235  1  0.26416064  0.25808633  0.72920168  1
  O2-  O236  1  0.25939624  0.59302766  0.22850208  1
  O2-  O237  1  0.26194972  0.59392356  0.72980956  1
  O2-  O238  1  0.26267507  0.92900655  0.23309824  1
  O2-  O239  1  0.26511796  0.93224514  0.73219794  1
  O2-  O240  1  0.59851694  0.26253470  0.22862315  1
  O2-  O241  1  0.59593021  0.26002730  0.72311206  1
  O2-  O242  1  0.60077795  0.59618848  0.23378028  1
  O2-  O243  1  0.59807948  0.59327840  0.72955104  1
  O2-  O244  1  0.59207976  0.92844486  0.22919609  1
  O2-  O245  1  0.59114410  0.92981710  0.72780626  1
  O2-  O246  1  0.92654324  0.26457705  0.23085006  1
  O2-  O247  1  0.92671893  0.26197555  0.73085063  1
  O2-  O248  1  0.93163504  0.59712330  0.23223687  1
  O2-  O249  1  0.92985728  0.59520466  0.72851587  1
  O2-  O250  1  0.92099225  0.92319833  0.23320934  1
  O2-  O251  1  0.92281944  0.92430512  0.73087105  1
  O2-  O252  1  0.09686367  0.24009337  0.27112455  1
  O2-  O253  1  0.09062913  0.24105918  0.76743947  1
  O2-  O254  1  0.09290161  0.56950377  0.26985366  1
  O2-  O255  1  0.09466223  0.56959433  0.76855329  1
  O2-  O256  1  0.09546581  0.90707204  0.27026442  1
  O2-  O257  1  0.09518845  0.90601872  0.76525489  1
  O2-  O258  1  0.43176645  0.23730583  0.27033289  1
  O2-  O259  1  0.42962572  0.23996090  0.76842330  1
  O2-  O260  1  0.43069079  0.57195669  0.27026034  1
  O2-  O261  1  0.42888185  0.57330625  0.77286857  1
  O2-  O262  1  0.43034290  0.90363157  0.26721669  1
  O2-  O263  1  0.42764241  0.90487170  0.77199355  1
  O2-  O264  1  0.76314404  0.23730429  0.27495727  1
  O2-  O265  1  0.76413235  0.23613741  0.76757400  1
  O2-  O266  1  0.76243583  0.57111364  0.27390836  1
  O2-  O267  1  0.76289133  0.57023867  0.77313219  1
  O2-  O268  1  0.75880136  0.90538586  0.27145916  1
  O2-  O269  1  0.76009803  0.90616176  0.77110847  1
  O2-  O270  1  0.07294346  0.07298304  0.47457073  1
  O2-  O271  1  0.07018701  0.07193418  0.98283799  1
  O2-  O272  1  0.07034891  0.40602115  0.47876803  1
  O2-  O273  1  0.06764147  0.40797380  0.97858805  1
  O2-  O274  1  0.07253208  0.73942905  0.48089620  1
  O2-  O275  1  0.07023882  0.73867498  0.97818340  1
  O2-  O276  1  0.40331122  0.07119871  0.47728254  1
  O2-  O277  1  0.40631127  0.07266227  0.97832777  1
  O2-  O278  1  0.40398541  0.40260819  0.48502308  1
  O2-  O279  1  0.40618152  0.40494022  0.97805119  1
  O2-  O280  1  0.40871150  0.74181475  0.48462531  1
  O2-  O281  1  0.40474126  0.74106314  0.97800844  1
  O2-  O282  1  0.73527401  0.07066762  0.47983361  1
  O2-  O283  1  0.73720201  0.07147783  0.97996634  1
  O2-  O284  1  0.73690512  0.40387885  0.47991889  1
  O2-  O285  1  0.73655409  0.40256491  0.97936334  1
  O2-  O286  1  0.74069649  0.73654699  0.47996101  1
  O2-  O287  1  0.74188207  0.73565334  0.97908443  1
  O2-  O288  1  0.09508356  0.23884429  0.47758076  1
  O2-  O289  1  0.09021153  0.24101702  0.98385206  1
  O2-  O290  1  0.09285424  0.56957439  0.48064653  1
  O2-  O291  1  0.09453230  0.56951066  0.98109585  1
  O2-  O292  1  0.09674440  0.90751764  0.48002156  1
  O2-  O293  1  0.09352856  0.90468141  0.98456141  1
  O2-  O294  1  0.43129217  0.23758602  0.48061967  1
  O2-  O295  1  0.43061069  0.23958377  0.98084542  1
  O2-  O296  1  0.43261986  0.56934411  0.48257533  1
  O2-  O297  1  0.42632806  0.57458652  0.97435938  1
  O2-  O298  1  0.43097835  0.90355509  0.48245596  1
  O2-  O299  1  0.42691679  0.90483083  0.97792907  1
  O2-  O300  1  0.76386665  0.23866631  0.47520116  1
  O2-  O301  1  0.76334200  0.23627600  0.98211532  1
  O2-  O302  1  0.76225893  0.57131407  0.47758463  1
  O2-  O303  1  0.76383368  0.57009097  0.97522536  1
  O2-  O304  1  0.75853504  0.90570946  0.47840836  1
  O2-  O305  1  0.75984409  0.90578269  0.97824858  1
  O2-  O306  1  0.07428459  0.07287337  0.27445856  1
  O2-  O307  1  0.07013639  0.07233689  0.76761382  1
  O2-  O308  1  0.06990699  0.40606166  0.27141956  1
  O2-  O309  1  0.06734952  0.40781676  0.77147252  1
  O2-  O310  1  0.07291394  0.73925754  0.26912130  1
  O2-  O311  1  0.06937504  0.73990532  0.77172740  1
  O2-  O312  1  0.40163893  0.06892036  0.27101373  1
  O2-  O313  1  0.40863150  0.07468327  0.77418821  1
  O2-  O314  1  0.40396452  0.40369749  0.26538832  1
  O2-  O315  1  0.40484780  0.40578955  0.77180073  1
  O2-  O316  1  0.40895227  0.74173438  0.26611516  1
  O2-  O317  1  0.40496052  0.74049916  0.77087073  1
  O2-  O318  1  0.73461848  0.06967808  0.26992011  1
  O2-  O319  1  0.73776005  0.07161144  0.76994722  1
  O2-  O320  1  0.73799622  0.40449246  0.27077994  1
  O2-  O321  1  0.73544716  0.40119548  0.77087304  1
  O2-  O322  1  0.74037652  0.73677407  0.27095727  1
  O2-  O323  1  0.74189551  0.73569352  0.77015987  1
  O2-  O324  1  0.23921726  0.09804497  0.23211504  1
  O2-  O325  1  0.24011442  0.09497624  0.73333496  1
  O2-  O326  1  0.23711427  0.42704262  0.22957911  1
  O2-  O327  1  0.23739322  0.42625564  0.72892583  1
  O2-  O328  1  0.24348566  0.75964571  0.23361954  1
  O2-  O329  1  0.24110622  0.75980514  0.73195268  1
  O2-  O330  1  0.57080674  0.09334646  0.22932942  1
  O2-  O331  1  0.57301305  0.09616376  0.72762016  1
  O2-  O332  1  0.57623787  0.42700289  0.23388497  1
  O2-  O333  1  0.56994717  0.43106187  0.73212877  1
  O2-  O334  1  0.57355024  0.76008493  0.22835786  1
  O2-  O335  1  0.57236137  0.76082800  0.72796624  1
  O2-  O336  1  0.90104048  0.09446058  0.23203991  1
  O2-  O337  1  0.90207835  0.09813700  0.73216374  1
  O2-  O338  1  0.90569065  0.42816481  0.22390608  1
  O2-  O339  1  0.90356091  0.42661282  0.72743961  1
  O2-  O340  1  0.90310820  0.75799967  0.23061289  1
  O2-  O341  1  0.90390502  0.76109934  0.73077548  1
  O2-  O342  1  0.26494265  0.25869298  0.02133491  1
  O2-  O343  1  0.26429102  0.25970837  0.52174138  1
  O2-  O344  1  0.26025436  0.59560610  0.01912171  1
  O2-  O345  1  0.25950138  0.59267028  0.52222311  1
  O2-  O346  1  0.26432833  0.93079980  0.01636567  1
  O2-  O347  1  0.26402608  0.93069831  0.51822918  1
  O2-  O348  1  0.59624815  0.26195036  0.02448538  1
  O2-  O349  1  0.59741193  0.26286221  0.52248520  1
  O2-  O350  1  0.60065431  0.59523522  0.01515507  1
  O2-  O351  1  0.59877579  0.59386190  0.52214554  1
  O2-  O352  1  0.59179145  0.92969332  0.02059279  1
  O2-  O353  1  0.59113321  0.92934234  0.52162468  1
  O2-  O354  1  0.92555394  0.26218057  0.02063067  1
  O2-  O355  1  0.92768625  0.26407669  0.51798526  1
  O2-  O356  1  0.92970126  0.59483655  0.02165880  1
  O2-  O357  1  0.93187262  0.59727592  0.51815520  1
  O2-  O358  1  0.92159893  0.92347675  0.02044984  1
  O2-  O359  1  0.92205149  0.92350361  0.51599948  1
