# generated using pymatgen
data_Sr7Ca15Pr50Mn72O216
_symmetry_space_group_name_H-M   'P 1'
_cell_length_a   16.55938343
_cell_length_b   16.60647360
_cell_length_c   15.59179580
_cell_angle_alpha   90.00287614
_cell_angle_beta   89.99270613
_cell_angle_gamma   90.00756013
_symmetry_Int_Tables_number   1
_chemical_formula_structural   Sr7Ca15Pr50Mn72O216
_chemical_formula_sum   'Sr7 Ca15 Pr50 Mn72 O216'
_cell_volume   4287.63405958
_cell_formula_units_Z   1
loop_
 _symmetry_equiv_pos_site_id
 _symmetry_equiv_pos_as_xyz
  1  'x, y, z'
loop_
 _atom_type_symbol
 _atom_type_oxidation_number
  Sr2+  2.0
  Ca2+  2.0
  Pr3+  3.0
  Mn3.30+  3.3
  O2-  -2.0
loop_
 _atom_site_type_symbol
 _atom_site_label
 _atom_site_symmetry_multiplicity
 _atom_site_fract_x
 _atom_site_fract_y
 _atom_site_fract_z
 _atom_site_occupancy
  Sr2+  Sr0  1  0.16734624  0.15794501  0.87552774  1
  Sr2+  Sr1  1  0.16512154  0.50987251  0.62618329  1
  Sr2+  Sr2  1  0.33207443  0.00974614  0.12583489  1
  Sr2+  Sr3  1  1.00229392  0.65708044  0.87355752  1
  Sr2+  Sr4  1  0.66495061  0.67668091  0.12650536  1
  Sr2+  Sr5  1  0.66371612  0.01201883  0.62414648  1
  Sr2+  Sr6  1  0.50236008  0.49258791  0.37508430  1
  Ca2+  Ca7  1  0.16538161  0.81933270  0.37807538  1
  Ca2+  Ca8  1  0.16243062  0.81820626  0.87218101  1
  Ca2+  Ca9  1  0.84203036  0.51662632  0.62747282  1
  Ca2+  Ca10  1  0.32853712  0.01320051  0.62472505  1
  Ca2+  Ca11  1  -0.00132737  0.01458202  0.12481225  1
  Ca2+  Ca12  1  0.83062015  0.48602398  0.87212449  1
  Ca2+  Ca13  1  0.33588085  0.31796794  0.87203706  1
  Ca2+  Ca14  1  0.33527548  0.98288442  0.37676306  1
  Ca2+  Ca15  1  0.33251731  0.65460440  0.87260242  1
  Ca2+  Ca16  1  0.66193600  0.34934554  0.12461373  1
  Ca2+  Ca17  1  0.67029780  0.65210766  0.37534380  1
  Ca2+  Ca18  1  0.50110156  0.17940078  0.62505619  1
  Ca2+  Ca19  1  0.00059346  0.67974102  0.62754392  1
  Ca2+  Ca20  1  0.17054258  0.84687870  0.62514893  1
  Ca2+  Ca21  1  -0.00407086  0.35062071  0.62779549  1
  Pr3+  Pr22  1  0.33157920  0.67770713  0.12500358  1
  Pr3+  Pr23  1  0.82910250  0.81692364  0.37702215  1
  Pr3+  Pr24  1  0.49463526  0.15500827  0.87211717  1
  Pr3+  Pr25  1  0.16576047  0.48990240  0.87210385  1
  Pr3+  Pr26  1  1.00125993  0.32397035  0.87305823  1
  Pr3+  Pr27  1  0.83784468  0.18278322  0.62519317  1
  Pr3+  Pr28  1  1.00352566  0.32153860  0.37691787  1
  Pr3+  Pr29  1  0.66156219  0.01143213  0.12548470  1
  Pr3+  Pr30  1  0.33717285  0.32267122  0.37775879  1
  Pr3+  Pr31  1  0.16887895  0.84558462  0.12423329  1
  Pr3+  Pr32  1  0.83023191  0.15383037  0.37606230  1
  Pr3+  Pr33  1  0.83510270  0.18052534  0.12569937  1
  Pr3+  Pr34  1  0.16938698  0.51309442  0.12363994  1
  Pr3+  Pr35  1  0.33141535  0.34489956  0.62753482  1
  Pr3+  Pr36  1  0.50336575  0.18208471  0.12502185  1
  Pr3+  Pr37  1  0.66578491  0.67778949  0.62339553  1
  Pr3+  Pr38  1  0.49513451  0.48527672  0.87422484  1
  Pr3+  Pr39  1  0.50011302  0.84645900  0.62477603  1
  Pr3+  Pr40  1  -0.00295220  0.68034591  0.12330406  1
  Pr3+  Pr41  1  0.66883491  0.98723042  0.87292415  1
  Pr3+  Pr42  1  0.50202498  0.51112936  0.62411192  1
  Pr3+  Pr43  1  0.50516234  0.51297768  0.12538739  1
  Pr3+  Pr44  1  -0.00152181  0.34553644  0.12292473  1
  Pr3+  Pr45  1  0.82901145  0.49091207  0.37663371  1
  Pr3+  Pr46  1  0.33164697  0.98668277  0.87411322  1
  Pr3+  Pr47  1  0.33402481  0.65513294  0.37636434  1
  Pr3+  Pr48  1  0.16628346  0.15119443  0.37534370  1
  Pr3+  Pr49  1  1.00570105  0.98353427  0.37540032  1
  Pr3+  Pr50  1  0.16871516  0.17647243  0.12400202  1
  Pr3+  Pr51  1  0.83107638  0.15499943  0.87440688  1
  Pr3+  Pr52  1  0.67029730  0.32079701  0.87515188  1
  Pr3+  Pr53  1  0.16351766  0.48808873  0.37734813  1
  Pr3+  Pr54  1  0.66881047  0.32222128  0.37461439  1
  Pr3+  Pr55  1  0.67296806  0.65119923  0.87464166  1
  Pr3+  Pr56  1  0.16948232  0.17758204  0.62639916  1
  Pr3+  Pr57  1  0.66536211  0.34568030  0.62525485  1
  Pr3+  Pr58  1  -0.00025950  0.01170531  0.62496328  1
  Pr3+  Pr59  1  0.50168258  0.84497874  0.12512300  1
  Pr3+  Pr60  1  0.49435722  0.15227820  0.37780055  1
  Pr3+  Pr61  1  1.00332551  0.65398901  0.37716594  1
  Pr3+  Pr62  1  0.66834037  0.98706042  0.37687192  1
  Pr3+  Pr63  1  0.83851728  0.84439512  0.62557347  1
  Pr3+  Pr64  1  0.49724823  0.82173949  0.37584226  1
  Pr3+  Pr65  1  0.83829311  0.84816641  0.12440673  1
  Pr3+  Pr66  1  0.49507738  0.81780791  0.87406743  1
  Pr3+  Pr67  1  0.83306234  0.51337470  0.12194501  1
  Pr3+  Pr68  1  1.00899644  0.98694568  0.87488519  1
  Pr3+  Pr69  1  0.33054530  0.34458238  0.12322062  1
  Pr3+  Pr70  1  0.32589151  0.67896401  0.62568192  1
  Pr3+  Pr71  1  0.83318286  0.82079699  0.87300721  1
  Mn3.30+  Mn72  1  0.16625365  -0.00044914  0.00113506  1
  Mn3.30+  Mn73  1  0.16996244  -0.00371397  0.49974569  1
  Mn3.30+  Mn74  1  0.16745280  0.33313071  -0.00268071  1
  Mn3.30+  Mn75  1  0.16595832  0.33311380  0.50295857  1
  Mn3.30+  Mn76  1  0.16714522  0.66753311  -0.00310553  1
  Mn3.30+  Mn77  1  0.16487305  0.66839453  0.50261325  1
  Mn3.30+  Mn78  1  0.49915185  -0.00013268  -0.00118775  1
  Mn3.30+  Mn79  1  0.49576709  0.00072216  0.50240779  1
  Mn3.30+  Mn80  1  0.49997613  0.33335698  -0.00063037  1
  Mn3.30+  Mn81  1  0.50097379  0.33272211  0.50055892  1
  Mn3.30+  Mn82  1  0.49969247  0.66582979  -0.00186672  1
  Mn3.30+  Mn83  1  0.49954743  0.66652308  0.49994645  1
  Mn3.30+  Mn84  1  0.83497567  0.00094927  -0.00011654  1
  Mn3.30+  Mn85  1  0.83420159  0.00002401  0.50104277  1
  Mn3.30+  Mn86  1  0.83123090  0.33527605  0.00096761  1
  Mn3.30+  Mn87  1  0.83600815  0.33655087  0.50086446  1
  Mn3.30+  Mn88  1  0.83352654  0.66637893  -0.00176068  1
  Mn3.30+  Mn89  1  0.83502211  0.66542790  0.50239910  1
  Mn3.30+  Mn90  1  -0.00020511  0.16530649  0.25014351  1
  Mn3.30+  Mn91  1  0.00109717  0.16834630  0.74969430  1
  Mn3.30+  Mn92  1  -0.00072282  0.50031022  0.24917376  1
  Mn3.30+  Mn93  1  -0.00232478  0.50165581  0.75003813  1
  Mn3.30+  Mn94  1  0.00130544  0.83395740  0.25104631  1
  Mn3.30+  Mn95  1  0.00492044  0.83206569  0.74794642  1
  Mn3.30+  Mn96  1  0.33326642  0.16517029  0.25038072  1
  Mn3.30+  Mn97  1  0.33423498  0.16490315  0.74840961  1
  Mn3.30+  Mn98  1  0.33435071  0.49926710  0.25030777  1
  Mn3.30+  Mn99  1  0.33276197  0.50080004  0.75094974  1
  Mn3.30+  Mn100  1  0.33116705  0.83399286  0.25221544  1
  Mn3.30+  Mn101  1  0.32952669  0.83265586  0.75022352  1
  Mn3.30+  Mn102  1  0.66568060  0.16771913  0.25044780  1
  Mn3.30+  Mn103  1  0.66464988  0.16675825  0.74805802  1
  Mn3.30+  Mn104  1  0.66666095  0.50029649  0.25059312  1
  Mn3.30+  Mn105  1  0.66982954  0.49971660  0.74843502  1
  Mn3.30+  Mn106  1  0.66743752  0.83198288  0.25022270  1
  Mn3.30+  Mn107  1  0.66574342  0.83287630  0.74901428  1
  Mn3.30+  Mn108  1  0.16753263  -0.00283504  0.25132248  1
  Mn3.30+  Mn109  1  0.16872692  -0.00193514  0.74887101  1
  Mn3.30+  Mn110  1  0.16728094  0.33275728  0.25042571  1
  Mn3.30+  Mn111  1  0.16620074  0.33345390  0.74982202  1
  Mn3.30+  Mn112  1  0.16583226  0.66768807  0.25065749  1
  Mn3.30+  Mn113  1  0.16547663  0.66838540  0.74946325  1
  Mn3.30+  Mn114  1  0.49747965  0.00006357  0.25136673  1
  Mn3.30+  Mn115  1  0.49800792  0.00066346  0.74737408  1
  Mn3.30+  Mn116  1  0.50112041  0.33416884  0.25055938  1
  Mn3.30+  Mn117  1  0.49965523  0.33174687  0.74901658  1
  Mn3.30+  Mn118  1  0.50111578  0.66701340  0.25212137  1
  Mn3.30+  Mn119  1  0.49832100  0.66573981  0.74940557  1
  Mn3.30+  Mn120  1  0.83476779  0.00006822  0.25013437  1
  Mn3.30+  Mn121  1  0.83513407  0.00079189  0.74957301  1
  Mn3.30+  Mn122  1  0.83254206  0.33525078  0.24867261  1
  Mn3.30+  Mn123  1  0.83452100  0.33685899  0.74976675  1
  Mn3.30+  Mn124  1  0.83242213  0.66709526  0.24921615  1
  Mn3.30+  Mn125  1  0.83610755  0.66460639  0.74949682  1
  Mn3.30+  Mn126  1  -0.00047013  0.16598402  0.00056560  1
  Mn3.30+  Mn127  1  0.00083735  0.16795524  0.50018797  1
  Mn3.30+  Mn128  1  -0.00044391  0.50111261  -0.00331908  1
  Mn3.30+  Mn129  1  -0.00248066  0.50097512  0.50381484  1
  Mn3.30+  Mn130  1  0.00226243  0.83505776  -0.00049559  1
  Mn3.30+  Mn131  1  0.00375595  0.83157317  0.50154380  1
  Mn3.30+  Mn132  1  0.33374262  0.16609737  -0.00083107  1
  Mn3.30+  Mn133  1  0.33394764  0.16343529  0.50243238  1
  Mn3.30+  Mn134  1  0.33446705  0.49980046  -0.00185742  1
  Mn3.30+  Mn135  1  0.33304868  0.50007416  0.50082593  1
  Mn3.30+  Mn136  1  0.33108337  0.83093215  -0.00254887  1
  Mn3.30+  Mn137  1  0.32995504  0.83520605  0.50042487  1
  Mn3.30+  Mn138  1  0.66598392  0.16768152  0.00018422  1
  Mn3.30+  Mn139  1  0.66436611  0.16696920  0.50153039  1
  Mn3.30+  Mn140  1  0.66653177  0.49861211  -0.00157265  1
  Mn3.30+  Mn141  1  0.66993554  0.50097178  0.50184622  1
  Mn3.30+  Mn142  1  0.66680372  0.83256964  -0.00053487  1
  Mn3.30+  Mn143  1  0.66610687  0.83231713  0.50036841  1
  O2-  O144  1  0.02368087  0.16246828  0.12737040  1
  O2-  O145  1  0.02494725  0.15980871  0.62425807  1
  O2-  O146  1  0.02603279  0.49416928  0.12232062  1
  O2-  O147  1  0.01839857  0.49204190  0.62596894  1
  O2-  O148  1  0.02408214  0.82762657  0.12646001  1
  O2-  O149  1  0.02695410  0.82739278  0.62330160  1
  O2-  O150  1  0.35881118  0.16563995  0.12609842  1
  O2-  O151  1  0.35981686  0.15823690  0.62403207  1
  O2-  O152  1  0.35963487  0.49334747  0.12351254  1
  O2-  O153  1  0.35728580  0.49544974  0.62592660  1
  O2-  O154  1  0.35907388  0.82506193  0.12279337  1
  O2-  O155  1  0.35888910  0.82420607  0.62579597  1
  O2-  O156  1  0.69220996  0.15722242  0.12732611  1
  O2-  O157  1  0.69380343  0.16716536  0.62627302  1
  O2-  O158  1  0.68851868  0.49416233  0.12394093  1
  O2-  O159  1  0.69739719  0.49363278  0.62591622  1
  O2-  O160  1  0.69263259  0.83339063  0.12455471  1
  O2-  O161  1  0.69241799  0.82705142  0.62403426  1
  O2-  O162  1  0.14305357  0.32804178  0.12355215  1
  O2-  O163  1  0.13976115  0.32605223  0.62497671  1
  O2-  O164  1  0.14104174  0.65945064  0.12558473  1
  O2-  O165  1  0.14149255  0.66170180  0.62444900  1
  O2-  O166  1  0.13968411  0.99269268  0.12678326  1
  O2-  O167  1  0.14174444  0.99420364  0.62316152  1
  O2-  O168  1  0.47407380  0.33029906  0.12571627  1
  O2-  O169  1  0.47632395  0.32980489  0.62504876  1
  O2-  O170  1  0.47616782  0.66239847  0.12587434  1
  O2-  O171  1  0.47209495  0.66020372  0.62553615  1
  O2-  O172  1  0.48202016  0.99327004  0.12537921  1
  O2-  O173  1  0.46957624  0.99100069  0.62537136  1
  O2-  O174  1  0.80365810  0.32734103  0.12540575  1
  O2-  O175  1  0.80800458  0.32702796  0.62559818  1
  O2-  O176  1  0.81475256  0.66354988  0.12198680  1
  O2-  O177  1  0.80861466  0.66406594  0.62624431  1
  O2-  O178  1  0.80533195  0.99475156  0.12359742  1
  O2-  O179  1  0.81455209  0.99323116  0.62359419  1
  O2-  O180  1  0.30853635  0.17705943  0.37553085  1
  O2-  O181  1  0.31658414  0.17226520  0.87423635  1
  O2-  O182  1  0.30799766  0.50344284  0.37552815  1
  O2-  O183  1  0.31013677  0.50898469  0.87552458  1
  O2-  O184  1  0.30678043  0.83778355  0.37762395  1
  O2-  O185  1  0.30418624  0.83969668  0.87394424  1
  O2-  O186  1  0.63998128  0.17401563  0.37355916  1
  O2-  O187  1  0.63996611  0.17293810  0.87316635  1
  O2-  O188  1  0.65143154  0.50584211  0.37694398  1
  O2-  O189  1  0.63984604  0.50347034  0.87249508  1
  O2-  O190  1  0.64223756  0.84012130  0.37659167  1
  O2-  O191  1  0.64129883  0.83871142  0.87379057  1
  O2-  O192  1  0.97444772  0.17353577  0.37474279  1
  O2-  O193  1  0.97473484  0.17301854  0.87451857  1
  O2-  O194  1  0.97367424  0.50537479  0.37598804  1
  O2-  O195  1  0.97286051  0.50021480  0.87559359  1
  O2-  O196  1  0.97299378  0.83665400  0.37493131  1
  O2-  O197  1  0.97621810  0.84072004  0.87499614  1
  O2-  O198  1  0.19481298  0.00617391  0.37588806  1
  O2-  O199  1  0.18856617  0.00502360  0.87506253  1
  O2-  O200  1  0.19166993  0.33903531  0.37663047  1
  O2-  O201  1  0.19280150  0.34020508  0.87562363  1
  O2-  O202  1  0.19013148  0.67199962  0.37466738  1
  O2-  O203  1  0.19201810  0.67282754  0.87542497  1
  O2-  O204  1  0.52517958  0.00391183  0.37563894  1
  O2-  O205  1  0.52565465  0.00620520  0.87346608  1
  O2-  O206  1  0.52459874  0.33456732  0.37538367  1
  O2-  O207  1  0.52648585  0.33666145  0.87329883  1
  O2-  O208  1  0.52675767  0.67390192  0.37628789  1
  O2-  O209  1  0.52814663  0.67042876  0.87164878  1
  O2-  O210  1  0.86012840  0.00566497  0.37757063  1
  O2-  O211  1  0.86257583  0.00685916  0.87571523  1
  O2-  O212  1  0.86089663  0.34247850  0.37319282  1
  O2-  O213  1  0.85662847  0.33712334  0.87591119  1
  O2-  O214  1  0.85907204  0.66839857  0.37635395  1
  O2-  O215  1  0.85292517  0.67445493  0.87444993  1
  O2-  O216  1  0.23685920  0.09277259  0.01993659  1
  O2-  O217  1  0.23481683  0.09688272  0.51786968  1
  O2-  O218  1  0.23957665  0.42788362  0.02114347  1
  O2-  O219  1  0.24206917  0.42387158  0.51841883  1
  O2-  O220  1  0.24037215  0.75792764  0.02474362  1
  O2-  O221  1  0.23870030  0.76176346  0.52233365  1
  O2-  O222  1  0.57329342  0.09680317  0.02005717  1
  O2-  O223  1  0.56275314  0.09553126  0.51763934  1
  O2-  O224  1  0.56799670  0.42972179  0.01614823  1
  O2-  O225  1  0.57709993  0.42693352  0.52223477  1
  O2-  O226  1  0.56756066  0.76340323  0.01590481  1
  O2-  O227  1  0.57146511  0.76027323  0.52258187  1
  O2-  O228  1  0.90048437  0.09812538  0.01901152  1
  O2-  O229  1  0.90673790  0.09822093  0.51987539  1
  O2-  O230  1  0.90643734  0.42534179  0.02363596  1
  O2-  O231  1  0.90031052  0.43404593  0.51763503  1
  O2-  O232  1  0.90734350  0.76516169  0.01804936  1
  O2-  O233  1  0.90193535  0.76342667  0.51709108  1
  O2-  O234  1  0.26184577  0.26103733  0.22999113  1
  O2-  O235  1  0.26121484  0.25665842  0.72746446  1
  O2-  O236  1  0.25983968  0.59355003  0.22994405  1
  O2-  O237  1  0.26083235  0.59726553  0.73356401  1
  O2-  O238  1  0.25793192  0.92331697  0.22887053  1
  O2-  O239  1  0.26510685  0.93163851  0.73131696  1
  O2-  O240  1  0.59514675  0.26274638  0.22693220  1
  O2-  O241  1  0.59704351  0.26375037  0.73128890  1
  O2-  O242  1  0.59155407  0.58954842  0.23261199  1
  O2-  O243  1  0.59679829  0.59316610  0.72700814  1
  O2-  O244  1  0.59602137  0.92881760  0.23308386  1
  O2-  O245  1  0.58986939  0.92679594  0.73121157  1
  O2-  O246  1  0.92589223  0.26463909  0.22867011  1
  O2-  O247  1  0.92687510  0.26410847  0.72949250  1
  O2-  O248  1  0.92877502  0.59509969  0.22934898  1
  O2-  O249  1  0.92950029  0.59710606  0.72853513  1
  O2-  O250  1  0.93041594  0.92992836  0.22886563  1
  O2-  O251  1  0.93242922  0.92611857  0.72969708  1
  O2-  O252  1  0.09529336  0.23915190  0.27058585  1
  O2-  O253  1  0.09170729  0.24204615  0.76989897  1
  O2-  O254  1  0.09637925  0.57219994  0.27096855  1
  O2-  O255  1  0.09555201  0.57192917  0.77022722  1
  O2-  O256  1  0.09589654  0.90126819  0.27416596  1
  O2-  O257  1  0.09645727  0.90588829  0.77107727  1
  O2-  O258  1  0.42962005  0.23861748  0.26965728  1
  O2-  O259  1  0.42877667  0.23797277  0.76560126  1
  O2-  O260  1  0.42345996  0.57572743  0.26825238  1
  O2-  O261  1  0.43201081  0.56960481  0.76685674  1
  O2-  O262  1  0.43017117  0.90454082  0.26792605  1
  O2-  O263  1  0.42618967  0.90341855  0.77226702  1
  O2-  O264  1  0.76278398  0.24026963  0.27313557  1
  O2-  O265  1  0.76211942  0.23995346  0.77041756  1
  O2-  O266  1  0.76401016  0.57092699  0.26290126  1
  O2-  O267  1  0.76137855  0.57205812  0.77314877  1
  O2-  O268  1  0.76382294  0.90546577  0.27113254  1
  O2-  O269  1  0.76313131  0.90780530  0.77035606  1
  O2-  O270  1  0.07271916  0.06947600  0.47961823  1
  O2-  O271  1  0.07002934  0.07062852  0.98451282  1
  O2-  O272  1  0.07136494  0.40816655  0.47865275  1
  O2-  O273  1  0.07267650  0.40710507  0.97862775  1
  O2-  O274  1  0.07124705  0.73823256  0.47823034  1
  O2-  O275  1  0.07366795  0.73834933  0.98783478  1
  O2-  O276  1  0.40181607  0.07035061  0.47455480  1
  O2-  O277  1  0.40706890  0.07180619  0.97821706  1
  O2-  O278  1  0.40736604  0.40326490  0.48492945  1
  O2-  O279  1  0.40297023  0.40256001  0.97694576  1
  O2-  O280  1  0.40372134  0.74081818  0.47925050  1
  O2-  O281  1  0.40349114  0.73585320  0.97628216  1
  O2-  O282  1  0.73684068  0.07614055  0.47797754  1
  O2-  O283  1  0.73838426  0.07086346  0.97770186  1
  O2-  O284  1  0.73916904  0.40447042  0.47882679  1
  O2-  O285  1  0.73740262  0.40471249  0.98026230  1
  O2-  O286  1  0.73896440  0.73565367  0.47988786  1
  O2-  O287  1  0.73869197  0.74079419  0.97761250  1
  O2-  O288  1  0.09516873  0.23739554  0.47823384  1
  O2-  O289  1  0.08948607  0.24353095  0.98338296  1
  O2-  O290  1  0.09281104  0.57244758  0.47750403  1
  O2-  O291  1  0.09914858  0.57016040  0.98184953  1
  O2-  O292  1  0.09626022  0.90503985  0.47577941  1
  O2-  O293  1  0.09578104  0.90400650  0.97867429  1
  O2-  O294  1  0.42571555  0.23825256  0.48019117  1
  O2-  O295  1  0.43302890  0.23773138  0.98433763  1
  O2-  O296  1  0.42504026  0.57535094  0.48185946  1
  O2-  O297  1  0.43114268  0.56810578  0.98336927  1
  O2-  O298  1  0.42866251  0.90265390  0.48141439  1
  O2-  O299  1  0.42574817  0.90303529  0.97809794  1
  O2-  O300  1  0.76537073  0.24241658  0.47873487  1
  O2-  O301  1  0.76047887  0.23715032  0.97916987  1
  O2-  O302  1  0.76396463  0.57272139  0.48360985  1
  O2-  O303  1  0.76052317  0.56871317  0.97919862  1
  O2-  O304  1  0.75985445  0.90486040  0.47961895  1
  O2-  O305  1  0.76348452  0.90697494  0.97716964  1
  O2-  O306  1  0.07473850  0.06916601  0.27336085  1
  O2-  O307  1  0.07126904  0.06899748  0.76405296  1
  O2-  O308  1  0.07170488  0.40536253  0.26981164  1
  O2-  O309  1  0.07196343  0.40921522  0.77183532  1
  O2-  O310  1  0.06791782  0.73556792  0.26605676  1
  O2-  O311  1  0.07361102  0.74066505  0.76806380  1
  O2-  O312  1  0.40449022  0.07201498  0.27416448  1
  O2-  O313  1  0.40518445  0.07127334  0.77319419  1
  O2-  O314  1  0.40361076  0.40199946  0.26749060  1
  O2-  O315  1  0.40700414  0.40351723  0.77027681  1
  O2-  O316  1  0.40389298  0.74081113  0.27179447  1
  O2-  O317  1  0.40347885  0.73769032  0.77187776  1
  O2-  O318  1  0.73760644  0.07140165  0.27229632  1
  O2-  O319  1  0.73838474  0.07565362  0.77274635  1
  O2-  O320  1  0.74034473  0.40706183  0.27204686  1
  O2-  O321  1  0.73607930  0.40290750  0.76952401  1
  O2-  O322  1  0.73941781  0.73840534  0.27351023  1
  O2-  O323  1  0.73901902  0.73773186  0.76803367  1
  O2-  O324  1  0.23499077  0.09696076  0.23259923  1
  O2-  O325  1  0.23869343  0.09364875  0.72993505  1
  O2-  O326  1  0.23837063  0.42729607  0.22943392  1
  O2-  O327  1  0.24110939  0.42414632  0.73197015  1
  O2-  O328  1  0.23859136  0.75723920  0.22726742  1
  O2-  O329  1  0.23823168  0.76222347  0.72552299  1
  O2-  O330  1  0.56953706  0.09430464  0.23114451  1
  O2-  O331  1  0.56811557  0.09788027  0.73057762  1
  O2-  O332  1  0.57234206  0.42689760  0.23152037  1
  O2-  O333  1  0.57251693  0.42822889  0.72824365  1
  O2-  O334  1  0.56931845  0.76476234  0.23206598  1
  O2-  O335  1  0.56931415  0.75858842  0.72780530  1
  O2-  O336  1  0.90095418  0.09665901  0.23243333  1
  O2-  O337  1  0.90539210  0.09628181  0.72959593  1
  O2-  O338  1  0.90373849  0.42765579  0.22512381  1
  O2-  O339  1  0.90244905  0.43001752  0.73255592  1
  O2-  O340  1  0.90413878  0.76348054  0.23085101  1
  O2-  O341  1  0.90426990  0.76392968  0.73309681  1
  O2-  O342  1  0.25888757  0.25833856  0.02078414  1
  O2-  O343  1  0.26234214  0.25865090  0.52330227  1
  O2-  O344  1  0.26150906  0.59239771  0.02260934  1
  O2-  O345  1  0.25974878  0.59791838  0.51491564  1
  O2-  O346  1  0.25873201  0.92482343  0.01878402  1
  O2-  O347  1  0.26386365  0.92930975  0.52312053  1
  O2-  O348  1  0.59589373  0.26392027  0.02234387  1
  O2-  O349  1  0.59656627  0.26296737  0.51811429  1
  O2-  O350  1  0.59464525  0.59262864  0.01596661  1
  O2-  O351  1  0.59399458  0.59111171  0.52378127  1
  O2-  O352  1  0.59534084  0.92830605  0.01742035  1
  O2-  O353  1  0.58951931  0.92699096  0.51776031  1
  O2-  O354  1  0.92435345  0.26209217  0.02121742  1
  O2-  O355  1  0.92980016  0.26682960  0.52031553  1
  O2-  O356  1  0.92808956  0.59283049  0.02164032  1
  O2-  O357  1  0.93222665  0.59979293  0.51976303  1
  O2-  O358  1  0.92851537  0.93154111  0.02219536  1
  O2-  O359  1  0.93280531  0.92519230  0.51983053  1
