# generated using pymatgen
data_Sr7Ca15Pr50Mn72O216
_symmetry_space_group_name_H-M   'P 1'
_cell_length_a   16.55577502
_cell_length_b   16.60178844
_cell_length_c   15.58964638
_cell_angle_alpha   89.99613909
_cell_angle_beta   89.99804017
_cell_angle_gamma   89.97997857
_symmetry_Int_Tables_number   1
_chemical_formula_structural   Sr7Ca15Pr50Mn72O216
_chemical_formula_sum   'Sr7 Ca15 Pr50 Mn72 O216'
_cell_volume   4284.89937844
_cell_formula_units_Z   1
loop_
 _symmetry_equiv_pos_site_id
 _symmetry_equiv_pos_as_xyz
  1  'x, y, z'
loop_
 _atom_type_symbol
 _atom_type_oxidation_number
  Sr2+  2.0
  Ca2+  2.0
  Pr3+  3.0
  Mn3.30+  3.3
  O2-  -2.0
loop_
 _atom_site_type_symbol
 _atom_site_label
 _atom_site_symmetry_multiplicity
 _atom_site_fract_x
 _atom_site_fract_y
 _atom_site_fract_z
 _atom_site_occupancy
  Sr2+  Sr0  1  0.49719204  0.48627704  0.87561656  1
  Sr2+  Sr1  1  0.66793746  0.67286513  0.62131080  1
  Sr2+  Sr2  1  -0.00176270  0.67225472  0.62132918  1
  Sr2+  Sr3  1  -0.00102725  0.34379443  0.62482029  1
  Sr2+  Sr4  1  0.83095084  0.49244113  0.37653658  1
  Sr2+  Sr5  1  0.66981432  0.65667939  0.37462299  1
  Sr2+  Sr6  1  0.66686396  0.67483786  0.12842737  1
  Ca2+  Ca7  1  0.66207085  0.34720580  0.62353319  1
  Ca2+  Ca8  1  0.16893085  0.51373197  0.12616633  1
  Ca2+  Ca9  1  0.83164298  0.81677784  0.37634809  1
  Ca2+  Ca10  1  0.33780843  0.32051449  0.87642645  1
  Ca2+  Ca11  1  0.32801859  0.34995026  0.12468229  1
  Ca2+  Ca12  1  -0.00504705  0.01431557  0.62344728  1
  Ca2+  Ca13  1  0.33694015  0.32046653  0.37347625  1
  Ca2+  Ca14  1  0.67034239  0.32356114  0.37689486  1
  Ca2+  Ca15  1  1.00167295  0.65114227  0.37664484  1
  Ca2+  Ca16  1  0.67493242  0.98323470  0.37780172  1
  Ca2+  Ca17  1  0.66449180  0.01472075  0.62188964  1
  Ca2+  Ca18  1  0.17029752  0.84825844  0.12633639  1
  Ca2+  Ca19  1  0.83560408  0.18241041  0.12611311  1
  Ca2+  Ca20  1  0.66805787  0.31871069  0.87357904  1
  Ca2+  Ca21  1  0.16648441  0.51450753  0.62391443  1
  Pr3+  Pr22  1  0.32804800  0.68019753  0.12480190  1
  Pr3+  Pr23  1  0.50531183  0.18291958  0.62427296  1
  Pr3+  Pr24  1  0.50151565  0.81920669  0.37558746  1
  Pr3+  Pr25  1  0.83222819  0.82062277  0.87513135  1
  Pr3+  Pr26  1  0.83424098  0.51138649  0.62291847  1
  Pr3+  Pr27  1  1.00165957  0.31976843  0.87368191  1
  Pr3+  Pr28  1  0.82930970  0.15484608  0.87556234  1
  Pr3+  Pr29  1  -0.00349479  0.01500332  0.12678236  1
  Pr3+  Pr30  1  1.00250895  0.65265414  0.87336572  1
  Pr3+  Pr31  1  0.16548692  0.15612833  0.87470833  1
  Pr3+  Pr32  1  0.66530897  0.01280948  0.12738310  1
  Pr3+  Pr33  1  0.49909796  0.15835955  0.87470950  1
  Pr3+  Pr34  1  0.32792727  0.34768780  0.62524594  1
  Pr3+  Pr35  1  0.83473830  0.51310234  0.12661937  1
  Pr3+  Pr36  1  0.49798296  0.81968080  0.87417203  1
  Pr3+  Pr37  1  0.16202844  0.81695926  0.37327458  1
  Pr3+  Pr38  1  0.16654290  0.84498632  0.62384839  1
  Pr3+  Pr39  1  0.83390827  0.17979485  0.62468919  1
  Pr3+  Pr40  1  0.50100259  0.18043856  0.12517871  1
  Pr3+  Pr41  1  0.33736744  0.98859238  0.87483162  1
  Pr3+  Pr42  1  1.00122219  0.98726614  0.37740617  1
  Pr3+  Pr43  1  0.50060355  0.51108931  0.12418364  1
  Pr3+  Pr44  1  -0.00174843  0.67836095  0.12719524  1
  Pr3+  Pr45  1  0.33670866  0.65110613  0.87563008  1
  Pr3+  Pr46  1  0.82654780  0.15599115  0.37459739  1
  Pr3+  Pr47  1  0.16445044  0.48648101  0.87472502  1
  Pr3+  Pr48  1  0.16355937  0.15655137  0.37556476  1
  Pr3+  Pr49  1  -0.00349234  0.34678285  0.12501616  1
  Pr3+  Pr50  1  0.83864533  0.84540089  0.62132399  1
  Pr3+  Pr51  1  0.33243319  0.01432803  0.62369157  1
  Pr3+  Pr52  1  0.67021577  0.98761707  0.87258423  1
  Pr3+  Pr53  1  0.16121020  0.48876515  0.37521720  1
  Pr3+  Pr54  1  0.33659849  0.98742487  0.37523492  1
  Pr3+  Pr55  1  0.50841799  0.84689155  0.62312722  1
  Pr3+  Pr56  1  0.83451086  0.84341501  0.12943713  1
  Pr3+  Pr57  1  0.66843516  0.65312906  0.87501078  1
  Pr3+  Pr58  1  0.99871615  0.32404646  0.37625923  1
  Pr3+  Pr59  1  0.50237216  0.15637519  0.37498497  1
  Pr3+  Pr60  1  1.00309973  0.98848791  0.87323031  1
  Pr3+  Pr61  1  0.16769281  0.17917338  0.62418088  1
  Pr3+  Pr62  1  0.16421989  0.82030719  0.87656178  1
  Pr3+  Pr63  1  0.32843930  0.67707566  0.62538931  1
  Pr3+  Pr64  1  0.33099178  0.01222671  0.12643957  1
  Pr3+  Pr65  1  0.17168479  0.18231491  0.12619790  1
  Pr3+  Pr66  1  0.49832360  0.48618934  0.37437396  1
  Pr3+  Pr67  1  0.82753130  0.48526167  0.87401772  1
  Pr3+  Pr68  1  0.66458436  0.34378275  0.12550734  1
  Pr3+  Pr69  1  0.33686153  0.65227283  0.37433913  1
  Pr3+  Pr70  1  0.50653960  0.84416297  0.12672193  1
  Pr3+  Pr71  1  0.50315677  0.51028258  0.62553627  1
  Mn3.30+  Mn72  1  0.16723948  0.00028918  0.00120451  1
  Mn3.30+  Mn73  1  0.16528514  0.00008345  0.50083274  1
  Mn3.30+  Mn74  1  0.16922380  0.33524851  0.00048930  1
  Mn3.30+  Mn75  1  0.16786590  0.33507197  0.49944484  1
  Mn3.30+  Mn76  1  0.16669730  0.66610389  0.00148604  1
  Mn3.30+  Mn77  1  0.16530366  0.66531057  0.50017813  1
  Mn3.30+  Mn78  1  0.50063820  0.00023466  0.00028423  1
  Mn3.30+  Mn79  1  0.50520786  0.00086263  0.49819889  1
  Mn3.30+  Mn80  1  0.49681360  0.33313210  0.00014689  1
  Mn3.30+  Mn81  1  0.50037150  0.33335095  0.49797923  1
  Mn3.30+  Mn82  1  0.49964132  0.66558183  0.00075387  1
  Mn3.30+  Mn83  1  0.50039569  0.66500284  0.50001950  1
  Mn3.30+  Mn84  1  0.83391090  0.00075774  0.00153031  1
  Mn3.30+  Mn85  1  0.83193490  -0.00014092  0.50007804  1
  Mn3.30+  Mn86  1  0.83162936  0.33215068  -0.00022071  1
  Mn3.30+  Mn87  1  0.82966560  0.33436023  0.50083812  1
  Mn3.30+  Mn88  1  0.83427461  0.66676799  0.00090204  1
  Mn3.30+  Mn89  1  0.83379854  0.66709372  0.49780027  1
  Mn3.30+  Mn90  1  -0.00219213  0.16835573  0.25015391  1
  Mn3.30+  Mn91  1  -0.00145065  0.16568901  0.74842123  1
  Mn3.30+  Mn92  1  0.00094763  0.50057035  0.25061172  1
  Mn3.30+  Mn93  1  -0.00072558  0.49885214  0.74848854  1
  Mn3.30+  Mn94  1  0.00128984  0.83280315  0.25111318  1
  Mn3.30+  Mn95  1  0.00020873  0.83341960  0.74795182  1
  Mn3.30+  Mn96  1  0.33379753  0.16965534  0.25123718  1
  Mn3.30+  Mn97  1  0.33424384  0.16865696  0.74990044  1
  Mn3.30+  Mn98  1  0.33028648  0.49727611  0.24939067  1
  Mn3.30+  Mn99  1  0.33240848  0.49801403  0.75030152  1
  Mn3.30+  Mn100  1  0.33279223  0.83349176  0.25018813  1
  Mn3.30+  Mn101  1  0.33432511  0.83385095  0.74878992  1
  Mn3.30+  Mn102  1  0.66806907  0.16750787  0.24960075  1
  Mn3.30+  Mn103  1  0.66626919  0.16794802  0.74877807  1
  Mn3.30+  Mn104  1  0.66662074  0.49858138  0.25102507  1
  Mn3.30+  Mn105  1  0.66500494  0.49626391  0.75062271  1
  Mn3.30+  Mn106  1  0.67046063  0.83411513  0.25279439  1
  Mn3.30+  Mn107  1  0.66821972  0.83307108  0.74714543  1
  Mn3.30+  Mn108  1  0.16626503  -0.00033690  0.25046425  1
  Mn3.30+  Mn109  1  0.16622437  0.00045293  0.74796944  1
  Mn3.30+  Mn110  1  0.16896182  0.33556415  0.25017589  1
  Mn3.30+  Mn111  1  0.16804879  0.33472502  0.75023078  1
  Mn3.30+  Mn112  1  0.16551444  0.66575725  0.24888846  1
  Mn3.30+  Mn113  1  0.16639529  0.66587318  0.74918969  1
  Mn3.30+  Mn114  1  0.50266985  -0.00005503  0.25296101  1
  Mn3.30+  Mn115  1  0.50269453  0.00138331  0.74815372  1
  Mn3.30+  Mn116  1  0.49762712  0.33300704  0.24985340  1
  Mn3.30+  Mn117  1  0.49976780  0.33352290  0.75154938  1
  Mn3.30+  Mn118  1  0.49998459  0.66521527  0.25008898  1
  Mn3.30+  Mn119  1  0.50024833  0.66536646  0.74894436  1
  Mn3.30+  Mn120  1  0.83218790  0.00055737  0.25151645  1
  Mn3.30+  Mn121  1  0.83352106  -0.00025072  0.74674418  1
  Mn3.30+  Mn122  1  0.83121124  0.33365582  0.25036371  1
  Mn3.30+  Mn123  1  0.82977290  0.33293918  0.74888194  1
  Mn3.30+  Mn124  1  0.83447358  0.66721585  0.25231942  1
  Mn3.30+  Mn125  1  0.83395502  0.66669480  0.74905344  1
  Mn3.30+  Mn126  1  -0.00066047  0.16735801  0.00104040  1
  Mn3.30+  Mn127  1  -0.00273865  0.16680594  0.50031082  1
  Mn3.30+  Mn128  1  0.00079480  0.49939129  0.00012237  1
  Mn3.30+  Mn129  1  -0.00052911  0.49962844  0.50066620  1
  Mn3.30+  Mn130  1  0.00242822  0.83422894  0.00272948  1
  Mn3.30+  Mn131  1  -0.00097839  0.83168301  0.49815730  1
  Mn3.30+  Mn132  1  0.33313656  0.16970278  0.00079936  1
  Mn3.30+  Mn133  1  0.33460472  0.16872608  0.49794866  1
  Mn3.30+  Mn134  1  0.33133440  0.49698051  0.00151295  1
  Mn3.30+  Mn135  1  0.33112229  0.49816242  0.49898328  1
  Mn3.30+  Mn136  1  0.33267818  0.83423482  0.00122736  1
  Mn3.30+  Mn137  1  0.33445774  0.83300872  0.50023675  1
  Mn3.30+  Mn138  1  0.66734698  0.16753819  0.00084162  1
  Mn3.30+  Mn139  1  0.66680553  0.16764387  0.49989593  1
  Mn3.30+  Mn140  1  0.66523638  0.49743616  -0.00099115  1
  Mn3.30+  Mn141  1  0.66624912  0.49781996  0.49924995  1
  Mn3.30+  Mn142  1  0.66725773  0.83312406  0.00036371  1
  Mn3.30+  Mn143  1  0.67133817  0.83405120  0.49980175  1
  O2-  O144  1  0.02716264  0.16317279  0.12541536  1
  O2-  O145  1  0.02394237  0.16100192  0.62472114  1
  O2-  O146  1  0.02618054  0.49384848  0.12372093  1
  O2-  O147  1  0.02327248  0.49814250  0.62704353  1
  O2-  O148  1  0.03021249  0.82621639  0.12595764  1
  O2-  O149  1  0.02488504  0.82633832  0.62266167  1
  O2-  O150  1  0.35746537  0.15791176  0.12651676  1
  O2-  O151  1  0.35947565  0.16176896  0.62191983  1
  O2-  O152  1  0.35709054  0.49417355  0.12577219  1
  O2-  O153  1  0.35884903  0.49517208  0.62336444  1
  O2-  O154  1  0.36168888  0.82986588  0.12603964  1
  O2-  O155  1  0.36205904  0.82649222  0.62409165  1
  O2-  O156  1  0.69425661  0.15867154  0.12491128  1
  O2-  O157  1  0.69110830  0.15723397  0.62492977  1
  O2-  O158  1  0.68994595  0.49177176  0.12351742  1
  O2-  O159  1  0.68856347  0.49217992  0.62774608  1
  O2-  O160  1  0.68965897  0.83365044  0.12655425  1
  O2-  O161  1  0.69415870  0.82662745  0.62544029  1
  O2-  O162  1  0.13879705  0.32698309  0.12475389  1
  O2-  O163  1  0.14843220  0.32539831  0.62529732  1
  O2-  O164  1  0.14079632  0.65803062  0.12450825  1
  O2-  O165  1  0.14852192  0.66314369  0.62642688  1
  O2-  O166  1  0.14199972  0.99545774  0.12666773  1
  O2-  O167  1  0.13851731  0.99355232  0.62356507  1
  O2-  O168  1  0.47009565  0.32723991  0.12602460  1
  O2-  O169  1  0.47215700  0.33031449  0.62373304  1
  O2-  O170  1  0.47402533  0.66405460  0.12578739  1
  O2-  O171  1  0.47346826  0.66120810  0.62442051  1
  O2-  O172  1  0.47483572  0.99292321  0.12789616  1
  O2-  O173  1  0.47558369  0.99559511  0.62365921  1
  O2-  O174  1  0.80989208  0.32991303  0.12363888  1
  O2-  O175  1  0.80458862  0.32771780  0.62651224  1
  O2-  O176  1  0.81687682  0.66393446  0.12424140  1
  O2-  O177  1  0.81740982  0.66258803  0.62618937  1
  O2-  O178  1  0.80759144  0.99000605  0.12717025  1
  O2-  O179  1  0.80497135  0.99193125  0.62402647  1
  O2-  O180  1  0.30739290  0.17295154  0.37475645  1
  O2-  O181  1  0.30906595  0.17247598  0.87660131  1
  O2-  O182  1  0.30449887  0.50686925  0.37409265  1
  O2-  O183  1  0.30718405  0.50582882  0.87701020  1
  O2-  O184  1  0.30727064  0.83896721  0.37588158  1
  O2-  O185  1  0.30815411  0.84095700  0.87438229  1
  O2-  O186  1  0.64448880  0.17928421  0.37381840  1
  O2-  O187  1  0.64232794  0.17188351  0.87542523  1
  O2-  O188  1  0.64277885  0.50153087  0.37312099  1
  O2-  O189  1  0.64704742  0.50726703  0.87518686  1
  O2-  O190  1  0.64358482  0.84028139  0.37577295  1
  O2-  O191  1  0.64211879  0.84012629  0.87287349  1
  O2-  O192  1  0.97296612  0.17365141  0.37464061  1
  O2-  O193  1  0.97499236  0.16979977  0.87525129  1
  O2-  O194  1  0.98234315  0.50014855  0.37399221  1
  O2-  O195  1  0.97327224  0.50336867  0.87526159  1
  O2-  O196  1  0.97370020  0.84256298  0.37468937  1
  O2-  O197  1  0.97636943  0.84123523  0.87701048  1
  O2-  O198  1  0.19190974  0.00670622  0.37606310  1
  O2-  O199  1  0.19328225  0.00679700  0.87413593  1
  O2-  O200  1  0.19489546  0.34122817  0.37503510  1
  O2-  O201  1  0.19524492  0.33894127  0.87522432  1
  O2-  O202  1  0.19392085  0.67100390  0.37332638  1
  O2-  O203  1  0.19310423  0.67354995  0.87619769  1
  O2-  O204  1  0.53144434  0.00783663  0.37495737  1
  O2-  O205  1  0.52565586  0.00656228  0.87283604  1
  O2-  O206  1  0.52753486  0.33821344  0.37339908  1
  O2-  O207  1  0.52496109  0.32897778  0.87614851  1
  O2-  O208  1  0.51762705  0.66932550  0.37469551  1
  O2-  O209  1  0.52345732  0.67198459  0.87479932  1
  O2-  O210  1  0.86001497  0.01071081  0.37435034  1
  O2-  O211  1  0.85964088  0.00547301  0.87511893  1
  O2-  O212  1  0.85500512  0.33324550  0.37442805  1
  O2-  O213  1  0.85806630  0.33661930  0.87547742  1
  O2-  O214  1  0.85906192  0.66956342  0.37338487  1
  O2-  O215  1  0.85832596  0.67150880  0.87637383  1
  O2-  O216  1  0.23857136  0.09632931  0.02017451  1
  O2-  O217  1  0.23862458  0.09398202  0.52079797  1
  O2-  O218  1  0.23212902  0.43319173  0.01956268  1
  O2-  O219  1  0.23692361  0.43048007  0.52293551  1
  O2-  O220  1  0.23828756  0.76470806  0.02225779  1
  O2-  O221  1  0.23765882  0.76100139  0.52006570  1
  O2-  O222  1  0.57217836  0.09424985  0.02102510  1
  O2-  O223  1  0.57045591  0.09912816  0.51693123  1
  O2-  O224  1  0.56931114  0.42317922  0.02327711  1
  O2-  O225  1  0.56637836  0.42849314  0.51689904  1
  O2-  O226  1  0.57059367  0.76401352  0.01570632  1
  O2-  O227  1  0.57203149  0.76405777  0.51476663  1
  O2-  O228  1  0.90360264  0.09406455  0.02290461  1
  O2-  O229  1  0.90094122  0.09398712  0.51982888  1
  O2-  O230  1  0.90496466  0.42921781  0.01972802  1
  O2-  O231  1  0.90247733  0.42500907  0.51885445  1
  O2-  O232  1  0.90793614  0.76362389  0.02033118  1
  O2-  O233  1  0.90613569  0.76312483  0.51669995  1
  O2-  O234  1  0.26004133  0.26394602  0.22681043  1
  O2-  O235  1  0.26159443  0.25916129  0.72886474  1
  O2-  O236  1  0.26322960  0.59754438  0.23084921  1
  O2-  O237  1  0.26258379  0.59686221  0.73466823  1
  O2-  O238  1  0.26544637  0.92921732  0.23286528  1
  O2-  O239  1  0.26249076  0.92863579  0.72718886  1
  O2-  O240  1  0.59255791  0.25817527  0.22503431  1
  O2-  O241  1  0.59481448  0.26112782  0.72627836  1
  O2-  O242  1  0.58752601  0.58770902  0.23006687  1
  O2-  O243  1  0.59159745  0.59171846  0.73316608  1
  O2-  O244  1  0.59463513  0.92717775  0.22872148  1
  O2-  O245  1  0.59849203  0.92909148  0.72758177  1
  O2-  O246  1  0.93028138  0.26414350  0.23174014  1
  O2-  O247  1  0.92408012  0.25909707  0.73303536  1
  O2-  O248  1  0.92790080  0.59196115  0.22871120  1
  O2-  O249  1  0.92600772  0.59250655  0.73545680  1
  O2-  O250  1  0.93063625  0.92872902  0.22862381  1
  O2-  O251  1  0.92958414  0.92969053  0.72855496  1
  O2-  O252  1  0.09655668  0.24089301  0.27205024  1
  O2-  O253  1  0.09545882  0.24064184  0.77042642  1
  O2-  O254  1  0.09571373  0.57236723  0.26920831  1
  O2-  O255  1  0.09368131  0.57449304  0.77344065  1
  O2-  O256  1  0.09350861  0.90505617  0.27285465  1
  O2-  O257  1  0.09650299  0.90527937  0.77067928  1
  O2-  O258  1  0.43050206  0.23698209  0.26990981  1
  O2-  O259  1  0.43170912  0.23682482  0.76631495  1
  O2-  O260  1  0.42384091  0.56958011  0.26906630  1
  O2-  O261  1  0.42291356  0.57153288  0.76784357  1
  O2-  O262  1  0.43096593  0.90677020  0.27420895  1
  O2-  O263  1  0.42908334  0.90667421  0.76955498  1
  O2-  O264  1  0.76332205  0.23691961  0.26420729  1
  O2-  O265  1  0.76200094  0.23584425  0.76886908  1
  O2-  O266  1  0.75963614  0.57185566  0.25980713  1
  O2-  O267  1  0.76026530  0.57257781  0.76873745  1
  O2-  O268  1  0.76646215  0.90385554  0.27077707  1
  O2-  O269  1  0.76369277  0.90524924  0.77196677  1
  O2-  O270  1  0.07206986  0.07525751  0.47740801  1
  O2-  O271  1  0.07174999  0.07296392  0.98004562  1
  O2-  O272  1  0.07401771  0.40581619  0.47890967  1
  O2-  O273  1  0.07059479  0.40387552  0.97741366  1
  O2-  O274  1  0.07371332  0.73903115  0.47514445  1
  O2-  O275  1  0.07152714  0.73879419  0.97851636  1
  O2-  O276  1  0.40533182  0.07289377  0.47799874  1
  O2-  O277  1  0.40628627  0.07146801  0.98021816  1
  O2-  O278  1  0.40204659  0.40359579  0.47745679  1
  O2-  O279  1  0.40079516  0.40259344  0.98167972  1
  O2-  O280  1  0.40484543  0.73890286  0.47974105  1
  O2-  O281  1  0.40443193  0.73946410  0.97944050  1
  O2-  O282  1  0.73746805  0.07231772  0.47679927  1
  O2-  O283  1  0.73653923  0.07191518  0.97866727  1
  O2-  O284  1  0.73518535  0.40287533  0.48288776  1
  O2-  O285  1  0.73691516  0.40378380  0.97854367  1
  O2-  O286  1  0.74223100  0.74151615  0.48179780  1
  O2-  O287  1  0.74014685  0.74073662  0.97831575  1
  O2-  O288  1  0.09455196  0.24141073  0.47936998  1
  O2-  O289  1  0.09723294  0.23995818  0.97837669  1
  O2-  O290  1  0.09602453  0.57362094  0.48284240  1
  O2-  O291  1  0.09183851  0.57239679  0.97513284  1
  O2-  O292  1  0.09592165  0.90369703  0.47853547  1
  O2-  O293  1  0.09482883  0.90697574  0.97780959  1
  O2-  O294  1  0.43235631  0.23826977  0.47983085  1
  O2-  O295  1  0.42991167  0.23571009  0.98299427  1
  O2-  O296  1  0.42419493  0.56889023  0.47860250  1
  O2-  O297  1  0.42326942  0.57215238  0.98440903  1
  O2-  O298  1  0.43084899  0.90709754  0.47823761  1
  O2-  O299  1  0.42900933  0.90582450  0.97882902  1
  O2-  O300  1  0.76256730  0.23541779  0.48474403  1
  O2-  O301  1  0.76098985  0.23712547  0.98106163  1
  O2-  O302  1  0.75730054  0.57299831  0.49007108  1
  O2-  O303  1  0.76223237  0.57223364  0.98204477  1
  O2-  O304  1  0.76783179  0.90332046  0.47957123  1
  O2-  O305  1  0.76254743  0.90628151  0.97946989  1
  O2-  O306  1  0.07001141  0.07390409  0.27120884  1
  O2-  O307  1  0.07436543  0.07413454  0.77229400  1
  O2-  O308  1  0.07161485  0.40403287  0.27012064  1
  O2-  O309  1  0.07251382  0.40659859  0.77375385  1
  O2-  O310  1  0.07089422  0.73636935  0.27307706  1
  O2-  O311  1  0.07461647  0.74075996  0.77366877  1
  O2-  O312  1  0.40768260  0.07125028  0.27242794  1
  O2-  O313  1  0.40387386  0.07340481  0.76931315  1
  O2-  O314  1  0.40418072  0.40611208  0.27400526  1
  O2-  O315  1  0.39955101  0.40021527  0.76707414  1
  O2-  O316  1  0.40366285  0.73980551  0.26948805  1
  O2-  O317  1  0.40513000  0.73904133  0.77127639  1
  O2-  O318  1  0.73534012  0.07024821  0.27197330  1
  O2-  O319  1  0.73992000  0.07288106  0.77244150  1
  O2-  O320  1  0.73497325  0.40096097  0.26506269  1
  O2-  O321  1  0.73755189  0.40435151  0.77476570  1
  O2-  O322  1  0.74362764  0.74246853  0.26566493  1
  O2-  O323  1  0.73964026  0.73914705  0.77374041  1
  O2-  O324  1  0.23967205  0.09599437  0.23140630  1
  O2-  O325  1  0.23886114  0.09459417  0.72801480  1
  O2-  O326  1  0.23376648  0.43221052  0.22948548  1
  O2-  O327  1  0.23628559  0.43140999  0.72791887  1
  O2-  O328  1  0.23527863  0.76151483  0.22770960  1
  O2-  O329  1  0.23920973  0.76281342  0.72967054  1
  O2-  O330  1  0.57185884  0.09494700  0.22826604  1
  O2-  O331  1  0.57078141  0.09793239  0.73201343  1
  O2-  O332  1  0.56889858  0.42505845  0.22749702  1
  O2-  O333  1  0.56799102  0.42657285  0.73145929  1
  O2-  O334  1  0.57200964  0.76347527  0.23617638  1
  O2-  O335  1  0.57073795  0.76487269  0.73292362  1
  O2-  O336  1  0.90268451  0.09500793  0.22685705  1
  O2-  O337  1  0.90200600  0.09302314  0.72992738  1
  O2-  O338  1  0.90606514  0.42658734  0.22829090  1
  O2-  O339  1  0.89973272  0.42819899  0.73349887  1
  O2-  O340  1  0.91075071  0.76145771  0.22730445  1
  O2-  O341  1  0.90326379  0.76487616  0.73634022  1
  O2-  O342  1  0.25996609  0.26343586  0.02461973  1
  O2-  O343  1  0.26029548  0.25991513  0.52019309  1
  O2-  O344  1  0.26250520  0.59760453  0.01778447  1
  O2-  O345  1  0.26371279  0.59674920  0.51709255  1
  O2-  O346  1  0.26445389  0.93157232  0.01844501  1
  O2-  O347  1  0.26325571  0.92743807  0.52182549  1
  O2-  O348  1  0.59293432  0.25775045  0.02437099  1
  O2-  O349  1  0.59460292  0.26150396  0.52337822  1
  O2-  O350  1  0.59147856  0.59117367  0.01773459  1
  O2-  O351  1  0.58785922  0.58829726  0.51857056  1
  O2-  O352  1  0.59527494  0.92905540  0.01951634  1
  O2-  O353  1  0.59820432  0.92712171  0.52294660  1
  O2-  O354  1  0.93108520  0.26263995  0.01714532  1
  O2-  O355  1  0.92403351  0.25907881  0.51833039  1
  O2-  O356  1  0.93033228  0.59421902  0.01974507  1
  O2-  O357  1  0.92266370  0.58909949  0.51544682  1
  O2-  O358  1  0.93099483  0.92752301  0.02263975  1
  O2-  O359  1  0.93087507  0.93044462  0.52065618  1
