# generated using pymatgen
data_Sr7Ca15Pr50Mn72O216
_symmetry_space_group_name_H-M   'P 1'
_cell_length_a   16.55513719
_cell_length_b   16.59683699
_cell_length_c   15.58852794
_cell_angle_alpha   90.00058247
_cell_angle_beta   89.99723174
_cell_angle_gamma   89.99981190
_symmetry_Int_Tables_number   1
_chemical_formula_structural   Sr7Ca15Pr50Mn72O216
_chemical_formula_sum   'Sr7 Ca15 Pr50 Mn72 O216'
_cell_volume   4283.14934558
_cell_formula_units_Z   1
loop_
 _symmetry_equiv_pos_site_id
 _symmetry_equiv_pos_as_xyz
  1  'x, y, z'
loop_
 _atom_type_symbol
 _atom_type_oxidation_number
  Sr2+  2.0
  Ca2+  2.0
  Pr3+  3.0
  Mn3.30+  3.3
  O2-  -2.0
loop_
 _atom_site_type_symbol
 _atom_site_label
 _atom_site_symmetry_multiplicity
 _atom_site_fract_x
 _atom_site_fract_y
 _atom_site_fract_z
 _atom_site_occupancy
  Sr2+  Sr0  1  0.33322896  0.99034939  0.87634680  1
  Sr2+  Sr1  1  0.16436889  0.15576259  0.87396335  1
  Sr2+  Sr2  1  0.66343775  0.68026584  0.12465993  1
  Sr2+  Sr3  1  0.67025281  0.99056719  0.37393458  1
  Sr2+  Sr4  1  1.00353774  0.65463647  0.37384443  1
  Sr2+  Sr5  1  0.83293254  0.15304003  0.37482087  1
  Sr2+  Sr6  1  0.16791273  0.17413284  0.12347967  1
  Ca2+  Ca7  1  1.00251947  0.98534228  0.37437726  1
  Ca2+  Ca8  1  0.16258026  0.48670399  0.37585823  1
  Ca2+  Ca9  1  0.50587803  0.85038916  0.12360173  1
  Ca2+  Ca10  1  0.32915515  0.68559428  0.12492168  1
  Ca2+  Ca11  1  0.82925401  0.81976974  0.87610773  1
  Ca2+  Ca12  1  0.16658152  0.17817005  0.62737833  1
  Ca2+  Ca13  1  0.50086596  0.84792900  0.62620550  1
  Ca2+  Ca14  1  0.33024826  0.68365528  0.62520593  1
  Ca2+  Ca15  1  0.66492550  0.01013710  0.12568804  1
  Ca2+  Ca16  1  0.67046977  0.98247313  0.87629604  1
  Ca2+  Ca17  1  1.00542744  0.31523019  0.87420690  1
  Ca2+  Ca18  1  0.16753677  0.84628990  0.12536775  1
  Ca2+  Ca19  1  -0.00362994  0.01408184  0.62537420  1
  Ca2+  Ca20  1  0.66388298  0.34751181  0.62437915  1
  Ca2+  Ca21  1  -0.00487994  0.68277320  0.12620454  1
  Pr3+  Pr22  1  0.50123491  0.51490986  0.12506743  1
  Pr3+  Pr23  1  0.49869973  0.15173594  0.37613937  1
  Pr3+  Pr24  1  0.66973658  0.31999704  0.87326485  1
  Pr3+  Pr25  1  0.33145393  0.00915821  0.12381307  1
  Pr3+  Pr26  1  0.50447503  0.18180370  0.62529321  1
  Pr3+  Pr27  1  -0.00237265  0.67878448  0.62372758  1
  Pr3+  Pr28  1  0.66554038  0.34419301  0.12502352  1
  Pr3+  Pr29  1  0.15999831  0.15151379  0.37579152  1
  Pr3+  Pr30  1  0.33583406  0.65700679  0.87616601  1
  Pr3+  Pr31  1  0.33348718  0.32094895  0.37526421  1
  Pr3+  Pr32  1  1.00439356  0.98690296  0.87508337  1
  Pr3+  Pr33  1  0.32826043  0.34518359  0.62570310  1
  Pr3+  Pr34  1  0.50234064  0.51344490  0.62449030  1
  Pr3+  Pr35  1  0.67019266  0.65768342  0.37388880  1
  Pr3+  Pr36  1  0.16232177  0.82191715  0.37217135  1
  Pr3+  Pr37  1  0.33557959  0.98693374  0.37375886  1
  Pr3+  Pr38  1  0.33630432  0.31917270  0.87505161  1
  Pr3+  Pr39  1  -0.00071312  0.01055314  0.12548957  1
  Pr3+  Pr40  1  0.00139684  0.34200868  0.62711660  1
  Pr3+  Pr41  1  0.16249412  0.48517784  0.87494442  1
  Pr3+  Pr42  1  1.00285419  0.32202928  0.37628402  1
  Pr3+  Pr43  1  0.32776799  0.34426125  0.12464765  1
  Pr3+  Pr44  1  0.83191762  0.82520601  0.37400996  1
  Pr3+  Pr45  1  -0.00054242  0.34230256  0.12304993  1
  Pr3+  Pr46  1  0.84009855  0.51601759  0.12501525  1
  Pr3+  Pr47  1  0.83438984  0.84515563  0.12327233  1
  Pr3+  Pr48  1  0.66430429  0.01036786  0.62532064  1
  Pr3+  Pr49  1  0.16726925  0.82442480  0.87812862  1
  Pr3+  Pr50  1  0.83209171  0.15109032  0.87441663  1
  Pr3+  Pr51  1  0.83538859  0.17561218  0.62393734  1
  Pr3+  Pr52  1  0.67287491  0.31928980  0.37625169  1
  Pr3+  Pr53  1  0.49537808  0.14964434  0.87421472  1
  Pr3+  Pr54  1  0.32955075  0.01273708  0.62579257  1
  Pr3+  Pr55  1  0.83557137  0.51143226  0.62543021  1
  Pr3+  Pr56  1  1.00224343  0.65629133  0.87657546  1
  Pr3+  Pr57  1  0.66832525  0.65711058  0.87622965  1
  Pr3+  Pr58  1  0.83785254  0.84827194  0.62645794  1
  Pr3+  Pr59  1  0.66224949  0.68392199  0.62568457  1
  Pr3+  Pr60  1  0.49763863  0.48933144  0.87658326  1
  Pr3+  Pr61  1  0.17282587  0.51646142  0.62371318  1
  Pr3+  Pr62  1  0.83224254  0.48616333  0.87521721  1
  Pr3+  Pr63  1  0.16994373  0.51480240  0.12648687  1
  Pr3+  Pr64  1  0.83524007  0.17459945  0.12590597  1
  Pr3+  Pr65  1  0.49781582  0.82311968  0.37385205  1
  Pr3+  Pr66  1  0.50301134  0.17377758  0.12456538  1
  Pr3+  Pr67  1  0.49888994  0.48875062  0.37324443  1
  Pr3+  Pr68  1  0.33364341  0.65509198  0.37402696  1
  Pr3+  Pr69  1  0.83222473  0.48826455  0.37529667  1
  Pr3+  Pr70  1  0.49511276  0.82428698  0.87626289  1
  Pr3+  Pr71  1  0.16762208  0.84406309  0.62409564  1
  Mn3.30+  Mn72  1  0.16688336  -0.00139256  -0.00014240  1
  Mn3.30+  Mn73  1  0.16318633  0.00026119  0.50201538  1
  Mn3.30+  Mn74  1  0.16494729  0.33178344  -0.00082992  1
  Mn3.30+  Mn75  1  0.16709452  0.33323171  0.50040626  1
  Mn3.30+  Mn76  1  0.16674028  0.66902998  0.00394321  1
  Mn3.30+  Mn77  1  0.16760493  0.66699535  0.49874537  1
  Mn3.30+  Mn78  1  0.50371206  -0.00182483  0.00003271  1
  Mn3.30+  Mn79  1  0.49935135  -0.00170138  0.50105782  1
  Mn3.30+  Mn80  1  0.50028834  0.33272456  0.00086845  1
  Mn3.30+  Mn81  1  0.50130006  0.33428521  0.49956415  1
  Mn3.30+  Mn82  1  0.49897496  0.67055869  0.00307454  1
  Mn3.30+  Mn83  1  0.49829492  0.66929756  0.50119094  1
  Mn3.30+  Mn84  1  0.83045627  -0.00275216  -0.00123992  1
  Mn3.30+  Mn85  1  0.83593414  -0.00047254  0.49913954  1
  Mn3.30+  Mn86  1  0.83482003  0.33128494  -0.00244758  1
  Mn3.30+  Mn87  1  0.83296846  0.33248821  0.50318024  1
  Mn3.30+  Mn88  1  0.83437156  0.66875862  0.00009706  1
  Mn3.30+  Mn89  1  0.83350233  0.66747345  0.49988339  1
  Mn3.30+  Mn90  1  0.00013036  0.16513030  0.25108008  1
  Mn3.30+  Mn91  1  0.00077717  0.16472678  0.74841126  1
  Mn3.30+  Mn92  1  0.00321689  0.50064329  0.24993544  1
  Mn3.30+  Mn93  1  0.00126833  0.49874347  0.75018202  1
  Mn3.30+  Mn94  1  0.00096819  0.83289990  0.24791430  1
  Mn3.30+  Mn95  1  -0.00157105  0.83378711  0.75151217  1
  Mn3.30+  Mn96  1  0.33222211  0.16582675  0.25093034  1
  Mn3.30+  Mn97  1  0.33274432  0.16582572  0.74884059  1
  Mn3.30+  Mn98  1  0.33111699  0.50207157  0.25046391  1
  Mn3.30+  Mn99  1  0.33376067  0.50223507  0.75007064  1
  Mn3.30+  Mn100  1  0.33255740  0.83237548  0.24655374  1
  Mn3.30+  Mn101  1  0.33388650  0.83395341  0.74854363  1
  Mn3.30+  Mn102  1  0.66817598  0.16408126  0.24893247  1
  Mn3.30+  Mn103  1  0.66654678  0.16538144  0.75090293  1
  Mn3.30+  Mn104  1  0.66714685  0.50127846  0.24895555  1
  Mn3.30+  Mn105  1  0.66669853  0.49992997  0.74955642  1
  Mn3.30+  Mn106  1  0.66461784  0.83504448  0.24801951  1
  Mn3.30+  Mn107  1  0.66619077  0.83534466  0.75161420  1
  Mn3.30+  Mn108  1  0.16634390  -0.00164801  0.24986731  1
  Mn3.30+  Mn109  1  0.16416929  0.00048259  0.74789297  1
  Mn3.30+  Mn110  1  0.16643966  0.33388323  0.25027537  1
  Mn3.30+  Mn111  1  0.16552906  0.33128025  0.75045827  1
  Mn3.30+  Mn112  1  0.16574668  0.66808570  0.24655890  1
  Mn3.30+  Mn113  1  0.16839449  0.66821146  0.75107050  1
  Mn3.30+  Mn114  1  0.50215156  -0.00189071  0.24933730  1
  Mn3.30+  Mn115  1  0.50047996  -0.00188824  0.74957810  1
  Mn3.30+  Mn116  1  0.49978176  0.33213839  0.25008383  1
  Mn3.30+  Mn117  1  0.50182090  0.33493403  0.74928960  1
  Mn3.30+  Mn118  1  0.49847383  0.66998644  0.24807953  1
  Mn3.30+  Mn119  1  0.49846007  0.66995269  0.74774648  1
  Mn3.30+  Mn120  1  0.83281353  -0.00112536  0.24935871  1
  Mn3.30+  Mn121  1  0.83319577  -0.00219553  0.75206229  1
  Mn3.30+  Mn122  1  0.83404517  0.33301328  0.24938681  1
  Mn3.30+  Mn123  1  0.83400870  0.33120770  0.74980232  1
  Mn3.30+  Mn124  1  0.83520249  0.66826949  0.24945217  1
  Mn3.30+  Mn125  1  0.83273308  0.66778752  0.75097919  1
  Mn3.30+  Mn126  1  -0.00001491  0.16614412  -0.00075753  1
  Mn3.30+  Mn127  1  0.00102242  0.16355132  0.50108133  1
  Mn3.30+  Mn128  1  0.00115359  0.49995923  -0.00031745  1
  Mn3.30+  Mn129  1  0.00291418  0.49926477  0.50038949  1
  Mn3.30+  Mn130  1  -0.00093983  0.83204308  0.00081261  1
  Mn3.30+  Mn131  1  0.00007314  0.83539861  0.49950267  1
  Mn3.30+  Mn132  1  0.33393952  0.16496707  -0.00048200  1
  Mn3.30+  Mn133  1  0.33097422  0.16671434  0.50108957  1
  Mn3.30+  Mn134  1  0.33203610  0.50249488  0.00132683  1
  Mn3.30+  Mn135  1  0.33297377  0.50179363  0.49852035  1
  Mn3.30+  Mn136  1  0.33367268  0.83348607  0.00384597  1
  Mn3.30+  Mn137  1  0.33324552  0.83272507  0.50125159  1
  Mn3.30+  Mn138  1  0.66698332  0.16279593  -0.00189670  1
  Mn3.30+  Mn139  1  0.66822319  0.16661894  0.50140213  1
  Mn3.30+  Mn140  1  0.66730808  0.50077196  0.00057781  1
  Mn3.30+  Mn141  1  0.66655272  0.50055330  0.50073583  1
  Mn3.30+  Mn142  1  0.66588118  0.83515818  -0.00024143  1
  Mn3.30+  Mn143  1  0.66513568  0.83530323  0.50069256  1
  O2-  O144  1  0.01807138  0.16124953  0.12605021  1
  O2-  O145  1  0.02531743  0.16001904  0.62340106  1
  O2-  O146  1  0.02633020  0.48886067  0.12329934  1
  O2-  O147  1  0.02842838  0.49258847  0.62653170  1
  O2-  O148  1  0.02499296  0.82801187  0.12387578  1
  O2-  O149  1  0.02417136  0.82457488  0.62648972  1
  O2-  O150  1  0.35807800  0.16247631  0.12543300  1
  O2-  O151  1  0.35967997  0.16392255  0.62368172  1
  O2-  O152  1  0.35838808  0.49042889  0.12491532  1
  O2-  O153  1  0.35975149  0.49136111  0.62246708  1
  O2-  O154  1  0.36286703  0.83020913  0.12639506  1
  O2-  O155  1  0.35823895  0.82782293  0.62300529  1
  O2-  O156  1  0.69074855  0.16021467  0.12121007  1
  O2-  O157  1  0.69102587  0.15819458  0.62836356  1
  O2-  O158  1  0.69378182  0.49371610  0.12395991  1
  O2-  O159  1  0.69086439  0.49506999  0.62573507  1
  O2-  O160  1  0.69130254  0.83111811  0.12280389  1
  O2-  O161  1  0.69275132  0.83089377  0.62674790  1
  O2-  O162  1  0.14484274  0.33185507  0.12429943  1
  O2-  O163  1  0.14624945  0.32856269  0.62616762  1
  O2-  O164  1  0.13503053  0.65866872  0.12439548  1
  O2-  O165  1  0.14143148  0.66369039  0.62542063  1
  O2-  O166  1  0.14405203  0.99545726  0.12436668  1
  O2-  O167  1  0.13720364  0.98968154  0.62394372  1
  O2-  O168  1  0.47188253  0.32384095  0.12769562  1
  O2-  O169  1  0.47240470  0.33068013  0.62545525  1
  O2-  O170  1  0.47063771  0.65893475  0.12647350  1
  O2-  O171  1  0.47053798  0.65797994  0.62376498  1
  O2-  O172  1  0.47643151  1.00152894  0.12608238  1
  O2-  O173  1  0.47490324  0.99485774  0.62391194  1
  O2-  O174  1  0.80843586  0.32558204  0.12169272  1
  O2-  O175  1  0.80457405  0.32536557  0.62676543  1
  O2-  O176  1  0.81315396  0.66282507  0.12465226  1
  O2-  O177  1  0.80782859  0.66052775  0.62614601  1
  O2-  O178  1  0.80662799  0.99436327  0.12137429  1
  O2-  O179  1  0.80822731  0.99556241  0.62840237  1
  O2-  O180  1  0.30589275  0.17107381  0.37760625  1
  O2-  O181  1  0.31634117  0.17112821  0.87394970  1
  O2-  O182  1  0.30444447  0.50748754  0.37516030  1
  O2-  O183  1  0.30658333  0.50875066  0.87804123  1
  O2-  O184  1  0.30700037  0.83888896  0.37385722  1
  O2-  O185  1  0.31174888  0.83353994  0.87712601  1
  O2-  O186  1  0.64270418  0.17289557  0.37594529  1
  O2-  O187  1  0.63829208  0.17527373  0.87342539  1
  O2-  O188  1  0.64316955  0.50728276  0.37491192  1
  O2-  O189  1  0.64227589  0.50602808  0.87539815  1
  O2-  O190  1  0.64247361  0.83443659  0.37567286  1
  O2-  O191  1  0.63905382  0.83681716  0.87472055  1
  O2-  O192  1  0.98113621  0.17545874  0.37609490  1
  O2-  O193  1  0.97591211  0.16962795  0.87441516  1
  O2-  O194  1  0.97586497  0.49772647  0.37581796  1
  O2-  O195  1  0.97508927  0.50953506  0.87465503  1
  O2-  O196  1  0.97612155  0.83984200  0.37453820  1
  O2-  O197  1  0.97163073  0.83914270  0.87485715  1
  O2-  O198  1  0.19200266  0.00313762  0.37762021  1
  O2-  O199  1  0.18324515  -0.00314036  0.87388102  1
  O2-  O200  1  0.18979984  0.34055047  0.37514311  1
  O2-  O201  1  0.19210726  0.33771751  0.87453285  1
  O2-  O202  1  0.19112385  0.67507718  0.37201892  1
  O2-  O203  1  0.19285826  0.67393712  0.87815568  1
  O2-  O204  1  0.51975618  0.00320407  0.37623301  1
  O2-  O205  1  0.52597837  0.00296125  0.87382129  1
  O2-  O206  1  0.52911870  0.33966926  0.37254124  1
  O2-  O207  1  0.52622715  0.34152647  0.87390017  1
  O2-  O208  1  0.52607504  0.67418838  0.37560893  1
  O2-  O209  1  0.52370241  0.67425937  0.87468188  1
  O2-  O210  1  0.85865858  -0.00455301  0.37512847  1
  O2-  O211  1  0.86177679  0.00508493  0.87507375  1
  O2-  O212  1  0.85823706  0.34017009  0.37772006  1
  O2-  O213  1  0.86305038  0.33762798  0.87370301  1
  O2-  O214  1  0.85262342  0.67417429  0.37505447  1
  O2-  O215  1  0.85791960  0.67214902  0.87439351  1
  O2-  O216  1  0.24622121  0.08973398  0.01731662  1
  O2-  O217  1  0.23440469  0.09449269  0.52360358  1
  O2-  O218  1  0.23885925  0.42999668  0.01845071  1
  O2-  O219  1  0.24072489  0.42833826  0.52207447  1
  O2-  O220  1  0.23513780  0.76318964  0.02196801  1
  O2-  O221  1  0.23784969  0.76300559  0.51710578  1
  O2-  O222  1  0.57048257  0.09736689  0.01601010  1
  O2-  O223  1  0.57114833  0.09573232  0.51964847  1
  O2-  O224  1  0.57177851  0.42637188  0.02255836  1
  O2-  O225  1  0.57018551  0.43114239  0.51719146  1
  O2-  O226  1  0.56760469  0.76648772  0.01767584  1
  O2-  O227  1  0.56917574  0.76267755  0.52330871  1
  O2-  O228  1  0.90295156  0.09270152  0.01865247  1
  O2-  O229  1  0.90566905  0.09372392  0.52041132  1
  O2-  O230  1  0.90502840  0.42845452  0.02046363  1
  O2-  O231  1  0.90468232  0.42492516  0.52403031  1
  O2-  O232  1  0.90597475  0.76131111  0.01918824  1
  O2-  O233  1  0.90577886  0.76132350  0.52013476  1
  O2-  O234  1  0.26327120  0.26458779  0.23503342  1
  O2-  O235  1  0.26457168  0.26313978  0.73405859  1
  O2-  O236  1  0.26141169  0.59934208  0.22565973  1
  O2-  O237  1  0.26446184  0.59619608  0.72824392  1
  O2-  O238  1  0.26440214  0.92805269  0.23212445  1
  O2-  O239  1  0.25832909  0.92612299  0.72690050  1
  O2-  O240  1  0.59401799  0.25991034  0.22835548  1
  O2-  O241  1  0.59523706  0.26544094  0.72736779  1
  O2-  O242  1  0.58960510  0.59336012  0.23298624  1
  O2-  O243  1  0.59198067  0.59863079  0.72970520  1
  O2-  O244  1  0.59506885  0.92971083  0.22940955  1
  O2-  O245  1  0.59624868  0.92860497  0.73066146  1
  O2-  O246  1  0.92716103  0.26045055  0.23047196  1
  O2-  O247  1  0.92547452  0.25741255  0.72558486  1
  O2-  O248  1  0.93113917  0.59176149  0.22845272  1
  O2-  O249  1  0.92914299  0.59199175  0.72856926  1
  O2-  O250  1  0.92623864  0.92488812  0.22564070  1
  O2-  O251  1  0.92934792  0.92876411  0.72790483  1
  O2-  O252  1  0.09581389  0.24081000  0.27062608  1
  O2-  O253  1  0.09091281  0.23928896  0.76404775  1
  O2-  O254  1  0.10032044  0.56618370  0.26771283  1
  O2-  O255  1  0.09798109  0.57361227  0.77041900  1
  O2-  O256  1  0.09356620  0.90636357  0.26786419  1
  O2-  O257  1  0.09329428  0.90264929  0.77045609  1
  O2-  O258  1  0.42793211  0.23893581  0.27440372  1
  O2-  O259  1  0.43221960  0.24138157  0.76926896  1
  O2-  O260  1  0.42663975  0.57280576  0.27188158  1
  O2-  O261  1  0.42867826  0.57208077  0.77210013  1
  O2-  O262  1  0.42646323  0.90714856  0.27051107  1
  O2-  O263  1  0.42876281  0.90556477  0.76685829  1
  O2-  O264  1  0.75818221  0.24156367  0.26608673  1
  O2-  O265  1  0.76228942  0.23777314  0.77309771  1
  O2-  O266  1  0.76371247  0.57369335  0.26952078  1
  O2-  O267  1  0.76209361  0.57229360  0.77108821  1
  O2-  O268  1  0.76342111  0.90316635  0.26576884  1
  O2-  O269  1  0.76595284  0.90142449  0.76956516  1
  O2-  O270  1  0.07132013  0.07054814  0.47464121  1
  O2-  O271  1  0.06874095  0.07086290  0.98531818  1
  O2-  O272  1  0.07018480  0.40217775  0.48476467  1
  O2-  O273  1  0.07033452  0.40539944  0.97659654  1
  O2-  O274  1  0.07341197  0.74057985  0.48332888  1
  O2-  O275  1  0.07262751  0.74005414  0.97594168  1
  O2-  O276  1  0.40278114  0.07309267  0.48071851  1
  O2-  O277  1  0.41112111  0.07404426  0.98316500  1
  O2-  O278  1  0.40580646  0.40712272  0.47580311  1
  O2-  O279  1  0.40524991  0.40664681  0.97932094  1
  O2-  O280  1  0.40554066  0.73988064  0.47537943  1
  O2-  O281  1  0.40434807  0.73941502  0.97979265  1
  O2-  O282  1  0.74074532  0.07134050  0.48814365  1
  O2-  O283  1  0.73880274  0.07166120  0.97309011  1
  O2-  O284  1  0.74054089  0.40764054  0.47869663  1
  O2-  O285  1  0.74132590  0.40251462  0.97768395  1
  O2-  O286  1  0.73469805  0.74008231  0.48315968  1
  O2-  O287  1  0.73537029  0.73988414  0.97970543  1
  O2-  O288  1  0.09445686  0.23878819  0.48120936  1
  O2-  O289  1  0.08990206  0.24059334  0.98378479  1
  O2-  O290  1  0.10155089  0.56970613  0.48393568  1
  O2-  O291  1  0.09718393  0.57155349  0.97823403  1
  O2-  O292  1  0.09661050  0.90315154  0.48098418  1
  O2-  O293  1  0.08996820  0.90458722  0.98004034  1
  O2-  O294  1  0.42998472  0.24004666  0.47860416  1
  O2-  O295  1  0.42962209  0.23935165  0.97920216  1
  O2-  O296  1  0.42894380  0.57223583  0.47627599  1
  O2-  O297  1  0.42641865  0.57245812  0.97969134  1
  O2-  O298  1  0.42389872  0.90609815  0.47794248  1
  O2-  O299  1  0.43068264  0.90639412  0.98464970  1
  O2-  O300  1  0.76067680  0.24119966  0.48162835  1
  O2-  O301  1  0.75990696  0.23652264  0.97720472  1
  O2-  O302  1  0.76115060  0.57236348  0.48014085  1
  O2-  O303  1  0.76322050  0.57284374  0.97955316  1
  O2-  O304  1  0.76493924  0.90298938  0.48588398  1
  O2-  O305  1  0.76478317  0.90186181  0.97845548  1
  O2-  O306  1  0.07198200  0.07207908  0.27041661  1
  O2-  O307  1  0.06845024  0.06941888  0.76735100  1
  O2-  O308  1  0.06926602  0.40162239  0.26637445  1
  O2-  O309  1  0.07126536  0.40477361  0.77209092  1
  O2-  O310  1  0.07445308  0.74118230  0.26925164  1
  O2-  O311  1  0.07073754  0.73943270  0.77169351  1
  O2-  O312  1  0.40710933  0.07237213  0.27018242  1
  O2-  O313  1  0.40809845  0.07332993  0.76523595  1
  O2-  O314  1  0.40699747  0.40546080  0.27204936  1
  O2-  O315  1  0.40499250  0.40708450  0.77237041  1
  O2-  O316  1  0.40427200  0.74012608  0.27401736  1
  O2-  O317  1  0.40575279  0.73921522  0.77157436  1
  O2-  O318  1  0.74091660  0.07408729  0.26357249  1
  O2-  O319  1  0.73890594  0.06771443  0.77307128  1
  O2-  O320  1  0.74040070  0.40575106  0.27028091  1
  O2-  O321  1  0.74320490  0.40445158  0.77318415  1
  O2-  O322  1  0.73750809  0.74187423  0.26978492  1
  O2-  O323  1  0.73300560  0.73745839  0.76735696  1
  O2-  O324  1  0.24164014  0.09115343  0.23394164  1
  O2-  O325  1  0.23741076  0.09145366  0.72583670  1
  O2-  O326  1  0.23947074  0.42724224  0.22879384  1
  O2-  O327  1  0.23954384  0.43039805  0.73141541  1
  O2-  O328  1  0.23647391  0.76430155  0.22829062  1
  O2-  O329  1  0.23658897  0.76264376  0.73285763  1
  O2-  O330  1  0.57024792  0.09675089  0.23521757  1
  O2-  O331  1  0.57037537  0.09477888  0.72855620  1
  O2-  O332  1  0.57137213  0.42583163  0.22704664  1
  O2-  O333  1  0.56903047  0.43092533  0.73178434  1
  O2-  O334  1  0.56686901  0.76571060  0.23220611  1
  O2-  O335  1  0.56941019  0.76311610  0.72720198  1
  O2-  O336  1  0.90573825  0.08999185  0.22802881  1
  O2-  O337  1  0.90157323  0.09551732  0.73297877  1
  O2-  O338  1  0.90584805  0.42765907  0.22880303  1
  O2-  O339  1  0.90449591  0.42520710  0.72760534  1
  O2-  O340  1  0.90424293  0.76281865  0.23226229  1
  O2-  O341  1  0.90685056  0.75896158  0.72758075  1
  O2-  O342  1  0.26493154  0.26291070  0.01502110  1
  O2-  O343  1  0.26461959  0.26447472  0.51642364  1
  O2-  O344  1  0.26160643  0.59749196  0.02429622  1
  O2-  O345  1  0.26486572  0.59766424  0.52234901  1
  O2-  O346  1  0.26174068  0.92449459  0.02048431  1
  O2-  O347  1  0.26068319  0.92842790  0.52104031  1
  O2-  O348  1  0.59608082  0.26070895  0.02090810  1
  O2-  O349  1  0.59537908  0.26317153  0.52202981  1
  O2-  O350  1  0.58792837  0.59515310  0.01759746  1
  O2-  O351  1  0.59374120  0.59698930  0.52073856  1
  O2-  O352  1  0.59868326  0.93139006  0.01965886  1
  O2-  O353  1  0.59551241  0.92722500  0.52038886  1
  O2-  O354  1  0.92460087  0.25754836  0.02175790  1
  O2-  O355  1  0.92840975  0.25968504  0.52239697  1
  O2-  O356  1  0.93172710  0.59393202  0.02057442  1
  O2-  O357  1  0.92861780  0.59006626  0.52239756  1
  O2-  O358  1  0.92804800  0.92747597  0.02215515  1
  O2-  O359  1  0.92847616  0.92689204  0.52465006  1
