# generated using pymatgen
data_Sr7Ca15Pr50Mn72O216
_symmetry_space_group_name_H-M   'P 1'
_cell_length_a   16.55983586
_cell_length_b   16.60523224
_cell_length_c   15.59191540
_cell_angle_alpha   90.00349276
_cell_angle_beta   89.99992439
_cell_angle_gamma   89.99906269
_symmetry_Int_Tables_number   1
_chemical_formula_structural   Sr7Ca15Pr50Mn72O216
_chemical_formula_sum   'Sr7 Ca15 Pr50 Mn72 O216'
_cell_volume   4287.46364474
_cell_formula_units_Z   1
loop_
 _symmetry_equiv_pos_site_id
 _symmetry_equiv_pos_as_xyz
  1  'x, y, z'
loop_
 _atom_type_symbol
 _atom_type_oxidation_number
  Sr2+  2.0
  Ca2+  2.0
  Pr3+  3.0
  Mn3.30+  3.3
  O2-  -2.0
loop_
 _atom_site_type_symbol
 _atom_site_label
 _atom_site_symmetry_multiplicity
 _atom_site_fract_x
 _atom_site_fract_y
 _atom_site_fract_z
 _atom_site_occupancy
  Sr2+  Sr0  1  0.99961573  0.65860275  0.87739338  1
  Sr2+  Sr1  1  0.83438170  0.17724573  0.12359129  1
  Sr2+  Sr2  1  1.00028338  0.99230238  0.87729731  1
  Sr2+  Sr3  1  0.50289831  0.50949135  0.12508498  1
  Sr2+  Sr4  1  0.50235907  0.49351264  0.37353275  1
  Sr2+  Sr5  1  0.50411660  0.17580536  0.12377599  1
  Sr2+  Sr6  1  0.66638091  0.67743920  0.62312062  1
  Ca2+  Ca7  1  0.67360094  0.98264654  0.37267625  1
  Ca2+  Ca8  1  0.67019490  0.31887731  0.87810367  1
  Ca2+  Ca9  1  0.82928163  0.48296455  0.87559953  1
  Ca2+  Ca10  1  0.82643986  0.81539131  0.37542808  1
  Ca2+  Ca11  1  0.33057251  0.68098918  0.62705274  1
  Ca2+  Ca12  1  0.66933896  0.65202237  0.37505750  1
  Ca2+  Ca13  1  0.66285909  0.01573488  0.12527988  1
  Ca2+  Ca14  1  -0.00614693  0.68118992  0.12247426  1
  Ca2+  Ca15  1  -0.00593512  0.34769662  0.12138603  1
  Ca2+  Ca16  1  0.83241946  0.82036343  0.87347409  1
  Ca2+  Ca17  1  0.83574775  0.84551527  0.62633961  1
  Ca2+  Ca18  1  0.33553088  0.65403979  0.87434754  1
  Ca2+  Ca19  1  0.16196486  0.48909487  0.87634836  1
  Ca2+  Ca20  1  0.16118622  0.15107357  0.87599882  1
  Ca2+  Ca21  1  0.33648924  0.98683367  0.87593343  1
  Pr3+  Pr22  1  -0.00353192  0.34919908  0.62764069  1
  Pr3+  Pr23  1  0.16865587  0.18039051  0.12160764  1
  Pr3+  Pr24  1  0.83833197  0.51264735  0.12252500  1
  Pr3+  Pr25  1  0.49576258  0.81946693  0.87450441  1
  Pr3+  Pr26  1  0.50321414  0.84337220  0.62495929  1
  Pr3+  Pr27  1  1.00017957  0.65481312  0.37290210  1
  Pr3+  Pr28  1  0.66693328  0.00775411  0.62431458  1
  Pr3+  Pr29  1  0.33288782  0.01298020  0.12313193  1
  Pr3+  Pr30  1  -0.00382526  0.01058863  0.62620940  1
  Pr3+  Pr31  1  0.16424496  0.15372041  0.37437385  1
  Pr3+  Pr32  1  0.66390623  0.34630583  0.62761297  1
  Pr3+  Pr33  1  0.16428994  0.82382872  0.87548895  1
  Pr3+  Pr34  1  0.16961616  0.51737344  0.62862188  1
  Pr3+  Pr35  1  0.33253879  0.32252600  0.87600900  1
  Pr3+  Pr36  1  1.00302183  0.32214426  0.87740181  1
  Pr3+  Pr37  1  0.33904974  0.98615060  0.37436852  1
  Pr3+  Pr38  1  0.82925406  0.48910376  0.37504677  1
  Pr3+  Pr39  1  0.33842653  0.32291984  0.37372932  1
  Pr3+  Pr40  1  -0.00625938  0.68362339  0.62736520  1
  Pr3+  Pr41  1  0.83450184  0.84388452  0.12425945  1
  Pr3+  Pr42  1  -0.00294115  0.01304082  0.12343632  1
  Pr3+  Pr43  1  0.99964577  0.98551855  0.37282469  1
  Pr3+  Pr44  1  0.83711616  0.17888799  0.62608015  1
  Pr3+  Pr45  1  0.16877939  0.17965225  0.62789003  1
  Pr3+  Pr46  1  0.33415608  0.67725372  0.12349429  1
  Pr3+  Pr47  1  0.50274469  0.17869496  0.62655292  1
  Pr3+  Pr48  1  0.50180763  0.81976508  0.37546010  1
  Pr3+  Pr49  1  0.49900334  0.15234286  0.87676135  1
  Pr3+  Pr50  1  0.49816368  0.48929296  0.87566161  1
  Pr3+  Pr51  1  0.66237304  0.67731139  0.12663882  1
  Pr3+  Pr52  1  0.33331159  0.34756985  0.12270775  1
  Pr3+  Pr53  1  0.50174093  0.51529050  0.62570958  1
  Pr3+  Pr54  1  0.49971281  0.15416995  0.37350176  1
  Pr3+  Pr55  1  0.16360516  0.48849311  0.37429141  1
  Pr3+  Pr56  1  0.67295748  0.98462731  0.87709599  1
  Pr3+  Pr57  1  0.16550150  0.51310414  0.12080190  1
  Pr3+  Pr58  1  0.50729260  0.84795223  0.12473659  1
  Pr3+  Pr59  1  1.00170545  0.32157254  0.37301652  1
  Pr3+  Pr60  1  0.16791935  0.84407834  0.62685001  1
  Pr3+  Pr61  1  0.32988702  0.34789372  0.62651264  1
  Pr3+  Pr62  1  0.83640537  0.51581424  0.62774793  1
  Pr3+  Pr63  1  0.33623322  0.65349461  0.37580522  1
  Pr3+  Pr64  1  0.16608891  0.84436246  0.12302087  1
  Pr3+  Pr65  1  0.83058887  0.15493394  0.87629768  1
  Pr3+  Pr66  1  0.67338747  0.65294425  0.87476689  1
  Pr3+  Pr67  1  0.82742412  0.15103340  0.37403696  1
  Pr3+  Pr68  1  0.66326795  0.34398916  0.12273385  1
  Pr3+  Pr69  1  0.16309378  0.81931654  0.37456297  1
  Pr3+  Pr70  1  0.66808262  0.32259222  0.37366206  1
  Pr3+  Pr71  1  0.33090123  0.01181207  0.62690801  1
  Mn3.30+  Mn72  1  0.16776588  0.00127952  -0.00203739  1
  Mn3.30+  Mn73  1  0.16655384  -0.00094383  0.49941979  1
  Mn3.30+  Mn74  1  0.16417924  0.33514096  0.00001247  1
  Mn3.30+  Mn75  1  0.16661390  0.33452096  0.50004391  1
  Mn3.30+  Mn76  1  0.16545456  0.66681621  -0.00126194  1
  Mn3.30+  Mn77  1  0.16633415  0.66751867  0.50140308  1
  Mn3.30+  Mn78  1  0.50198476  -0.00070647  -0.00085748  1
  Mn3.30+  Mn79  1  0.50268510  -0.00092840  0.49881083  1
  Mn3.30+  Mn80  1  0.50170230  0.33295856  -0.00236686  1
  Mn3.30+  Mn81  1  0.49965014  0.33430517  0.50112161  1
  Mn3.30+  Mn82  1  0.50021024  0.66591851  -0.00136273  1
  Mn3.30+  Mn83  1  0.50026904  0.66689833  0.50068684  1
  Mn3.30+  Mn84  1  0.83237133  -0.00117723  0.00123808  1
  Mn3.30+  Mn85  1  0.83165991  -0.00428297  0.49863473  1
  Mn3.30+  Mn86  1  0.83320535  0.33365070  -0.00063436  1
  Mn3.30+  Mn87  1  0.83350780  0.33361534  0.50081901  1
  Mn3.30+  Mn88  1  0.83383140  0.66613708  -0.00142918  1
  Mn3.30+  Mn89  1  0.83168434  0.66956726  0.49974080  1
  Mn3.30+  Mn90  1  -0.00189455  0.16791448  0.24926206  1
  Mn3.30+  Mn91  1  0.00188191  0.16670150  0.75113854  1
  Mn3.30+  Mn92  1  -0.00112802  0.50049612  0.24709747  1
  Mn3.30+  Mn93  1  0.00034384  0.50261059  0.75496233  1
  Mn3.30+  Mn94  1  -0.00350178  0.83144596  0.24938053  1
  Mn3.30+  Mn95  1  -0.00183519  0.83484713  0.75288275  1
  Mn3.30+  Mn96  1  0.33368497  0.16759408  0.24793347  1
  Mn3.30+  Mn97  1  0.33209326  0.16558004  0.75403862  1
  Mn3.30+  Mn98  1  0.33271718  0.50077540  0.24756069  1
  Mn3.30+  Mn99  1  0.33129609  0.50369488  0.75282987  1
  Mn3.30+  Mn100  1  0.33452460  0.83307222  0.24884990  1
  Mn3.30+  Mn101  1  0.33327309  0.83222025  0.75127283  1
  Mn3.30+  Mn102  1  0.66690365  0.16442869  0.24909829  1
  Mn3.30+  Mn103  1  0.66741235  0.16601151  0.75013620  1
  Mn3.30+  Mn104  1  0.66825647  0.50005457  0.24999271  1
  Mn3.30+  Mn105  1  0.66793927  0.49913146  0.75154356  1
  Mn3.30+  Mn106  1  0.66979090  0.83319505  0.25209650  1
  Mn3.30+  Mn107  1  0.66892012  0.83180850  0.74871934  1
  Mn3.30+  Mn108  1  0.16723880  -0.00020037  0.24959105  1
  Mn3.30+  Mn109  1  0.16698733  0.00057079  0.75228770  1
  Mn3.30+  Mn110  1  0.16536738  0.33447640  0.24727376  1
  Mn3.30+  Mn111  1  0.16544180  0.33514174  0.75280587  1
  Mn3.30+  Mn112  1  0.16443946  0.66683745  0.24646093  1
  Mn3.30+  Mn113  1  0.16772387  0.66741638  0.75354992  1
  Mn3.30+  Mn114  1  0.50560397  -0.00030214  0.25115284  1
  Mn3.30+  Mn115  1  0.49955634  -0.00151242  0.75084052  1
  Mn3.30+  Mn116  1  0.50127085  0.33343797  0.24918908  1
  Mn3.30+  Mn117  1  0.50013167  0.33335789  0.75257134  1
  Mn3.30+  Mn118  1  0.50128154  0.66608057  0.25089959  1
  Mn3.30+  Mn119  1  0.49881873  0.66720296  0.74989669  1
  Mn3.30+  Mn120  1  0.83042722  -0.00212810  0.24893955  1
  Mn3.30+  Mn121  1  0.83349669  -0.00321659  0.75077881  1
  Mn3.30+  Mn122  1  0.83502354  0.33280346  0.24787503  1
  Mn3.30+  Mn123  1  0.83160755  0.33415329  0.75228026  1
  Mn3.30+  Mn124  1  0.83204720  0.66699650  0.24964643  1
  Mn3.30+  Mn125  1  0.83342404  0.66891544  0.75189029  1
  Mn3.30+  Mn126  1  0.00077628  0.16846493  0.00051537  1
  Mn3.30+  Mn127  1  -0.00072217  0.16630835  0.49920632  1
  Mn3.30+  Mn128  1  -0.00121400  0.50095618  -0.00228947  1
  Mn3.30+  Mn129  1  -0.00007567  0.50208624  0.50088974  1
  Mn3.30+  Mn130  1  -0.00156021  0.83275111  -0.00081124  1
  Mn3.30+  Mn131  1  -0.00391072  0.83326119  0.49829814  1
  Mn3.30+  Mn132  1  0.33233893  0.16611725  -0.00255775  1
  Mn3.30+  Mn133  1  0.33366981  0.16715772  0.50076907  1
  Mn3.30+  Mn134  1  0.33135743  0.50262350  -0.00287003  1
  Mn3.30+  Mn135  1  0.33307740  0.50172099  0.50133699  1
  Mn3.30+  Mn136  1  0.33443738  0.83346791  -0.00058717  1
  Mn3.30+  Mn137  1  0.33334917  0.83202318  0.50068031  1
  Mn3.30+  Mn138  1  0.66682948  0.16633377  0.00017810  1
  Mn3.30+  Mn139  1  0.66710811  0.16452787  0.50013852  1
  Mn3.30+  Mn140  1  0.66908528  0.49815214  -0.00176086  1
  Mn3.30+  Mn141  1  0.66685290  0.50110893  0.50042876  1
  Mn3.30+  Mn142  1  0.66813318  0.83227198  -0.00069208  1
  Mn3.30+  Mn143  1  0.67045833  0.83233667  0.49935714  1
  O2-  O144  1  0.02510189  0.16063418  0.12707682  1
  O2-  O145  1  0.02451245  0.16041314  0.62412155  1
  O2-  O146  1  0.02260040  0.49130933  0.12398522  1
  O2-  O147  1  0.02465059  0.49697146  0.62811063  1
  O2-  O148  1  0.02268450  0.82830086  0.12582029  1
  O2-  O149  1  0.02412874  0.83165828  0.62432040  1
  O2-  O150  1  0.35464058  0.16190797  0.12385400  1
  O2-  O151  1  0.35919895  0.16075619  0.62972829  1
  O2-  O152  1  0.35311739  0.49681200  0.12199420  1
  O2-  O153  1  0.35799628  0.49357024  0.62841530  1
  O2-  O154  1  0.36245255  0.82643194  0.12363587  1
  O2-  O155  1  0.35848414  0.82702454  0.62376188  1
  O2-  O156  1  0.68479189  0.16184258  0.12645884  1
  O2-  O157  1  0.69317828  0.15787031  0.62396271  1
  O2-  O158  1  0.69306417  0.49340435  0.12371079  1
  O2-  O159  1  0.69212669  0.49360987  0.62788298  1
  O2-  O160  1  0.69036833  0.82322703  0.12706627  1
  O2-  O161  1  0.69292584  0.83440288  0.62349526  1
  O2-  O162  1  0.13649357  0.32695994  0.12492581  1
  O2-  O163  1  0.14023575  0.32727158  0.62782735  1
  O2-  O164  1  0.13643929  0.66122102  0.12441618  1
  O2-  O165  1  0.13837886  0.66469664  0.62712326  1
  O2-  O166  1  0.14196754  0.99423875  0.12656000  1
  O2-  O167  1  0.14103355  0.99369915  0.62405059  1
  O2-  O168  1  0.47773510  0.33040707  0.12107965  1
  O2-  O169  1  0.47333932  0.32645408  0.62786470  1
  O2-  O170  1  0.47935617  0.66711877  0.12463023  1
  O2-  O171  1  0.47308883  0.66409648  0.62551715  1
  O2-  O172  1  0.47674008  0.99557872  0.12476394  1
  O2-  O173  1  0.47452276  0.99389925  0.62515614  1
  O2-  O174  1  0.80767051  0.33328624  0.12432554  1
  O2-  O175  1  0.80861421  0.32720033  0.62628207  1
  O2-  O176  1  0.80595746  0.65988372  0.12396218  1
  O2-  O177  1  0.81547528  0.66114307  0.62627731  1
  O2-  O178  1  0.80497372  0.99228587  0.12626938  1
  O2-  O179  1  0.81035650  0.99310541  0.62459586  1
  O2-  O180  1  0.30755822  0.17400040  0.37203984  1
  O2-  O181  1  0.30212908  0.17511760  0.87446683  1
  O2-  O182  1  0.30690085  0.50433714  0.37374687  1
  O2-  O183  1  0.30438365  0.50826345  0.87475567  1
  O2-  O184  1  0.30712004  0.83963702  0.37542349  1
  O2-  O185  1  0.30829728  0.84373113  0.87705646  1
  O2-  O186  1  0.64274285  0.17526453  0.37714010  1
  O2-  O187  1  0.64391835  0.17118423  0.87211880  1
  O2-  O188  1  0.65259057  0.50216642  0.37547073  1
  O2-  O189  1  0.64164251  0.50671640  0.87346521  1
  O2-  O190  1  0.64276944  0.84171464  0.37509268  1
  O2-  O191  1  0.64026734  0.83752834  0.87402550  1
  O2-  O192  1  0.97280663  0.17385115  0.37408061  1
  O2-  O193  1  0.97502648  0.17270767  0.87473696  1
  O2-  O194  1  0.97465735  0.50665640  0.37341734  1
  O2-  O195  1  0.97172757  0.50204747  0.87532564  1
  O2-  O196  1  0.97122015  0.83734411  0.37289657  1
  O2-  O197  1  0.97522030  0.83793444  0.87674644  1
  O2-  O198  1  0.19488077  0.00518090  0.37410884  1
  O2-  O199  1  0.19409691  0.00411945  0.87488754  1
  O2-  O200  1  0.19416744  0.34076153  0.37257386  1
  O2-  O201  1  0.19046876  0.34483462  0.87487506  1
  O2-  O202  1  0.19138694  0.67072707  0.37256694  1
  O2-  O203  1  0.19494349  0.67764636  0.87599324  1
  O2-  O204  1  0.52941891  0.00615738  0.37729221  1
  O2-  O205  1  0.52789066  0.00217600  0.87361236  1
  O2-  O206  1  0.52252400  0.33465259  0.37818527  1
  O2-  O207  1  0.52694972  0.34010673  0.87337789  1
  O2-  O208  1  0.52455251  0.67160188  0.37543364  1
  O2-  O209  1  0.52769652  0.67146962  0.87421366  1
  O2-  O210  1  0.85817205  0.00610076  0.37368134  1
  O2-  O211  1  0.85080757  0.00772190  0.87513816  1
  O2-  O212  1  0.85834016  0.33986531  0.37583373  1
  O2-  O213  1  0.85858689  0.33467738  0.87377614  1
  O2-  O214  1  0.85806513  0.66893790  0.37503205  1
  O2-  O215  1  0.85063357  0.67659080  0.87519057  1
  O2-  O216  1  0.24086754  0.09282815  0.02308541  1
  O2-  O217  1  0.24032826  0.09708082  0.52079013  1
  O2-  O218  1  0.23827740  0.42584823  0.02201674  1
  O2-  O219  1  0.23708553  0.43060951  0.52136857  1
  O2-  O220  1  0.24037055  0.76082754  0.02409141  1
  O2-  O221  1  0.23339616  0.76280423  0.51639001  1
  O2-  O222  1  0.57180360  0.09372568  0.01104559  1
  O2-  O223  1  0.57108854  0.09441322  0.52262813  1
  O2-  O224  1  0.57533585  0.42679831  0.01648064  1
  O2-  O225  1  0.57195544  0.42442555  0.52439116  1
  O2-  O226  1  0.57160887  0.76293267  0.01839771  1
  O2-  O227  1  0.57061622  0.76450572  0.51635646  1
  O2-  O228  1  0.91031961  0.09224966  0.01736884  1
  O2-  O229  1  0.90320725  0.09353229  0.51916200  1
  O2-  O230  1  0.90352021  0.42842410  0.01660427  1
  O2-  O231  1  0.90629799  0.43068016  0.52159828  1
  O2-  O232  1  0.90383193  0.75910574  0.01986522  1
  O2-  O233  1  0.90433316  0.76295171  0.52207818  1
  O2-  O234  1  0.25971467  0.26362661  0.22632318  1
  O2-  O235  1  0.26167530  0.26155051  0.72951466  1
  O2-  O236  1  0.25779810  0.59562057  0.22783402  1
  O2-  O237  1  0.26191161  0.59656543  0.72561206  1
  O2-  O238  1  0.26422605  0.92689585  0.22817833  1
  O2-  O239  1  0.26059163  0.92613791  0.72696596  1
  O2-  O240  1  0.59708574  0.26202114  0.23518722  1
  O2-  O241  1  0.59513538  0.25680478  0.72656222  1
  O2-  O242  1  0.59665508  0.59268804  0.23392724  1
  O2-  O243  1  0.59151734  0.59235323  0.73163075  1
  O2-  O244  1  0.59777564  0.92785784  0.22688227  1
  O2-  O245  1  0.59649748  0.92625806  0.72953035  1
  O2-  O246  1  0.93117396  0.26648826  0.23235769  1
  O2-  O247  1  0.92909756  0.26146342  0.72919229  1
  O2-  O248  1  0.93026245  0.59655224  0.22884881  1
  O2-  O249  1  0.92862704  0.59546108  0.73022513  1
  O2-  O250  1  0.92817199  0.92884412  0.22828756  1
  O2-  O251  1  0.92894568  0.92903426  0.73032508  1
  O2-  O252  1  0.09667119  0.23989102  0.27287712  1
  O2-  O253  1  0.09718280  0.23980763  0.77203363  1
  O2-  O254  1  0.09452844  0.57206582  0.26997617  1
  O2-  O255  1  0.10031403  0.57060537  0.76948862  1
  O2-  O256  1  0.09488431  0.90630888  0.27061410  1
  O2-  O257  1  0.09698558  0.90516881  0.76735160  1
  O2-  O258  1  0.42645235  0.24035539  0.27164132  1
  O2-  O259  1  0.42710655  0.23861976  0.77361933  1
  O2-  O260  1  0.42196724  0.57763876  0.26784171  1
  O2-  O261  1  0.42958314  0.57076760  0.76920079  1
  O2-  O262  1  0.43314430  0.90782491  0.27150592  1
  O2-  O263  1  0.42880973  0.90331103  0.76717000  1
  O2-  O264  1  0.76052792  0.23863117  0.27175444  1
  O2-  O265  1  0.76522124  0.23408712  0.76544003  1
  O2-  O266  1  0.76618141  0.56906908  0.26552075  1
  O2-  O267  1  0.76275336  0.56930402  0.77011544  1
  O2-  O268  1  0.76607618  0.89871347  0.26901378  1
  O2-  O269  1  0.76090325  0.90515955  0.77289815  1
  O2-  O270  1  0.07286040  0.07139287  0.47659121  1
  O2-  O271  1  0.07657414  0.07495001  0.98633863  1
  O2-  O272  1  0.07162308  0.40573703  0.48014293  1
  O2-  O273  1  0.07043366  0.40644953  0.98032717  1
  O2-  O274  1  0.06939264  0.73820236  0.47911644  1
  O2-  O275  1  0.07777348  0.74448185  0.98085943  1
  O2-  O276  1  0.40758963  0.07067215  0.47929401  1
  O2-  O277  1  0.40637125  0.07026043  0.97793569  1
  O2-  O278  1  0.40256850  0.40211736  0.48515006  1
  O2-  O279  1  0.40425294  0.40782642  0.97806022  1
  O2-  O280  1  0.40584543  0.74050878  0.47675558  1
  O2-  O281  1  0.40369149  0.73893584  0.97752546  1
  O2-  O282  1  0.73830580  0.06730198  0.47882904  1
  O2-  O283  1  0.73946072  0.07341504  0.98048903  1
  O2-  O284  1  0.73965877  0.40322528  0.48240953  1
  O2-  O285  1  0.73706852  0.40184013  0.97964657  1
  O2-  O286  1  0.73652709  0.73575744  0.47723350  1
  O2-  O287  1  0.73429101  0.73413409  0.98570429  1
  O2-  O288  1  0.09569199  0.23942553  0.47889710  1
  O2-  O289  1  0.09679931  0.23942463  0.97797832  1
  O2-  O290  1  0.09571051  0.57238799  0.48010583  1
  O2-  O291  1  0.09745848  0.56968518  0.98136694  1
  O2-  O292  1  0.09227490  0.90274498  0.47687056  1
  O2-  O293  1  0.09723455  0.90692773  0.98491552  1
  O2-  O294  1  0.42788909  0.23757697  0.48116342  1
  O2-  O295  1  0.42425821  0.24023354  0.97461595  1
  O2-  O296  1  0.42337584  0.57318226  0.48186498  1
  O2-  O297  1  0.42780821  0.57369713  0.97919601  1
  O2-  O298  1  0.42962743  0.90665239  0.47808121  1
  O2-  O299  1  0.43215195  0.90399068  0.98317099  1
  O2-  O300  1  0.76128872  0.23673445  0.48098986  1
  O2-  O301  1  0.76280260  0.23787474  0.98099480  1
  O2-  O302  1  0.76615690  0.57171819  0.48622350  1
  O2-  O303  1  0.76429217  0.56865709  0.97799354  1
  O2-  O304  1  0.76450872  0.90208420  0.47861521  1
  O2-  O305  1  0.76126422  0.90001795  0.97898720  1
  O2-  O306  1  0.07214214  0.07376968  0.27182547  1
  O2-  O307  1  0.07474796  0.07343523  0.76513565  1
  O2-  O308  1  0.07334983  0.40765339  0.27378541  1
  O2-  O309  1  0.06792421  0.40447073  0.76785915  1
  O2-  O310  1  0.07309039  0.74024042  0.27296950  1
  O2-  O311  1  0.07415872  0.74227693  0.76778187  1
  O2-  O312  1  0.40700938  0.07119690  0.27091597  1
  O2-  O313  1  0.40422292  0.07227753  0.77395869  1
  O2-  O314  1  0.40372085  0.40405288  0.26448274  1
  O2-  O315  1  0.40223516  0.40780291  0.77284062  1
  O2-  O316  1  0.40413844  0.74041979  0.27136324  1
  O2-  O317  1  0.40467926  0.73938730  0.77434251  1
  O2-  O318  1  0.73907114  0.07101888  0.27311793  1
  O2-  O319  1  0.73689423  0.07051490  0.76802845  1
  O2-  O320  1  0.74124744  0.40391269  0.27001518  1
  O2-  O321  1  0.73436574  0.39947424  0.76919688  1
  O2-  O322  1  0.73392164  0.73321917  0.26905734  1
  O2-  O323  1  0.73657104  0.73797126  0.76815963  1
  O2-  O324  1  0.23844918  0.09485756  0.22913052  1
  O2-  O325  1  0.23997709  0.09253034  0.72562857  1
  O2-  O326  1  0.23637736  0.42793440  0.22686026  1
  O2-  O327  1  0.23864975  0.42760582  0.72737350  1
  O2-  O328  1  0.23609670  0.75884686  0.22730720  1
  O2-  O329  1  0.23728675  0.76354591  0.73144448  1
  O2-  O330  1  0.57107028  0.09542238  0.23746505  1
  O2-  O331  1  0.57160804  0.09350669  0.72958419  1
  O2-  O332  1  0.57871879  0.42328266  0.23244449  1
  O2-  O333  1  0.57033270  0.42796923  0.72829683  1
  O2-  O334  1  0.57169041  0.76356023  0.23282227  1
  O2-  O335  1  0.56892569  0.76323560  0.73212726  1
  O2-  O336  1  0.90651622  0.09119266  0.23252275  1
  O2-  O337  1  0.90475785  0.09334714  0.73008925  1
  O2-  O338  1  0.90372244  0.43142871  0.23319136  1
  O2-  O339  1  0.90408603  0.42699999  0.72883456  1
  O2-  O340  1  0.90134216  0.75918909  0.22909480  1
  O2-  O341  1  0.90673690  0.76297203  0.72941009  1
  O2-  O342  1  0.25944085  0.26350971  0.02081584  1
  O2-  O343  1  0.26023430  0.26375945  0.52132877  1
  O2-  O344  1  0.25897918  0.59523337  0.02342662  1
  O2-  O345  1  0.25998966  0.59769433  0.52166149  1
  O2-  O346  1  0.26145171  0.92623290  0.02415506  1
  O2-  O347  1  0.26234434  0.92789309  0.52084156  1
  O2-  O348  1  0.59722345  0.25967782  0.01513976  1
  O2-  O349  1  0.59298453  0.26101758  0.52249313  1
  O2-  O350  1  0.59927142  0.59487881  0.01555103  1
  O2-  O351  1  0.58866021  0.59023245  0.51890562  1
  O2-  O352  1  0.59825356  0.92868484  0.02097348  1
  O2-  O353  1  0.59358966  0.92623941  0.52272943  1
  O2-  O354  1  0.93053911  0.26507053  0.01648225  1
  O2-  O355  1  0.92781798  0.26329726  0.52120791  1
  O2-  O356  1  0.92829606  0.59417477  0.02328903  1
  O2-  O357  1  0.93025278  0.59786722  0.51855750  1
  O2-  O358  1  0.92575425  0.92624736  0.02415794  1
  O2-  O359  1  0.93188150  0.93202045  0.51553457  1
