# generated using pymatgen
data_Sr7Ca15Pr50Mn72O216
_symmetry_space_group_name_H-M   'P 1'
_cell_length_a   16.55984756
_cell_length_b   16.60459308
_cell_length_c   15.59462117
_cell_angle_alpha   90.00291910
_cell_angle_beta   89.99407993
_cell_angle_gamma   89.99132564
_symmetry_Int_Tables_number   1
_chemical_formula_structural   Sr7Ca15Pr50Mn72O216
_chemical_formula_sum   'Sr7 Ca15 Pr50 Mn72 O216'
_cell_volume   4288.04557993
_cell_formula_units_Z   1
loop_
 _symmetry_equiv_pos_site_id
 _symmetry_equiv_pos_as_xyz
  1  'x, y, z'
loop_
 _atom_type_symbol
 _atom_type_oxidation_number
  Sr2+  2.0
  Ca2+  2.0
  Pr3+  3.0
  Mn3.30+  3.3
  O2-  -2.0
loop_
 _atom_site_type_symbol
 _atom_site_label
 _atom_site_symmetry_multiplicity
 _atom_site_fract_x
 _atom_site_fract_y
 _atom_site_fract_z
 _atom_site_occupancy
  Sr2+  Sr0  1  0.66696754  0.00529111  0.62692174  1
  Sr2+  Sr1  1  0.83310380  0.15720242  0.37695062  1
  Sr2+  Sr2  1  0.66696225  0.98989437  0.87203334  1
  Sr2+  Sr3  1  0.33394411  0.32504559  0.87282917  1
  Sr2+  Sr4  1  0.49847134  0.83799459  0.62499346  1
  Sr2+  Sr5  1  0.33433488  0.65707227  0.38035974  1
  Sr2+  Sr6  1  0.49983577  0.50982686  0.12345003  1
  Ca2+  Ca7  1  0.83419261  0.84568942  0.62730974  1
  Ca2+  Ca8  1  1.00379736  0.65215700  0.86971001  1
  Ca2+  Ca9  1  -0.00173937  0.34763767  0.62737595  1
  Ca2+  Ca10  1  0.33516456  0.65292557  0.86842721  1
  Ca2+  Ca11  1  0.16919928  0.51652147  0.62739672  1
  Ca2+  Ca12  1  0.66336934  0.68129443  0.62655520  1
  Ca2+  Ca13  1  0.33019257  0.67768931  0.62714550  1
  Ca2+  Ca14  1  0.32664899  0.35095821  0.62716796  1
  Ca2+  Ca15  1  1.00448270  0.65065692  0.38046697  1
  Ca2+  Ca16  1  0.83828283  0.51544087  0.12427330  1
  Ca2+  Ca17  1  1.00637632  0.31959127  0.87076812  1
  Ca2+  Ca18  1  0.16202152  0.81207879  0.87220821  1
  Ca2+  Ca19  1  0.50089859  0.51601559  0.62625929  1
  Ca2+  Ca20  1  -0.00297842  0.68212413  0.62692980  1
  Ca2+  Ca21  1  0.17127214  0.18487368  0.62567573  1
  Pr3+  Pr22  1  0.66862817  0.65481797  0.37963608  1
  Pr3+  Pr23  1  0.49865651  0.81888486  0.37853805  1
  Pr3+  Pr24  1  1.00589754  0.98280157  0.87442322  1
  Pr3+  Pr25  1  0.16182743  0.15286871  0.37798834  1
  Pr3+  Pr26  1  0.83188081  0.81947488  0.37798023  1
  Pr3+  Pr27  1  0.16901959  0.51287728  0.12297685  1
  Pr3+  Pr28  1  0.16117637  0.81349534  0.37708366  1
  Pr3+  Pr29  1  -0.00245687  0.01301336  0.12393226  1
  Pr3+  Pr30  1  0.66869696  0.65520749  0.87026514  1
  Pr3+  Pr31  1  0.16356575  0.49062122  0.38008215  1
  Pr3+  Pr32  1  0.16996366  0.83942824  0.62699489  1
  Pr3+  Pr33  1  0.83356459  0.15543838  0.87321235  1
  Pr3+  Pr34  1  0.33005514  0.01427821  0.12490275  1
  Pr3+  Pr35  1  0.67163705  0.98655101  0.37774736  1
  Pr3+  Pr36  1  0.49741344  0.15384341  0.37688399  1
  Pr3+  Pr37  1  0.66551848  0.34888281  0.12510223  1
  Pr3+  Pr38  1  0.83822252  0.51502993  0.62554704  1
  Pr3+  Pr39  1  0.16943917  0.18244085  0.12476316  1
  Pr3+  Pr40  1  0.66279772  0.34588091  0.62457581  1
  Pr3+  Pr41  1  0.33569609  0.98787826  0.87356349  1
  Pr3+  Pr42  1  0.16420933  0.15633212  0.87201385  1
  Pr3+  Pr43  1  -0.00348560  0.67558635  0.12328080  1
  Pr3+  Pr44  1  0.83029828  0.82027974  0.87134256  1
  Pr3+  Pr45  1  1.00375810  0.32084691  0.37865507  1
  Pr3+  Pr46  1  0.83359253  0.49001616  0.37666932  1
  Pr3+  Pr47  1  0.50198644  0.17707311  0.62607467  1
  Pr3+  Pr48  1  0.49510363  0.49080123  0.37783585  1
  Pr3+  Pr49  1  -0.00503558  0.35018492  0.12308669  1
  Pr3+  Pr50  1  0.49756774  0.81929666  0.87106236  1
  Pr3+  Pr51  1  -0.00301211  0.00910308  0.62619601  1
  Pr3+  Pr52  1  1.00213220  0.98473513  0.37590326  1
  Pr3+  Pr53  1  0.50335399  0.18124050  0.12424311  1
  Pr3+  Pr54  1  0.49452247  0.48973968  0.87244183  1
  Pr3+  Pr55  1  0.83650440  0.17914485  0.62549925  1
  Pr3+  Pr56  1  0.32980034  0.67680299  0.12343642  1
  Pr3+  Pr57  1  0.50098390  0.84127500  0.12520676  1
  Pr3+  Pr58  1  0.33583598  0.98586070  0.37639323  1
  Pr3+  Pr59  1  0.16389089  0.48682512  0.87044399  1
  Pr3+  Pr60  1  0.49497371  0.15316475  0.87300997  1
  Pr3+  Pr61  1  0.83439366  0.48926840  0.87324239  1
  Pr3+  Pr62  1  0.33072317  0.34991074  0.12307880  1
  Pr3+  Pr63  1  0.83656052  0.18046293  0.12483376  1
  Pr3+  Pr64  1  0.32834975  0.01374500  0.62518017  1
  Pr3+  Pr65  1  0.83701771  0.84558380  0.12314172  1
  Pr3+  Pr66  1  0.66405621  0.01273194  0.12379398  1
  Pr3+  Pr67  1  0.16990797  0.84372702  0.12299985  1
  Pr3+  Pr68  1  0.66965676  0.32214141  0.37634619  1
  Pr3+  Pr69  1  0.66735062  0.32364401  0.87356947  1
  Pr3+  Pr70  1  0.66550861  0.67559854  0.12375449  1
  Pr3+  Pr71  1  0.33375849  0.32448478  0.37791965  1
  Mn3.30+  Mn72  1  0.16734438  -0.00173453  -0.00142428  1
  Mn3.30+  Mn73  1  0.16608676  -0.00132224  0.50143884  1
  Mn3.30+  Mn74  1  0.16419224  0.33385543  -0.00315360  1
  Mn3.30+  Mn75  1  0.16703894  0.33565398  0.50595528  1
  Mn3.30+  Mn76  1  0.16522387  0.66562697  -0.00531179  1
  Mn3.30+  Mn77  1  0.16480785  0.66411961  0.50499158  1
  Mn3.30+  Mn78  1  0.49873011  -0.00177304  0.00001930  1
  Mn3.30+  Mn79  1  0.50088809  -0.00142996  0.50140693  1
  Mn3.30+  Mn80  1  0.49990157  0.33478862  -0.00126224  1
  Mn3.30+  Mn81  1  0.49701425  0.33552311  0.50347852  1
  Mn3.30+  Mn82  1  0.49813133  0.66591792  -0.00193726  1
  Mn3.30+  Mn83  1  0.50022820  0.66509551  0.50467467  1
  Mn3.30+  Mn84  1  0.83388813  -0.00003704  -0.00158006  1
  Mn3.30+  Mn85  1  0.83455746  -0.00064952  0.50138208  1
  Mn3.30+  Mn86  1  0.83545044  0.33564828  -0.00277708  1
  Mn3.30+  Mn87  1  0.83489434  0.33472981  0.50249808  1
  Mn3.30+  Mn88  1  0.83478871  0.66505324  -0.00262289  1
  Mn3.30+  Mn89  1  0.83608380  0.66815206  0.50324392  1
  Mn3.30+  Mn90  1  0.00056416  0.16698604  0.25099164  1
  Mn3.30+  Mn91  1  0.00283757  0.16850845  0.74724409  1
  Mn3.30+  Mn92  1  -0.00114185  0.50127032  0.25109877  1
  Mn3.30+  Mn93  1  0.00205597  0.50033839  0.74745157  1
  Mn3.30+  Mn94  1  0.00029655  0.82980064  0.24984890  1
  Mn3.30+  Mn95  1  0.00123297  0.82940747  0.75032212  1
  Mn3.30+  Mn96  1  0.33295553  0.16854042  0.25124398  1
  Mn3.30+  Mn97  1  0.33059991  0.16994106  0.74765768  1
  Mn3.30+  Mn98  1  0.33207858  0.50242225  0.25179023  1
  Mn3.30+  Mn99  1  0.33192907  0.50181435  0.74597955  1
  Mn3.30+  Mn100  1  0.33298413  0.83168455  0.25052888  1
  Mn3.30+  Mn101  1  0.33056129  0.83033365  0.75161472  1
  Mn3.30+  Mn102  1  0.66764999  0.16708193  0.25029099  1
  Mn3.30+  Mn103  1  0.66675195  0.16663132  0.74956246  1
  Mn3.30+  Mn104  1  0.66772339  0.50160062  0.24997480  1
  Mn3.30+  Mn105  1  0.66540729  0.50131761  0.74769127  1
  Mn3.30+  Mn106  1  0.66809910  0.83188827  0.24977650  1
  Mn3.30+  Mn107  1  0.66623791  0.83240849  0.74813608  1
  Mn3.30+  Mn108  1  0.16662691  -0.00160625  0.25000040  1
  Mn3.30+  Mn109  1  0.16643855  -0.00130752  0.74991150  1
  Mn3.30+  Mn110  1  0.16593053  0.33527282  0.25087353  1
  Mn3.30+  Mn111  1  0.16528436  0.33429032  0.74646176  1
  Mn3.30+  Mn112  1  0.16382973  0.66433784  0.25124271  1
  Mn3.30+  Mn113  1  0.16634922  0.66534869  0.74977969  1
  Mn3.30+  Mn114  1  0.50037297  -0.00063416  0.25018704  1
  Mn3.30+  Mn115  1  0.49920515  -0.00246594  0.74838896  1
  Mn3.30+  Mn116  1  0.50045652  0.33506860  0.25155053  1
  Mn3.30+  Mn117  1  0.49624769  0.33547596  0.74659498  1
  Mn3.30+  Mn118  1  0.49935588  0.66530703  0.24989797  1
  Mn3.30+  Mn119  1  0.49906348  0.66528391  0.74729067  1
  Mn3.30+  Mn120  1  0.83358616  0.00024632  0.25035186  1
  Mn3.30+  Mn121  1  0.83462800  -0.00097992  0.74948316  1
  Mn3.30+  Mn122  1  0.83387079  0.33581047  0.24992193  1
  Mn3.30+  Mn123  1  0.83668145  0.33455901  0.75038250  1
  Mn3.30+  Mn124  1  0.83521504  0.66520017  0.25185062  1
  Mn3.30+  Mn125  1  0.83619978  0.66808246  0.74725041  1
  Mn3.30+  Mn126  1  0.00103219  0.16785665  -0.00181297  1
  Mn3.30+  Mn127  1  0.00230744  0.16715545  0.50370162  1
  Mn3.30+  Mn128  1  -0.00071782  0.50055146  -0.00348664  1
  Mn3.30+  Mn129  1  0.00132276  0.50102075  0.50516355  1
  Mn3.30+  Mn130  1  0.00267556  0.82910039  -0.00281294  1
  Mn3.30+  Mn131  1  -0.00158859  0.82970593  0.50235988  1
  Mn3.30+  Mn132  1  0.33303714  0.16844933  -0.00044099  1
  Mn3.30+  Mn133  1  0.33060753  0.16969061  0.50154467  1
  Mn3.30+  Mn134  1  0.33228927  0.50261501  -0.00289477  1
  Mn3.30+  Mn135  1  0.33172323  0.50189487  0.50591601  1
  Mn3.30+  Mn136  1  0.33129550  0.83117806  -0.00393840  1
  Mn3.30+  Mn137  1  0.33261797  0.83102700  0.50218051  1
  Mn3.30+  Mn138  1  0.66764561  0.16751778  -0.00145666  1
  Mn3.30+  Mn139  1  0.66714209  0.16604407  0.50150907  1
  Mn3.30+  Mn140  1  0.66840652  0.50120149  -0.00077725  1
  Mn3.30+  Mn141  1  0.66487554  0.50179621  0.50326533  1
  Mn3.30+  Mn142  1  0.66730401  0.83258484  -0.00156443  1
  Mn3.30+  Mn143  1  0.66725660  0.83161033  0.50335089  1
  O2-  O144  1  0.02546537  0.16123957  0.12464883  1
  O2-  O145  1  0.03005992  0.15484414  0.62506667  1
  O2-  O146  1  0.02485179  0.49639438  0.12203827  1
  O2-  O147  1  0.02678241  0.48945842  0.62653081  1
  O2-  O148  1  0.02685760  0.82377032  0.12222877  1
  O2-  O149  1  0.02624152  0.83097509  0.62707050  1
  O2-  O150  1  0.35985153  0.16225514  0.12636406  1
  O2-  O151  1  0.35928223  0.15911657  0.62301397  1
  O2-  O152  1  0.34905178  0.49801956  0.12440640  1
  O2-  O153  1  0.36076751  0.49153468  0.62548444  1
  O2-  O154  1  0.35626251  0.82542788  0.12297992  1
  O2-  O155  1  0.34758984  0.82700099  0.62668837  1
  O2-  O156  1  0.69203966  0.16185024  0.12450406  1
  O2-  O157  1  0.69050308  0.16634644  0.62694768  1
  O2-  O158  1  0.69632540  0.49656942  0.12218190  1
  O2-  O159  1  0.69512632  0.49112408  0.62552670  1
  O2-  O160  1  0.69295530  0.82419080  0.12394512  1
  O2-  O161  1  0.69154151  0.82758032  0.62476498  1
  O2-  O162  1  0.14031771  0.33078003  0.12283180  1
  O2-  O163  1  0.13774317  0.32552004  0.62551655  1
  O2-  O164  1  0.14075321  0.66133673  0.12287750  1
  O2-  O165  1  0.13908975  0.66895660  0.62686820  1
  O2-  O166  1  0.14112006  0.99207932  0.12549457  1
  O2-  O167  1  0.14056482  0.98754770  0.62668451  1
  O2-  O168  1  0.47539660  0.32848273  0.12681668  1
  O2-  O169  1  0.46927534  0.32240525  0.62447150  1
  O2-  O170  1  0.47467385  0.66808237  0.12163996  1
  O2-  O171  1  0.47293870  0.66234438  0.62620800  1
  O2-  O172  1  0.47320426  0.99156009  0.12580391  1
  O2-  O173  1  0.47309142  0.99818506  0.62405032  1
  O2-  O174  1  0.80843482  0.32728209  0.12188464  1
  O2-  O175  1  0.80754125  0.32890355  0.62686357  1
  O2-  O176  1  0.80892168  0.66048423  0.12307056  1
  O2-  O177  1  0.80464514  0.65987266  0.62499857  1
  O2-  O178  1  0.80921774  0.99427511  0.12419364  1
  O2-  O179  1  0.81772437  0.99457539  0.62567626  1
  O2-  O180  1  0.30475856  0.17503698  0.37651601  1
  O2-  O181  1  0.30875142  0.16798138  0.87448699  1
  O2-  O182  1  0.30822371  0.50086211  0.37875688  1
  O2-  O183  1  0.30897068  0.50574926  0.87183686  1
  O2-  O184  1  0.30701619  0.83827996  0.37511903  1
  O2-  O185  1  0.30302099  0.84330435  0.87575614  1
  O2-  O186  1  0.64195677  0.17296539  0.37456539  1
  O2-  O187  1  0.63999757  0.17472171  0.87408792  1
  O2-  O188  1  0.63953688  0.50664770  0.37924658  1
  O2-  O189  1  0.63958947  0.50522848  0.87219881  1
  O2-  O190  1  0.64371156  0.83758943  0.37469986  1
  O2-  O191  1  0.64355875  0.83240861  0.87554289  1
  O2-  O192  1  0.98296539  0.17211926  0.37720677  1
  O2-  O193  1  0.97750588  0.17287575  0.87340497  1
  O2-  O194  1  0.97745147  0.50578759  0.37934662  1
  O2-  O195  1  0.97649674  0.50960355  0.87187142  1
  O2-  O196  1  0.97490844  0.83870812  0.37580575  1
  O2-  O197  1  0.97330747  0.83778385  0.87498823  1
  O2-  O198  1  0.19197900  0.00534816  0.37407696  1
  O2-  O199  1  0.19280077  0.01009816  0.87366283  1
  O2-  O200  1  0.19015421  0.34150269  0.37853998  1
  O2-  O201  1  0.18581111  0.33625300  0.87305645  1
  O2-  O202  1  0.18408664  0.66489501  0.37725888  1
  O2-  O203  1  0.19316339  0.66678975  0.87354554  1
  O2-  O204  1  0.52671244  0.00660516  0.37398383  1
  O2-  O205  1  0.51585018  0.00533853  0.87547374  1
  O2-  O206  1  0.52528803  0.34132802  0.37683420  1
  O2-  O207  1  0.52301222  0.33947594  0.87187614  1
  O2-  O208  1  0.52362893  0.66870727  0.37733398  1
  O2-  O209  1  0.52482018  0.66953319  0.87456486  1
  O2-  O210  1  0.85820329  0.00090011  0.37446815  1
  O2-  O211  1  0.86093079  0.00614731  0.87518597  1
  O2-  O212  1  0.85951828  0.34088494  0.37750259  1
  O2-  O213  1  0.86415988  0.34063123  0.87389252  1
  O2-  O214  1  0.86314858  0.67270689  0.37930137  1
  O2-  O215  1  0.86149420  0.67306904  0.87247618  1
  O2-  O216  1  0.24035836  0.09670524  0.02300046  1
  O2-  O217  1  0.23768249  0.09756669  0.52070954  1
  O2-  O218  1  0.23774621  0.42721917  0.01663321  1
  O2-  O219  1  0.23446410  0.43179612  0.52198807  1
  O2-  O220  1  0.23806853  0.75950804  0.02140070  1
  O2-  O221  1  0.23331032  0.76053564  0.51386708  1
  O2-  O222  1  0.57093182  0.09276332  0.02116331  1
  O2-  O223  1  0.56879940  0.09571590  0.51637685  1
  O2-  O224  1  0.57955710  0.42593682  0.01745220  1
  O2-  O225  1  0.56972129  0.42815048  0.52436056  1
  O2-  O226  1  0.57071981  0.75948547  0.01872708  1
  O2-  O227  1  0.57453335  0.75860502  0.51377107  1
  O2-  O228  1  0.90664412  0.09534870  0.01989805  1
  O2-  O229  1  0.90835557  0.09465522  0.52199083  1
  O2-  O230  1  0.90361209  0.43033444  0.02111925  1
  O2-  O231  1  0.90470896  0.43126888  0.51890360  1
  O2-  O232  1  0.90513998  0.76075293  0.02089913  1
  O2-  O233  1  0.90118441  0.76634100  0.52242160  1
  O2-  O234  1  0.26209016  0.26391915  0.22865064  1
  O2-  O235  1  0.26206305  0.26335346  0.72806438  1
  O2-  O236  1  0.25845000  0.59502944  0.22909983  1
  O2-  O237  1  0.26270435  0.59633258  0.72750984  1
  O2-  O238  1  0.26181660  0.92799772  0.22898347  1
  O2-  O239  1  0.26066536  0.92971336  0.72988417  1
  O2-  O240  1  0.59487402  0.26065488  0.22933911  1
  O2-  O241  1  0.59298076  0.26292767  0.72943474  1
  O2-  O242  1  0.59760763  0.59606495  0.23182086  1
  O2-  O243  1  0.59845513  0.59556166  0.73019650  1
  O2-  O244  1  0.59659666  0.92631605  0.22832343  1
  O2-  O245  1  0.58950667  0.92399605  0.73602273  1
  O2-  O246  1  0.92790839  0.26308204  0.23013504  1
  O2-  O247  1  0.92797716  0.25951619  0.72500942  1
  O2-  O248  1  0.92853406  0.59435358  0.23114226  1
  O2-  O249  1  0.92856969  0.59527361  0.72525822  1
  O2-  O250  1  0.93007137  0.92627056  0.22788853  1
  O2-  O251  1  0.93244611  0.92937771  0.73632296  1
  O2-  O252  1  0.09815883  0.23922800  0.26948633  1
  O2-  O253  1  0.09642633  0.23683428  0.76813130  1
  O2-  O254  1  0.09703926  0.56701519  0.26499488  1
  O2-  O255  1  0.09772368  0.57047104  0.76748936  1
  O2-  O256  1  0.09464962  0.90125498  0.27033721  1
  O2-  O257  1  0.09572930  0.90158831  0.77364139  1
  O2-  O258  1  0.42829344  0.23969838  0.27248833  1
  O2-  O259  1  0.42996225  0.23551016  0.76748287  1
  O2-  O260  1  0.42809249  0.57203944  0.26822212  1
  O2-  O261  1  0.42924048  0.57222473  0.76848717  1
  O2-  O262  1  0.42985915  0.90649480  0.27173474  1
  O2-  O263  1  0.42271042  0.90577672  0.77139878  1
  O2-  O264  1  0.76042685  0.24307161  0.26732487  1
  O2-  O265  1  0.76266761  0.24269754  0.77223885  1
  O2-  O266  1  0.76084586  0.57472525  0.27544114  1
  O2-  O267  1  0.76378595  0.57275970  0.77055812  1
  O2-  O268  1  0.76269414  0.90449916  0.26929585  1
  O2-  O269  1  0.76190735  0.90583662  0.76754194  1
  O2-  O270  1  0.07259592  0.06868867  0.47928306  1
  O2-  O271  1  0.07256920  0.06939834  0.98074293  1
  O2-  O272  1  0.07192806  0.40585479  0.47844844  1
  O2-  O273  1  0.06646599  0.40424100  0.97858790  1
  O2-  O274  1  0.06885886  0.73788407  0.48004131  1
  O2-  O275  1  0.06890431  0.73181662  0.97822587  1
  O2-  O276  1  0.40407507  0.07304324  0.47794870  1
  O2-  O277  1  0.40234986  0.07199665  0.98267195  1
  O2-  O278  1  0.40529041  0.40702763  0.47778741  1
  O2-  O279  1  0.40737920  0.40998660  0.98483655  1
  O2-  O280  1  0.41091912  0.74374296  0.48299248  1
  O2-  O281  1  0.40264612  0.73949275  0.97492759  1
  O2-  O282  1  0.74080449  0.07031161  0.48237310  1
  O2-  O283  1  0.74033260  0.07659391  0.98145041  1
  O2-  O284  1  0.73696038  0.40824887  0.47947094  1
  O2-  O285  1  0.74066003  0.40654892  0.97536554  1
  O2-  O286  1  0.74199281  0.73962595  0.47686551  1
  O2-  O287  1  0.74073662  0.73762757  0.97842644  1
  O2-  O288  1  0.09638033  0.23941500  0.47970330  1
  O2-  O289  1  0.09731040  0.23488749  0.98305513  1
  O2-  O290  1  0.09556287  0.56970873  0.48547561  1
  O2-  O291  1  0.09765148  0.56728258  0.98176172  1
  O2-  O292  1  0.09400973  0.90152476  0.47852432  1
  O2-  O293  1  0.09619956  0.89894800  0.97795550  1
  O2-  O294  1  0.42703679  0.23882784  0.47692808  1
  O2-  O295  1  0.42970901  0.23489181  0.98341355  1
  O2-  O296  1  0.43015461  0.57057228  0.48392287  1
  O2-  O297  1  0.42777357  0.57396888  0.97917738  1
  O2-  O298  1  0.42689163  0.90911475  0.47687022  1
  O2-  O299  1  0.42696448  0.90312261  0.97985002  1
  O2-  O300  1  0.75814911  0.24345997  0.48383985  1
  O2-  O301  1  0.76371480  0.24225450  0.97656856  1
  O2-  O302  1  0.76418966  0.57348747  0.47922965  1
  O2-  O303  1  0.76020372  0.57434417  0.97306051  1
  O2-  O304  1  0.76039255  0.90599447  0.47941991  1
  O2-  O305  1  0.76520546  0.90402732  0.98266612  1
  O2-  O306  1  0.07276569  0.06945213  0.26938464  1
  O2-  O307  1  0.07253930  0.06935998  0.77169765  1
  O2-  O308  1  0.06874329  0.40440224  0.26967943  1
  O2-  O309  1  0.07076069  0.40506010  0.77274500  1
  O2-  O310  1  0.06949135  0.73410908  0.27114194  1
  O2-  O311  1  0.07006919  0.73576617  0.77070877  1
  O2-  O312  1  0.40397750  0.07328795  0.27212025  1
  O2-  O313  1  0.40291214  0.07231254  0.76720473  1
  O2-  O314  1  0.40446432  0.40692164  0.26930356  1
  O2-  O315  1  0.40734105  0.40963629  0.76957557  1
  O2-  O316  1  0.40871134  0.74161205  0.26789085  1
  O2-  O317  1  0.40579979  0.74079641  0.77305532  1
  O2-  O318  1  0.73485639  0.07036571  0.26621878  1
  O2-  O319  1  0.74612130  0.07760461  0.76906971  1
  O2-  O320  1  0.73919246  0.40734117  0.27226754  1
  O2-  O321  1  0.73814582  0.40693663  0.77130483  1
  O2-  O322  1  0.74068824  0.73795336  0.27176897  1
  O2-  O323  1  0.74195049  0.73919564  0.77119183  1
  O2-  O324  1  0.23871735  0.09575248  0.22901334  1
  O2-  O325  1  0.23782520  0.09660881  0.72686538  1
  O2-  O326  1  0.23724519  0.42788947  0.23080496  1
  O2-  O327  1  0.23444242  0.43055997  0.73127127  1
  O2-  O328  1  0.23487886  0.75877028  0.23131613  1
  O2-  O329  1  0.23506109  0.76108021  0.73499249  1
  O2-  O330  1  0.57036873  0.09390505  0.22767880  1
  O2-  O331  1  0.56909662  0.09477595  0.73469680  1
  O2-  O332  1  0.57677964  0.42568738  0.23144949  1
  O2-  O333  1  0.57112531  0.42727160  0.72647326  1
  O2-  O334  1  0.57331281  0.76012880  0.23102632  1
  O2-  O335  1  0.57251564  0.75771652  0.73589338  1
  O2-  O336  1  0.90587174  0.09317005  0.22758576  1
  O2-  O337  1  0.90848107  0.09602844  0.73018612  1
  O2-  O338  1  0.90455482  0.43015864  0.22917204  1
  O2-  O339  1  0.90338152  0.43118164  0.73165330  1
  O2-  O340  1  0.90470108  0.76106078  0.22795193  1
  O2-  O341  1  0.90258486  0.76509728  0.72909984  1
  O2-  O342  1  0.26196427  0.26056626  0.02312607  1
  O2-  O343  1  0.26414638  0.26781136  0.51960280  1
  O2-  O344  1  0.25849959  0.59460415  0.02050302  1
  O2-  O345  1  0.26242058  0.59550133  0.52424013  1
  O2-  O346  1  0.26269561  0.92880740  0.02197763  1
  O2-  O347  1  0.26073660  0.92927873  0.51870035  1
  O2-  O348  1  0.59649791  0.26095750  0.02075446  1
  O2-  O349  1  0.59065697  0.26282639  0.52006738  1
  O2-  O350  1  0.59799915  0.59568746  0.01679319  1
  O2-  O351  1  0.59892968  0.59668336  0.52193237  1
  O2-  O352  1  0.59352285  0.92442318  0.02310711  1
  O2-  O353  1  0.59428509  0.92653585  0.51226690  1
  O2-  O354  1  0.92639307  0.26135122  0.02265051  1
  O2-  O355  1  0.93010844  0.26074557  0.52267742  1
  O2-  O356  1  0.92748905  0.59382901  0.01822066  1
  O2-  O357  1  0.92885401  0.59572985  0.52603186  1
  O2-  O358  1  0.93163114  0.92655761  0.02017380  1
  O2-  O359  1  0.93204515  0.93000093  0.51545528  1
