# generated using pymatgen
data_Sr7Ca15Pr50Mn72O216
_symmetry_space_group_name_H-M   'P 1'
_cell_length_a   16.55891095
_cell_length_b   16.60426440
_cell_length_c   15.59374798
_cell_angle_alpha   89.99759726
_cell_angle_beta   90.00655736
_cell_angle_gamma   89.99526680
_symmetry_Int_Tables_number   1
_chemical_formula_structural   Sr7Ca15Pr50Mn72O216
_chemical_formula_sum   'Sr7 Ca15 Pr50 Mn72 O216'
_cell_volume   4287.47812367
_cell_formula_units_Z   1
loop_
 _symmetry_equiv_pos_site_id
 _symmetry_equiv_pos_as_xyz
  1  'x, y, z'
loop_
 _atom_type_symbol
 _atom_type_oxidation_number
  Sr2+  2.0
  Ca2+  2.0
  Pr3+  3.0
  Mn3.30+  3.3
  O2-  -2.0
loop_
 _atom_site_type_symbol
 _atom_site_label
 _atom_site_symmetry_multiplicity
 _atom_site_fract_x
 _atom_site_fract_y
 _atom_site_fract_z
 _atom_site_occupancy
  Sr2+  Sr0  1  0.49681176  0.15347023  0.87340232  1
  Sr2+  Sr1  1  0.17054977  0.17835625  0.12668971  1
  Sr2+  Sr2  1  0.33210814  0.67778899  0.62415098  1
  Sr2+  Sr3  1  0.49963676  0.84242971  0.62641314  1
  Sr2+  Sr4  1  0.66873491  0.98803970  0.87575152  1
  Sr2+  Sr5  1  0.49824259  0.15650100  0.37698577  1
  Sr2+  Sr6  1  0.16766917  0.17617831  0.62335917  1
  Ca2+  Ca7  1  1.00595700  0.98114922  0.87405881  1
  Ca2+  Ca8  1  0.17271943  0.51709943  0.12483370  1
  Ca2+  Ca9  1  0.16312583  0.81613769  0.87412640  1
  Ca2+  Ca10  1  0.33678000  0.65301241  0.37244271  1
  Ca2+  Ca11  1  1.00478299  0.65457190  0.87456045  1
  Ca2+  Ca12  1  0.16452840  0.15315541  0.37453226  1
  Ca2+  Ca13  1  0.83259414  0.81879244  0.87496346  1
  Ca2+  Ca14  1  0.50122104  0.17771040  0.62612104  1
  Ca2+  Ca15  1  0.33706217  0.98641900  0.87440047  1
  Ca2+  Ca16  1  -0.00220575  0.68192039  0.62869534  1
  Ca2+  Ca17  1  0.32930337  0.67951903  0.12495157  1
  Ca2+  Ca18  1  0.82944809  0.48532386  0.37363843  1
  Ca2+  Ca19  1  0.32742726  0.34996933  0.12636478  1
  Ca2+  Ca20  1  0.82803095  0.15114536  0.37475411  1
  Ca2+  Ca21  1  0.49979251  0.51554316  0.12567456  1
  Pr3+  Pr22  1  0.00067749  0.67871675  0.12322650  1
  Pr3+  Pr23  1  1.00166771  0.31831234  0.37392445  1
  Pr3+  Pr24  1  0.66989303  0.65147225  0.37555536  1
  Pr3+  Pr25  1  0.32938845  0.01330346  0.12274143  1
  Pr3+  Pr26  1  1.00360179  0.98968977  0.37557920  1
  Pr3+  Pr27  1  1.00306996  0.65325201  0.37588043  1
  Pr3+  Pr28  1  0.50227349  0.51373237  0.62467701  1
  Pr3+  Pr29  1  0.33421205  0.99219038  0.37486707  1
  Pr3+  Pr30  1  0.66712555  0.32018023  0.87604871  1
  Pr3+  Pr31  1  0.49729493  0.82602029  0.87407597  1
  Pr3+  Pr32  1  0.49895587  0.84480171  0.12376467  1
  Pr3+  Pr33  1  0.65989579  0.34900369  0.12505539  1
  Pr3+  Pr34  1  0.16785465  0.51305733  0.62463250  1
  Pr3+  Pr35  1  0.83879753  0.51562403  0.62345588  1
  Pr3+  Pr36  1  0.17093043  0.84368270  0.12212789  1
  Pr3+  Pr37  1  0.49957834  0.17905286  0.12429619  1
  Pr3+  Pr38  1  0.49498355  0.82071380  0.37551163  1
  Pr3+  Pr39  1  0.00039905  0.34658517  0.12552640  1
  Pr3+  Pr40  1  0.66265182  0.67859834  0.12514965  1
  Pr3+  Pr41  1  0.83789847  0.84577321  0.12258423  1
  Pr3+  Pr42  1  0.66963377  0.31718521  0.37333943  1
  Pr3+  Pr43  1  0.33532254  0.31902683  0.37369669  1
  Pr3+  Pr44  1  0.49390325  0.48845982  0.37352343  1
  Pr3+  Pr45  1  0.33495197  0.32094603  0.87642252  1
  Pr3+  Pr46  1  0.16383131  0.49082788  0.87739160  1
  Pr3+  Pr47  1  1.00430440  0.32153881  0.87595195  1
  Pr3+  Pr48  1  0.33183222  0.34229027  0.62421332  1
  Pr3+  Pr49  1  0.66910668  0.65828595  0.87443106  1
  Pr3+  Pr50  1  0.66116575  0.01343381  0.62732797  1
  Pr3+  Pr51  1  0.83608366  0.51366489  0.12727075  1
  Pr3+  Pr52  1  0.33351824  0.65710880  0.87541223  1
  Pr3+  Pr53  1  -0.00003491  0.01297704  0.12266095  1
  Pr3+  Pr54  1  0.83769916  0.84547023  0.62771096  1
  Pr3+  Pr55  1  0.83155445  0.82118292  0.37550079  1
  Pr3+  Pr56  1  0.33258608  0.01235337  0.62684987  1
  Pr3+  Pr57  1  0.16389470  0.15085433  0.87509235  1
  Pr3+  Pr58  1  0.16739715  0.48924300  0.37308186  1
  Pr3+  Pr59  1  0.66956172  0.98938766  0.37508285  1
  Pr3+  Pr60  1  -0.00127290  0.01352440  0.62745977  1
  Pr3+  Pr61  1  0.17054748  0.84375882  0.62767486  1
  Pr3+  Pr62  1  0.83016242  0.15199747  0.87514172  1
  Pr3+  Pr63  1  -0.00270620  0.34505816  0.62437593  1
  Pr3+  Pr64  1  0.66278151  0.68106115  0.62553747  1
  Pr3+  Pr65  1  0.83710991  0.17946193  0.62430183  1
  Pr3+  Pr66  1  0.83318869  0.49086228  0.87635930  1
  Pr3+  Pr67  1  0.66464306  0.01223226  0.12274840  1
  Pr3+  Pr68  1  0.16537240  0.81955081  0.37518554  1
  Pr3+  Pr69  1  0.83770295  0.17941445  0.12547780  1
  Pr3+  Pr70  1  0.66205977  0.34335642  0.62449118  1
  Pr3+  Pr71  1  0.49545907  0.48928391  0.87621904  1
  Mn3.30+  Mn72  1  0.16717092  -0.00278380  -0.00416335  1
  Mn3.30+  Mn73  1  0.16718318  0.00059250  0.50058599  1
  Mn3.30+  Mn74  1  0.16933154  0.33475487  0.00287244  1
  Mn3.30+  Mn75  1  0.16570569  0.33167276  0.49860352  1
  Mn3.30+  Mn76  1  0.16717095  0.66634726  0.00005782  1
  Mn3.30+  Mn77  1  0.16690833  0.66639328  0.50013001  1
  Mn3.30+  Mn78  1  0.49766887  0.00013382  -0.00167977  1
  Mn3.30+  Mn79  1  0.50055611  0.00094247  0.50089428  1
  Mn3.30+  Mn80  1  0.49608673  0.33519727  0.00248214  1
  Mn3.30+  Mn81  1  0.49970064  0.33210285  0.49970116  1
  Mn3.30+  Mn82  1  0.49788324  0.66696301  0.00185179  1
  Mn3.30+  Mn83  1  0.49927529  0.66746444  0.49887679  1
  Mn3.30+  Mn84  1  0.83609239  -0.00265900  -0.00322281  1
  Mn3.30+  Mn85  1  0.83341417  0.00055448  0.50079989  1
  Mn3.30+  Mn86  1  0.83312598  0.33477267  0.00109942  1
  Mn3.30+  Mn87  1  0.83193330  0.33337179  0.49759367  1
  Mn3.30+  Mn88  1  0.83528119  0.66777897  -0.00163210  1
  Mn3.30+  Mn89  1  0.83495461  0.66630180  0.50044471  1
  Mn3.30+  Mn90  1  0.00072189  0.16628629  0.25119509  1
  Mn3.30+  Mn91  1  0.00008501  0.16574201  0.75102993  1
  Mn3.30+  Mn92  1  0.00077283  0.49979910  0.25028522  1
  Mn3.30+  Mn93  1  -0.00003728  0.50251406  0.74988672  1
  Mn3.30+  Mn94  1  0.00111786  0.83323434  0.24953249  1
  Mn3.30+  Mn95  1  0.00168499  0.83120394  0.75333045  1
  Mn3.30+  Mn96  1  0.33240580  0.16794339  0.25052634  1
  Mn3.30+  Mn97  1  0.33330658  0.16562796  0.74982081  1
  Mn3.30+  Mn98  1  0.33248921  0.50237190  0.24622594  1
  Mn3.30+  Mn99  1  0.33172660  0.50075818  0.74997074  1
  Mn3.30+  Mn100  1  0.33282399  0.83169204  0.25026198  1
  Mn3.30+  Mn101  1  0.33104712  0.83406992  0.75138637  1
  Mn3.30+  Mn102  1  0.66789497  0.16622199  0.24931842  1
  Mn3.30+  Mn103  1  0.66592557  0.16591022  0.75067279  1
  Mn3.30+  Mn104  1  0.66493952  0.50002426  0.25001588  1
  Mn3.30+  Mn105  1  0.66782711  0.49972695  0.75018531  1
  Mn3.30+  Mn106  1  0.66618251  0.83337041  0.24952888  1
  Mn3.30+  Mn107  1  0.66938916  0.83425891  0.75206406  1
  Mn3.30+  Mn108  1  0.16719753  0.00063379  0.24982095  1
  Mn3.30+  Mn109  1  0.16711795  -0.00259937  0.75314315  1
  Mn3.30+  Mn110  1  0.16853601  0.33392985  0.24922079  1
  Mn3.30+  Mn111  1  0.16649142  0.33291391  0.74938630  1
  Mn3.30+  Mn112  1  0.17031750  0.66549704  0.25031633  1
  Mn3.30+  Mn113  1  0.16398477  0.66727527  0.74985194  1
  Mn3.30+  Mn114  1  0.49991027  0.00095430  0.25009377  1
  Mn3.30+  Mn115  1  0.49860304  -0.00028998  0.75085729  1
  Mn3.30+  Mn116  1  0.49677632  0.33527042  0.24750445  1
  Mn3.30+  Mn117  1  0.49873021  0.33212364  0.75015613  1
  Mn3.30+  Mn118  1  0.49682515  0.66608259  0.24849259  1
  Mn3.30+  Mn119  1  0.50029864  0.66857745  0.75067986  1
  Mn3.30+  Mn120  1  0.83460997  0.00034178  0.24970965  1
  Mn3.30+  Mn121  1  0.83453591  -0.00252227  0.75278654  1
  Mn3.30+  Mn122  1  0.83240305  0.33357770  0.25040062  1
  Mn3.30+  Mn123  1  0.83286645  0.33467798  0.75041618  1
  Mn3.30+  Mn124  1  0.83366611  0.66578040  0.25077048  1
  Mn3.30+  Mn125  1  0.83726173  0.66821637  0.75169790  1
  Mn3.30+  Mn126  1  0.00124762  0.16588873  -0.00033231  1
  Mn3.30+  Mn127  1  -0.00052216  0.16637379  0.49781355  1
  Mn3.30+  Mn128  1  0.00211481  0.50190340  0.00241024  1
  Mn3.30+  Mn129  1  -0.00175025  0.50005358  0.49773843  1
  Mn3.30+  Mn130  1  0.00225755  0.83201544  -0.00498428  1
  Mn3.30+  Mn131  1  0.00074420  0.83266797  0.50202252  1
  Mn3.30+  Mn132  1  0.33221872  0.16717705  -0.00059358  1
  Mn3.30+  Mn133  1  0.33336147  0.16644843  0.50056964  1
  Mn3.30+  Mn134  1  0.33192863  0.50172911  0.00430767  1
  Mn3.30+  Mn135  1  0.33254636  0.50121479  0.49919076  1
  Mn3.30+  Mn136  1  0.33131823  0.83282720  -0.00232577  1
  Mn3.30+  Mn137  1  0.33273314  0.83310271  0.50033892  1
  Mn3.30+  Mn138  1  0.66690032  0.16635490  -0.00005771  1
  Mn3.30+  Mn139  1  0.66694722  0.16583397  0.49981040  1
  Mn3.30+  Mn140  1  0.66433475  0.50167801  0.00064713  1
  Mn3.30+  Mn141  1  0.66853670  0.49823369  0.49911840  1
  Mn3.30+  Mn142  1  0.66890208  0.83322799  -0.00062240  1
  Mn3.30+  Mn143  1  0.66655624  0.83407278  0.49987564  1
  O2-  O144  1  0.02079385  0.16181766  0.12393953  1
  O2-  O145  1  0.01748824  0.16408502  0.62522518  1
  O2-  O146  1  0.02816034  0.49439860  0.12704550  1
  O2-  O147  1  0.02376273  0.49097723  0.62129401  1
  O2-  O148  1  0.02633490  0.82716603  0.12232491  1
  O2-  O149  1  0.02639600  0.82714792  0.62576056  1
  O2-  O150  1  0.35638892  0.15918140  0.12482335  1
  O2-  O151  1  0.35860221  0.16255420  0.62536205  1
  O2-  O152  1  0.36108616  0.49193723  0.12444754  1
  O2-  O153  1  0.35825241  0.49156741  0.62401485  1
  O2-  O154  1  0.35524901  0.82542741  0.12517657  1
  O2-  O155  1  0.35002656  0.83178327  0.62452203  1
  O2-  O156  1  0.69290520  0.16274843  0.12391571  1
  O2-  O157  1  0.69344536  0.16432029  0.62509788  1
  O2-  O158  1  0.69246516  0.49732729  0.12329708  1
  O2-  O159  1  0.69479075  0.49133035  0.62261751  1
  O2-  O160  1  0.69320654  0.82689715  0.12538841  1
  O2-  O161  1  0.69287149  0.82866744  0.62603074  1
  O2-  O162  1  0.14209803  0.32952507  0.12645905  1
  O2-  O163  1  0.14043653  0.33153523  0.62142540  1
  O2-  O164  1  0.14330139  0.66518717  0.12635061  1
  O2-  O165  1  0.13950199  0.66183686  0.62412198  1
  O2-  O166  1  0.14331984  0.99262311  0.12169945  1
  O2-  O167  1  0.14174154  0.99277459  0.62621691  1
  O2-  O168  1  0.47025494  0.32484080  0.12496177  1
  O2-  O169  1  0.47693837  0.32721364  0.62607142  1
  O2-  O170  1  0.47208510  0.66280627  0.12431583  1
  O2-  O171  1  0.48347044  0.66199064  0.62428528  1
  O2-  O172  1  0.47435101  0.99409919  0.12456396  1
  O2-  O173  1  0.47728689  0.99560391  0.62548796  1
  O2-  O174  1  0.80525180  0.32741572  0.12449279  1
  O2-  O175  1  0.80684790  0.32726320  0.62254791  1
  O2-  O176  1  0.80719769  0.66157491  0.12598133  1
  O2-  O177  1  0.80646677  0.66237714  0.62389612  1
  O2-  O178  1  0.80968777  0.99302183  0.12425155  1
  O2-  O179  1  0.80716667  0.99281965  0.62776058  1
  O2-  O180  1  0.30802336  0.17028313  0.37543976  1
  O2-  O181  1  0.30703352  0.17504083  0.87474288  1
  O2-  O182  1  0.31088427  0.50771276  0.37442528  1
  O2-  O183  1  0.30781823  0.50701673  0.87664235  1
  O2-  O184  1  0.30771045  0.84533960  0.37507071  1
  O2-  O185  1  0.30673719  0.83954248  0.87532236  1
  O2-  O186  1  0.64708909  0.16833494  0.37372363  1
  O2-  O187  1  0.64779991  0.17222441  0.87690641  1
  O2-  O188  1  0.63861360  0.50400535  0.37608815  1
  O2-  O189  1  0.64048829  0.50715194  0.87782937  1
  O2-  O190  1  0.64144562  0.84051141  0.37278938  1
  O2-  O191  1  0.64262947  0.82984667  0.87682035  1
  O2-  O192  1  0.97001943  0.16879723  0.37403687  1
  O2-  O193  1  0.97351775  0.17519458  0.87614954  1
  O2-  O194  1  0.97105067  0.50687275  0.37485037  1
  O2-  O195  1  0.97655153  0.50594668  0.87756256  1
  O2-  O196  1  0.97499203  0.84098091  0.37646575  1
  O2-  O197  1  0.97213877  0.83995504  0.87528937  1
  O2-  O198  1  0.18885574  0.00455382  0.37673724  1
  O2-  O199  1  0.19565872  0.00609397  0.87450779  1
  O2-  O200  1  0.19225454  0.34236645  0.37441238  1
  O2-  O201  1  0.19052170  0.34230236  0.87743348  1
  O2-  O202  1  0.19346112  0.67065247  0.37459875  1
  O2-  O203  1  0.18988745  0.66519279  0.87494712  1
  O2-  O204  1  0.52569201  0.00187149  0.37432904  1
  O2-  O205  1  0.51925253  -0.00427381  0.87578621  1
  O2-  O206  1  0.52490383  0.34085365  0.37238490  1
  O2-  O207  1  0.52362099  0.34180488  0.87607671  1
  O2-  O208  1  0.52579104  0.67078967  0.37408617  1
  O2-  O209  1  0.52469314  0.67231774  0.87706115  1
  O2-  O210  1  0.85904468  0.00445709  0.37364751  1
  O2-  O211  1  0.86401747  0.00795028  0.87472900  1
  O2-  O212  1  0.85750380  0.34259344  0.37468747  1
  O2-  O213  1  0.86012910  0.34266010  0.87804264  1
  O2-  O214  1  0.85966273  0.67452128  0.37546000  1
  O2-  O215  1  0.86190775  0.67049514  0.87583472  1
  O2-  O216  1  0.23944016  0.09500666  0.01607577  1
  O2-  O217  1  0.24308264  0.09046564  0.51961662  1
  O2-  O218  1  0.23574043  0.43412146  0.01927982  1
  O2-  O219  1  0.23822391  0.42677332  0.51930911  1
  O2-  O220  1  0.23709794  0.76057019  0.01588889  1
  O2-  O221  1  0.23408116  0.76346062  0.51551956  1
  O2-  O222  1  0.57231753  0.09145440  0.02191562  1
  O2-  O223  1  0.57269172  0.09526541  0.52400735  1
  O2-  O224  1  0.56862847  0.42885268  0.02261285  1
  O2-  O225  1  0.57193686  0.42786717  0.52207852  1
  O2-  O226  1  0.57111991  0.75970821  0.02251375  1
  O2-  O227  1  0.57555990  0.75967954  0.51532878  1
  O2-  O228  1  0.90615321  0.09455677  0.02083873  1
  O2-  O229  1  0.90425878  0.09234526  0.52219177  1
  O2-  O230  1  0.90420722  0.42828405  0.02323743  1
  O2-  O231  1  0.90420030  0.42679794  0.52184005  1
  O2-  O232  1  0.90674220  0.75947328  0.02332272  1
  O2-  O233  1  0.90467928  0.76531385  0.51787905  1
  O2-  O234  1  0.26537877  0.26578636  0.23373087  1
  O2-  O235  1  0.26208044  0.26352966  0.73253785  1
  O2-  O236  1  0.26506456  0.59784297  0.22859535  1
  O2-  O237  1  0.25764880  0.59261202  0.73122810  1
  O2-  O238  1  0.26232130  0.92676570  0.22917577  1
  O2-  O239  1  0.25977243  0.92693336  0.72772417  1
  O2-  O240  1  0.59333309  0.26273021  0.22878943  1
  O2-  O241  1  0.59592227  0.26341164  0.73499523  1
  O2-  O242  1  0.59781987  0.59646573  0.23288298  1
  O2-  O243  1  0.59755651  0.59164860  0.72987962  1
  O2-  O244  1  0.59495815  0.92715810  0.22750793  1
  O2-  O245  1  0.59675972  0.92725632  0.73369410  1
  O2-  O246  1  0.92952762  0.26088483  0.22920805  1
  O2-  O247  1  0.92620849  0.26366739  0.73079407  1
  O2-  O248  1  0.93046131  0.59385750  0.22815609  1
  O2-  O249  1  0.92735366  0.59447149  0.72612955  1
  O2-  O250  1  0.92887814  0.92819885  0.22863432  1
  O2-  O251  1  0.92981771  0.92660495  0.72710125  1
  O2-  O252  1  0.09197766  0.23774219  0.27421834  1
  O2-  O253  1  0.09321942  0.23997352  0.77239899  1
  O2-  O254  1  0.09488505  0.57409847  0.27276565  1
  O2-  O255  1  0.09605029  0.56913428  0.76627858  1
  O2-  O256  1  0.09489129  0.90537659  0.26969106  1
  O2-  O257  1  0.09669597  0.90005403  0.76979640  1
  O2-  O258  1  0.42689908  0.23996798  0.26828695  1
  O2-  O259  1  0.42409675  0.24287801  0.76962470  1
  O2-  O260  1  0.42976519  0.57181442  0.26883953  1
  O2-  O261  1  0.42682178  0.57354686  0.76902691  1
  O2-  O262  1  0.42741230  0.90475942  0.26844529  1
  O2-  O263  1  0.42605488  0.90580510  0.76835044  1
  O2-  O264  1  0.76274981  0.23730323  0.27033858  1
  O2-  O265  1  0.76270658  0.24036629  0.77084056  1
  O2-  O266  1  0.76319516  0.57126229  0.27179509  1
  O2-  O267  1  0.76452835  0.57350069  0.77081651  1
  O2-  O268  1  0.76374751  0.90612856  0.27002536  1
  O2-  O269  1  0.76660627  0.90137455  0.77040488  1
  O2-  O270  1  0.07058755  0.07013301  0.48384243  1
  O2-  O271  1  0.07315013  0.06759330  0.97753975  1
  O2-  O272  1  0.07058619  0.40541122  0.47684424  1
  O2-  O273  1  0.07110041  0.40451503  0.98118555  1
  O2-  O274  1  0.07223799  0.73965755  0.47603344  1
  O2-  O275  1  0.06876511  0.73471285  0.98110691  1
  O2-  O276  1  0.40429011  0.07045484  0.48321385  1
  O2-  O277  1  0.40221810  0.06884278  0.98323617  1
  O2-  O278  1  0.40435451  0.40749736  0.47907506  1
  O2-  O279  1  0.40460345  0.40887246  0.97620331  1
  O2-  O280  1  0.40400091  0.74219914  0.47596331  1
  O2-  O281  1  0.40641545  0.74209548  0.97613947  1
  O2-  O282  1  0.73573208  0.07017374  0.48349393  1
  O2-  O283  1  0.74576985  0.07100022  0.98313825  1
  O2-  O284  1  0.73463048  0.40070999  0.47932981  1
  O2-  O285  1  0.73811369  0.40626336  0.97978917  1
  O2-  O286  1  0.73971371  0.73810142  0.47915706  1
  O2-  O287  1  0.73869244  0.73598752  0.98258077  1
  O2-  O288  1  0.09300311  0.23939113  0.47441261  1
  O2-  O289  1  0.09376878  0.23952793  0.97792083  1
  O2-  O290  1  0.09382841  0.57169681  0.47743626  1
  O2-  O291  1  0.09732067  0.57264305  0.98410227  1
  O2-  O292  1  0.09446115  0.90520887  0.47976357  1
  O2-  O293  1  0.09780952  0.89964216  0.97879317  1
  O2-  O294  1  0.42409252  0.24302294  0.48144867  1
  O2-  O295  1  0.42601212  0.23940084  0.98131046  1
  O2-  O296  1  0.43023392  0.57111598  0.48403604  1
  O2-  O297  1  0.42647323  0.57466440  0.97657628  1
  O2-  O298  1  0.42694770  0.90827003  0.47808440  1
  O2-  O299  1  0.42867793  0.90251640  0.98542046  1
  O2-  O300  1  0.76401117  0.23649184  0.47824727  1
  O2-  O301  1  0.76313808  0.24145799  0.97899275  1
  O2-  O302  1  0.76211181  0.56787622  0.47781971  1
  O2-  O303  1  0.76273307  0.57435735  0.97897773  1
  O2-  O304  1  0.76304348  0.90556987  0.47901537  1
  O2-  O305  1  0.76783956  0.90184390  0.98239332  1
  O2-  O306  1  0.06900096  0.07034878  0.26658543  1
  O2-  O307  1  0.07302824  0.06878395  0.77099822  1
  O2-  O308  1  0.06985480  0.40554794  0.27220995  1
  O2-  O309  1  0.07107022  0.40571344  0.76951011  1
  O2-  O310  1  0.07204595  0.73795304  0.27074370  1
  O2-  O311  1  0.06887467  0.73588218  0.77134594  1
  O2-  O312  1  0.40463645  0.07164033  0.26677805  1
  O2-  O313  1  0.40146126  0.06989318  0.76716536  1
  O2-  O314  1  0.40362015  0.40764186  0.27299309  1
  O2-  O315  1  0.40541019  0.40711187  0.77039646  1
  O2-  O316  1  0.40465602  0.74093135  0.27479407  1
  O2-  O317  1  0.40540147  0.74388284  0.77229601  1
  O2-  O318  1  0.73931369  0.06820959  0.26564518  1
  O2-  O319  1  0.74260241  0.07278831  0.76776131  1
  O2-  O320  1  0.73303678  0.40403527  0.26618401  1
  O2-  O321  1  0.73797019  0.40585106  0.77259613  1
  O2-  O322  1  0.73752304  0.73914557  0.27178004  1
  O2-  O323  1  0.74033857  0.73634244  0.76773895  1
  O2-  O324  1  0.24210692  0.09092327  0.23290130  1
  O2-  O325  1  0.23979807  0.09356337  0.73216230  1
  O2-  O326  1  0.23701815  0.43575032  0.23232396  1
  O2-  O327  1  0.23801917  0.42720482  0.72906280  1
  O2-  O328  1  0.23506962  0.76452613  0.23433118  1
  O2-  O329  1  0.23593302  0.76063062  0.73498333  1
  O2-  O330  1  0.57494012  0.09373328  0.22524607  1
  O2-  O331  1  0.57288661  0.09362506  0.72902853  1
  O2-  O332  1  0.56789354  0.42919980  0.22588310  1
  O2-  O333  1  0.57069993  0.42664026  0.72954137  1
  O2-  O334  1  0.56914980  0.75970851  0.22885380  1
  O2-  O335  1  0.57806077  0.75889089  0.73396165  1
  O2-  O336  1  0.90592810  0.09258829  0.22653626  1
  O2-  O337  1  0.90477648  0.09431761  0.72982606  1
  O2-  O338  1  0.90576889  0.42624004  0.22669280  1
  O2-  O339  1  0.90411910  0.42940066  0.73020073  1
  O2-  O340  1  0.90584514  0.76122558  0.23022281  1
  O2-  O341  1  0.90557862  0.76137219  0.72881293  1
  O2-  O342  1  0.26388168  0.26770575  0.01733021  1
  O2-  O343  1  0.26282811  0.26292386  0.51692880  1
  O2-  O344  1  0.26552591  0.59830043  0.01939193  1
  O2-  O345  1  0.25683148  0.58945389  0.52084876  1
  O2-  O346  1  0.26103091  0.92603012  0.02265044  1
  O2-  O347  1  0.26011067  0.92797285  0.52029112  1
  O2-  O348  1  0.59133056  0.26385727  0.02034365  1
  O2-  O349  1  0.59890819  0.26167022  0.51490297  1
  O2-  O350  1  0.59434807  0.59738618  0.01957045  1
  O2-  O351  1  0.59905839  0.59218724  0.51974871  1
  O2-  O352  1  0.59393707  0.92512509  0.02186564  1
  O2-  O353  1  0.59769578  0.93108177  0.51660155  1
  O2-  O354  1  0.92654529  0.26369434  0.02157597  1
  O2-  O355  1  0.92717893  0.26321432  0.51880920  1
  O2-  O356  1  0.92581099  0.59286000  0.02494320  1
  O2-  O357  1  0.92931386  0.59693412  0.52217122  1
  O2-  O358  1  0.93022130  0.92670713  0.02269796  1
  O2-  O359  1  0.93009226  0.92832375  0.52210621  1
