# generated using pymatgen
data_Sr7Ca15Pr50Mn72O216
_symmetry_space_group_name_H-M   'P 1'
_cell_length_a   16.55904573
_cell_length_b   16.60484044
_cell_length_c   15.59421372
_cell_angle_alpha   90.00297568
_cell_angle_beta   90.00178516
_cell_angle_gamma   90.00337551
_symmetry_Int_Tables_number   1
_chemical_formula_structural   Sr7Ca15Pr50Mn72O216
_chemical_formula_sum   'Sr7 Ca15 Pr50 Mn72 O216'
_cell_volume   4287.78985672
_cell_formula_units_Z   1
loop_
 _symmetry_equiv_pos_site_id
 _symmetry_equiv_pos_as_xyz
  1  'x, y, z'
loop_
 _atom_type_symbol
 _atom_type_oxidation_number
  Sr2+  2.0
  Ca2+  2.0
  Pr3+  3.0
  Mn3.30+  3.3
  O2-  -2.0
loop_
 _atom_site_type_symbol
 _atom_site_label
 _atom_site_symmetry_multiplicity
 _atom_site_fract_x
 _atom_site_fract_y
 _atom_site_fract_z
 _atom_site_occupancy
  Sr2+  Sr0  1  0.83614914  0.50894365  0.62703885  1
  Sr2+  Sr1  1  0.83441940  0.48945120  0.37459951  1
  Sr2+  Sr2  1  0.16420044  0.15886460  0.37276261  1
  Sr2+  Sr3  1  0.33274938  0.32326460  0.37383800  1
  Sr2+  Sr4  1  0.33319182  0.65795640  0.37415268  1
  Sr2+  Sr5  1  0.33407662  0.67624420  0.12577071  1
  Sr2+  Sr6  1  0.83688291  0.17845303  0.12309615  1
  Ca2+  Ca7  1  1.00572800  0.31983867  0.36913204  1
  Ca2+  Ca8  1  0.83749687  0.51130127  0.12388815  1
  Ca2+  Ca9  1  0.50183679  0.84515735  0.12564318  1
  Ca2+  Ca10  1  0.83700419  0.84731296  0.12469263  1
  Ca2+  Ca11  1  0.83016135  0.15199026  0.87750845  1
  Ca2+  Ca12  1  -0.00453821  0.34844527  0.12628701  1
  Ca2+  Ca13  1  0.83079794  0.48630883  0.87673775  1
  Ca2+  Ca14  1  0.16947667  0.84444272  0.12591347  1
  Ca2+  Ca15  1  0.16966064  0.84538474  0.62426011  1
  Ca2+  Ca16  1  0.83748744  0.84726085  0.62561932  1
  Ca2+  Ca17  1  0.49715026  0.48675830  0.87810059  1
  Ca2+  Ca18  1  0.50117173  0.51277442  0.12539452  1
  Ca2+  Ca19  1  0.16784101  0.18218112  0.12575642  1
  Ca2+  Ca20  1  0.16320017  0.48527208  0.87835228  1
  Ca2+  Ca21  1  0.32677478  0.68330863  0.62512252  1
  Pr3+  Pr22  1  0.16280534  0.82025742  0.87647495  1
  Pr3+  Pr23  1  0.16303696  0.15417525  0.87728742  1
  Pr3+  Pr24  1  0.66796907  0.67689318  0.62428010  1
  Pr3+  Pr25  1  -0.00492449  0.68146736  0.62554864  1
  Pr3+  Pr26  1  0.49650280  0.81956050  0.87704117  1
  Pr3+  Pr27  1  0.32796518  0.01132060  0.62578477  1
  Pr3+  Pr28  1  0.17199663  0.51458877  0.62701041  1
  Pr3+  Pr29  1  0.50478979  0.18038734  0.12463288  1
  Pr3+  Pr30  1  0.67369503  0.32120246  0.87526237  1
  Pr3+  Pr31  1  0.83736648  0.17904111  0.62673768  1
  Pr3+  Pr32  1  -0.00191087  0.34590351  0.62347904  1
  Pr3+  Pr33  1  0.33041272  0.34715494  0.62427670  1
  Pr3+  Pr34  1  0.66303263  0.67754881  0.12550420  1
  Pr3+  Pr35  1  0.16817064  0.51030889  0.12256506  1
  Pr3+  Pr36  1  0.66536940  0.35055733  0.12500531  1
  Pr3+  Pr37  1  0.99863326  0.98805203  0.87735000  1
  Pr3+  Pr38  1  0.66996105  0.98777132  0.37375450  1
  Pr3+  Pr39  1  0.49516600  0.48857859  0.37240459  1
  Pr3+  Pr40  1  0.66916727  0.65022069  0.87496577  1
  Pr3+  Pr41  1  0.67115143  0.32369943  0.37442345  1
  Pr3+  Pr42  1  0.16813793  0.18076445  0.62521391  1
  Pr3+  Pr43  1  1.00400103  0.65202469  0.37436767  1
  Pr3+  Pr44  1  0.49984681  0.84309263  0.62428524  1
  Pr3+  Pr45  1  0.33302314  0.98897002  0.37392381  1
  Pr3+  Pr46  1  0.82914068  0.81988269  0.87613220  1
  Pr3+  Pr47  1  0.33529205  0.98524255  0.87554822  1
  Pr3+  Pr48  1  0.16408375  0.81963774  0.37337755  1
  Pr3+  Pr49  1  0.49505950  0.81979094  0.37293960  1
  Pr3+  Pr50  1  0.66648260  0.34771252  0.62499554  1
  Pr3+  Pr51  1  1.00299429  0.64917652  0.87587560  1
  Pr3+  Pr52  1  -0.00516737  0.67897580  0.12489700  1
  Pr3+  Pr53  1  1.00535600  0.98854578  0.37290293  1
  Pr3+  Pr54  1  0.99919218  0.32409531  0.87749380  1
  Pr3+  Pr55  1  0.66561699  0.01196533  0.62536792  1
  Pr3+  Pr56  1  0.67083063  0.98688937  0.87621213  1
  Pr3+  Pr57  1  0.66508593  0.01217839  0.12455144  1
  Pr3+  Pr58  1  0.33064253  0.34587527  0.12544537  1
  Pr3+  Pr59  1  -0.00146933  0.01210000  0.12472435  1
  Pr3+  Pr60  1  0.50310500  0.18084317  0.62540974  1
  Pr3+  Pr61  1  0.33615297  0.65133675  0.87573000  1
  Pr3+  Pr62  1  0.66820807  0.65347029  0.37532698  1
  Pr3+  Pr63  1  -0.00201176  0.01042394  0.62576702  1
  Pr3+  Pr64  1  0.49335198  0.15471762  0.37342800  1
  Pr3+  Pr65  1  0.50183014  0.51331147  0.62563640  1
  Pr3+  Pr66  1  0.33513934  0.32328037  0.87635022  1
  Pr3+  Pr67  1  0.49709113  0.15386160  0.87637791  1
  Pr3+  Pr68  1  0.32949512  0.01050438  0.12390623  1
  Pr3+  Pr69  1  0.16252906  0.48565690  0.37203689  1
  Pr3+  Pr70  1  0.83637343  0.15868092  0.37230341  1
  Pr3+  Pr71  1  0.83152777  0.82067762  0.37452077  1
  Mn3.30+  Mn72  1  0.16591164  -0.00076500  0.00132640  1
  Mn3.30+  Mn73  1  0.16596998  -0.00065582  0.50030644  1
  Mn3.30+  Mn74  1  0.16474258  0.33342276  0.00124116  1
  Mn3.30+  Mn75  1  0.16508518  0.33355292  0.49841690  1
  Mn3.30+  Mn76  1  0.16692276  0.66609287  0.00046363  1
  Mn3.30+  Mn77  1  0.16736917  0.66731402  0.50147878  1
  Mn3.30+  Mn78  1  0.49997317  -0.00176085  0.00086016  1
  Mn3.30+  Mn79  1  0.49972049  -0.00044570  0.50035246  1
  Mn3.30+  Mn80  1  0.50179121  0.33696955  -0.00065671  1
  Mn3.30+  Mn81  1  0.49963980  0.33424750  0.49978535  1
  Mn3.30+  Mn82  1  0.50047004  0.66472929  0.00087946  1
  Mn3.30+  Mn83  1  0.49675295  0.66723593  0.50197518  1
  Mn3.30+  Mn84  1  0.83320481  -0.00040430  0.00118979  1
  Mn3.30+  Mn85  1  0.83434988  -0.00020640  0.49943759  1
  Mn3.30+  Mn86  1  0.83511162  0.33495850  0.00220438  1
  Mn3.30+  Mn87  1  0.83655047  0.33347560  0.49727965  1
  Mn3.30+  Mn88  1  0.83239702  0.66393405  0.00078830  1
  Mn3.30+  Mn89  1  0.83468879  0.66692774  0.50124518  1
  Mn3.30+  Mn90  1  0.00185215  0.16925451  0.24619345  1
  Mn3.30+  Mn91  1  -0.00134568  0.16649314  0.75329251  1
  Mn3.30+  Mn92  1  -0.00181066  0.49770016  0.24790122  1
  Mn3.30+  Mn93  1  0.00150597  0.49912172  0.75203318  1
  Mn3.30+  Mn94  1  -0.00048535  0.83292740  0.24744192  1
  Mn3.30+  Mn95  1  -0.00074412  0.83306548  0.74988324  1
  Mn3.30+  Mn96  1  0.33128789  0.16661223  0.24834296  1
  Mn3.30+  Mn97  1  0.33289223  0.16713339  0.75097517  1
  Mn3.30+  Mn98  1  0.33365080  0.50114163  0.24862971  1
  Mn3.30+  Mn99  1  0.33400788  0.50111440  0.75211281  1
  Mn3.30+  Mn100  1  0.33257975  0.83305244  0.24670229  1
  Mn3.30+  Mn101  1  0.33038837  0.83116694  0.74969208  1
  Mn3.30+  Mn102  1  0.66717506  0.16826398  0.25005209  1
  Mn3.30+  Mn103  1  0.66849000  0.16681534  0.75072967  1
  Mn3.30+  Mn104  1  0.66829153  0.50146418  0.24831092  1
  Mn3.30+  Mn105  1  0.66676566  0.49963824  0.75185396  1
  Mn3.30+  Mn106  1  0.66666594  0.83312058  0.24832869  1
  Mn3.30+  Mn107  1  0.66732319  0.83198969  0.74830278  1
  Mn3.30+  Mn108  1  0.16679840  0.00044722  0.24757621  1
  Mn3.30+  Mn109  1  0.16525336  -0.00173802  0.75093079  1
  Mn3.30+  Mn110  1  0.16363769  0.33151083  0.24661472  1
  Mn3.30+  Mn111  1  0.16639345  0.33527589  0.75255646  1
  Mn3.30+  Mn112  1  0.16691256  0.66657011  0.24753642  1
  Mn3.30+  Mn113  1  0.16718674  0.66669656  0.75051801  1
  Mn3.30+  Mn114  1  0.49987404  -0.00149301  0.24866964  1
  Mn3.30+  Mn115  1  0.49983118  -0.00123815  0.74980966  1
  Mn3.30+  Mn116  1  0.50025333  0.33530707  0.24866060  1
  Mn3.30+  Mn117  1  0.50084150  0.33543300  0.75225727  1
  Mn3.30+  Mn118  1  0.49958715  0.66662377  0.24794382  1
  Mn3.30+  Mn119  1  0.49795613  0.66567122  0.74959658  1
  Mn3.30+  Mn120  1  0.83483988  -0.00005948  0.24919673  1
  Mn3.30+  Mn121  1  0.83269142  -0.00070022  0.74997450  1
  Mn3.30+  Mn122  1  0.83718371  0.33455658  0.24863091  1
  Mn3.30+  Mn123  1  0.83469827  0.33362401  0.75177447  1
  Mn3.30+  Mn124  1  0.83261573  0.66581854  0.24865827  1
  Mn3.30+  Mn125  1  0.83439393  0.66557848  0.75057430  1
  Mn3.30+  Mn126  1  -0.00113234  0.16886160  0.00080613  1
  Mn3.30+  Mn127  1  0.00141949  0.16693892  0.49934668  1
  Mn3.30+  Mn128  1  -0.00178457  0.49814008  0.00005565  1
  Mn3.30+  Mn129  1  0.00124662  0.49872993  0.49972182  1
  Mn3.30+  Mn130  1  -0.00154819  0.83227539  0.00164168  1
  Mn3.30+  Mn131  1  0.00029096  0.83370195  0.50162928  1
  Mn3.30+  Mn132  1  0.33188102  0.16690578  0.00125718  1
  Mn3.30+  Mn133  1  0.33272989  0.16691515  0.49919292  1
  Mn3.30+  Mn134  1  0.33441985  0.50011319  -0.00058126  1
  Mn3.30+  Mn135  1  0.33306315  0.50284445  0.49969290  1
  Mn3.30+  Mn136  1  0.33183893  0.83158988  0.00276869  1
  Mn3.30+  Mn137  1  0.33103866  0.83269430  0.50080190  1
  Mn3.30+  Mn138  1  0.66892450  0.16793824  0.00002677  1
  Mn3.30+  Mn139  1  0.66692002  0.16726713  0.49890556  1
  Mn3.30+  Mn140  1  0.66746982  0.50040131  -0.00032800  1
  Mn3.30+  Mn141  1  0.66736461  0.50061990  0.50030469  1
  Mn3.30+  Mn142  1  0.66608592  0.83213992  0.00268295  1
  Mn3.30+  Mn143  1  0.66756033  0.83319564  0.50087676  1
  O2-  O144  1  0.02660491  0.15785627  0.12184472  1
  O2-  O145  1  0.02434168  0.15866863  0.62868427  1
  O2-  O146  1  0.02467190  0.49692183  0.12336836  1
  O2-  O147  1  0.02766162  0.49387921  0.62606682  1
  O2-  O148  1  0.02730716  0.82634236  0.12363593  1
  O2-  O149  1  0.02810913  0.82918929  0.62663976  1
  O2-  O150  1  0.36156581  0.16007878  0.12357010  1
  O2-  O151  1  0.35871376  0.16105027  0.62722036  1
  O2-  O152  1  0.35849724  0.49327434  0.12298800  1
  O2-  O153  1  0.35850601  0.49308239  0.62638696  1
  O2-  O154  1  0.35929933  0.83595402  0.12401441  1
  O2-  O155  1  0.35648739  0.83060984  0.62689133  1
  O2-  O156  1  0.68593044  0.16081108  0.12425068  1
  O2-  O157  1  0.69306923  0.16066503  0.62350985  1
  O2-  O158  1  0.69475642  0.49893617  0.12414507  1
  O2-  O159  1  0.68621619  0.49689298  0.62532789  1
  O2-  O160  1  0.69579642  0.82581735  0.12631222  1
  O2-  O161  1  0.69538169  0.82573741  0.62499137  1
  O2-  O162  1  0.13988332  0.32975544  0.12213552  1
  O2-  O163  1  0.14319211  0.32993503  0.62742962  1
  O2-  O164  1  0.13916927  0.65847946  0.12327186  1
  O2-  O165  1  0.13860994  0.65948411  0.62857636  1
  O2-  O166  1  0.14172474  0.98788243  0.12322871  1
  O2-  O167  1  0.14194462  0.99192976  0.62832757  1
  O2-  O168  1  0.47536822  0.32653128  0.12259699  1
  O2-  O169  1  0.47493104  0.32761000  0.62680554  1
  O2-  O170  1  0.48348930  0.65657196  0.12206146  1
  O2-  O171  1  0.46981219  0.66070968  0.62653377  1
  O2-  O172  1  0.47508099  0.99393435  0.12260556  1
  O2-  O173  1  0.47281737  0.99236550  0.62451856  1
  O2-  O174  1  0.80742432  0.32946873  0.12477769  1
  O2-  O175  1  0.81018819  0.32585590  0.62450652  1
  O2-  O176  1  0.80728809  0.65572864  0.12250553  1
  O2-  O177  1  0.81164785  0.66187972  0.62650704  1
  O2-  O178  1  0.80895041  0.99407473  0.12597086  1
  O2-  O179  1  0.80912777  0.99534726  0.62424400  1
  O2-  O180  1  0.31505858  0.16417302  0.37284829  1
  O2-  O181  1  0.30753121  0.17350352  0.87557814  1
  O2-  O182  1  0.30854718  0.50282183  0.37536283  1
  O2-  O183  1  0.30534177  0.50374726  0.87495579  1
  O2-  O184  1  0.30893022  0.83927260  0.37345270  1
  O2-  O185  1  0.30771301  0.83729370  0.87525460  1
  O2-  O186  1  0.63784766  0.17408441  0.37563701  1
  O2-  O187  1  0.64039342  0.17190649  0.87606088  1
  O2-  O188  1  0.64022469  0.50294756  0.37662840  1
  O2-  O189  1  0.63868450  0.50224232  0.87441302  1
  O2-  O190  1  0.63939807  0.83920232  0.37497408  1
  O2-  O191  1  0.64070798  0.83888805  0.87384027  1
  O2-  O192  1  0.97964581  0.17031182  0.37371448  1
  O2-  O193  1  0.97161978  0.17451521  0.87565050  1
  O2-  O194  1  0.98343841  0.50634051  0.37387601  1
  O2-  O195  1  0.97289901  0.50240373  0.87638918  1
  O2-  O196  1  0.97516413  0.83864393  0.37413038  1
  O2-  O197  1  0.97217644  0.83863420  0.87642528  1
  O2-  O198  1  0.18935166  0.00333772  0.37251662  1
  O2-  O199  1  0.19196179  0.00634053  0.87570277  1
  O2-  O200  1  0.18454419  0.33751515  0.37280353  1
  O2-  O201  1  0.19176252  0.33760532  0.87613801  1
  O2-  O202  1  0.18308589  0.67185194  0.37282391  1
  O2-  O203  1  0.19217881  0.67504865  0.87506910  1
  O2-  O204  1  0.52604216  0.00700612  0.37700288  1
  O2-  O205  1  0.52585674  0.00462940  0.87543864  1
  O2-  O206  1  0.52615808  0.33988477  0.37448502  1
  O2-  O207  1  0.52845585  0.33995047  0.87614480  1
  O2-  O208  1  0.52364478  0.67279713  0.37659988  1
  O2-  O209  1  0.52526375  0.67489605  0.87491758  1
  O2-  O210  1  0.86006823  0.00692207  0.37441973  1
  O2-  O211  1  0.85355907  0.00325249  0.87519071  1
  O2-  O212  1  0.86093707  0.33167102  0.37386837  1
  O2-  O213  1  0.85525691  0.34258500  0.87764500  1
  O2-  O214  1  0.85939499  0.67449353  0.37659354  1
  O2-  O215  1  0.85870272  0.67528349  0.87523621  1
  O2-  O216  1  0.23589923  0.09413446  0.02166734  1
  O2-  O217  1  0.23879503  0.09225202  0.52428941  1
  O2-  O218  1  0.24088819  0.42528493  0.02150997  1
  O2-  O219  1  0.23970475  0.42977137  0.51939441  1
  O2-  O220  1  0.23523812  0.76533051  0.01851094  1
  O2-  O221  1  0.23362417  0.76340192  0.51763621  1
  O2-  O222  1  0.57126412  0.09500472  0.01851315  1
  O2-  O223  1  0.57105732  0.09271979  0.52282291  1
  O2-  O224  1  0.57248638  0.43008185  0.02503323  1
  O2-  O225  1  0.57260238  0.42756942  0.52077479  1
  O2-  O226  1  0.57133599  0.76382670  0.02139577  1
  O2-  O227  1  0.57183812  0.75915389  0.52255654  1
  O2-  O228  1  0.91007693  0.09094620  0.01718597  1
  O2-  O229  1  0.90500561  0.09472147  0.51975538  1
  O2-  O230  1  0.90311595  0.43036365  0.02072712  1
  O2-  O231  1  0.91000522  0.42399861  0.52026746  1
  O2-  O232  1  0.90210304  0.76095068  0.02258395  1
  O2-  O233  1  0.90520992  0.76450266  0.52213397  1
  O2-  O234  1  0.26139096  0.25999417  0.22786560  1
  O2-  O235  1  0.26166196  0.26125604  0.72988044  1
  O2-  O236  1  0.25562552  0.59040738  0.22928889  1
  O2-  O237  1  0.26534393  0.59727641  0.72945420  1
  O2-  O238  1  0.26335576  0.93024889  0.23275521  1
  O2-  O239  1  0.26463412  0.92917317  0.73465342  1
  O2-  O240  1  0.59484356  0.26310200  0.22934429  1
  O2-  O241  1  0.59706539  0.26016600  0.72911299  1
  O2-  O242  1  0.59766978  0.59743522  0.23602247  1
  O2-  O243  1  0.59511090  0.59523158  0.72906312  1
  O2-  O244  1  0.59768561  0.92872860  0.23107808  1
  O2-  O245  1  0.59622737  0.92505248  0.72676368  1
  O2-  O246  1  0.93016568  0.26303597  0.23032132  1
  O2-  O247  1  0.92995733  0.25998318  0.72900942  1
  O2-  O248  1  0.93020869  0.59631897  0.23353794  1
  O2-  O249  1  0.93448354  0.59634090  0.73444909  1
  O2-  O250  1  0.93091813  0.92752125  0.23069037  1
  O2-  O251  1  0.92935500  0.92867548  0.73266142  1
  O2-  O252  1  0.09424989  0.23895778  0.26357367  1
  O2-  O253  1  0.09418340  0.23747171  0.77036304  1
  O2-  O254  1  0.09376395  0.57104981  0.26698928  1
  O2-  O255  1  0.09824983  0.56951929  0.77341910  1
  O2-  O256  1  0.09386343  0.90550998  0.27110089  1
  O2-  O257  1  0.09161451  0.90669457  0.77537877  1
  O2-  O258  1  0.42992153  0.23590444  0.26469529  1
  O2-  O259  1  0.43006537  0.23994454  0.77201038  1
  O2-  O260  1  0.42976516  0.57379834  0.26725500  1
  O2-  O261  1  0.42931527  0.56888237  0.77395456  1
  O2-  O262  1  0.42781141  0.90837665  0.27284761  1
  O2-  O263  1  0.42775039  0.90366350  0.77061739  1
  O2-  O264  1  0.76062573  0.24142901  0.27264345  1
  O2-  O265  1  0.76419096  0.23699657  0.77137375  1
  O2-  O266  1  0.75773300  0.57655575  0.27269080  1
  O2-  O267  1  0.75932057  0.57134133  0.77328543  1
  O2-  O268  1  0.75979001  0.90668161  0.27339716  1
  O2-  O269  1  0.75909863  0.90504177  0.77124137  1
  O2-  O270  1  0.06922358  0.06887836  0.48549509  1
  O2-  O271  1  0.07246300  0.07271490  0.97769299  1
  O2-  O272  1  0.07214569  0.40421366  0.47951113  1
  O2-  O273  1  0.07104097  0.40668060  0.97976778  1
  O2-  O274  1  0.06897886  0.73825886  0.48101284  1
  O2-  O275  1  0.06910299  0.73869221  0.97830203  1
  O2-  O276  1  0.40663644  0.07064037  0.48109943  1
  O2-  O277  1  0.40429493  0.07310107  0.97827844  1
  O2-  O278  1  0.40734468  0.40786756  0.48348241  1
  O2-  O279  1  0.40444591  0.40401383  0.97986894  1
  O2-  O280  1  0.40788787  0.74378677  0.48246909  1
  O2-  O281  1  0.40477085  0.73938251  0.97856774  1
  O2-  O282  1  0.73792242  0.07391333  0.47787541  1
  O2-  O283  1  0.73572856  0.07075439  0.98306365  1
  O2-  O284  1  0.73888640  0.40278434  0.48402561  1
  O2-  O285  1  0.73425030  0.40310975  0.98378472  1
  O2-  O286  1  0.73804024  0.74098578  0.47849502  1
  O2-  O287  1  0.73631855  0.73717827  0.97875550  1
  O2-  O288  1  0.09290308  0.23668405  0.48993556  1
  O2-  O289  1  0.09314811  0.23967018  0.97563403  1
  O2-  O290  1  0.09825689  0.57023019  0.48183585  1
  O2-  O291  1  0.09426769  0.57042323  0.97854771  1
  O2-  O292  1  0.09433483  0.90533230  0.47740159  1
  O2-  O293  1  0.09220506  0.90761865  0.97640386  1
  O2-  O294  1  0.43162253  0.23718576  0.48418125  1
  O2-  O295  1  0.43015145  0.24019599  0.97878951  1
  O2-  O296  1  0.43038261  0.57000948  0.48191040  1
  O2-  O297  1  0.42747097  0.57244265  0.97589244  1
  O2-  O298  1  0.42922771  0.90676874  0.47926020  1
  O2-  O299  1  0.42630179  0.90570089  0.97662441  1
  O2-  O300  1  0.76274965  0.23959411  0.47814771  1
  O2-  O301  1  0.76193720  0.23892107  0.97676508  1
  O2-  O302  1  0.75497817  0.57695841  0.48170636  1
  O2-  O303  1  0.76155725  0.57105532  0.97340493  1
  O2-  O304  1  0.76125239  0.90895733  0.47636909  1
  O2-  O305  1  0.75924506  0.90431786  0.97936879  1
  O2-  O306  1  0.07078473  0.06889220  0.26380142  1
  O2-  O307  1  0.06973205  0.07320064  0.77365173  1
  O2-  O308  1  0.07220902  0.40658536  0.26826868  1
  O2-  O309  1  0.07164962  0.40419083  0.77027068  1
  O2-  O310  1  0.06893145  0.73843769  0.26855650  1
  O2-  O311  1  0.06921701  0.73814685  0.77271883  1
  O2-  O312  1  0.40523975  0.07143541  0.26811643  1
  O2-  O313  1  0.40363460  0.07341194  0.77178082  1
  O2-  O314  1  0.40855749  0.40689432  0.26739144  1
  O2-  O315  1  0.40278370  0.40441832  0.76906292  1
  O2-  O316  1  0.40844084  0.74316709  0.26715389  1
  O2-  O317  1  0.40424425  0.73989876  0.77241847  1
  O2-  O318  1  0.73883058  0.07415849  0.27106608  1
  O2-  O319  1  0.73499137  0.07023560  0.76709417  1
  O2-  O320  1  0.73643832  0.40404169  0.26727440  1
  O2-  O321  1  0.73648777  0.40363016  0.76531863  1
  O2-  O322  1  0.73726437  0.74002125  0.27258705  1
  O2-  O323  1  0.73669256  0.73849526  0.77102904  1
  O2-  O324  1  0.24003760  0.09293043  0.22344110  1
  O2-  O325  1  0.23653730  0.09411667  0.73017094  1
  O2-  O326  1  0.23770657  0.42493573  0.22895655  1
  O2-  O327  1  0.24186759  0.42829841  0.72836910  1
  O2-  O328  1  0.23494235  0.76361294  0.23243711  1
  O2-  O329  1  0.23414102  0.76492392  0.73102397  1
  O2-  O330  1  0.57097461  0.09348898  0.23022220  1
  O2-  O331  1  0.57148692  0.09398646  0.72902187  1
  O2-  O332  1  0.57391644  0.43124108  0.22790523  1
  O2-  O333  1  0.57273590  0.42641566  0.72715498  1
  O2-  O334  1  0.57214897  0.76237220  0.22922101  1
  O2-  O335  1  0.57224277  0.76082064  0.72729245  1
  O2-  O336  1  0.90882112  0.09415733  0.23258866  1
  O2-  O337  1  0.90598168  0.09309876  0.72972492  1
  O2-  O338  1  0.90387225  0.43023817  0.22831697  1
  O2-  O339  1  0.91107673  0.42321017  0.73130566  1
  O2-  O340  1  0.90253389  0.76180340  0.22805591  1
  O2-  O341  1  0.90516444  0.76396288  0.72884201  1
  O2-  O342  1  0.26340518  0.26155491  0.01896898  1
  O2-  O343  1  0.25902722  0.26120265  0.52131987  1
  O2-  O344  1  0.26041158  0.59250929  0.01758668  1
  O2-  O345  1  0.26174798  0.59597263  0.52447031  1
  O2-  O346  1  0.26356444  0.93009250  0.01469264  1
  O2-  O347  1  0.26334532  0.93005048  0.51689620  1
  O2-  O348  1  0.59600696  0.26258362  0.01984132  1
  O2-  O349  1  0.59565495  0.26118534  0.52202449  1
  O2-  O350  1  0.60109302  0.59713551  0.01461931  1
  O2-  O351  1  0.59103123  0.59595451  0.52138520  1
  O2-  O352  1  0.59805929  0.92863007  0.01907079  1
  O2-  O353  1  0.59455350  0.92714895  0.52180669  1
  O2-  O354  1  0.93204732  0.26686538  0.01827148  1
  O2-  O355  1  0.92647014  0.25679008  0.52336962  1
  O2-  O356  1  0.93116223  0.59699015  0.01671011  1
  O2-  O357  1  0.93314692  0.59569508  0.51605036  1
  O2-  O358  1  0.92940690  0.92699838  0.01901654  1
  O2-  O359  1  0.93159747  0.92850070  0.51863626  1
