# generated using pymatgen
data_Sr7Ca15Pr50Mn72O216
_symmetry_space_group_name_H-M   'P 1'
_cell_length_a   16.55749954
_cell_length_b   16.60477772
_cell_length_c   15.59350610
_cell_angle_alpha   90.00143591
_cell_angle_beta   89.99624814
_cell_angle_gamma   89.99257770
_symmetry_Int_Tables_number   1
_chemical_formula_structural   Sr7Ca15Pr50Mn72O216
_chemical_formula_sum   'Sr7 Ca15 Pr50 Mn72 O216'
_cell_volume   4287.17871532
_cell_formula_units_Z   1
loop_
 _symmetry_equiv_pos_site_id
 _symmetry_equiv_pos_as_xyz
  1  'x, y, z'
loop_
 _atom_type_symbol
 _atom_type_oxidation_number
  Sr2+  2.0
  Ca2+  2.0
  Pr3+  3.0
  Mn3.30+  3.3
  O2-  -2.0
loop_
 _atom_site_type_symbol
 _atom_site_label
 _atom_site_symmetry_multiplicity
 _atom_site_fract_x
 _atom_site_fract_y
 _atom_site_fract_z
 _atom_site_occupancy
  Sr2+  Sr0  1  0.66315281  0.00886732  0.62488023  1
  Sr2+  Sr1  1  0.33597703  0.98854119  0.87625369  1
  Sr2+  Sr2  1  1.00158321  0.32168334  0.87313576  1
  Sr2+  Sr3  1  0.16458466  0.82255914  0.37447046  1
  Sr2+  Sr4  1  0.83145273  0.82483779  0.87745197  1
  Sr2+  Sr5  1  -0.00072945  0.00787521  0.12689866  1
  Sr2+  Sr6  1  0.33073423  0.32544883  0.37755482  1
  Ca2+  Ca7  1  0.16648231  0.48947424  0.37667105  1
  Ca2+  Ca8  1  0.33534060  0.98422627  0.37352541  1
  Ca2+  Ca9  1  0.66403182  0.34866632  0.62479327  1
  Ca2+  Ca10  1  0.32726905  0.01498493  0.12851158  1
  Ca2+  Ca11  1  0.83478975  0.51522730  0.62563830  1
  Ca2+  Ca12  1  0.49848049  0.82086721  0.87417130  1
  Ca2+  Ca13  1  0.16608576  0.15230155  0.37660939  1
  Ca2+  Ca14  1  0.17329254  0.18473266  0.62419355  1
  Ca2+  Ca15  1  0.66442651  0.68070632  0.62519896  1
  Ca2+  Ca16  1  0.33706666  0.31828604  0.87128581  1
  Ca2+  Ca17  1  1.00583158  0.64858643  0.37538162  1
  Ca2+  Ca18  1  0.66438422  0.68374954  0.12499234  1
  Ca2+  Ca19  1  0.83557619  0.84769602  0.12491338  1
  Ca2+  Ca20  1  0.49517724  0.82017860  0.37563488  1
  Ca2+  Ca21  1  0.32982744  0.34746484  0.62467532  1
  Pr3+  Pr22  1  0.66785000  0.98513061  0.87450338  1
  Pr3+  Pr23  1  0.83235249  0.15364331  0.87415492  1
  Pr3+  Pr24  1  0.50094393  0.84670592  0.12521602  1
  Pr3+  Pr25  1  1.00991782  0.32181174  0.37637231  1
  Pr3+  Pr26  1  0.17238514  0.85130398  0.12805421  1
  Pr3+  Pr27  1  1.00512513  0.98691802  0.37417187  1
  Pr3+  Pr28  1  0.66617473  0.01009015  0.12541719  1
  Pr3+  Pr29  1  0.49501618  0.15410425  0.87393691  1
  Pr3+  Pr30  1  -0.00489214  0.68067222  0.12797281  1
  Pr3+  Pr31  1  0.16853518  0.51139535  0.12640761  1
  Pr3+  Pr32  1  0.33581532  0.65570728  0.37502954  1
  Pr3+  Pr33  1  1.00363557  0.98674231  0.87566591  1
  Pr3+  Pr34  1  -0.00187083  0.34843465  0.62703411  1
  Pr3+  Pr35  1  0.66379646  0.34559663  0.12547279  1
  Pr3+  Pr36  1  0.83205569  0.82099929  0.37244636  1
  Pr3+  Pr37  1  0.83468057  0.17877312  0.62377128  1
  Pr3+  Pr38  1  -0.00137908  0.01231221  0.62271732  1
  Pr3+  Pr39  1  0.50337556  0.18185178  0.62470454  1
  Pr3+  Pr40  1  -0.00079377  0.34429469  0.12330214  1
  Pr3+  Pr41  1  0.33049322  0.34472193  0.12446738  1
  Pr3+  Pr42  1  0.83353440  0.48915349  0.37745625  1
  Pr3+  Pr43  1  0.50491024  0.51536415  0.12647821  1
  Pr3+  Pr44  1  0.83235619  0.15394998  0.37568474  1
  Pr3+  Pr45  1  0.66994834  0.65752301  0.87430427  1
  Pr3+  Pr46  1  0.66888302  0.32138916  0.37805064  1
  Pr3+  Pr47  1  0.49651703  0.48608897  0.87425631  1
  Pr3+  Pr48  1  0.82988155  0.48804928  0.87241208  1
  Pr3+  Pr49  1  0.50346980  0.84608499  0.62441241  1
  Pr3+  Pr50  1  0.83595070  0.51278602  0.12483248  1
  Pr3+  Pr51  1  0.17033200  0.84556530  0.62217793  1
  Pr3+  Pr52  1  0.49784352  0.17689443  0.12491759  1
  Pr3+  Pr53  1  -0.00404223  0.67579909  0.62210494  1
  Pr3+  Pr54  1  0.66771025  0.65650041  0.37543113  1
  Pr3+  Pr55  1  0.67041273  0.32021384  0.87243014  1
  Pr3+  Pr56  1  0.16623214  0.15397588  0.87220021  1
  Pr3+  Pr57  1  0.66635166  0.98551927  0.37596990  1
  Pr3+  Pr58  1  0.16491190  0.48464519  0.87392870  1
  Pr3+  Pr59  1  0.32948309  0.01414270  0.62336651  1
  Pr3+  Pr60  1  0.17011167  0.17564149  0.12586710  1
  Pr3+  Pr61  1  0.33763913  0.65714808  0.87509332  1
  Pr3+  Pr62  1  0.49212484  0.15248308  0.37606076  1
  Pr3+  Pr63  1  0.83968923  0.17757087  0.12584353  1
  Pr3+  Pr64  1  0.99991662  0.65513899  0.87517320  1
  Pr3+  Pr65  1  0.33065276  0.67994525  0.62418209  1
  Pr3+  Pr66  1  0.83190296  0.84396671  0.62504108  1
  Pr3+  Pr67  1  0.50346023  0.51227707  0.62360470  1
  Pr3+  Pr68  1  0.17026585  0.51027449  0.62289816  1
  Pr3+  Pr69  1  0.16264085  0.82202005  0.87572952  1
  Pr3+  Pr70  1  0.49657563  0.48715435  0.37540131  1
  Pr3+  Pr71  1  0.33003760  0.68086959  0.12591580  1
  Mn3.30+  Mn72  1  0.16906073  0.00070673  0.00052006  1
  Mn3.30+  Mn73  1  0.16811399  0.00261685  0.49845605  1
  Mn3.30+  Mn74  1  0.16807881  0.33113019  -0.00231547  1
  Mn3.30+  Mn75  1  0.16864559  0.33270689  0.50115040  1
  Mn3.30+  Mn76  1  0.16629826  0.66715448  0.00112645  1
  Mn3.30+  Mn77  1  0.16463963  0.66533454  0.49737204  1
  Mn3.30+  Mn78  1  0.49728375  -0.00092400  0.00152571  1
  Mn3.30+  Mn79  1  0.49675887  -0.00112995  0.49810591  1
  Mn3.30+  Mn80  1  0.49882358  0.33327306  -0.00101201  1
  Mn3.30+  Mn81  1  0.49932595  0.33391370  0.50195972  1
  Mn3.30+  Mn82  1  0.50198908  0.66875050  0.00031279  1
  Mn3.30+  Mn83  1  0.50137698  0.66782120  0.50014582  1
  Mn3.30+  Mn84  1  0.83380871  -0.00131691  0.00063382  1
  Mn3.30+  Mn85  1  0.83316718  -0.00021742  0.49999966  1
  Mn3.30+  Mn86  1  0.83273941  0.33277023  -0.00138297  1
  Mn3.30+  Mn87  1  0.83429934  0.33532471  0.50221118  1
  Mn3.30+  Mn88  1  0.83130746  0.66904515  0.00266070  1
  Mn3.30+  Mn89  1  0.83327874  0.66611658  0.49907873  1
  Mn3.30+  Mn90  1  0.00280441  0.16646876  0.25183083  1
  Mn3.30+  Mn91  1  0.00253356  0.16706667  0.74734205  1
  Mn3.30+  Mn92  1  0.00185745  0.49946531  0.25120721  1
  Mn3.30+  Mn93  1  -0.00087333  0.50069635  0.74956746  1
  Mn3.30+  Mn94  1  -0.00049495  0.83194903  0.25041931  1
  Mn3.30+  Mn95  1  -0.00017744  0.83196850  0.74894825  1
  Mn3.30+  Mn96  1  0.33141518  0.16542912  0.25383385  1
  Mn3.30+  Mn97  1  0.33309335  0.16911496  0.74740540  1
  Mn3.30+  Mn98  1  0.33305065  0.50011575  0.25052188  1
  Mn3.30+  Mn99  1  0.33419845  0.49813674  0.75012850  1
  Mn3.30+  Mn100  1  0.33479338  0.83525394  0.25211823  1
  Mn3.30+  Mn101  1  0.33507181  0.83404077  0.75113273  1
  Mn3.30+  Mn102  1  0.66596233  0.16615869  0.25068610  1
  Mn3.30+  Mn103  1  0.66535016  0.16672762  0.74835197  1
  Mn3.30+  Mn104  1  0.66767635  0.50166854  0.25109083  1
  Mn3.30+  Mn105  1  0.66635053  0.50147424  0.74673804  1
  Mn3.30+  Mn106  1  0.66524399  0.83232256  0.24921401  1
  Mn3.30+  Mn107  1  0.66477836  0.83207834  0.75024837  1
  Mn3.30+  Mn108  1  0.16919856  0.00226655  0.25317124  1
  Mn3.30+  Mn109  1  0.16766044  0.00074147  0.74808577  1
  Mn3.30+  Mn110  1  0.16716739  0.33254141  0.25143839  1
  Mn3.30+  Mn111  1  0.16998808  0.33166066  0.74894642  1
  Mn3.30+  Mn112  1  0.16412202  0.66605798  0.25182698  1
  Mn3.30+  Mn113  1  0.16689726  0.66632931  0.74979499  1
  Mn3.30+  Mn114  1  0.49575459  -0.00093225  0.24943995  1
  Mn3.30+  Mn115  1  0.49846917  -0.00072802  0.75065748  1
  Mn3.30+  Mn116  1  0.49890487  0.33264966  0.25074047  1
  Mn3.30+  Mn117  1  0.49949415  0.33418767  0.74836521  1
  Mn3.30+  Mn118  1  0.50161509  0.66904352  0.24981468  1
  Mn3.30+  Mn119  1  0.50176508  0.66754774  0.74954311  1
  Mn3.30+  Mn120  1  0.83394816  -0.00135986  0.25072748  1
  Mn3.30+  Mn121  1  0.83270853  -0.00026952  0.74841400  1
  Mn3.30+  Mn122  1  0.83518580  0.33367154  0.25214482  1
  Mn3.30+  Mn123  1  0.83146891  0.33414457  0.74703677  1
  Mn3.30+  Mn124  1  0.83326400  0.66740387  0.25008253  1
  Mn3.30+  Mn125  1  0.83148861  0.66720989  0.74823096  1
  Mn3.30+  Mn126  1  0.00139179  0.16545991  -0.00109721  1
  Mn3.30+  Mn127  1  0.00444607  0.16833477  0.50142295  1
  Mn3.30+  Mn128  1  0.00031525  0.49986325  -0.00076768  1
  Mn3.30+  Mn129  1  0.00034793  0.50010635  0.50029597  1
  Mn3.30+  Mn130  1  -0.00159362  0.83313054  0.00183940  1
  Mn3.30+  Mn131  1  0.00077793  0.83084460  0.49886335  1
  Mn3.30+  Mn132  1  0.33346718  0.16652463  -0.00066866  1
  Mn3.30+  Mn133  1  0.33031579  0.16790263  0.49960322  1
  Mn3.30+  Mn134  1  0.33417926  0.49955021  -0.00050707  1
  Mn3.30+  Mn135  1  0.33340926  0.49897316  0.50017712  1
  Mn3.30+  Mn136  1  0.33466507  0.83516987  -0.00052900  1
  Mn3.30+  Mn137  1  0.33491475  0.83426592  0.49745974  1
  Mn3.30+  Mn138  1  0.66658530  0.16607802  0.00061196  1
  Mn3.30+  Mn139  1  0.66489965  0.16689884  0.50070780  1
  Mn3.30+  Mn140  1  0.66622186  0.50230412  0.00020393  1
  Mn3.30+  Mn141  1  0.66811898  0.50119021  0.50252991  1
  Mn3.30+  Mn142  1  0.66614520  0.83248501  0.00241812  1
  Mn3.30+  Mn143  1  0.66415612  0.83176887  0.49794897  1
  O2-  O144  1  0.02458368  0.16535233  0.12691096  1
  O2-  O145  1  0.02984215  0.15970647  0.62429645  1
  O2-  O146  1  0.02372386  0.49452588  0.12254123  1
  O2-  O147  1  0.02534875  0.50081475  0.62541911  1
  O2-  O148  1  0.02700765  0.82788396  0.12646583  1
  O2-  O149  1  0.02621167  0.82453755  0.62287122  1
  O2-  O150  1  0.35443116  0.16091479  0.12653440  1
  O2-  O151  1  0.36029075  0.15901606  0.62370086  1
  O2-  O152  1  0.35994480  0.49415158  0.12384484  1
  O2-  O153  1  0.35860031  0.49573527  0.62713352  1
  O2-  O154  1  0.35723706  0.82680576  0.12529969  1
  O2-  O155  1  0.35822076  0.82839801  0.62338131  1
  O2-  O156  1  0.69541396  0.16034023  0.12625361  1
  O2-  O157  1  0.69113644  0.16064885  0.62384487  1
  O2-  O158  1  0.69313336  0.49082165  0.12747613  1
  O2-  O159  1  0.69392346  0.49175124  0.62348018  1
  O2-  O160  1  0.69292808  0.83110159  0.12654133  1
  O2-  O161  1  0.68824059  0.82857998  0.62144832  1
  O2-  O162  1  0.14255995  0.32470180  0.12326852  1
  O2-  O163  1  0.14188772  0.33046139  0.62541494  1
  O2-  O164  1  0.13988812  0.65887713  0.12609270  1
  O2-  O165  1  0.14115450  0.65943943  0.62379877  1
  O2-  O166  1  0.14938169  1.00085563  0.12634545  1
  O2-  O167  1  0.14195725  0.99171792  0.62388876  1
  O2-  O168  1  0.47565992  0.32793388  0.12446717  1
  O2-  O169  1  0.47260262  0.33061483  0.62583145  1
  O2-  O170  1  0.47386213  0.66115947  0.12554774  1
  O2-  O171  1  0.47385869  0.66036787  0.62501946  1
  O2-  O172  1  0.46927208  0.99463076  0.12535525  1
  O2-  O173  1  0.47426780  0.99350646  0.62289144  1
  O2-  O174  1  0.80794013  0.32654428  0.12402822  1
  O2-  O175  1  0.80523308  0.32455738  0.62401474  1
  O2-  O176  1  0.80523783  0.65618888  0.12672328  1
  O2-  O177  1  0.80764995  0.66160574  0.62246208  1
  O2-  O178  1  0.81045026  0.99787486  0.12740646  1
  O2-  O179  1  0.81277938  0.99429172  0.62288098  1
  O2-  O180  1  0.30702582  0.17388225  0.37778569  1
  O2-  O181  1  0.31081922  0.17376520  0.87180563  1
  O2-  O182  1  0.30953878  0.50791079  0.37343280  1
  O2-  O183  1  0.30815683  0.51062662  0.87538436  1
  O2-  O184  1  0.31321173  0.83559294  0.37512482  1
  O2-  O185  1  0.30605227  0.83223704  0.87656489  1
  O2-  O186  1  0.63854891  0.17416283  0.37547267  1
  O2-  O187  1  0.63954124  0.17330258  0.87475104  1
  O2-  O188  1  0.64014441  0.50745370  0.37554490  1
  O2-  O189  1  0.64027978  0.50924273  0.87303934  1
  O2-  O190  1  0.63782711  0.83656802  0.37353688  1
  O2-  O191  1  0.64148938  0.83693202  0.87832657  1
  O2-  O192  1  0.97509965  0.17516453  0.37740355  1
  O2-  O193  1  0.97658969  0.16611972  0.87097595  1
  O2-  O194  1  0.97694320  0.49865232  0.37680426  1
  O2-  O195  1  0.97480159  0.50574526  0.87565512  1
  O2-  O196  1  0.97605141  0.84006655  0.37577242  1
  O2-  O197  1  0.98290538  0.83669674  0.87495585  1
  O2-  O198  1  0.19274701  0.00649055  0.37744688  1
  O2-  O199  1  0.18578797  0.00346977  0.87296834  1
  O2-  O200  1  0.18156294  0.34586628  0.37660229  1
  O2-  O201  1  0.19502345  0.33793475  0.87405866  1
  O2-  O202  1  0.19200963  0.66856706  0.37426075  1
  O2-  O203  1  0.19291952  0.67459168  0.87599411  1
  O2-  O204  1  0.52430074  0.00744526  0.37306090  1
  O2-  O205  1  0.52480407  0.00809835  0.87862211  1
  O2-  O206  1  0.52477735  0.33781036  0.37584450  1
  O2-  O207  1  0.52743148  0.33737761  0.87415264  1
  O2-  O208  1  0.52411725  0.67268669  0.37457738  1
  O2-  O209  1  0.52551102  0.67270267  0.87443162  1
  O2-  O210  1  0.85952053  0.00461371  0.37678373  1
  O2-  O211  1  0.85844020  0.00528227  0.87264903  1
  O2-  O212  1  0.86380565  0.34069154  0.37895101  1
  O2-  O213  1  0.85134072  0.33872097  0.87311513  1
  O2-  O214  1  0.86238702  0.67300433  0.37393805  1
  O2-  O215  1  0.85633661  0.66968494  0.87680684  1
  O2-  O216  1  0.23744956  0.09731330  0.01327674  1
  O2-  O217  1  0.23788147  0.09620530  0.52568228  1
  O2-  O218  1  0.23840935  0.42681712  0.02109850  1
  O2-  O219  1  0.23795621  0.42728951  0.51954147  1
  O2-  O220  1  0.23687156  0.76259620  0.02256356  1
  O2-  O221  1  0.24010040  0.75961000  0.52069557  1
  O2-  O222  1  0.57440955  0.09381934  0.02413906  1
  O2-  O223  1  0.56557878  0.09588122  0.51577264  1
  O2-  O224  1  0.57149073  0.42913105  0.02015270  1
  O2-  O225  1  0.57328829  0.43072963  0.51729331  1
  O2-  O226  1  0.57124452  0.76207901  0.02209590  1
  O2-  O227  1  0.57118632  0.75974380  0.52022578  1
  O2-  O228  1  0.90323728  0.09610470  0.01589542  1
  O2-  O229  1  0.90761238  0.09651140  0.51971910  1
  O2-  O230  1  0.90490888  0.42684867  0.01938333  1
  O2-  O231  1  0.90425054  0.42956751  0.52551836  1
  O2-  O232  1  0.90393593  0.75904857  0.02555908  1
  O2-  O233  1  0.90288573  0.76101801  0.52128479  1
  O2-  O234  1  0.26106447  0.26062178  0.22840619  1
  O2-  O235  1  0.26547629  0.26383381  0.72800168  1
  O2-  O236  1  0.26126704  0.59384112  0.22788548  1
  O2-  O237  1  0.26057357  0.59517919  0.72945940  1
  O2-  O238  1  0.26314903  0.92759636  0.23105382  1
  O2-  O239  1  0.25964834  0.92741477  0.72742275  1
  O2-  O240  1  0.59549169  0.26056257  0.22882898  1
  O2-  O241  1  0.59647132  0.26427464  0.72802502  1
  O2-  O242  1  0.59594022  0.59665973  0.22895566  1
  O2-  O243  1  0.59580062  0.59529018  0.72607367  1
  O2-  O244  1  0.59290910  0.92989920  0.22804669  1
  O2-  O245  1  0.59094119  0.92699736  0.73431818  1
  O2-  O246  1  0.93051811  0.26173844  0.23001746  1
  O2-  O247  1  0.92724112  0.25809298  0.72644676  1
  O2-  O248  1  0.92660750  0.59259404  0.22935820  1
  O2-  O249  1  0.92741438  0.59751168  0.73381579  1
  O2-  O250  1  0.92449134  0.92549083  0.23660078  1
  O2-  O251  1  0.92904813  0.92580471  0.72916634  1
  O2-  O252  1  0.09727712  0.23759161  0.27198626  1
  O2-  O253  1  0.09828760  0.23803521  0.76775906  1
  O2-  O254  1  0.09624927  0.56531230  0.26809319  1
  O2-  O255  1  0.09519511  0.57367720  0.77294499  1
  O2-  O256  1  0.09443292  0.90979464  0.26606172  1
  O2-  O257  1  0.09486616  0.90421200  0.76741109  1
  O2-  O258  1  0.42802807  0.23393001  0.26545971  1
  O2-  O259  1  0.43232206  0.23713768  0.76692997  1
  O2-  O260  1  0.43079505  0.57401697  0.26939054  1
  O2-  O261  1  0.42997288  0.57273281  0.77054009  1
  O2-  O262  1  0.43244388  0.90089502  0.26894457  1
  O2-  O263  1  0.42906079  0.90134262  0.76824496  1
  O2-  O264  1  0.76439694  0.24136282  0.27318212  1
  O2-  O265  1  0.76032184  0.23770062  0.77004199  1
  O2-  O266  1  0.76279685  0.57177651  0.27341588  1
  O2-  O267  1  0.76042419  0.57354543  0.77161048  1
  O2-  O268  1  0.75595195  0.90680882  0.27381903  1
  O2-  O269  1  0.75730760  0.90747958  0.76592857  1
  O2-  O270  1  0.06936687  0.07014121  0.48145753  1
  O2-  O271  1  0.07320477  0.07239893  0.97875464  1
  O2-  O272  1  0.06772376  0.40184041  0.49013707  1
  O2-  O273  1  0.07656568  0.40544291  0.98143371  1
  O2-  O274  1  0.06721484  0.73365872  0.48175644  1
  O2-  O275  1  0.07082008  0.73815319  0.98102516  1
  O2-  O276  1  0.40051065  0.06831938  0.47841214  1
  O2-  O277  1  0.40909141  0.07689166  0.98150227  1
  O2-  O278  1  0.40956889  0.41084128  0.48076933  1
  O2-  O279  1  0.40440561  0.40465380  0.97716348  1
  O2-  O280  1  0.40348792  0.73587334  0.48332057  1
  O2-  O281  1  0.40173135  0.73672807  0.98399125  1
  O2-  O282  1  0.73945793  0.07442953  0.47604539  1
  O2-  O283  1  0.73793973  0.07325157  0.97833584  1
  O2-  O284  1  0.74012538  0.40873531  0.47514301  1
  O2-  O285  1  0.73597027  0.40671098  0.97955841  1
  O2-  O286  1  0.74077801  0.74083556  0.47572911  1
  O2-  O287  1  0.73578389  0.73697454  0.98299424  1
  O2-  O288  1  0.09710928  0.23873938  0.47789113  1
  O2-  O289  1  0.09814505  0.23604637  0.98024963  1
  O2-  O290  1  0.09638267  0.56677014  0.48093351  1
  O2-  O291  1  0.09489255  0.57262102  0.97812387  1
  O2-  O292  1  0.09210231  0.90734673  0.48302428  1
  O2-  O293  1  0.09675239  0.90621344  0.98368026  1
  O2-  O294  1  0.42997024  0.23428143  0.48422883  1
  O2-  O295  1  0.42941339  0.23746013  0.98352961  1
  O2-  O296  1  0.42998575  0.57407986  0.47971250  1
  O2-  O297  1  0.43059695  0.57288785  0.98004206  1
  O2-  O298  1  0.43052325  0.90175351  0.48126649  1
  O2-  O299  1  0.43160643  0.90005220  0.98082778  1
  O2-  O300  1  0.76371098  0.24097472  0.47786383  1
  O2-  O301  1  0.76061130  0.23808612  0.97872677  1
  O2-  O302  1  0.76027921  0.57477827  0.47497697  1
  O2-  O303  1  0.76247110  0.57100800  0.97923644  1
  O2-  O304  1  0.75875277  0.90423108  0.47787447  1
  O2-  O305  1  0.75503820  0.91022656  0.98248651  1
  O2-  O306  1  0.07139859  0.07374446  0.27252303  1
  O2-  O307  1  0.07117274  0.06983666  0.76831166  1
  O2-  O308  1  0.06835783  0.40044795  0.26058364  1
  O2-  O309  1  0.07536099  0.40699914  0.76603574  1
  O2-  O310  1  0.06670084  0.73295954  0.26770502  1
  O2-  O311  1  0.07252411  0.73733309  0.76985321  1
  O2-  O312  1  0.40324461  0.07095193  0.27363382  1
  O2-  O313  1  0.40622370  0.07310679  0.76667299  1
  O2-  O314  1  0.40817109  0.40832990  0.26756883  1
  O2-  O315  1  0.40689182  0.40581525  0.77501750  1
  O2-  O316  1  0.40309630  0.73600813  0.26649050  1
  O2-  O317  1  0.40371379  0.73520721  0.76616470  1
  O2-  O318  1  0.73776937  0.07255131  0.27244715  1
  O2-  O319  1  0.73893314  0.07506597  0.77315643  1
  O2-  O320  1  0.73958177  0.40556929  0.27305996  1
  O2-  O321  1  0.73619073  0.40858166  0.77159745  1
  O2-  O322  1  0.74002777  0.73871948  0.27378739  1
  O2-  O323  1  0.73797563  0.73788252  0.76636745  1
  O2-  O324  1  0.23775225  0.09678788  0.23324074  1
  O2-  O325  1  0.23799449  0.09650374  0.72912613  1
  O2-  O326  1  0.23895245  0.42430401  0.22628187  1
  O2-  O327  1  0.23679952  0.42997466  0.73249346  1
  O2-  O328  1  0.23929143  0.76109366  0.22872657  1
  O2-  O329  1  0.23795248  0.76109061  0.72883475  1
  O2-  O330  1  0.56859370  0.09214166  0.22765029  1
  O2-  O331  1  0.57002495  0.09784374  0.73321282  1
  O2-  O332  1  0.57447016  0.42896545  0.23058536  1
  O2-  O333  1  0.56895781  0.43104274  0.73200202  1
  O2-  O334  1  0.57147976  0.76127782  0.22775434  1
  O2-  O335  1  0.57063126  0.76052879  0.72971894  1
  O2-  O336  1  0.90460538  0.09865501  0.23624364  1
  O2-  O337  1  0.90629113  0.09393719  0.72710853  1
  O2-  O338  1  0.90500652  0.42798809  0.22899320  1
  O2-  O339  1  0.90442625  0.42859218  0.72847113  1
  O2-  O340  1  0.90107059  0.76096276  0.22648270  1
  O2-  O341  1  0.90569609  0.75929042  0.72631333  1
  O2-  O342  1  0.26182131  0.25988086  0.02150460  1
  O2-  O343  1  0.26314645  0.26404473  0.52263356  1
  O2-  O344  1  0.26088564  0.59420089  0.02164142  1
  O2-  O345  1  0.26259016  0.59335114  0.52084023  1
  O2-  O346  1  0.26252989  0.92823728  0.02251736  1
  O2-  O347  1  0.26030763  0.92692868  0.52073305  1
  O2-  O348  1  0.59584581  0.26061458  0.02150039  1
  O2-  O349  1  0.59610900  0.26378283  0.52201975  1
  O2-  O350  1  0.59725180  0.59512656  0.02323201  1
  O2-  O351  1  0.59610315  0.59545416  0.52148654  1
  O2-  O352  1  0.59349203  0.92841132  0.02286383  1
  O2-  O353  1  0.59213449  0.92671867  0.51517683  1
  O2-  O354  1  0.92755245  0.25836251  0.01963602  1
  O2-  O355  1  0.93050178  0.26121339  0.52380321  1
  O2-  O356  1  0.92623296  0.59574547  0.02068390  1
  O2-  O357  1  0.92759151  0.59384162  0.51698799  1
  O2-  O358  1  0.92715424  0.92627073  0.01373783  1
  O2-  O359  1  0.92750265  0.92510546  0.52036076  1
