# generated using pymatgen
data_Sr7Ca15Pr50Mn72O216
_symmetry_space_group_name_H-M   'P 1'
_cell_length_a   16.55901656
_cell_length_b   16.60267434
_cell_length_c   15.59432014
_cell_angle_alpha   90.00427421
_cell_angle_beta   90.00204233
_cell_angle_gamma   89.98035484
_symmetry_Int_Tables_number   1
_chemical_formula_structural   Sr7Ca15Pr50Mn72O216
_chemical_formula_sum   'Sr7 Ca15 Pr50 Mn72 O216'
_cell_volume   4287.25196913
_cell_formula_units_Z   1
loop_
 _symmetry_equiv_pos_site_id
 _symmetry_equiv_pos_as_xyz
  1  'x, y, z'
loop_
 _atom_type_symbol
 _atom_type_oxidation_number
  Sr2+  2.0
  Ca2+  2.0
  Pr3+  3.0
  Mn3.30+  3.3
  O2-  -2.0
loop_
 _atom_site_type_symbol
 _atom_site_label
 _atom_site_symmetry_multiplicity
 _atom_site_fract_x
 _atom_site_fract_y
 _atom_site_fract_z
 _atom_site_occupancy
  Sr2+  Sr0  1  0.50176565  0.17782578  0.62482315  1
  Sr2+  Sr1  1  0.50169395  0.49301962  0.87815042  1
  Sr2+  Sr2  1  0.16820467  0.82440814  0.87290613  1
  Sr2+  Sr3  1  0.83113631  0.83937414  0.12225312  1
  Sr2+  Sr4  1  0.66682538  0.32433712  0.87528062  1
  Sr2+  Sr5  1  0.33576648  0.34387791  0.12424918  1
  Sr2+  Sr6  1  0.66945957  0.65824683  0.87687564  1
  Ca2+  Ca7  1  0.67208731  0.65308171  0.37230617  1
  Ca2+  Ca8  1  0.16712216  0.84641666  0.62794943  1
  Ca2+  Ca9  1  -0.00235004  0.68176108  0.62741857  1
  Ca2+  Ca10  1  0.83099251  0.15006512  0.37448797  1
  Ca2+  Ca11  1  0.16654201  0.48902673  0.87665099  1
  Ca2+  Ca12  1  0.83419856  0.51602352  0.12267539  1
  Ca2+  Ca13  1  0.82796213  0.15441341  0.87545097  1
  Ca2+  Ca14  1  0.33929098  0.65056687  0.87530362  1
  Ca2+  Ca15  1  0.33781343  0.98489600  0.87404146  1
  Ca2+  Ca16  1  1.00055773  0.98562393  0.37444307  1
  Ca2+  Ca17  1  0.82941798  0.81651499  0.87489958  1
  Ca2+  Ca18  1  0.50424160  0.18261934  0.12357543  1
  Ca2+  Ca19  1  0.83743695  0.51788740  0.62692915  1
  Ca2+  Ca20  1  0.50599910  0.51742710  0.12188804  1
  Ca2+  Ca21  1  0.66649042  0.67727387  0.12211870  1
  Pr3+  Pr22  1  0.33552688  0.65413256  0.37541409  1
  Pr3+  Pr23  1  0.50361441  0.84646206  0.62614210  1
  Pr3+  Pr24  1  0.83514432  0.17844347  0.12387078  1
  Pr3+  Pr25  1  0.67076618  0.98910908  0.37537757  1
  Pr3+  Pr26  1  0.66636838  0.67734936  0.62605510  1
  Pr3+  Pr27  1  0.16231241  0.48697269  0.37445733  1
  Pr3+  Pr28  1  -0.00609419  0.34996366  0.12435291  1
  Pr3+  Pr29  1  0.16874906  0.51369104  0.62722244  1
  Pr3+  Pr30  1  0.33756743  0.32526919  0.87689483  1
  Pr3+  Pr31  1  0.16840327  0.84313910  0.12266567  1
  Pr3+  Pr32  1  0.82576675  0.48952594  0.87524822  1
  Pr3+  Pr33  1  0.17079396  0.51290371  0.12300702  1
  Pr3+  Pr34  1  1.00108212  0.32281304  0.87529546  1
  Pr3+  Pr35  1  1.00056471  0.31937627  0.37444645  1
  Pr3+  Pr36  1  0.33172867  0.34597432  0.62590890  1
  Pr3+  Pr37  1  0.50759512  0.84101570  0.12270159  1
  Pr3+  Pr38  1  -0.00515293  0.00921806  0.12426121  1
  Pr3+  Pr39  1  0.82844077  0.48987129  0.37506718  1
  Pr3+  Pr40  1  0.32866304  0.01135539  0.62742561  1
  Pr3+  Pr41  1  0.32861019  0.68137778  0.62809542  1
  Pr3+  Pr42  1  0.50091199  0.48887143  0.37241220  1
  Pr3+  Pr43  1  0.33533559  0.67473022  0.12173257  1
  Pr3+  Pr44  1  0.66114281  0.34927465  0.12395227  1
  Pr3+  Pr45  1  0.66416583  0.01440766  0.62516101  1
  Pr3+  Pr46  1  1.00196877  0.65506493  0.37567902  1
  Pr3+  Pr47  1  0.16113167  0.14999425  0.37366836  1
  Pr3+  Pr48  1  -0.00549818  0.34958931  0.62543833  1
  Pr3+  Pr49  1  0.16149431  0.82212674  0.37696558  1
  Pr3+  Pr50  1  0.49931528  0.81803052  0.37564348  1
  Pr3+  Pr51  1  0.16964944  0.17910086  0.62580261  1
  Pr3+  Pr52  1  0.83191436  0.81903355  0.37472613  1
  Pr3+  Pr53  1  0.49393887  0.81770860  0.87428123  1
  Pr3+  Pr54  1  -0.00022597  0.00966875  0.62655983  1
  Pr3+  Pr55  1  1.00216811  0.65458836  0.87474793  1
  Pr3+  Pr56  1  0.16831937  0.18017363  0.12448097  1
  Pr3+  Pr57  1  0.99874320  0.98648243  0.87512812  1
  Pr3+  Pr58  1  -0.00383555  0.67919126  0.12419805  1
  Pr3+  Pr59  1  0.83702714  0.84365127  0.62787488  1
  Pr3+  Pr60  1  0.67132055  0.31725903  0.37444901  1
  Pr3+  Pr61  1  0.66442934  0.34617552  0.62567855  1
  Pr3+  Pr62  1  0.33565202  0.32042395  0.37308070  1
  Pr3+  Pr63  1  0.66310619  0.01431253  0.12436682  1
  Pr3+  Pr64  1  0.83543051  0.17861154  0.62588752  1
  Pr3+  Pr65  1  0.67097413  0.98771269  0.87419244  1
  Pr3+  Pr66  1  0.33178910  0.01095407  0.12252612  1
  Pr3+  Pr67  1  0.33605590  0.98473662  0.37506849  1
  Pr3+  Pr68  1  0.16538297  0.15438606  0.87677664  1
  Pr3+  Pr69  1  0.50165110  0.51011673  0.62730519  1
  Pr3+  Pr70  1  0.49590975  0.15495210  0.87670913  1
  Pr3+  Pr71  1  0.49697415  0.15390438  0.37252113  1
  Mn3.30+  Mn72  1  0.16666690  -0.00112976  -0.00162782  1
  Mn3.30+  Mn73  1  0.16497280  -0.00166063  0.50048490  1
  Mn3.30+  Mn74  1  0.16678245  0.33549593  -0.00045390  1
  Mn3.30+  Mn75  1  0.16491556  0.33300607  0.50004830  1
  Mn3.30+  Mn76  1  0.16848970  0.66619662  -0.00473640  1
  Mn3.30+  Mn77  1  0.16487527  0.66839392  0.50384667  1
  Mn3.30+  Mn78  1  0.49950499  0.00023182  -0.00006804  1
  Mn3.30+  Mn79  1  0.50027756  0.00014017  0.49962944  1
  Mn3.30+  Mn80  1  0.50096329  0.33492471  0.00105224  1
  Mn3.30+  Mn81  1  0.50093170  0.33327567  0.49906249  1
  Mn3.30+  Mn82  1  0.50123053  0.66514298  -0.00047726  1
  Mn3.30+  Mn83  1  0.50134083  0.66497792  0.50006621  1
  Mn3.30+  Mn84  1  0.83149246  -0.00077447  -0.00091430  1
  Mn3.30+  Mn85  1  0.83547781  -0.00036095  0.49892380  1
  Mn3.30+  Mn86  1  0.83133814  0.33382775  0.00034382  1
  Mn3.30+  Mn87  1  0.83309326  0.33387007  0.49960459  1
  Mn3.30+  Mn88  1  0.83279897  0.66703595  0.00075976  1
  Mn3.30+  Mn89  1  0.83427532  0.66623714  0.50104557  1
  Mn3.30+  Mn90  1  -0.00227107  0.16434089  0.25099743  1
  Mn3.30+  Mn91  1  -0.00129645  0.16706188  0.75179763  1
  Mn3.30+  Mn92  1  -0.00272773  0.50094824  0.24915620  1
  Mn3.30+  Mn93  1  -0.00076681  0.50223806  0.75044357  1
  Mn3.30+  Mn94  1  -0.00118013  0.83437468  0.25018679  1
  Mn3.30+  Mn95  1  0.00074871  0.83126030  0.75067071  1
  Mn3.30+  Mn96  1  0.33345877  0.16610171  0.24787571  1
  Mn3.30+  Mn97  1  0.33319403  0.16656970  0.75110569  1
  Mn3.30+  Mn98  1  0.33479695  0.49989726  0.24811026  1
  Mn3.30+  Mn99  1  0.33260753  0.50104321  0.75279458  1
  Mn3.30+  Mn100  1  0.33442769  0.83114286  0.24916820  1
  Mn3.30+  Mn101  1  0.33166790  0.83337456  0.75131768  1
  Mn3.30+  Mn102  1  0.66741564  0.16662842  0.24925860  1
  Mn3.30+  Mn103  1  0.66727808  0.16817158  0.75177896  1
  Mn3.30+  Mn104  1  0.66669235  0.50367952  0.24773775  1
  Mn3.30+  Mn105  1  0.66922793  0.50105753  0.74945871  1
  Mn3.30+  Mn106  1  0.66753895  0.83131199  0.25035171  1
  Mn3.30+  Mn107  1  0.66840546  0.83265439  0.75068909  1
  Mn3.30+  Mn108  1  0.16502504  -0.00190427  0.24893988  1
  Mn3.30+  Mn109  1  0.16701401  -0.00124058  0.75264956  1
  Mn3.30+  Mn110  1  0.16603279  0.33349796  0.24867003  1
  Mn3.30+  Mn111  1  0.16566763  0.33533278  0.75170320  1
  Mn3.30+  Mn112  1  0.16718600  0.66707009  0.24955312  1
  Mn3.30+  Mn113  1  0.16648218  0.66704254  0.75249699  1
  Mn3.30+  Mn114  1  0.50035831  -0.00027985  0.24873801  1
  Mn3.30+  Mn115  1  0.49959122  0.00072238  0.75105348  1
  Mn3.30+  Mn116  1  0.50174549  0.33457736  0.24790906  1
  Mn3.30+  Mn117  1  0.50033386  0.33351809  0.75141795  1
  Mn3.30+  Mn118  1  0.50427762  0.66565488  0.25046467  1
  Mn3.30+  Mn119  1  0.49826635  0.66507936  0.75002455  1
  Mn3.30+  Mn120  1  0.83381967  -0.00114037  0.25051151  1
  Mn3.30+  Mn121  1  0.83276599  0.00025490  0.75090683  1
  Mn3.30+  Mn122  1  0.83193236  0.33355826  0.24971327  1
  Mn3.30+  Mn123  1  0.83269916  0.33413342  0.74991430  1
  Mn3.30+  Mn124  1  0.83143456  0.66563540  0.24866555  1
  Mn3.30+  Mn125  1  0.83542812  0.66682757  0.74944978  1
  Mn3.30+  Mn126  1  -0.00248263  0.16666172  -0.00146241  1
  Mn3.30+  Mn127  1  -0.00140430  0.16444617  0.49900344  1
  Mn3.30+  Mn128  1  -0.00074511  0.50076213  -0.00112450  1
  Mn3.30+  Mn129  1  -0.00280667  0.50282079  0.50215708  1
  Mn3.30+  Mn130  1  -0.00117830  0.83230519  -0.00303503  1
  Mn3.30+  Mn131  1  0.00045609  0.83362151  0.50262580  1
  Mn3.30+  Mn132  1  0.33418362  0.16629021  0.00110723  1
  Mn3.30+  Mn133  1  0.33240576  0.16620345  0.49916861  1
  Mn3.30+  Mn134  1  0.33495132  0.50059238  0.00043029  1
  Mn3.30+  Mn135  1  0.33277660  0.50020383  0.49933752  1
  Mn3.30+  Mn136  1  0.33492235  0.83190764  -0.00140618  1
  Mn3.30+  Mn137  1  0.33149148  0.83302232  0.50177606  1
  Mn3.30+  Mn138  1  0.66656881  0.16820855  -0.00105741  1
  Mn3.30+  Mn139  1  0.66829003  0.16627534  0.49881832  1
  Mn3.30+  Mn140  1  0.66735851  0.50278979  0.00201308  1
  Mn3.30+  Mn141  1  0.66836274  0.50152360  0.50039745  1
  Mn3.30+  Mn142  1  0.66840915  0.83224783  -0.00124010  1
  Mn3.30+  Mn143  1  0.66814652  0.83187711  0.49960820  1
  O2-  O144  1  0.02489325  0.15839319  0.12500033  1
  O2-  O145  1  0.02665299  0.16004806  0.62579617  1
  O2-  O146  1  0.02710756  0.49728118  0.12311928  1
  O2-  O147  1  0.02692031  0.49433069  0.62497907  1
  O2-  O148  1  0.02368590  0.82883141  0.12221927  1
  O2-  O149  1  0.02470128  0.82919345  0.62630398  1
  O2-  O150  1  0.36043460  0.15764371  0.12541660  1
  O2-  O151  1  0.35158359  0.15951596  0.62496625  1
  O2-  O152  1  0.35983115  0.50304997  0.12736973  1
  O2-  O153  1  0.35659050  0.49387500  0.62245559  1
  O2-  O154  1  0.36229810  0.82495267  0.12389152  1
  O2-  O155  1  0.35987070  0.82994521  0.62450812  1
  O2-  O156  1  0.69196690  0.16209045  0.12541127  1
  O2-  O157  1  0.69095487  0.16285246  0.62496760  1
  O2-  O158  1  0.69447766  0.49401182  0.12694560  1
  O2-  O159  1  0.69399992  0.49336405  0.62299515  1
  O2-  O160  1  0.68087162  0.82645185  0.12792509  1
  O2-  O161  1  0.69226857  0.82728396  0.62438698  1
  O2-  O162  1  0.13886809  0.32892844  0.12482797  1
  O2-  O163  1  0.13973263  0.32682073  0.62518815  1
  O2-  O164  1  0.14077370  0.66086497  0.12228190  1
  O2-  O165  1  0.13877942  0.65786893  0.62611556  1
  O2-  O166  1  0.13970632  0.99343950  0.12309326  1
  O2-  O167  1  0.14424855  0.99793195  0.62584504  1
  O2-  O168  1  0.48418446  0.32567197  0.12713655  1
  O2-  O169  1  0.47633895  0.33394325  0.62338273  1
  O2-  O170  1  0.47906625  0.67041553  0.12633876  1
  O2-  O171  1  0.47320933  0.66039087  0.62378321  1
  O2-  O172  1  0.47470787  0.98893068  0.12502877  1
  O2-  O173  1  0.47380160  0.99522354  0.62359679  1
  O2-  O174  1  0.80576498  0.32359037  0.12704529  1
  O2-  O175  1  0.80777872  0.32419402  0.62241896  1
  O2-  O176  1  0.81015644  0.66244344  0.12680851  1
  O2-  O177  1  0.80982385  0.66491141  0.62301143  1
  O2-  O178  1  0.80761117  0.99589957  0.12338359  1
  O2-  O179  1  0.80747734  0.99225536  0.62547228  1
  O2-  O180  1  0.30589225  0.17079141  0.37324102  1
  O2-  O181  1  0.30835690  0.17671849  0.87582724  1
  O2-  O182  1  0.30634314  0.50656857  0.37555252  1
  O2-  O183  1  0.30907029  0.50364640  0.87531498  1
  O2-  O184  1  0.30614861  0.83607327  0.37714710  1
  O2-  O185  1  0.31668049  0.84216911  0.87505068  1
  O2-  O186  1  0.64105317  0.16756082  0.37294010  1
  O2-  O187  1  0.64064463  0.16593012  0.87561905  1
  O2-  O188  1  0.64363595  0.50798019  0.37480680  1
  O2-  O189  1  0.65314908  0.50309886  0.87504309  1
  O2-  O190  1  0.64166680  0.84270219  0.37649768  1
  O2-  O191  1  0.63929983  0.83947243  0.87143931  1
  O2-  O192  1  0.97165913  0.17401243  0.37444788  1
  O2-  O193  1  0.97039417  0.17527515  0.87483950  1
  O2-  O194  1  0.97376307  0.50668021  0.37744268  1
  O2-  O195  1  0.97066578  0.50508955  0.87483941  1
  O2-  O196  1  0.97741395  0.83867189  0.37795584  1
  O2-  O197  1  0.97239367  0.83742717  0.87437139  1
  O2-  O198  1  0.19259016  0.00196106  0.37442130  1
  O2-  O199  1  0.19490221  0.00678903  0.87702418  1
  O2-  O200  1  0.19022482  0.33898471  0.37445053  1
  O2-  O201  1  0.19198031  0.34019241  0.87522773  1
  O2-  O202  1  0.19180593  0.67444537  0.37785635  1
  O2-  O203  1  0.19758303  0.67149090  0.87459058  1
  O2-  O204  1  0.52522663  0.00537324  0.37414563  1
  O2-  O205  1  0.52613265  0.00607973  0.87679174  1
  O2-  O206  1  0.52618411  0.34028903  0.37311298  1
  O2-  O207  1  0.51624959  0.33458086  0.87511870  1
  O2-  O208  1  0.52799206  0.67015322  0.37700258  1
  O2-  O209  1  0.51912494  0.66976945  0.87292695  1
  O2-  O210  1  0.85900176  0.00576626  0.37698286  1
  O2-  O211  1  0.85583479  0.01168678  0.87442394  1
  O2-  O212  1  0.85881287  0.34362861  0.37470718  1
  O2-  O213  1  0.85836671  0.34323335  0.87569018  1
  O2-  O214  1  0.85871678  0.66913368  0.37636961  1
  O2-  O215  1  0.85668313  0.66892680  0.87445655  1
  O2-  O216  1  0.23837906  0.09393666  0.02251685  1
  O2-  O217  1  0.23470696  0.09416856  0.51785812  1
  O2-  O218  1  0.23789526  0.42878721  0.01966419  1
  O2-  O219  1  0.23641701  0.42751957  0.52000807  1
  O2-  O220  1  0.24194812  0.75810086  0.02386628  1
  O2-  O221  1  0.23620460  0.76216114  0.52466958  1
  O2-  O222  1  0.56870356  0.09589600  0.02221242  1
  O2-  O223  1  0.57459954  0.09235215  0.51650821  1
  O2-  O224  1  0.57530109  0.43023310  0.02190917  1
  O2-  O225  1  0.57283982  0.42933407  0.51851387  1
  O2-  O226  1  0.56994106  0.76302086  0.01127907  1
  O2-  O227  1  0.57051527  0.75949082  0.52183439  1
  O2-  O228  1  0.90514772  0.09269600  0.02178936  1
  O2-  O229  1  0.90629658  0.09235600  0.52509324  1
  O2-  O230  1  0.90433918  0.42832170  0.02303133  1
  O2-  O231  1  0.90454046  0.43163444  0.52281680  1
  O2-  O232  1  0.91013906  0.75575046  0.01845664  1
  O2-  O233  1  0.90277856  0.76461776  0.51654288  1
  O2-  O234  1  0.25851514  0.25756249  0.23053082  1
  O2-  O235  1  0.26088866  0.26109973  0.72930068  1
  O2-  O236  1  0.26246456  0.59578060  0.23094402  1
  O2-  O237  1  0.25957479  0.59341890  0.72674902  1
  O2-  O238  1  0.26329305  0.92602377  0.22796469  1
  O2-  O239  1  0.26237215  0.92723358  0.73100231  1
  O2-  O240  1  0.60117708  0.26382563  0.23526266  1
  O2-  O241  1  0.59669250  0.26109923  0.73132235  1
  O2-  O242  1  0.59751432  0.59867566  0.22835691  1
  O2-  O243  1  0.59437332  0.59123454  0.72633298  1
  O2-  O244  1  0.59483505  0.92944238  0.23073899  1
  O2-  O245  1  0.59641899  0.92695053  0.72764564  1
  O2-  O246  1  0.92910179  0.26200475  0.22895242  1
  O2-  O247  1  0.92836414  0.26302322  0.72837296  1
  O2-  O248  1  0.93057688  0.59586650  0.23237673  1
  O2-  O249  1  0.93324710  0.59819730  0.73132806  1
  O2-  O250  1  0.92966514  0.92816790  0.23258770  1
  O2-  O251  1  0.92655411  0.92847164  0.73070223  1
  O2-  O252  1  0.09149997  0.23600046  0.27018741  1
  O2-  O253  1  0.09519667  0.23944750  0.77245807  1
  O2-  O254  1  0.09586480  0.57349831  0.27127122  1
  O2-  O255  1  0.09644791  0.56978276  0.77408163  1
  O2-  O256  1  0.09812466  0.90286158  0.26642237  1
  O2-  O257  1  0.08911344  0.91026088  0.76933122  1
  O2-  O258  1  0.42570893  0.23977640  0.27248724  1
  O2-  O259  1  0.42511173  0.23892039  0.76965663  1
  O2-  O260  1  0.42785253  0.57432266  0.27288928  1
  O2-  O261  1  0.42596020  0.57018194  0.76346802  1
  O2-  O262  1  0.42697414  0.90349952  0.27340647  1
  O2-  O263  1  0.43180222  0.90421580  0.76569299  1
  O2-  O264  1  0.76416252  0.23620692  0.27341587  1
  O2-  O265  1  0.76484119  0.23425889  0.76712933  1
  O2-  O266  1  0.76264859  0.57144709  0.27016789  1
  O2-  O267  1  0.76535666  0.57211392  0.76313156  1
  O2-  O268  1  0.76008628  0.90617013  0.27288141  1
  O2-  O269  1  0.76257807  0.90511451  0.77171476  1
  O2-  O270  1  0.07092160  0.06942668  0.47742605  1
  O2-  O271  1  0.07105906  0.07415397  0.97681180  1
  O2-  O272  1  0.06937153  0.40559405  0.47932816  1
  O2-  O273  1  0.06778136  0.40548024  0.98136874  1
  O2-  O274  1  0.07188895  0.73994533  0.47821765  1
  O2-  O275  1  0.07398593  0.73712864  0.98131460  1
  O2-  O276  1  0.40425891  0.07274111  0.47767940  1
  O2-  O277  1  0.40322620  0.06946087  0.97815796  1
  O2-  O278  1  0.40520203  0.40488028  0.47805123  1
  O2-  O279  1  0.40358913  0.40628795  0.98376569  1
  O2-  O280  1  0.40589396  0.73732379  0.47998006  1
  O2-  O281  1  0.40462626  0.73766609  0.97901637  1
  O2-  O282  1  0.73920558  0.06903212  0.48378257  1
  O2-  O283  1  0.73416742  0.06971685  0.98409445  1
  O2-  O284  1  0.73736094  0.40507048  0.47782208  1
  O2-  O285  1  0.74069022  0.40581703  0.98504319  1
  O2-  O286  1  0.73825385  0.73755794  0.47847246  1
  O2-  O287  1  0.74227682  0.74206745  0.98471197  1
  O2-  O288  1  0.09472297  0.23694397  0.47847020  1
  O2-  O289  1  0.09313610  0.23961322  0.97937991  1
  O2-  O290  1  0.09567092  0.57198710  0.47859661  1
  O2-  O291  1  0.09587885  0.57217925  0.97630916  1
  O2-  O292  1  0.09634040  0.90457392  0.48309362  1
  O2-  O293  1  0.09103311  0.90777143  0.98027494  1
  O2-  O294  1  0.42699677  0.24044637  0.47579917  1
  O2-  O295  1  0.42514982  0.23866484  0.98140586  1
  O2-  O296  1  0.42916432  0.57218378  0.47803930  1
  O2-  O297  1  0.42643280  0.57529673  0.98705504  1
  O2-  O298  1  0.42838275  0.90531279  0.47889852  1
  O2-  O299  1  0.43157568  0.90318628  0.98263970  1
  O2-  O300  1  0.76278869  0.23589612  0.47685611  1
  O2-  O301  1  0.76573859  0.23446635  0.98232337  1
  O2-  O302  1  0.76251636  0.57200213  0.48214796  1
  O2-  O303  1  0.76480234  0.57141612  0.98483627  1
  O2-  O304  1  0.76413025  0.90582293  0.47925521  1
  O2-  O305  1  0.76049285  0.90671390  0.97513214  1
  O2-  O306  1  0.06942370  0.07079061  0.27224324  1
  O2-  O307  1  0.07192098  0.07423261  0.77344299  1
  O2-  O308  1  0.06852793  0.40663226  0.27026455  1
  O2-  O309  1  0.06743038  0.40474406  0.76792861  1
  O2-  O310  1  0.07307886  0.73952579  0.26922267  1
  O2-  O311  1  0.07236594  0.73629733  0.77086939  1
  O2-  O312  1  0.40434673  0.07014335  0.27102042  1
  O2-  O313  1  0.40344692  0.07255397  0.77239796  1
  O2-  O314  1  0.40467561  0.40798022  0.27337798  1
  O2-  O315  1  0.40123211  0.40425777  0.76419175  1
  O2-  O316  1  0.40610019  0.73712824  0.27275797  1
  O2-  O317  1  0.40190990  0.73883759  0.76813771  1
  O2-  O318  1  0.73592222  0.06982669  0.26659837  1
  O2-  O319  1  0.73637478  0.06994006  0.76465733  1
  O2-  O320  1  0.73610709  0.40500771  0.27145444  1
  O2-  O321  1  0.74105179  0.40552693  0.76542574  1
  O2-  O322  1  0.74053186  0.74005009  0.27450306  1
  O2-  O323  1  0.73977917  0.73937761  0.76337138  1
  O2-  O324  1  0.23625948  0.09208245  0.22839678  1
  O2-  O325  1  0.23751257  0.09596001  0.73183579  1
  O2-  O326  1  0.23744438  0.43230345  0.23300906  1
  O2-  O327  1  0.23894746  0.42692090  0.72763031  1
  O2-  O328  1  0.23959691  0.76019007  0.22823442  1
  O2-  O329  1  0.23802450  0.76126366  0.72527931  1
  O2-  O330  1  0.57069400  0.09780401  0.22810553  1
  O2-  O331  1  0.57328408  0.09243714  0.73227714  1
  O2-  O332  1  0.57222352  0.43467147  0.22976549  1
  O2-  O333  1  0.57564717  0.42674640  0.72893715  1
  O2-  O334  1  0.56810456  0.76549159  0.23889062  1
  O2-  O335  1  0.57207125  0.76022109  0.72858642  1
  O2-  O336  1  0.90528774  0.09354198  0.22703777  1
  O2-  O337  1  0.90664669  0.09207068  0.72648911  1
  O2-  O338  1  0.90194323  0.42819141  0.22725149  1
  O2-  O339  1  0.90529559  0.43031143  0.72728685  1
  O2-  O340  1  0.90708908  0.75836042  0.23511559  1
  O2-  O341  1  0.90567707  0.76111141  0.73088387  1
  O2-  O342  1  0.25784274  0.25713656  0.01935710  1
  O2-  O343  1  0.26114223  0.26109059  0.51966073  1
  O2-  O344  1  0.25992498  0.59219024  0.02272354  1
  O2-  O345  1  0.26042478  0.59651772  0.52086676  1
  O2-  O346  1  0.26079098  0.92303279  0.02396321  1
  O2-  O347  1  0.26316647  0.93194556  0.51791255  1
  O2-  O348  1  0.59700848  0.26121126  0.01810751  1
  O2-  O349  1  0.59767715  0.26428298  0.51444457  1
  O2-  O350  1  0.59586441  0.59591019  0.02090355  1
  O2-  O351  1  0.59309148  0.59206332  0.52524275  1
  O2-  O352  1  0.59591129  0.92912841  0.01902490  1
  O2-  O353  1  0.59519278  0.92635544  0.52160578  1
  O2-  O354  1  0.92788280  0.26297975  0.02222850  1
  O2-  O355  1  0.92917503  0.26241685  0.52022117  1
  O2-  O356  1  0.93101903  0.59536406  0.01810402  1
  O2-  O357  1  0.93263620  0.60008849  0.51948745  1
  O2-  O358  1  0.92806348  0.93069352  0.01468712  1
  O2-  O359  1  0.92820252  0.92683218  0.52410625  1
