# generated using pymatgen
data_Sr7Ca15Pr50Mn72O216
_symmetry_space_group_name_H-M   'P 1'
_cell_length_a   16.55471810
_cell_length_b   16.59870749
_cell_length_c   15.58743575
_cell_angle_alpha   89.99303081
_cell_angle_beta   89.99678450
_cell_angle_gamma   90.01472409
_symmetry_Int_Tables_number   1
_chemical_formula_structural   Sr7Ca15Pr50Mn72O216
_chemical_formula_sum   'Sr7 Ca15 Pr50 Mn72 O216'
_cell_volume   4283.22332995
_cell_formula_units_Z   1
loop_
 _symmetry_equiv_pos_site_id
 _symmetry_equiv_pos_as_xyz
  1  'x, y, z'
loop_
 _atom_type_symbol
 _atom_type_oxidation_number
  Sr2+  2.0
  Ca2+  2.0
  Pr3+  3.0
  Mn3.30+  3.3
  O2-  -2.0
loop_
 _atom_site_type_symbol
 _atom_site_label
 _atom_site_symmetry_multiplicity
 _atom_site_fract_x
 _atom_site_fract_y
 _atom_site_fract_z
 _atom_site_occupancy
  Sr2+  Sr0  1  1.00054067  0.98843824  0.87638970  1
  Sr2+  Sr1  1  0.33562344  0.99117570  0.37248018  1
  Sr2+  Sr2  1  0.16861832  0.51067095  0.62423646  1
  Sr2+  Sr3  1  0.49918987  0.82133270  0.87533729  1
  Sr2+  Sr4  1  0.33517276  0.65963410  0.87452710  1
  Sr2+  Sr5  1  0.33252091  0.65809911  0.37463594  1
  Sr2+  Sr6  1  0.16800642  0.84027484  0.62380312  1
  Ca2+  Ca7  1  0.16197021  0.14898967  0.87597406  1
  Ca2+  Ca8  1  0.83672499  0.84731334  0.12444792  1
  Ca2+  Ca9  1  0.32947033  0.34881068  0.12669884  1
  Ca2+  Ca10  1  1.00446773  0.31915592  0.37582242  1
  Ca2+  Ca11  1  0.82996116  0.81833585  0.87886175  1
  Ca2+  Ca12  1  0.32973657  0.01367548  0.12533259  1
  Ca2+  Ca13  1  0.16501717  0.82078706  0.37398814  1
  Ca2+  Ca14  1  0.66477830  0.01209776  0.12501593  1
  Ca2+  Ca15  1  -0.00486664  0.68581684  0.12629083  1
  Ca2+  Ca16  1  0.49428235  0.48861709  0.37512233  1
  Ca2+  Ca17  1  0.50117176  0.51622467  0.62289529  1
  Ca2+  Ca18  1  0.49364091  0.15037584  0.37372088  1
  Ca2+  Ca19  1  0.83828934  0.51744682  0.62439343  1
  Ca2+  Ca20  1  0.66356865  0.68249753  0.12490487  1
  Ca2+  Ca21  1  1.00813130  0.98069218  0.37354159  1
  Pr3+  Pr22  1  0.66886435  0.65382313  0.37235085  1
  Pr3+  Pr23  1  0.49837966  0.17607064  0.12897252  1
  Pr3+  Pr24  1  0.16981697  0.84772685  0.12581283  1
  Pr3+  Pr25  1  0.67367435  0.98253637  0.87843880  1
  Pr3+  Pr26  1  -0.00336984  0.34461560  0.12714947  1
  Pr3+  Pr27  1  0.32958823  0.00884997  0.62452875  1
  Pr3+  Pr28  1  0.16567357  0.49028570  0.87462878  1
  Pr3+  Pr29  1  0.33039057  0.67789981  0.62442122  1
  Pr3+  Pr30  1  1.00122882  0.65788743  0.87715435  1
  Pr3+  Pr31  1  0.16315748  0.82138946  0.87558610  1
  Pr3+  Pr32  1  1.00559882  0.31842952  0.87490043  1
  Pr3+  Pr33  1  0.83028463  0.15246818  0.87689242  1
  Pr3+  Pr34  1  0.50215910  0.51442138  0.12693574  1
  Pr3+  Pr35  1  0.83888367  0.84547627  0.62499483  1
  Pr3+  Pr36  1  0.49985309  0.84302942  0.62508797  1
  Pr3+  Pr37  1  0.66565168  0.67875511  0.62389452  1
  Pr3+  Pr38  1  0.66307798  0.35045556  0.62446735  1
  Pr3+  Pr39  1  0.83711306  0.17868623  0.62455964  1
  Pr3+  Pr40  1  0.49784562  0.15396315  0.87569079  1
  Pr3+  Pr41  1  0.66333999  0.34426521  0.12613132  1
  Pr3+  Pr42  1  0.83342969  0.82181470  0.37215204  1
  Pr3+  Pr43  1  0.83461035  0.15409806  0.37388295  1
  Pr3+  Pr44  1  0.16963011  0.17657315  0.62617777  1
  Pr3+  Pr45  1  0.50369788  0.84649365  0.12417029  1
  Pr3+  Pr46  1  -0.00255242  0.01098524  0.12666856  1
  Pr3+  Pr47  1  0.49631081  0.49178813  0.87411656  1
  Pr3+  Pr48  1  0.66457187  0.01119671  0.62408655  1
  Pr3+  Pr49  1  0.16310578  0.15168037  0.37493614  1
  Pr3+  Pr50  1  0.50224472  0.17918817  0.62161845  1
  Pr3+  Pr51  1  0.49531346  0.82191421  0.37377377  1
  Pr3+  Pr52  1  0.33407453  0.98722289  0.87743486  1
  Pr3+  Pr53  1  0.33055664  0.34848357  0.62381682  1
  Pr3+  Pr54  1  0.33411477  0.32265303  0.87522232  1
  Pr3+  Pr55  1  0.67016928  0.65637428  0.87720847  1
  Pr3+  Pr56  1  0.83096958  0.48717935  0.37616150  1
  Pr3+  Pr57  1  0.66661144  0.98899789  0.37136435  1
  Pr3+  Pr58  1  0.33809003  0.32027969  0.37423174  1
  Pr3+  Pr59  1  0.66874258  0.32049818  0.87552703  1
  Pr3+  Pr60  1  0.66445127  0.32044657  0.37477881  1
  Pr3+  Pr61  1  0.16353066  0.48465149  0.37576972  1
  Pr3+  Pr62  1  0.83655852  0.51645730  0.12558423  1
  Pr3+  Pr63  1  0.33184609  0.67914503  0.12515159  1
  Pr3+  Pr64  1  0.17334900  0.17897152  0.12371095  1
  Pr3+  Pr65  1  0.16896577  0.51259794  0.12642422  1
  Pr3+  Pr66  1  -0.00136563  0.67959059  0.62422564  1
  Pr3+  Pr67  1  0.83445913  0.17688918  0.12603911  1
  Pr3+  Pr68  1  -0.00450420  0.34962431  0.62300606  1
  Pr3+  Pr69  1  -0.00072425  0.01086301  0.62365823  1
  Pr3+  Pr70  1  1.00546290  0.65690306  0.37286852  1
  Pr3+  Pr71  1  0.82901491  0.48825493  0.87409277  1
  Mn3.30+  Mn72  1  0.16644896  0.00070891  0.00050875  1
  Mn3.30+  Mn73  1  0.16567721  -0.00337158  0.49801308  1
  Mn3.30+  Mn74  1  0.16747901  0.33299927  0.00024677  1
  Mn3.30+  Mn75  1  0.16597652  0.33204782  0.49985758  1
  Mn3.30+  Mn76  1  0.16449237  0.66701709  0.00245697  1
  Mn3.30+  Mn77  1  0.16752216  0.66630147  0.49831907  1
  Mn3.30+  Mn78  1  0.50058484  0.00016535  0.00140158  1
  Mn3.30+  Mn79  1  0.49904358  0.00043490  0.49906662  1
  Mn3.30+  Mn80  1  0.49765492  0.33364007  0.00195174  1
  Mn3.30+  Mn81  1  0.49962907  0.33604050  0.49930131  1
  Mn3.30+  Mn82  1  0.50191805  0.66760980  0.00098551  1
  Mn3.30+  Mn83  1  0.49932782  0.66465187  0.49861214  1
  Mn3.30+  Mn84  1  0.83286836  -0.00279120  0.00350980  1
  Mn3.30+  Mn85  1  0.83516452  -0.00061352  0.49611167  1
  Mn3.30+  Mn86  1  0.83355234  0.33341895  0.00052827  1
  Mn3.30+  Mn87  1  0.83352053  0.33410356  0.49882120  1
  Mn3.30+  Mn88  1  0.83415999  0.67012795  0.00372884  1
  Mn3.30+  Mn89  1  0.83377815  0.66626533  0.49820564  1
  Mn3.30+  Mn90  1  0.00197913  0.16601249  0.25096873  1
  Mn3.30+  Mn91  1  0.00200548  0.16556929  0.75049418  1
  Mn3.30+  Mn92  1  -0.00019103  0.50003596  0.25023901  1
  Mn3.30+  Mn93  1  -0.00258279  0.50160787  0.74964546  1
  Mn3.30+  Mn94  1  0.00046573  0.83332804  0.24860886  1
  Mn3.30+  Mn95  1  -0.00128166  0.83396323  0.75217952  1
  Mn3.30+  Mn96  1  0.33365787  0.16640004  0.24916503  1
  Mn3.30+  Mn97  1  0.33246786  0.16622169  0.75188195  1
  Mn3.30+  Mn98  1  0.33402720  0.49984970  0.25095625  1
  Mn3.30+  Mn99  1  0.33420351  0.50133351  0.74892649  1
  Mn3.30+  Mn100  1  0.33282159  0.83523453  0.25006939  1
  Mn3.30+  Mn101  1  0.33357871  0.83277689  0.75061030  1
  Mn3.30+  Mn102  1  0.66472047  0.16512192  0.25130177  1
  Mn3.30+  Mn103  1  0.66677263  0.16623213  0.74911882  1
  Mn3.30+  Mn104  1  0.66529634  0.50063947  0.25102609  1
  Mn3.30+  Mn105  1  0.66611063  0.50184404  0.74713228  1
  Mn3.30+  Mn106  1  0.66792239  0.83371042  0.24663336  1
  Mn3.30+  Mn107  1  0.66940056  0.83231633  0.75090048  1
  Mn3.30+  Mn108  1  0.16687421  -0.00156213  0.25124352  1
  Mn3.30+  Mn109  1  0.16551603  -0.00124172  0.75032616  1
  Mn3.30+  Mn110  1  0.16671239  0.33197616  0.25008014  1
  Mn3.30+  Mn111  1  0.16653198  0.33254857  0.75029138  1
  Mn3.30+  Mn112  1  0.16529594  0.66796718  0.24890235  1
  Mn3.30+  Mn113  1  0.16677395  0.66561489  0.75046897  1
  Mn3.30+  Mn114  1  0.49936613  0.00091025  0.24735485  1
  Mn3.30+  Mn115  1  0.50057874  -0.00058549  0.75146405  1
  Mn3.30+  Mn116  1  0.49719835  0.33417309  0.24990817  1
  Mn3.30+  Mn117  1  0.50013207  0.33531220  0.74917821  1
  Mn3.30+  Mn118  1  0.50107589  0.66661622  0.25028486  1
  Mn3.30+  Mn119  1  0.50064140  0.66613028  0.74883978  1
  Mn3.30+  Mn120  1  0.83464381  -0.00140308  0.25008584  1
  Mn3.30+  Mn121  1  0.83359630  -0.00158601  0.75125105  1
  Mn3.30+  Mn122  1  0.83376508  0.33322476  0.25253950  1
  Mn3.30+  Mn123  1  0.83350878  0.33429992  0.74897562  1
  Mn3.30+  Mn124  1  0.83416603  0.66935412  0.24681797  1
  Mn3.30+  Mn125  1  0.83352314  0.66716867  0.75073585  1
  Mn3.30+  Mn126  1  0.00241146  0.16532457  0.00067305  1
  Mn3.30+  Mn127  1  0.00126894  0.16634882  0.49874376  1
  Mn3.30+  Mn128  1  -0.00110001  0.50123627  0.00117459  1
  Mn3.30+  Mn129  1  -0.00169497  0.50087968  0.49954944  1
  Mn3.30+  Mn130  1  -0.00302065  0.83331484  0.00136571  1
  Mn3.30+  Mn131  1  0.00234797  0.83398351  0.49821856  1
  Mn3.30+  Mn132  1  0.33130946  0.16724551  -0.00142713  1
  Mn3.30+  Mn133  1  0.33507578  0.16584805  0.50001877  1
  Mn3.30+  Mn134  1  0.33327181  0.50018821  0.00116248  1
  Mn3.30+  Mn135  1  0.33500263  0.50113503  0.49863337  1
  Mn3.30+  Mn136  1  0.33465838  0.83430153  0.00179493  1
  Mn3.30+  Mn137  1  0.33172582  0.83354663  0.49695405  1
  Mn3.30+  Mn138  1  0.66486460  0.16513728  0.00265559  1
  Mn3.30+  Mn139  1  0.66624648  0.16654452  0.49728243  1
  Mn3.30+  Mn140  1  0.66619249  0.50128936  0.00184251  1
  Mn3.30+  Mn141  1  0.66445495  0.50083324  0.49951049  1
  Mn3.30+  Mn142  1  0.67042830  0.83211380  0.00345589  1
  Mn3.30+  Mn143  1  0.66710110  0.83359344  0.49828071  1
  O2-  O144  1  0.02734391  0.16105538  0.12616114  1
  O2-  O145  1  0.02487787  0.15920717  0.62366033  1
  O2-  O146  1  0.02523256  0.49012859  0.12695255  1
  O2-  O147  1  0.01926895  0.49715699  0.62547962  1
  O2-  O148  1  0.02573025  0.83242504  0.12524561  1
  O2-  O149  1  0.01763002  0.82959401  0.62439360  1
  O2-  O150  1  0.35534887  0.15908104  0.12241321  1
  O2-  O151  1  0.35973563  0.15812329  0.62829521  1
  O2-  O152  1  0.35668752  0.49493715  0.12570944  1
  O2-  O153  1  0.35834998  0.49531458  0.62377366  1
  O2-  O154  1  0.35818748  0.82746224  0.12530556  1
  O2-  O155  1  0.35486430  0.83011989  0.62324891  1
  O2-  O156  1  0.69072841  0.16469852  0.12733834  1
  O2-  O157  1  0.69303313  0.16028338  0.62132017  1
  O2-  O158  1  0.69355890  0.49010000  0.12725362  1
  O2-  O159  1  0.69676734  0.49675423  0.62357317  1
  O2-  O160  1  0.69604110  0.82504070  0.12651269  1
  O2-  O161  1  0.69508368  0.82919469  0.62471491  1
  O2-  O162  1  0.13937651  0.32705687  0.12460353  1
  O2-  O163  1  0.14006460  0.32585853  0.62608248  1
  O2-  O164  1  0.13794554  0.65970043  0.12442169  1
  O2-  O165  1  0.14351931  0.66489701  0.62484402  1
  O2-  O166  1  0.14115027  0.99683087  0.12673121  1
  O2-  O167  1  0.14239223  0.99721359  0.62238295  1
  O2-  O168  1  0.47093519  0.32360429  0.12418843  1
  O2-  O169  1  0.47384168  0.32465289  0.62405183  1
  O2-  O170  1  0.47628376  0.66224316  0.12632995  1
  O2-  O171  1  0.47600575  0.66297443  0.62134806  1
  O2-  O172  1  0.47283626  0.99516753  0.12358345  1
  O2-  O173  1  0.47577889  0.99321693  0.62744611  1
  O2-  O174  1  0.80832485  0.32680795  0.12762602  1
  O2-  O175  1  0.80680145  0.32442406  0.62416599  1
  O2-  O176  1  0.80329703  0.65916683  0.12628971  1
  O2-  O177  1  0.80935737  0.66278682  0.62105368  1
  O2-  O178  1  0.80734991  0.99566044  0.12758111  1
  O2-  O179  1  0.80851195  0.99452869  0.62110579  1
  O2-  O180  1  0.30747905  0.17311195  0.37444754  1
  O2-  O181  1  0.30320326  0.17596717  0.87438296  1
  O2-  O182  1  0.30785225  0.50040515  0.37414016  1
  O2-  O183  1  0.31070527  0.50212377  0.87586592  1
  O2-  O184  1  0.30928226  0.83649640  0.37194029  1
  O2-  O185  1  0.30894430  0.83794072  0.87876243  1
  O2-  O186  1  0.63727752  0.17103524  0.37507918  1
  O2-  O187  1  0.64255909  0.17252337  0.87692098  1
  O2-  O188  1  0.63726180  0.50616843  0.37411740  1
  O2-  O189  1  0.64097219  0.50670797  0.87499004  1
  O2-  O190  1  0.63927014  0.84039740  0.37216426  1
  O2-  O191  1  0.64783446  0.83575313  0.87594445  1
  O2-  O192  1  0.97690254  0.17668098  0.37516717  1
  O2-  O193  1  0.97373754  0.17171212  0.87578418  1
  O2-  O194  1  0.97391930  0.50929968  0.37335868  1
  O2-  O195  1  0.97202466  0.50714595  0.87498246  1
  O2-  O196  1  0.97676554  0.83384255  0.37311660  1
  O2-  O197  1  0.97330202  0.83095014  0.87728509  1
  O2-  O198  1  0.18759040  0.00621767  0.37435531  1
  O2-  O199  1  0.18982489  0.00295649  0.87677140  1
  O2-  O200  1  0.19253711  0.33501650  0.37467480  1
  O2-  O201  1  0.19049628  0.34314691  0.87538002  1
  O2-  O202  1  0.18242576  0.67342298  0.37253033  1
  O2-  O203  1  0.18401448  0.67100335  0.87826052  1
  O2-  O204  1  0.52325307  0.00346543  0.37279010  1
  O2-  O205  1  0.52893251  0.00620655  0.87537197  1
  O2-  O206  1  0.52348890  0.34533985  0.37595257  1
  O2-  O207  1  0.52631383  0.34113590  0.87541664  1
  O2-  O208  1  0.52630997  0.67566458  0.37468917  1
  O2-  O209  1  0.52522992  0.66360578  0.87661032  1
  O2-  O210  1  0.86419071  0.00581131  0.37433002  1
  O2-  O211  1  0.85128678  0.00826954  0.87856003  1
  O2-  O212  1  0.86197128  0.33996963  0.37522245  1
  O2-  O213  1  0.85953536  0.33931721  0.87382498  1
  O2-  O214  1  0.86049943  0.67272311  0.37311600  1
  O2-  O215  1  0.85781903  0.67193263  0.87956940  1
  O2-  O216  1  0.23810654  0.09537170  0.01729203  1
  O2-  O217  1  0.23787919  0.09322235  0.51977672  1
  O2-  O218  1  0.23482376  0.42945986  0.01817185  1
  O2-  O219  1  0.23935638  0.42397536  0.51665808  1
  O2-  O220  1  0.23852348  0.76077387  0.02141229  1
  O2-  O221  1  0.24367862  0.75525368  0.51712796  1
  O2-  O222  1  0.56854047  0.09674622  0.02011811  1
  O2-  O223  1  0.57434761  0.09235602  0.52223613  1
  O2-  O224  1  0.57058741  0.42619165  0.02266314  1
  O2-  O225  1  0.57207599  0.42877361  0.52582652  1
  O2-  O226  1  0.57480502  0.76117240  0.02054792  1
  O2-  O227  1  0.57410707  0.76124953  0.52102375  1
  O2-  O228  1  0.90358443  0.09384373  0.02214289  1
  O2-  O229  1  0.90538281  0.09579846  0.51996166  1
  O2-  O230  1  0.90485930  0.42945053  0.02089403  1
  O2-  O231  1  0.90103580  0.42984981  0.52080802  1
  O2-  O232  1  0.90346178  0.76263869  0.02483691  1
  O2-  O233  1  0.90498277  0.76207373  0.51765151  1
  O2-  O234  1  0.26300577  0.26260111  0.22748463  1
  O2-  O235  1  0.26325930  0.25937643  0.72711658  1
  O2-  O236  1  0.25929556  0.59339414  0.22821549  1
  O2-  O237  1  0.26257188  0.59275789  0.73203232  1
  O2-  O238  1  0.26106107  0.92876401  0.22538054  1
  O2-  O239  1  0.26192082  0.92916007  0.73566557  1
  O2-  O240  1  0.59241518  0.26239841  0.23068534  1
  O2-  O241  1  0.59497294  0.26276317  0.72957843  1
  O2-  O242  1  0.59780935  0.59638165  0.22835698  1
  O2-  O243  1  0.59772846  0.59629569  0.72938490  1
  O2-  O244  1  0.59680768  0.92826717  0.22633099  1
  O2-  O245  1  0.59765768  0.92616420  0.73006989  1
  O2-  O246  1  0.92748635  0.25765566  0.22799398  1
  O2-  O247  1  0.93052449  0.26147801  0.72886239  1
  O2-  O248  1  0.92750231  0.59792721  0.22695449  1
  O2-  O249  1  0.92815516  0.59728452  0.73248296  1
  O2-  O250  1  0.92965545  0.92791646  0.23230073  1
  O2-  O251  1  0.92693662  0.92796590  0.72819978  1
  O2-  O252  1  0.09853624  0.23527391  0.26721020  1
  O2-  O253  1  0.09650211  0.23767411  0.77276208  1
  O2-  O254  1  0.09504501  0.56923531  0.27041598  1
  O2-  O255  1  0.09083079  0.57342099  0.77220480  1
  O2-  O256  1  0.09833865  0.90126315  0.26722501  1
  O2-  O257  1  0.09333039  0.90295040  0.76981984  1
  O2-  O258  1  0.42938795  0.23855256  0.27275316  1
  O2-  O259  1  0.42684018  0.23857241  0.77151947  1
  O2-  O260  1  0.43312537  0.57026667  0.26599822  1
  O2-  O261  1  0.42985560  0.57049454  0.76569767  1
  O2-  O262  1  0.43243371  0.90428562  0.26535943  1
  O2-  O263  1  0.42560104  0.90855740  0.76831598  1
  O2-  O264  1  0.76025559  0.23987804  0.27297387  1
  O2-  O265  1  0.76237513  0.23811966  0.77080117  1
  O2-  O266  1  0.76312442  0.57194169  0.27192690  1
  O2-  O267  1  0.76034787  0.57323243  0.77248665  1
  O2-  O268  1  0.75989004  0.90814492  0.27516948  1
  O2-  O269  1  0.76376081  0.90311399  0.77020171  1
  O2-  O270  1  0.07011703  0.06979379  0.47949850  1
  O2-  O271  1  0.07218098  0.07175787  0.98523637  1
  O2-  O272  1  0.06898300  0.40446413  0.47979907  1
  O2-  O273  1  0.07118983  0.40378346  0.97961981  1
  O2-  O274  1  0.06922299  0.73676166  0.48532558  1
  O2-  O275  1  0.07151896  0.74098102  0.98108835  1
  O2-  O276  1  0.40652913  0.07347826  0.48604821  1
  O2-  O277  1  0.40480616  0.07697534  0.97451900  1
  O2-  O278  1  0.40210876  0.40275358  0.48292937  1
  O2-  O279  1  0.40688304  0.40604165  0.97783867  1
  O2-  O280  1  0.40994644  0.74161867  0.48256165  1
  O2-  O281  1  0.40772020  0.73852484  0.98832695  1
  O2-  O282  1  0.74073695  0.07111896  0.47606969  1
  O2-  O283  1  0.73836047  0.07246569  0.98263641  1
  O2-  O284  1  0.73440909  0.40560902  0.47734172  1
  O2-  O285  1  0.73717437  0.40613887  0.97912926  1
  O2-  O286  1  0.73979708  0.73921887  0.47695918  1
  O2-  O287  1  0.73919956  0.73760182  0.98030763  1
  O2-  O288  1  0.09755122  0.23507388  0.48355589  1
  O2-  O289  1  0.09760610  0.23884122  0.97789076  1
  O2-  O290  1  0.09414299  0.57282032  0.47800317  1
  O2-  O291  1  0.09266674  0.57027483  0.97980406  1
  O2-  O292  1  0.09535009  0.90265413  0.47742240  1
  O2-  O293  1  0.09703783  0.90303851  0.98434097  1
  O2-  O294  1  0.43106430  0.23895540  0.47897392  1
  O2-  O295  1  0.42733478  0.23986798  0.97612591  1
  O2-  O296  1  0.43134040  0.57021961  0.48007200  1
  O2-  O297  1  0.43170301  0.57021715  0.98655242  1
  O2-  O298  1  0.43037152  0.90408015  0.48436095  1
  O2-  O299  1  0.42763722  0.90942655  0.98080680  1
  O2-  O300  1  0.76190673  0.23900085  0.47631125  1
  O2-  O301  1  0.76037162  0.23874623  0.98089127  1
  O2-  O302  1  0.75968839  0.57334827  0.47486807  1
  O2-  O303  1  0.76386154  0.57248004  0.98021548  1
  O2-  O304  1  0.76121360  0.90611311  0.47651071  1
  O2-  O305  1  0.76309541  0.90445196  0.97908775  1
  O2-  O306  1  0.06951986  0.06982206  0.27159896  1
  O2-  O307  1  0.07248687  0.07176018  0.76410559  1
  O2-  O308  1  0.07104224  0.40114988  0.27244393  1
  O2-  O309  1  0.06924623  0.40713951  0.76989790  1
  O2-  O310  1  0.06881326  0.73784325  0.26409660  1
  O2-  O311  1  0.07075253  0.73985331  0.76892851  1
  O2-  O312  1  0.40769305  0.07658624  0.26429139  1
  O2-  O313  1  0.40498466  0.07454915  0.77515731  1
  O2-  O314  1  0.40336675  0.40364260  0.26788801  1
  O2-  O315  1  0.40539475  0.40558549  0.76996973  1
  O2-  O316  1  0.40835456  0.74076118  0.26601979  1
  O2-  O317  1  0.40903035  0.74003828  0.76089766  1
  O2-  O318  1  0.74310613  0.07429901  0.27392276  1
  O2-  O319  1  0.73773816  0.06960251  0.76855972  1
  O2-  O320  1  0.73676815  0.40620788  0.27362041  1
  O2-  O321  1  0.73559282  0.40574937  0.77097741  1
  O2-  O322  1  0.74009435  0.74055151  0.27436852  1
  O2-  O323  1  0.73818664  0.73617943  0.76744150  1
  O2-  O324  1  0.23534955  0.09668546  0.23360081  1
  O2-  O325  1  0.24162944  0.09231354  0.72872665  1
  O2-  O326  1  0.23345572  0.42826945  0.23273546  1
  O2-  O327  1  0.24179608  0.42471167  0.73268724  1
  O2-  O328  1  0.24005957  0.75897553  0.22598472  1
  O2-  O329  1  0.24218721  0.75787071  0.73564142  1
  O2-  O330  1  0.57296188  0.09222534  0.22883389  1
  O2-  O331  1  0.57141775  0.09514724  0.72822228  1
  O2-  O332  1  0.57188131  0.42500720  0.22544701  1
  O2-  O333  1  0.57267554  0.43124689  0.72674946  1
  O2-  O334  1  0.57219907  0.76328692  0.23059171  1
  O2-  O335  1  0.57635256  0.76026747  0.72718632  1
  O2-  O336  1  0.90538783  0.09491808  0.22886972  1
  O2-  O337  1  0.90389232  0.09447896  0.73035649  1
  O2-  O338  1  0.90385148  0.42903960  0.22950568  1
  O2-  O339  1  0.90280459  0.42988432  0.72835870  1
  O2-  O340  1  0.90186961  0.76559570  0.23005057  1
  O2-  O341  1  0.90628781  0.76023962  0.72864288  1
  O2-  O342  1  0.26319883  0.26448025  0.02203585  1
  O2-  O343  1  0.26366959  0.25859610  0.52254976  1
  O2-  O344  1  0.25836841  0.59349396  0.02257159  1
  O2-  O345  1  0.26312618  0.59272679  0.51718076  1
  O2-  O346  1  0.26088122  0.93007981  0.02108253  1
  O2-  O347  1  0.26198575  0.92882390  0.51825759  1
  O2-  O348  1  0.59262253  0.26166172  0.02066793  1
  O2-  O349  1  0.59518888  0.26439674  0.51992992  1
  O2-  O350  1  0.59668371  0.59434553  0.02348290  1
  O2-  O351  1  0.59817766  0.59708194  0.51824401  1
  O2-  O352  1  0.59983817  0.92648040  0.02142622  1
  O2-  O353  1  0.59500791  0.92760240  0.51991176  1
  O2-  O354  1  0.92938398  0.26014617  0.02048850  1
  O2-  O355  1  0.92859573  0.25962485  0.52301318  1
  O2-  O356  1  0.92735869  0.59832229  0.02393154  1
  O2-  O357  1  0.92842211  0.59765206  0.51725777  1
  O2-  O358  1  0.92891325  0.92879034  0.02207476  1
  O2-  O359  1  0.92719713  0.92679659  0.51933558  1
