# generated using pymatgen
data_Sr7Ca15Pr50Mn72O216
_symmetry_space_group_name_H-M   'P 1'
_cell_length_a   16.55927108
_cell_length_b   16.60518308
_cell_length_c   15.59279817
_cell_angle_alpha   89.99556379
_cell_angle_beta   90.00204708
_cell_angle_gamma   89.99168976
_symmetry_Int_Tables_number   1
_chemical_formula_structural   Sr7Ca15Pr50Mn72O216
_chemical_formula_sum   'Sr7 Ca15 Pr50 Mn72 O216'
_cell_volume   4287.54740873
_cell_formula_units_Z   1
loop_
 _symmetry_equiv_pos_site_id
 _symmetry_equiv_pos_as_xyz
  1  'x, y, z'
loop_
 _atom_type_symbol
 _atom_type_oxidation_number
  Sr2+  2.0
  Ca2+  2.0
  Pr3+  3.0
  Mn3.30+  3.3
  O2-  -2.0
loop_
 _atom_site_type_symbol
 _atom_site_label
 _atom_site_symmetry_multiplicity
 _atom_site_fract_x
 _atom_site_fract_y
 _atom_site_fract_z
 _atom_site_occupancy
  Sr2+  Sr0  1  0.33293570  0.32438348  0.37245718  1
  Sr2+  Sr1  1  0.66653721  0.65861907  0.87335493  1
  Sr2+  Sr2  1  0.16175822  0.81995254  0.37477070  1
  Sr2+  Sr3  1  0.83555877  0.50941548  0.12561570  1
  Sr2+  Sr4  1  0.66579749  0.00903163  0.62401495  1
  Sr2+  Sr5  1  0.49962489  0.82234446  0.87506236  1
  Sr2+  Sr6  1  0.33062980  0.67377450  0.12536965  1
  Ca2+  Ca7  1  -0.00331310  0.34898470  0.62464559  1
  Ca2+  Ca8  1  1.00404473  0.65143590  0.37455548  1
  Ca2+  Ca9  1  0.66296548  0.68144649  0.62439177  1
  Ca2+  Ca10  1  0.67165949  0.65160746  0.37680560  1
  Ca2+  Ca11  1  -0.00283205  0.01326307  0.12678899  1
  Ca2+  Ca12  1  0.66433744  0.01427272  0.12677302  1
  Ca2+  Ca13  1  0.32785896  0.34942893  0.12640896  1
  Ca2+  Ca14  1  -0.00173119  0.35011595  0.12555987  1
  Ca2+  Ca15  1  0.16914034  0.51243029  0.12756523  1
  Ca2+  Ca16  1  0.16829108  0.51352261  0.62314682  1
  Ca2+  Ca17  1  0.16943358  0.18340549  0.12586412  1
  Ca2+  Ca18  1  0.67225472  0.98779072  0.37334269  1
  Ca2+  Ca19  1  0.82925854  0.14858011  0.37292506  1
  Ca2+  Ca20  1  0.49706225  0.48878176  0.87764027  1
  Ca2+  Ca21  1  0.82560610  0.81610631  0.87498016  1
  Pr3+  Pr22  1  0.66490795  0.34815054  0.12559578  1
  Pr3+  Pr23  1  0.82869552  0.81982457  0.37574834  1
  Pr3+  Pr24  1  0.16729103  0.18031047  0.62416460  1
  Pr3+  Pr25  1  0.50470864  0.17867565  0.62427118  1
  Pr3+  Pr26  1  -0.00372510  0.67331806  0.12742925  1
  Pr3+  Pr27  1  0.67292445  0.31878338  0.37376556  1
  Pr3+  Pr28  1  0.16482900  0.48824305  0.87627946  1
  Pr3+  Pr29  1  0.83546300  0.51284813  0.62451304  1
  Pr3+  Pr30  1  0.83505791  0.48959604  0.37368390  1
  Pr3+  Pr31  1  0.33344513  0.65425683  0.37314928  1
  Pr3+  Pr32  1  1.00331146  0.32172869  0.87767022  1
  Pr3+  Pr33  1  0.50036822  0.82210536  0.37564812  1
  Pr3+  Pr34  1  0.66472836  0.34449025  0.62399887  1
  Pr3+  Pr35  1  1.00111051  0.98724900  0.37231926  1
  Pr3+  Pr36  1  0.32930298  0.01293075  0.12478119  1
  Pr3+  Pr37  1  0.32942275  0.34898512  0.62297615  1
  Pr3+  Pr38  1  0.34105853  0.65036984  0.87639344  1
  Pr3+  Pr39  1  0.33645690  0.32308885  0.87708446  1
  Pr3+  Pr40  1  0.50422008  0.84610423  0.12403257  1
  Pr3+  Pr41  1  0.16779529  0.84277013  0.12663168  1
  Pr3+  Pr42  1  0.50323601  0.18113063  0.12582644  1
  Pr3+  Pr43  1  0.33711475  0.98606785  0.87661692  1
  Pr3+  Pr44  1  0.16504146  0.81893926  0.87562188  1
  Pr3+  Pr45  1  0.16817592  0.84684143  0.62354472  1
  Pr3+  Pr46  1  0.67162141  0.98376231  0.87729189  1
  Pr3+  Pr47  1  0.16290098  0.48886825  0.37319873  1
  Pr3+  Pr48  1  -0.00181665  0.67861960  0.62324496  1
  Pr3+  Pr49  1  0.83741583  0.84666088  0.12376531  1
  Pr3+  Pr50  1  0.16475170  0.15601003  0.37211140  1
  Pr3+  Pr51  1  0.83799245  0.17989237  0.62298656  1
  Pr3+  Pr52  1  1.00429944  0.32168164  0.37211269  1
  Pr3+  Pr53  1  0.66530285  0.67673058  0.12626065  1
  Pr3+  Pr54  1  0.82968786  0.48826956  0.87643090  1
  Pr3+  Pr55  1  0.49813620  0.15323904  0.37385816  1
  Pr3+  Pr56  1  0.50125592  0.51207473  0.12546847  1
  Pr3+  Pr57  1  0.33022789  0.67912084  0.62445971  1
  Pr3+  Pr58  1  0.83155140  0.84588317  0.62714574  1
  Pr3+  Pr59  1  -0.00504216  0.01126752  0.62367067  1
  Pr3+  Pr60  1  0.33523834  0.98791690  0.37284974  1
  Pr3+  Pr61  1  0.50548760  0.51441001  0.62493296  1
  Pr3+  Pr62  1  0.49758458  0.48781719  0.37430876  1
  Pr3+  Pr63  1  0.33170031  0.01235697  0.62475653  1
  Pr3+  Pr64  1  0.66742082  0.32483354  0.87621803  1
  Pr3+  Pr65  1  0.83122369  0.15575188  0.87718423  1
  Pr3+  Pr66  1  0.83826422  0.17887491  0.12743580  1
  Pr3+  Pr67  1  1.00076032  0.98532839  0.87787631  1
  Pr3+  Pr68  1  0.49826543  0.15366963  0.87629965  1
  Pr3+  Pr69  1  0.50508720  0.84507247  0.62656254  1
  Pr3+  Pr70  1  0.99870704  0.65433109  0.87429362  1
  Pr3+  Pr71  1  0.16339696  0.15479570  0.87776217  1
  Mn3.30+  Mn72  1  0.16466689  0.00075557  0.00246409  1
  Mn3.30+  Mn73  1  0.16513358  0.00085111  0.49878116  1
  Mn3.30+  Mn74  1  0.16766351  0.33430322  0.00436136  1
  Mn3.30+  Mn75  1  0.16457120  0.33520757  0.50111467  1
  Mn3.30+  Mn76  1  0.16688028  0.66449669  -0.00017197  1
  Mn3.30+  Mn77  1  0.16473788  0.66552119  0.50019704  1
  Mn3.30+  Mn78  1  0.50165662  0.00015268  0.00202241  1
  Mn3.30+  Mn79  1  0.50254694  -0.00038696  0.49796407  1
  Mn3.30+  Mn80  1  0.49797203  0.33535192  0.00133366  1
  Mn3.30+  Mn81  1  0.50015701  0.33304203  0.49873456  1
  Mn3.30+  Mn82  1  0.49959939  0.66644706  0.00011933  1
  Mn3.30+  Mn83  1  0.50300233  0.66667700  0.49850694  1
  Mn3.30+  Mn84  1  0.83387884  -0.00008078  0.00265530  1
  Mn3.30+  Mn85  1  0.83122004  0.00063928  0.49816767  1
  Mn3.30+  Mn86  1  0.83612662  0.33355568  0.00207018  1
  Mn3.30+  Mn87  1  0.83604014  0.33232825  0.49871527  1
  Mn3.30+  Mn88  1  0.83181224  0.66643942  0.00014056  1
  Mn3.30+  Mn89  1  0.83177058  0.66676248  0.49963767  1
  Mn3.30+  Mn90  1  0.00008969  0.16651728  0.24762753  1
  Mn3.30+  Mn91  1  0.00004137  0.16778520  0.75052559  1
  Mn3.30+  Mn92  1  0.00070353  0.50049613  0.24886883  1
  Mn3.30+  Mn93  1  0.00080705  0.49889986  0.74812204  1
  Mn3.30+  Mn94  1  -0.00074361  0.83183575  0.24963564  1
  Mn3.30+  Mn95  1  -0.00229954  0.83251334  0.75192216  1
  Mn3.30+  Mn96  1  0.33204573  0.16875472  0.24809574  1
  Mn3.30+  Mn97  1  0.33330183  0.16799015  0.75024975  1
  Mn3.30+  Mn98  1  0.33114323  0.49897002  0.24889913  1
  Mn3.30+  Mn99  1  0.33383126  0.49990368  0.74867230  1
  Mn3.30+  Mn100  1  0.33312795  0.83213562  0.24995822  1
  Mn3.30+  Mn101  1  0.33366972  0.83267345  0.74964123  1
  Mn3.30+  Mn102  1  0.66926672  0.16400080  0.24998588  1
  Mn3.30+  Mn103  1  0.66760973  0.16670706  0.75013454  1
  Mn3.30+  Mn104  1  0.66750932  0.50144259  0.25153824  1
  Mn3.30+  Mn105  1  0.66565973  0.50152169  0.75061331  1
  Mn3.30+  Mn106  1  0.66820938  0.83441445  0.25031304  1
  Mn3.30+  Mn107  1  0.66712260  0.83116444  0.75051215  1
  Mn3.30+  Mn108  1  0.16436098  0.00089047  0.24713657  1
  Mn3.30+  Mn109  1  0.16558110  0.00056623  0.75114775  1
  Mn3.30+  Mn110  1  0.16670209  0.33337346  0.24629551  1
  Mn3.30+  Mn111  1  0.16577961  0.33537701  0.74827165  1
  Mn3.30+  Mn112  1  0.16427631  0.66535818  0.24990610  1
  Mn3.30+  Mn113  1  0.16743829  0.66514658  0.74975461  1
  Mn3.30+  Mn114  1  0.50381390  -0.00006962  0.24962230  1
  Mn3.30+  Mn115  1  0.50081816  -0.00016935  0.75052700  1
  Mn3.30+  Mn116  1  0.49873615  0.33363591  0.24935298  1
  Mn3.30+  Mn117  1  0.49929470  0.33508657  0.75048834  1
  Mn3.30+  Mn118  1  0.50188661  0.66733995  0.25196623  1
  Mn3.30+  Mn119  1  0.50098220  0.66547704  0.75043544  1
  Mn3.30+  Mn120  1  0.83241472  -0.00004218  0.24846323  1
  Mn3.30+  Mn121  1  0.83287847  0.00014435  0.75142877  1
  Mn3.30+  Mn122  1  0.83681491  0.33248674  0.24983203  1
  Mn3.30+  Mn123  1  0.83501925  0.33350215  0.74924879  1
  Mn3.30+  Mn124  1  0.83295942  0.66618030  0.25312379  1
  Mn3.30+  Mn125  1  0.83054932  0.66721946  0.74802513  1
  Mn3.30+  Mn126  1  0.00178993  0.16665930  0.00498324  1
  Mn3.30+  Mn127  1  -0.00163813  0.16794194  0.49715007  1
  Mn3.30+  Mn128  1  0.00050528  0.49946885  0.00115122  1
  Mn3.30+  Mn129  1  0.00133184  0.49998548  0.50236758  1
  Mn3.30+  Mn130  1  -0.00172839  0.83181765  -0.00086342  1
  Mn3.30+  Mn131  1  -0.00141970  0.83196312  0.49935432  1
  Mn3.30+  Mn132  1  0.33131400  0.16905886  0.00239405  1
  Mn3.30+  Mn133  1  0.33396118  0.16764228  0.49859453  1
  Mn3.30+  Mn134  1  0.33175143  0.49834196  0.00188181  1
  Mn3.30+  Mn135  1  0.33271719  0.50085387  0.49998794  1
  Mn3.30+  Mn136  1  0.33364521  0.83164057  0.00203472  1
  Mn3.30+  Mn137  1  0.33333201  0.83305501  0.49802344  1
  Mn3.30+  Mn138  1  0.66710599  0.16650049  0.00187669  1
  Mn3.30+  Mn139  1  0.66968027  0.16423984  0.49825854  1
  Mn3.30+  Mn140  1  0.66522537  0.50179982  -0.00126905  1
  Mn3.30+  Mn141  1  0.66795351  0.50122484  0.49911676  1
  Mn3.30+  Mn142  1  0.66966591  0.83263710  0.00137472  1
  Mn3.30+  Mn143  1  0.66602034  0.83270586  0.49827017  1
  O2-  O144  1  0.02857723  0.15471107  0.12512678  1
  O2-  O145  1  0.02472460  0.15671727  0.62324418  1
  O2-  O146  1  0.02484793  0.50071943  0.12211783  1
  O2-  O147  1  0.02651589  0.49350053  0.62724316  1
  O2-  O148  1  0.02505336  0.82143852  0.12208914  1
  O2-  O149  1  0.02497712  0.82941849  0.62661502  1
  O2-  O150  1  0.36086466  0.15874427  0.12507712  1
  O2-  O151  1  0.36042390  0.16023608  0.62446104  1
  O2-  O152  1  0.35740914  0.49609553  0.12620867  1
  O2-  O153  1  0.36073954  0.49730679  0.62426488  1
  O2-  O154  1  0.35778382  0.83179491  0.12738218  1
  O2-  O155  1  0.35881745  0.82922227  0.62219184  1
  O2-  O156  1  0.69285673  0.16167666  0.12599299  1
  O2-  O157  1  0.69295654  0.16546924  0.62455498  1
  O2-  O158  1  0.68567085  0.49710976  0.12603207  1
  O2-  O159  1  0.69244200  0.49008425  0.62367713  1
  O2-  O160  1  0.69392077  0.82355865  0.12675188  1
  O2-  O161  1  0.68757450  0.82853083  0.62356108  1
  O2-  O162  1  0.13766791  0.32556924  0.12462288  1
  O2-  O163  1  0.13742517  0.32511889  0.62528264  1
  O2-  O164  1  0.14100082  0.66055391  0.12191047  1
  O2-  O165  1  0.14293882  0.66094615  0.62620363  1
  O2-  O166  1  0.13847677  0.98939575  0.12426882  1
  O2-  O167  1  0.13977862  0.99586857  0.62703942  1
  O2-  O168  1  0.47286112  0.32844068  0.12579792  1
  O2-  O169  1  0.47515319  0.32591842  0.62508341  1
  O2-  O170  1  0.48078096  0.66155076  0.12701095  1
  O2-  O171  1  0.47345014  0.66174647  0.62295089  1
  O2-  O172  1  0.47426970  0.99569421  0.12533502  1
  O2-  O173  1  0.47545544  0.99566818  0.62384494  1
  O2-  O174  1  0.80836913  0.32803749  0.12654709  1
  O2-  O175  1  0.80771454  0.32729773  0.62285128  1
  O2-  O176  1  0.80965430  0.66390770  0.12926922  1
  O2-  O177  1  0.80529973  0.66015249  0.62263330  1
  O2-  O178  1  0.80514451  0.99442695  0.12500302  1
  O2-  O179  1  0.81550005  0.99657322  0.62657838  1
  O2-  O180  1  0.30894935  0.16738242  0.37288988  1
  O2-  O181  1  0.30676333  0.17446720  0.87685733  1
  O2-  O182  1  0.30877363  0.50450133  0.37499713  1
  O2-  O183  1  0.30915992  0.50141180  0.87397296  1
  O2-  O184  1  0.31174034  0.83957794  0.37469203  1
  O2-  O185  1  0.30909740  0.83874189  0.87565582  1
  O2-  O186  1  0.64132743  0.17379004  0.37301247  1
  O2-  O187  1  0.64232855  0.17613357  0.87653911  1
  O2-  O188  1  0.64139988  0.50433573  0.37625050  1
  O2-  O189  1  0.64053293  0.49861995  0.87385280  1
  O2-  O190  1  0.64270381  0.84508481  0.37319654  1
  O2-  O191  1  0.64897260  0.83720446  0.87714186  1
  O2-  O192  1  0.97201206  0.17503998  0.37332342  1
  O2-  O193  1  0.97523846  0.17440236  0.87835995  1
  O2-  O194  1  0.97874950  0.50481671  0.37807918  1
  O2-  O195  1  0.97380693  0.50449752  0.87274467  1
  O2-  O196  1  0.97313528  0.84086323  0.37648524  1
  O2-  O197  1  0.96885889  0.83752672  0.87513089  1
  O2-  O198  1  0.19120628  0.00725291  0.37171020  1
  O2-  O199  1  0.19318861  0.00572600  0.87608476  1
  O2-  O200  1  0.18428736  0.33894235  0.37448259  1
  O2-  O201  1  0.19309418  0.33954871  0.87533966  1
  O2-  O202  1  0.18918839  0.66597666  0.37777157  1
  O2-  O203  1  0.19502333  0.67198833  0.87320066  1
  O2-  O204  1  0.52918029  0.00644754  0.37303649  1
  O2-  O205  1  0.52540673  0.00586237  0.87782965  1
  O2-  O206  1  0.52749437  0.33873506  0.37383223  1
  O2-  O207  1  0.52304518  0.34016475  0.87476021  1
  O2-  O208  1  0.53032172  0.67348940  0.37561770  1
  O2-  O209  1  0.51658291  0.66820624  0.87523096  1
  O2-  O210  1  0.85820477  0.00163735  0.37189382  1
  O2-  O211  1  0.85892917  0.00891384  0.87678983  1
  O2-  O212  1  0.86039601  0.34103295  0.37454262  1
  O2-  O213  1  0.85830460  0.33736173  0.87630885  1
  O2-  O214  1  0.86192012  0.67266478  0.37785550  1
  O2-  O215  1  0.85574122  0.67052075  0.87120477  1
  O2-  O216  1  0.23802368  0.09776333  0.02239643  1
  O2-  O217  1  0.23902855  0.09447618  0.52091090  1
  O2-  O218  1  0.23432011  0.43073883  0.02059347  1
  O2-  O219  1  0.23680346  0.42775972  0.52196743  1
  O2-  O220  1  0.23444363  0.76330641  0.01698039  1
  O2-  O221  1  0.23759160  0.75966173  0.52197644  1
  O2-  O222  1  0.57002070  0.09743082  0.01830089  1
  O2-  O223  1  0.56906111  0.09675597  0.51710298  1
  O2-  O224  1  0.57252741  0.42716129  0.02200834  1
  O2-  O225  1  0.57287113  0.42715389  0.51962937  1
  O2-  O226  1  0.57513797  0.76097704  0.02209961  1
  O2-  O227  1  0.56856523  0.76327724  0.51754530  1
  O2-  O228  1  0.90300422  0.09650808  0.01917879  1
  O2-  O229  1  0.90666692  0.09452880  0.51887478  1
  O2-  O230  1  0.90781993  0.42635945  0.01473826  1
  O2-  O231  1  0.90452762  0.42925264  0.51862564  1
  O2-  O232  1  0.90748961  0.75860259  0.02157806  1
  O2-  O233  1  0.90264111  0.76218310  0.52391146  1
  O2-  O234  1  0.26181373  0.26177683  0.22860442  1
  O2-  O235  1  0.26117524  0.26312420  0.72780101  1
  O2-  O236  1  0.25940122  0.59333670  0.23699928  1
  O2-  O237  1  0.26687981  0.59557535  0.73251732  1
  O2-  O238  1  0.25927627  0.92932152  0.22958429  1
  O2-  O239  1  0.25929391  0.92863476  0.72898479  1
  O2-  O240  1  0.59678546  0.26205402  0.22870780  1
  O2-  O241  1  0.59517416  0.26147517  0.73043203  1
  O2-  O242  1  0.59265002  0.59307134  0.23106016  1
  O2-  O243  1  0.59554415  0.59321486  0.72481546  1
  O2-  O244  1  0.59539520  0.92698944  0.22338407  1
  O2-  O245  1  0.59189946  0.92481781  0.73502069  1
  O2-  O246  1  0.93182388  0.26064228  0.22509512  1
  O2-  O247  1  0.92961817  0.26198910  0.72859695  1
  O2-  O248  1  0.92826411  0.59501325  0.23494855  1
  O2-  O249  1  0.92717098  0.59428954  0.72802111  1
  O2-  O250  1  0.92809421  0.92788211  0.22716014  1
  O2-  O251  1  0.92943673  0.92810035  0.73086312  1
  O2-  O252  1  0.09445079  0.23941699  0.27123240  1
  O2-  O253  1  0.09580233  0.23747417  0.77140260  1
  O2-  O254  1  0.09445871  0.57108185  0.26809419  1
  O2-  O255  1  0.09320958  0.57397058  0.77266129  1
  O2-  O256  1  0.09080901  0.90656989  0.26791382  1
  O2-  O257  1  0.09221098  0.90389436  0.77224643  1
  O2-  O258  1  0.43223403  0.23686453  0.26728662  1
  O2-  O259  1  0.42776115  0.23832816  0.77158583  1
  O2-  O260  1  0.42810969  0.57458755  0.27160158  1
  O2-  O261  1  0.43041142  0.56822183  0.76962174  1
  O2-  O262  1  0.43167867  0.90873712  0.27058088  1
  O2-  O263  1  0.42365280  0.90811213  0.76707310  1
  O2-  O264  1  0.76306958  0.23647161  0.27081866  1
  O2-  O265  1  0.76289821  0.24022724  0.77012668  1
  O2-  O266  1  0.76238719  0.57388975  0.27296721  1
  O2-  O267  1  0.76337777  0.56794776  0.76655818  1
  O2-  O268  1  0.76522177  0.90158949  0.26689300  1
  O2-  O269  1  0.76336346  0.90739226  0.76943708  1
  O2-  O270  1  0.07063708  0.07385861  0.47688742  1
  O2-  O271  1  0.07233648  0.07298231  0.97598869  1
  O2-  O272  1  0.07121732  0.40592880  0.47842440  1
  O2-  O273  1  0.07387366  0.40708279  0.97736730  1
  O2-  O274  1  0.06626391  0.73551857  0.48457952  1
  O2-  O275  1  0.07288543  0.73819111  0.97482505  1
  O2-  O276  1  0.40681621  0.06948567  0.47827589  1
  O2-  O277  1  0.40274813  0.07398974  0.97937031  1
  O2-  O278  1  0.40737883  0.40803804  0.48272535  1
  O2-  O279  1  0.40281378  0.40536858  0.98178597  1
  O2-  O280  1  0.40592347  0.73835693  0.47824172  1
  O2-  O281  1  0.40476744  0.73727502  0.98347175  1
  O2-  O282  1  0.73807493  0.07038317  0.47811886  1
  O2-  O283  1  0.73968584  0.07263423  0.97809972  1
  O2-  O284  1  0.74078454  0.40340908  0.47802831  1
  O2-  O285  1  0.73768269  0.40690291  0.98166430  1
  O2-  O286  1  0.73705196  0.74007636  0.47596674  1
  O2-  O287  1  0.74022735  0.73788832  0.98621761  1
  O2-  O288  1  0.09423230  0.23731996  0.47847801  1
  O2-  O289  1  0.09610013  0.24084657  0.97792770  1
  O2-  O290  1  0.09609873  0.56991729  0.48397812  1
  O2-  O291  1  0.09175720  0.57447932  0.97413828  1
  O2-  O292  1  0.09038466  0.90763207  0.48374807  1
  O2-  O293  1  0.09233524  0.90331348  0.97647608  1
  O2-  O294  1  0.43103440  0.23694783  0.48172280  1
  O2-  O295  1  0.42864458  0.23816873  0.97916157  1
  O2-  O296  1  0.43072748  0.57462045  0.47713860  1
  O2-  O297  1  0.42647808  0.56909219  0.98273090  1
  O2-  O298  1  0.42841206  0.90746681  0.47813561  1
  O2-  O299  1  0.42563068  0.90833893  0.98412019  1
  O2-  O300  1  0.76544584  0.23736399  0.47756775  1
  O2-  O301  1  0.76185390  0.24040166  0.98153121  1
  O2-  O302  1  0.76454317  0.56961709  0.47999863  1
  O2-  O303  1  0.76005993  0.57151055  0.98087468  1
  O2-  O304  1  0.76223625  0.90290175  0.48496776  1
  O2-  O305  1  0.76518904  0.90405551  0.97950905  1
  O2-  O306  1  0.07192828  0.07425384  0.27389486  1
  O2-  O307  1  0.07123459  0.07163695  0.77275012  1
  O2-  O308  1  0.07287902  0.40671577  0.26902231  1
  O2-  O309  1  0.07306206  0.40588521  0.77474092  1
  O2-  O310  1  0.06684790  0.73467874  0.26695423  1
  O2-  O311  1  0.07037118  0.74012204  0.77115516  1
  O2-  O312  1  0.40512925  0.07192077  0.26959521  1
  O2-  O313  1  0.40468532  0.07246864  0.77165062  1
  O2-  O314  1  0.41006239  0.41005417  0.26961872  1
  O2-  O315  1  0.40051762  0.40301930  0.76452809  1
  O2-  O316  1  0.41053412  0.73986747  0.27430030  1
  O2-  O317  1  0.40122666  0.73516458  0.76433933  1
  O2-  O318  1  0.73740362  0.06933253  0.26972702  1
  O2-  O319  1  0.73949071  0.07392077  0.77462675  1
  O2-  O320  1  0.73978913  0.40579294  0.26962161  1
  O2-  O321  1  0.73860502  0.40494420  0.77056303  1
  O2-  O322  1  0.73744150  0.73744307  0.27415355  1
  O2-  O323  1  0.74202520  0.74088791  0.76371420  1
  O2-  O324  1  0.23751242  0.09476768  0.22627048  1
  O2-  O325  1  0.23973651  0.09661070  0.72921052  1
  O2-  O326  1  0.23535283  0.42720785  0.23088700  1
  O2-  O327  1  0.23777275  0.43091777  0.72616861  1
  O2-  O328  1  0.23433818  0.75847885  0.23229068  1
  O2-  O329  1  0.23696005  0.76320692  0.72840702  1
  O2-  O330  1  0.56996989  0.09717288  0.23034222  1
  O2-  O331  1  0.57003219  0.09723020  0.73432711  1
  O2-  O332  1  0.57204442  0.42634891  0.23008173  1
  O2-  O333  1  0.57375199  0.42644508  0.72640645  1
  O2-  O334  1  0.57319833  0.76292610  0.22976955  1
  O2-  O335  1  0.56991575  0.75846961  0.73086363  1
  O2-  O336  1  0.90488177  0.09409007  0.23027084  1
  O2-  O337  1  0.90496855  0.09588338  0.73158471  1
  O2-  O338  1  0.90932791  0.42809832  0.23568091  1
  O2-  O339  1  0.90299023  0.42813720  0.73102372  1
  O2-  O340  1  0.90283627  0.76187232  0.23068401  1
  O2-  O341  1  0.90766501  0.75931612  0.72494850  1
  O2-  O342  1  0.26484549  0.26622802  0.02016022  1
  O2-  O343  1  0.25733532  0.26180468  0.52207637  1
  O2-  O344  1  0.26043747  0.59317678  0.01217959  1
  O2-  O345  1  0.26431523  0.59634693  0.51735780  1
  O2-  O346  1  0.25894618  0.92855547  0.02018513  1
  O2-  O347  1  0.26039922  0.92838082  0.52024200  1
  O2-  O348  1  0.59476048  0.26273728  0.02156864  1
  O2-  O349  1  0.59734272  0.26077522  0.51858281  1
  O2-  O350  1  0.59270269  0.59337678  0.02148687  1
  O2-  O351  1  0.59413104  0.59500496  0.52352260  1
  O2-  O352  1  0.59869919  0.92780919  0.02130224  1
  O2-  O353  1  0.58985081  0.92355729  0.51996515  1
  O2-  O354  1  0.93165469  0.25963579  0.02431765  1
  O2-  O355  1  0.93039462  0.26275249  0.52320938  1
  O2-  O356  1  0.92834181  0.59581917  0.01407675  1
  O2-  O357  1  0.92831662  0.59208603  0.52391819  1
  O2-  O358  1  0.92954428  0.93030060  0.02281742  1
  O2-  O359  1  0.92635852  0.92737472  0.51988361  1
