# generated using pymatgen
data_Sr7Ca15Pr50Mn72O216
_symmetry_space_group_name_H-M   'P 1'
_cell_length_a   16.55928071
_cell_length_b   16.60732157
_cell_length_c   15.59560836
_cell_angle_alpha   89.99874862
_cell_angle_beta   89.99543886
_cell_angle_gamma   90.00822167
_symmetry_Int_Tables_number   1
_chemical_formula_structural   Sr7Ca15Pr50Mn72O216
_chemical_formula_sum   'Sr7 Ca15 Pr50 Mn72 O216'
_cell_volume   4288.87489247
_cell_formula_units_Z   1
loop_
 _symmetry_equiv_pos_site_id
 _symmetry_equiv_pos_as_xyz
  1  'x, y, z'
loop_
 _atom_type_symbol
 _atom_type_oxidation_number
  Sr2+  2.0
  Ca2+  2.0
  Pr3+  3.0
  Mn3.30+  3.3
  O2-  -2.0
loop_
 _atom_site_type_symbol
 _atom_site_label
 _atom_site_symmetry_multiplicity
 _atom_site_fract_x
 _atom_site_fract_y
 _atom_site_fract_z
 _atom_site_occupancy
  Sr2+  Sr0  1  0.99995094  0.32869033  0.87591534  1
  Sr2+  Sr1  1  0.16224516  0.82457933  0.87566736  1
  Sr2+  Sr2  1  1.00001396  0.99195979  0.87626190  1
  Sr2+  Sr3  1  0.16356659  0.48946822  0.87574219  1
  Sr2+  Sr4  1  0.83489677  0.15984767  0.87967797  1
  Sr2+  Sr5  1  0.83303589  0.50880623  0.62696783  1
  Sr2+  Sr6  1  0.33587320  0.99053729  0.37239625  1
  Ca2+  Ca7  1  0.83172029  0.82015527  0.87850725  1
  Ca2+  Ca8  1  0.33010127  0.68067795  0.62680862  1
  Ca2+  Ca9  1  0.50116631  0.18203516  0.12769939  1
  Ca2+  Ca10  1  0.66943434  0.31605991  0.37323935  1
  Ca2+  Ca11  1  0.49586012  0.48031425  0.37302969  1
  Ca2+  Ca12  1  0.83734965  0.18149906  0.12502707  1
  Ca2+  Ca13  1  0.17104762  0.18423116  0.12458697  1
  Ca2+  Ca14  1  0.33870016  0.31854027  0.36983810  1
  Ca2+  Ca15  1  0.32739695  0.01914173  0.12536851  1
  Ca2+  Ca16  1  0.83101512  0.48571273  0.87713270  1
  Ca2+  Ca17  1  0.49678889  0.48302993  0.87621273  1
  Ca2+  Ca18  1  0.33173541  0.34537804  0.12664248  1
  Ca2+  Ca19  1  0.82877846  0.15340437  0.37019413  1
  Ca2+  Ca20  1  0.83773850  0.84824155  0.12232326  1
  Ca2+  Ca21  1  0.83546702  0.51068127  0.12252072  1
  Pr3+  Pr22  1  0.49723838  0.81951122  0.87657466  1
  Pr3+  Pr23  1  0.49550827  0.82261786  0.37382947  1
  Pr3+  Pr24  1  0.66728678  0.67863651  0.12542378  1
  Pr3+  Pr25  1  0.15908059  0.15988347  0.87916420  1
  Pr3+  Pr26  1  0.50172077  0.84627146  0.62580646  1
  Pr3+  Pr27  1  0.33434435  0.32343584  0.87865675  1
  Pr3+  Pr28  1  1.00037512  0.65529200  0.87537925  1
  Pr3+  Pr29  1  0.50171968  0.84727670  0.12491912  1
  Pr3+  Pr30  1  0.66421009  0.01380923  0.62525025  1
  Pr3+  Pr31  1  0.33023996  0.67665377  0.12405297  1
  Pr3+  Pr32  1  -0.00305303  0.67846280  0.62688179  1
  Pr3+  Pr33  1  0.33915931  0.65244235  0.37517941  1
  Pr3+  Pr34  1  0.83589198  0.17908330  0.62482795  1
  Pr3+  Pr35  1  0.82826624  0.48410690  0.37385141  1
  Pr3+  Pr36  1  0.33652484  0.64947888  0.87456750  1
  Pr3+  Pr37  1  0.49691757  0.15601691  0.37142134  1
  Pr3+  Pr38  1  0.66507495  0.34274220  0.12631051  1
  Pr3+  Pr39  1  0.16539026  0.82134284  0.37363177  1
  Pr3+  Pr40  1  0.16740012  0.15506151  0.37158678  1
  Pr3+  Pr41  1  1.00182098  0.98877249  0.37284403  1
  Pr3+  Pr42  1  0.67264185  0.65028715  0.87611668  1
  Pr3+  Pr43  1  0.33239643  0.34548165  0.62203147  1
  Pr3+  Pr44  1  0.33358987  0.98779896  0.87832335  1
  Pr3+  Pr45  1  0.16816788  0.17896534  0.62467724  1
  Pr3+  Pr46  1  -0.00412988  0.01563148  0.12280790  1
  Pr3+  Pr47  1  0.66494456  0.67886827  0.62493884  1
  Pr3+  Pr48  1  0.67386816  0.98579980  0.87678205  1
  Pr3+  Pr49  1  0.50484254  0.51310464  0.62466392  1
  Pr3+  Pr50  1  0.16948554  0.84567537  0.62721794  1
  Pr3+  Pr51  1  0.66709097  0.65234291  0.37429335  1
  Pr3+  Pr52  1  0.66872837  0.99010179  0.37303380  1
  Pr3+  Pr53  1  0.66555393  0.01600898  0.12497637  1
  Pr3+  Pr54  1  1.00164167  0.31915112  0.37417598  1
  Pr3+  Pr55  1  -0.00214353  0.01248431  0.62734721  1
  Pr3+  Pr56  1  0.16971372  0.50825929  0.12294495  1
  Pr3+  Pr57  1  0.67065535  0.32271238  0.87614332  1
  Pr3+  Pr58  1  0.66359697  0.34643587  0.62342712  1
  Pr3+  Pr59  1  0.17021836  0.84923711  0.12250768  1
  Pr3+  Pr60  1  0.17101866  0.51438284  0.62668920  1
  Pr3+  Pr61  1  1.00316060  0.65307641  0.37515207  1
  Pr3+  Pr62  1  0.33077215  0.01312350  0.62510721  1
  Pr3+  Pr63  1  -0.00302100  0.34702811  0.62549273  1
  Pr3+  Pr64  1  0.50353513  0.18056719  0.62317551  1
  Pr3+  Pr65  1  0.49766967  0.15612686  0.87882486  1
  Pr3+  Pr66  1  0.16552654  0.48518798  0.37420472  1
  Pr3+  Pr67  1  0.82998133  0.82031149  0.37202857  1
  Pr3+  Pr68  1  -0.00431480  0.67956879  0.12335539  1
  Pr3+  Pr69  1  0.50227885  0.50892862  0.12510504  1
  Pr3+  Pr70  1  0.83643833  0.84559428  0.62615383  1
  Pr3+  Pr71  1  -0.00346665  0.34576430  0.12397331  1
  Mn3.30+  Mn72  1  0.16634714  0.00392726  0.00246782  1
  Mn3.30+  Mn73  1  0.16702783  -0.00009682  0.49808919  1
  Mn3.30+  Mn74  1  0.16780798  0.33395523  0.00275123  1
  Mn3.30+  Mn75  1  0.16844046  0.33284844  0.49760118  1
  Mn3.30+  Mn76  1  0.16518710  0.66680023  -0.00070512  1
  Mn3.30+  Mn77  1  0.16976055  0.66688673  0.50040311  1
  Mn3.30+  Mn78  1  0.49903759  0.00241536  0.00256913  1
  Mn3.30+  Mn79  1  0.49965073  0.00088997  0.49919065  1
  Mn3.30+  Mn80  1  0.49943038  0.33275074  0.00282852  1
  Mn3.30+  Mn81  1  0.49957883  0.33389622  0.49479715  1
  Mn3.30+  Mn82  1  0.50142058  0.66391244  -0.00039617  1
  Mn3.30+  Mn83  1  0.49823591  0.66575289  0.50075200  1
  Mn3.30+  Mn84  1  0.83324310  -0.00020839  0.00079352  1
  Mn3.30+  Mn85  1  0.83340125  0.00108366  0.49847936  1
  Mn3.30+  Mn86  1  0.83259867  0.33418627  0.00138445  1
  Mn3.30+  Mn87  1  0.83143168  0.33113158  0.49750195  1
  Mn3.30+  Mn88  1  0.83320220  0.66610136  0.00093559  1
  Mn3.30+  Mn89  1  0.83307168  0.66532758  0.49956598  1
  Mn3.30+  Mn90  1  -0.00144212  0.16741855  0.24881795  1
  Mn3.30+  Mn91  1  -0.00000390  0.16861186  0.75126632  1
  Mn3.30+  Mn92  1  -0.00183936  0.49940196  0.24981005  1
  Mn3.30+  Mn93  1  -0.00082377  0.50057357  0.75084987  1
  Mn3.30+  Mn94  1  -0.00134931  0.83389659  0.24814167  1
  Mn3.30+  Mn95  1  -0.00102541  0.83432130  0.75307124  1
  Mn3.30+  Mn96  1  0.33360798  0.16897677  0.24576843  1
  Mn3.30+  Mn97  1  0.33276212  0.16773673  0.75177201  1
  Mn3.30+  Mn98  1  0.33554899  0.49671413  0.25103977  1
  Mn3.30+  Mn99  1  0.33621139  0.49908806  0.74973174  1
  Mn3.30+  Mn100  1  0.33288660  0.83482702  0.24817891  1
  Mn3.30+  Mn101  1  0.33328307  0.83156763  0.75147429  1
  Mn3.30+  Mn102  1  0.66780278  0.16827463  0.24866523  1
  Mn3.30+  Mn103  1  0.66728490  0.16702841  0.75117414  1
  Mn3.30+  Mn104  1  0.66636746  0.49720464  0.25078925  1
  Mn3.30+  Mn105  1  0.66619310  0.49940633  0.75183166  1
  Mn3.30+  Mn106  1  0.66744297  0.83439184  0.24773796  1
  Mn3.30+  Mn107  1  0.66824477  0.83219865  0.75162661  1
  Mn3.30+  Mn108  1  0.16802701  0.00243435  0.24808103  1
  Mn3.30+  Mn109  1  0.16572673  0.00164814  0.75114440  1
  Mn3.30+  Mn110  1  0.16988183  0.33201779  0.25008577  1
  Mn3.30+  Mn111  1  0.16668737  0.33490968  0.74960047  1
  Mn3.30+  Mn112  1  0.16728972  0.66567358  0.24962325  1
  Mn3.30+  Mn113  1  0.16744574  0.66772400  0.75099250  1
  Mn3.30+  Mn114  1  0.49774557  0.00311393  0.24553322  1
  Mn3.30+  Mn115  1  0.50060318  0.00076408  0.75302870  1
  Mn3.30+  Mn116  1  0.49914908  0.33252668  0.24971632  1
  Mn3.30+  Mn117  1  0.49988328  0.33400154  0.75134421  1
  Mn3.30+  Mn118  1  0.50022167  0.66456557  0.24961350  1
  Mn3.30+  Mn119  1  0.49969645  0.66483458  0.75056818  1
  Mn3.30+  Mn120  1  0.83376715  0.00159808  0.24779737  1
  Mn3.30+  Mn121  1  0.83267253  -0.00038139  0.75296402  1
  Mn3.30+  Mn122  1  0.83139601  0.33120292  0.25018018  1
  Mn3.30+  Mn123  1  0.83288085  0.33421050  0.75129752  1
  Mn3.30+  Mn124  1  0.83384472  0.66482499  0.24878671  1
  Mn3.30+  Mn125  1  0.83267892  0.66614782  0.75146510  1
  Mn3.30+  Mn126  1  -0.00005536  0.16945226  0.00278244  1
  Mn3.30+  Mn127  1  -0.00169942  0.16583169  0.49724721  1
  Mn3.30+  Mn128  1  -0.00177453  0.50021532  0.00011488  1
  Mn3.30+  Mn129  1  -0.00067365  0.49977528  0.49955629  1
  Mn3.30+  Mn130  1  -0.00213105  0.83499546  -0.00080987  1
  Mn3.30+  Mn131  1  -0.00009198  0.83346022  0.49938748  1
  Mn3.30+  Mn132  1  0.33173398  0.16836078  0.00396006  1
  Mn3.30+  Mn133  1  0.33460010  0.16777360  0.49807554  1
  Mn3.30+  Mn134  1  0.33558953  0.49709205  -0.00012118  1
  Mn3.30+  Mn135  1  0.33625206  0.49968549  0.49901819  1
  Mn3.30+  Mn136  1  0.33304802  0.83358238  -0.00005690  1
  Mn3.30+  Mn137  1  0.33345883  0.83257502  0.50074873  1
  Mn3.30+  Mn138  1  0.66620458  0.16773283  0.00312015  1
  Mn3.30+  Mn139  1  0.66875477  0.16751848  0.49699333  1
  Mn3.30+  Mn140  1  0.66822508  0.49889386  0.00118636  1
  Mn3.30+  Mn141  1  0.66416180  0.49810267  0.49665738  1
  Mn3.30+  Mn142  1  0.66930149  0.83294540  0.00198613  1
  Mn3.30+  Mn143  1  0.66623414  0.83369121  0.49913183  1
  O2-  O144  1  0.02721126  0.16463305  0.12788022  1
  O2-  O145  1  0.02409137  0.16136867  0.62181226  1
  O2-  O146  1  0.02446042  0.49666956  0.12758015  1
  O2-  O147  1  0.02471531  0.49694566  0.62155480  1
  O2-  O148  1  0.02607647  0.82704026  0.12641137  1
  O2-  O149  1  0.02455309  0.82762750  0.62488306  1
  O2-  O150  1  0.36149087  0.15955195  0.12375528  1
  O2-  O151  1  0.35958142  0.16158142  0.62733249  1
  O2-  O152  1  0.35813366  0.49502672  0.12575166  1
  O2-  O153  1  0.36283059  0.49121228  0.62379897  1
  O2-  O154  1  0.35831088  0.82360527  0.12317037  1
  O2-  O155  1  0.35841011  0.82780529  0.62826571  1
  O2-  O156  1  0.69489348  0.16404546  0.12627943  1
  O2-  O157  1  0.69082426  0.16195147  0.62257805  1
  O2-  O158  1  0.69373361  0.49236458  0.12789978  1
  O2-  O159  1  0.68364711  0.49531612  0.62277373  1
  O2-  O160  1  0.69517896  0.82700993  0.12579091  1
  O2-  O161  1  0.69236632  0.82772380  0.62483890  1
  O2-  O162  1  0.14173109  0.33367926  0.12939460  1
  O2-  O163  1  0.14201572  0.32763837  0.62078841  1
  O2-  O164  1  0.14183660  0.65784595  0.12600201  1
  O2-  O165  1  0.14185357  0.66265941  0.62477711  1
  O2-  O166  1  0.14001147  0.99544010  0.12707334  1
  O2-  O167  1  0.14311445  0.99599507  0.62237144  1
  O2-  O168  1  0.47365453  0.32913569  0.12569595  1
  O2-  O169  1  0.47641443  0.32729795  0.62204466  1
  O2-  O170  1  0.47408382  0.65779673  0.12310617  1
  O2-  O171  1  0.47217408  0.65948336  0.62390991  1
  O2-  O172  1  0.46970020  0.99216309  0.12343089  1
  O2-  O173  1  0.47536661  0.99523944  0.62904031  1
  O2-  O174  1  0.80872359  0.32626686  0.12746954  1
  O2-  O175  1  0.80819849  0.32698091  0.62167583  1
  O2-  O176  1  0.80911168  0.65433807  0.12636621  1
  O2-  O177  1  0.80856395  0.66490839  0.62346958  1
  O2-  O178  1  0.80806562  0.99047107  0.12492714  1
  O2-  O179  1  0.80737823  0.99317337  0.62688772  1
  O2-  O180  1  0.31078365  0.17324118  0.37192612  1
  O2-  O181  1  0.30449661  0.17540464  0.87549783  1
  O2-  O182  1  0.30701271  0.50854601  0.37573688  1
  O2-  O183  1  0.31319613  0.50111157  0.87408685  1
  O2-  O184  1  0.30972059  0.83509469  0.37267009  1
  O2-  O185  1  0.31271573  0.83933761  0.87639775  1
  O2-  O186  1  0.64116487  0.16676754  0.37335768  1
  O2-  O187  1  0.64169689  0.17248649  0.87810883  1
  O2-  O188  1  0.63739771  0.50730162  0.37354691  1
  O2-  O189  1  0.63832044  0.50317993  0.87595885  1
  O2-  O190  1  0.63992214  0.84022534  0.37298625  1
  O2-  O191  1  0.64022304  0.83776887  0.87685894  1
  O2-  O192  1  0.97107556  0.17084828  0.37414082  1
  O2-  O193  1  0.98561142  0.17247442  0.87590104  1
  O2-  O194  1  0.97404335  0.50503942  0.37493260  1
  O2-  O195  1  0.97492340  0.50577120  0.87665670  1
  O2-  O196  1  0.97368467  0.83974526  0.37274656  1
  O2-  O197  1  0.97344756  0.83539065  0.87554745  1
  O2-  O198  1  0.18704882  0.00526425  0.37293526  1
  O2-  O199  1  0.19036179  0.01042474  0.87688117  1
  O2-  O200  1  0.19539614  0.33754490  0.37488933  1
  O2-  O201  1  0.18979789  0.33162018  0.87458451  1
  O2-  O202  1  0.19421201  0.67330078  0.37441579  1
  O2-  O203  1  0.19194298  0.66924732  0.87482010  1
  O2-  O204  1  0.52399377  0.00511358  0.37048414  1
  O2-  O205  1  0.52803549  0.00731625  0.87728509  1
  O2-  O206  1  0.52721418  0.33543289  0.37363731  1
  O2-  O207  1  0.52585757  0.33640806  0.87810099  1
  O2-  O208  1  0.52446413  0.67703777  0.37565679  1
  O2-  O209  1  0.52895259  0.67361397  0.87750091  1
  O2-  O210  1  0.85836542  0.00793479  0.37196587  1
  O2-  O211  1  0.85033219  0.00594971  0.87614592  1
  O2-  O212  1  0.85929704  0.33907979  0.37412952  1
  O2-  O213  1  0.84932233  0.33949076  0.87677210  1
  O2-  O214  1  0.85914988  0.67310795  0.37379579  1
  O2-  O215  1  0.85632747  0.67634821  0.87679278  1
  O2-  O216  1  0.23676889  0.10067848  0.02030991  1
  O2-  O217  1  0.23963789  0.09379341  0.51865892  1
  O2-  O218  1  0.24028903  0.42673942  0.01917293  1
  O2-  O219  1  0.23966905  0.43109809  0.52106128  1
  O2-  O220  1  0.23858523  0.75814449  0.02275989  1
  O2-  O221  1  0.23655882  0.76343625  0.51825125  1
  O2-  O222  1  0.56952019  0.09642846  0.02412515  1
  O2-  O223  1  0.57345744  0.09500531  0.51980090  1
  O2-  O224  1  0.57408028  0.42539742  0.02427867  1
  O2-  O225  1  0.57002952  0.42653581  0.52002066  1
  O2-  O226  1  0.57252501  0.76113154  0.02278471  1
  O2-  O227  1  0.57034962  0.76045939  0.52243688  1
  O2-  O228  1  0.90602773  0.09432458  0.02300729  1
  O2-  O229  1  0.90618180  0.09207917  0.52382702  1
  O2-  O230  1  0.90586666  0.42712779  0.02296269  1
  O2-  O231  1  0.90642184  0.42397263  0.51693029  1
  O2-  O232  1  0.90338105  0.76025946  0.02441849  1
  O2-  O233  1  0.90529009  0.76251985  0.51900970  1
  O2-  O234  1  0.26385346  0.26305645  0.22785206  1
  O2-  O235  1  0.26200019  0.26130470  0.72769268  1
  O2-  O236  1  0.26373478  0.59332255  0.22975604  1
  O2-  O237  1  0.26488231  0.59286807  0.72930304  1
  O2-  O238  1  0.25951733  0.92905640  0.22550795  1
  O2-  O239  1  0.26123032  0.92912068  0.73158707  1
  O2-  O240  1  0.59511208  0.26076098  0.23087261  1
  O2-  O241  1  0.59318420  0.26180805  0.72949579  1
  O2-  O242  1  0.59553587  0.59412320  0.22845698  1
  O2-  O243  1  0.59554091  0.59570292  0.72926212  1
  O2-  O244  1  0.59260687  0.92980448  0.22649301  1
  O2-  O245  1  0.59744477  0.92611520  0.73054394  1
  O2-  O246  1  0.93093166  0.26442873  0.23261482  1
  O2-  O247  1  0.92637061  0.25840575  0.72697970  1
  O2-  O248  1  0.93085029  0.59835989  0.23434452  1
  O2-  O249  1  0.92870004  0.59750900  0.73349233  1
  O2-  O250  1  0.93063673  0.93111868  0.23211780  1
  O2-  O251  1  0.92534331  0.92683973  0.72699749  1
  O2-  O252  1  0.09473848  0.24080984  0.27403541  1
  O2-  O253  1  0.09753177  0.23884409  0.76178755  1
  O2-  O254  1  0.09582528  0.57211360  0.27285568  1
  O2-  O255  1  0.09239321  0.57610635  0.76623268  1
  O2-  O256  1  0.09437001  0.90493609  0.26943949  1
  O2-  O257  1  0.09231340  0.90741211  0.76235942  1
  O2-  O258  1  0.42985294  0.23895334  0.26905048  1
  O2-  O259  1  0.42789658  0.23787017  0.77107107  1
  O2-  O260  1  0.42911578  0.56915202  0.27151125  1
  O2-  O261  1  0.43090211  0.56868335  0.77268614  1
  O2-  O262  1  0.43027789  0.90203616  0.26560747  1
  O2-  O263  1  0.42947652  0.90568917  0.77169153  1
  O2-  O264  1  0.76230227  0.23754959  0.27176843  1
  O2-  O265  1  0.75862331  0.23955701  0.76635039  1
  O2-  O266  1  0.75976089  0.57167107  0.27395339  1
  O2-  O267  1  0.75977012  0.57051262  0.77339800  1
  O2-  O268  1  0.76028073  0.90788699  0.27339601  1
  O2-  O269  1  0.76197209  0.90106473  0.77172150  1
  O2-  O270  1  0.07051184  0.07330822  0.47857857  1
  O2-  O271  1  0.07316277  0.07554646  0.98464988  1
  O2-  O272  1  0.07360198  0.40518816  0.47794676  1
  O2-  O273  1  0.07301181  0.40782049  0.98910276  1
  O2-  O274  1  0.07182407  0.73991578  0.47825325  1
  O2-  O275  1  0.06742210  0.73919731  0.98368787  1
  O2-  O276  1  0.40777792  0.07434978  0.48359142  1
  O2-  O277  1  0.40360560  0.07512387  0.97504865  1
  O2-  O278  1  0.40140373  0.40112277  0.47878068  1
  O2-  O279  1  0.40753436  0.40513618  0.98094082  1
  O2-  O280  1  0.40594361  0.73864855  0.47874918  1
  O2-  O281  1  0.40786952  0.73477545  0.97893844  1
  O2-  O282  1  0.73567264  0.06883312  0.48277400  1
  O2-  O283  1  0.73395629  0.06915155  0.98619837  1
  O2-  O284  1  0.73749664  0.40134466  0.47786349  1
  O2-  O285  1  0.73600550  0.40554425  0.98298773  1
  O2-  O286  1  0.73820082  0.73856902  0.47772459  1
  O2-  O287  1  0.73518102  0.73403925  0.98458797  1
  O2-  O288  1  0.09312370  0.23710803  0.47697008  1
  O2-  O289  1  0.09706295  0.24119235  0.98777949  1
  O2-  O290  1  0.09795442  0.57310411  0.47914939  1
  O2-  O291  1  0.09149980  0.57575587  0.98261150  1
  O2-  O292  1  0.09458321  0.90519163  0.47867632  1
  O2-  O293  1  0.09451990  0.90737313  0.98820932  1
  O2-  O294  1  0.43170278  0.23768262  0.48164943  1
  O2-  O295  1  0.42539874  0.24012830  0.97692008  1
  O2-  O296  1  0.43103880  0.56893097  0.47599285  1
  O2-  O297  1  0.42999018  0.56988552  0.97855560  1
  O2-  O298  1  0.43017277  0.90239694  0.48478373  1
  O2-  O299  1  0.43084708  0.90604661  0.97932474  1
  O2-  O300  1  0.76518847  0.23280598  0.47985955  1
  O2-  O301  1  0.75555198  0.24349563  0.98265068  1
  O2-  O302  1  0.75829827  0.57150316  0.47643701  1
  O2-  O303  1  0.76188247  0.57135440  0.97742086  1
  O2-  O304  1  0.76331971  0.90610522  0.47827253  1
  O2-  O305  1  0.76032844  0.90358918  0.97788960  1
  O2-  O306  1  0.07051024  0.07286611  0.27078040  1
  O2-  O307  1  0.07477174  0.07660374  0.76465452  1
  O2-  O308  1  0.07173051  0.40521391  0.27182030  1
  O2-  O309  1  0.07545623  0.40715607  0.76062948  1
  O2-  O310  1  0.07129095  0.73953540  0.27134519  1
  O2-  O311  1  0.06847617  0.73938033  0.76725998  1
  O2-  O312  1  0.40808875  0.07643933  0.26847998  1
  O2-  O313  1  0.40284980  0.07357579  0.77388221  1
  O2-  O314  1  0.40453949  0.40420074  0.27118417  1
  O2-  O315  1  0.40416272  0.40129686  0.76738180  1
  O2-  O316  1  0.40578859  0.73650024  0.26785195  1
  O2-  O317  1  0.40770022  0.73682186  0.77391632  1
  O2-  O318  1  0.73564202  0.06995438  0.26634917  1
  O2-  O319  1  0.73507049  0.06799929  0.76479925  1
  O2-  O320  1  0.73645162  0.40280665  0.27413365  1
  O2-  O321  1  0.73459385  0.40462544  0.76442297  1
  O2-  O322  1  0.73944897  0.73612144  0.27079215  1
  O2-  O323  1  0.73456710  0.73537245  0.76706366  1
  O2-  O324  1  0.23653963  0.09985612  0.23142913  1
  O2-  O325  1  0.24107343  0.09506456  0.72722608  1
  O2-  O326  1  0.23601175  0.43150199  0.23387218  1
  O2-  O327  1  0.24212149  0.42613150  0.72551515  1
  O2-  O328  1  0.23792466  0.76150550  0.22841403  1
  O2-  O329  1  0.23848803  0.76093021  0.72995637  1
  O2-  O330  1  0.57244806  0.09568668  0.22649273  1
  O2-  O331  1  0.57134802  0.09566125  0.73015266  1
  O2-  O332  1  0.57136204  0.42531629  0.22691240  1
  O2-  O333  1  0.57173741  0.42742962  0.72936566  1
  O2-  O334  1  0.57257816  0.76088013  0.22776037  1
  O2-  O335  1  0.57170949  0.76168675  0.72891636  1
  O2-  O336  1  0.90453473  0.09420815  0.22439932  1
  O2-  O337  1  0.90742571  0.09266823  0.72851743  1
  O2-  O338  1  0.90182148  0.42866285  0.23019344  1
  O2-  O339  1  0.90963055  0.42344101  0.73119000  1
  O2-  O340  1  0.90371096  0.76354129  0.22821366  1
  O2-  O341  1  0.90614490  0.76080512  0.72782703  1
  O2-  O342  1  0.26492699  0.26466367  0.02087456  1
  O2-  O343  1  0.25995776  0.25831363  0.52216530  1
  O2-  O344  1  0.26313691  0.59126332  0.01868826  1
  O2-  O345  1  0.26611130  0.59534804  0.52270984  1
  O2-  O346  1  0.26054378  0.93320710  0.02034384  1
  O2-  O347  1  0.26148265  0.92555823  0.52303769  1
  O2-  O348  1  0.59317312  0.26150093  0.02058638  1
  O2-  O349  1  0.59567960  0.25976963  0.51943372  1
  O2-  O350  1  0.59689024  0.59333313  0.02315596  1
  O2-  O351  1  0.59335700  0.59726164  0.51976889  1
  O2-  O352  1  0.59626388  0.92734112  0.02232382  1
  O2-  O353  1  0.59428297  0.92826320  0.52056732  1
  O2-  O354  1  0.92699061  0.26132236  0.02057796  1
  O2-  O355  1  0.92896638  0.26042977  0.52045000  1
  O2-  O356  1  0.92924101  0.59723873  0.01768881  1
  O2-  O357  1  0.93048697  0.59754023  0.51595265  1
  O2-  O358  1  0.92782095  0.92819469  0.02131701  1
  O2-  O359  1  0.92855414  0.92849407  0.51980968  1
