# generated using pymatgen
data_Sr7Ca15Pr50Mn72O216
_symmetry_space_group_name_H-M   'P 1'
_cell_length_a   16.55511375
_cell_length_b   16.59937054
_cell_length_c   15.59041415
_cell_angle_alpha   89.99765601
_cell_angle_beta   89.99717828
_cell_angle_gamma   90.01145775
_symmetry_Int_Tables_number   1
_chemical_formula_structural   Sr7Ca15Pr50Mn72O216
_chemical_formula_sum   'Sr7 Ca15 Pr50 Mn72 O216'
_cell_volume   4284.31536395
_cell_formula_units_Z   1
loop_
 _symmetry_equiv_pos_site_id
 _symmetry_equiv_pos_as_xyz
  1  'x, y, z'
loop_
 _atom_type_symbol
 _atom_type_oxidation_number
  Sr2+  2.0
  Ca2+  2.0
  Pr3+  3.0
  Mn3.30+  3.3
  O2-  -2.0
loop_
 _atom_site_type_symbol
 _atom_site_label
 _atom_site_symmetry_multiplicity
 _atom_site_fract_x
 _atom_site_fract_y
 _atom_site_fract_z
 _atom_site_occupancy
  Sr2+  Sr0  1  0.49959416  0.48965097  0.37530885  1
  Sr2+  Sr1  1  0.66704518  0.34363846  0.12706841  1
  Sr2+  Sr2  1  0.16476022  0.48986422  0.37551070  1
  Sr2+  Sr3  1  0.16718157  0.50871504  0.62368197  1
  Sr2+  Sr4  1  0.66940081  0.32580913  0.37473697  1
  Sr2+  Sr5  1  -0.00225017  0.01088685  0.12723844  1
  Sr2+  Sr6  1  0.33628760  0.32964931  0.37672849  1
  Ca2+  Ca7  1  1.00048159  0.98836099  0.37570435  1
  Ca2+  Ca8  1  -0.00589489  0.68234714  0.62166907  1
  Ca2+  Ca9  1  0.33219729  0.34894076  0.12701099  1
  Ca2+  Ca10  1  0.83705482  0.84601971  0.62488233  1
  Ca2+  Ca11  1  0.83064973  0.48546287  0.37600158  1
  Ca2+  Ca12  1  0.33068276  0.35027411  0.62333375  1
  Ca2+  Ca13  1  0.83018722  0.81866416  0.87277635  1
  Ca2+  Ca14  1  0.66602778  0.34867717  0.62216734  1
  Ca2+  Ca15  1  0.67184755  0.64670720  0.37602819  1
  Ca2+  Ca16  1  0.33566173  0.65157014  0.87354242  1
  Ca2+  Ca17  1  0.83189466  0.15292006  0.87626989  1
  Ca2+  Ca18  1  -0.00487520  0.34956323  0.12618747  1
  Ca2+  Ca19  1  1.00387686  0.64890358  0.37760901  1
  Ca2+  Ca20  1  0.82895681  0.48434330  0.87388718  1
  Ca2+  Ca21  1  0.83371906  0.15584955  0.37302105  1
  Pr3+  Pr22  1  0.67063621  0.99194769  0.37492163  1
  Pr3+  Pr23  1  0.50326427  0.18246262  0.12521753  1
  Pr3+  Pr24  1  0.16264757  0.15731293  0.37582177  1
  Pr3+  Pr25  1  0.99712928  0.65506622  0.87278540  1
  Pr3+  Pr26  1  0.33303340  0.65198627  0.37584088  1
  Pr3+  Pr27  1  0.33634817  0.98627112  0.87506134  1
  Pr3+  Pr28  1  0.16564397  0.48873970  0.87391522  1
  Pr3+  Pr29  1  0.49828037  0.82011785  0.37606590  1
  Pr3+  Pr30  1  0.16496745  0.84184932  0.62460594  1
  Pr3+  Pr31  1  0.16638335  0.50912545  0.12660927  1
  Pr3+  Pr32  1  0.66589768  0.01373781  0.12616391  1
  Pr3+  Pr33  1  0.49881947  0.48872126  0.87487818  1
  Pr3+  Pr34  1  0.67395999  0.98347560  0.87480349  1
  Pr3+  Pr35  1  0.16708913  0.18325861  0.12473400  1
  Pr3+  Pr36  1  0.83243374  0.81979049  0.37518526  1
  Pr3+  Pr37  1  0.32748241  0.01465364  0.12490702  1
  Pr3+  Pr38  1  0.49703224  0.81672187  0.87422085  1
  Pr3+  Pr39  1  0.99780238  0.98620203  0.87583668  1
  Pr3+  Pr40  1  0.49822176  0.16166943  0.37430695  1
  Pr3+  Pr41  1  -0.00509622  0.01143452  0.62365839  1
  Pr3+  Pr42  1  0.66508803  0.67767242  0.62140122  1
  Pr3+  Pr43  1  0.15755532  0.81950279  0.37531329  1
  Pr3+  Pr44  1  0.16985904  0.18208769  0.62534051  1
  Pr3+  Pr45  1  0.67430526  0.31905571  0.87466190  1
  Pr3+  Pr46  1  0.33713579  0.32379912  0.87401294  1
  Pr3+  Pr47  1  0.66452586  0.67433727  0.12825910  1
  Pr3+  Pr48  1  0.50529501  0.18359598  0.62481219  1
  Pr3+  Pr49  1  0.50347422  0.84567615  0.62440115  1
  Pr3+  Pr50  1  0.83617347  0.84653443  0.12434758  1
  Pr3+  Pr51  1  0.16695943  0.84684776  0.12544215  1
  Pr3+  Pr52  1  0.83573017  0.50838077  0.12705436  1
  Pr3+  Pr53  1  0.83998403  0.18307634  0.12567986  1
  Pr3+  Pr54  1  0.16240239  0.15454402  0.87452231  1
  Pr3+  Pr55  1  0.32998330  0.67553862  0.12575095  1
  Pr3+  Pr56  1  0.32862751  0.67376457  0.62458731  1
  Pr3+  Pr57  1  1.00405353  0.32608720  0.37428781  1
  Pr3+  Pr58  1  -0.00148893  0.34801281  0.62465740  1
  Pr3+  Pr59  1  0.16288799  0.81942624  0.87507599  1
  Pr3+  Pr60  1  0.33578489  0.98924616  0.37544762  1
  Pr3+  Pr61  1  0.50174913  0.50825780  0.62114089  1
  Pr3+  Pr62  1  0.50335378  0.50902419  0.12851002  1
  Pr3+  Pr63  1  0.83861817  0.51358439  0.62319091  1
  Pr3+  Pr64  1  0.49968935  0.15441874  0.87578404  1
  Pr3+  Pr65  1  0.32937142  0.01263124  0.62551660  1
  Pr3+  Pr66  1  -0.00504541  0.67679335  0.12745049  1
  Pr3+  Pr67  1  0.50314029  0.84536838  0.12578788  1
  Pr3+  Pr68  1  1.00045833  0.32216301  0.87564915  1
  Pr3+  Pr69  1  0.67417177  0.65061713  0.87337951  1
  Pr3+  Pr70  1  0.66714723  0.01190295  0.62401591  1
  Pr3+  Pr71  1  0.83582144  0.18090373  0.62413147  1
  Mn3.30+  Mn72  1  0.16554799  0.00089978  -0.00028031  1
  Mn3.30+  Mn73  1  0.16422382  0.00007368  0.49981290  1
  Mn3.30+  Mn74  1  0.16677654  0.33463284  0.00153522  1
  Mn3.30+  Mn75  1  0.16923267  0.33456470  0.49979038  1
  Mn3.30+  Mn76  1  0.16571521  0.66581682  -0.00130924  1
  Mn3.30+  Mn77  1  0.16111219  0.66567463  0.50184044  1
  Mn3.30+  Mn78  1  0.50049507  -0.00076883  0.00022865  1
  Mn3.30+  Mn79  1  0.50042227  0.00207244  0.49994961  1
  Mn3.30+  Mn80  1  0.50162238  0.33441377  0.00012327  1
  Mn3.30+  Mn81  1  0.50157924  0.33463015  0.50120443  1
  Mn3.30+  Mn82  1  0.49962926  0.66535104  -0.00047451  1
  Mn3.30+  Mn83  1  0.50061309  0.66574591  0.49867007  1
  Mn3.30+  Mn84  1  0.83348267  0.00044844  -0.00046989  1
  Mn3.30+  Mn85  1  0.83456488  -0.00018124  0.49829040  1
  Mn3.30+  Mn86  1  0.83547851  0.33403809  -0.00071777  1
  Mn3.30+  Mn87  1  0.83276884  0.33371779  0.49909944  1
  Mn3.30+  Mn88  1  0.83164882  0.66521350  -0.00032621  1
  Mn3.30+  Mn89  1  0.83468839  0.66656773  0.49745459  1
  Mn3.30+  Mn90  1  -0.00093570  0.16741603  0.25076679  1
  Mn3.30+  Mn91  1  -0.00202783  0.16657934  0.75082381  1
  Mn3.30+  Mn92  1  -0.00086964  0.49992101  0.25151153  1
  Mn3.30+  Mn93  1  -0.00200474  0.50207139  0.75026702  1
  Mn3.30+  Mn94  1  -0.00193622  0.83337691  0.25152010  1
  Mn3.30+  Mn95  1  -0.00424829  0.83168384  0.74961417  1
  Mn3.30+  Mn96  1  0.33203713  0.17050719  0.24991623  1
  Mn3.30+  Mn97  1  0.33423719  0.16851372  0.74991735  1
  Mn3.30+  Mn98  1  0.33381191  0.49854753  0.24946486  1
  Mn3.30+  Mn99  1  0.33343166  0.50086807  0.75051697  1
  Mn3.30+  Mn100  1  0.33179841  0.83314715  0.25098970  1
  Mn3.30+  Mn101  1  0.33324195  0.83058726  0.74995259  1
  Mn3.30+  Mn102  1  0.66955022  0.16849226  0.25135884  1
  Mn3.30+  Mn103  1  0.66934710  0.16697777  0.74949548  1
  Mn3.30+  Mn104  1  0.67004032  0.49869231  0.25335975  1
  Mn3.30+  Mn105  1  0.66904788  0.49843630  0.74759781  1
  Mn3.30+  Mn106  1  0.66716422  0.83153577  0.25229459  1
  Mn3.30+  Mn107  1  0.66960375  0.83143657  0.74788147  1
  Mn3.30+  Mn108  1  0.16430011  0.00162212  0.25119874  1
  Mn3.30+  Mn109  1  0.16505627  -0.00101813  0.75007823  1
  Mn3.30+  Mn110  1  0.16710168  0.33455372  0.24860613  1
  Mn3.30+  Mn111  1  0.16908014  0.33432133  0.75047667  1
  Mn3.30+  Mn112  1  0.16242846  0.66603388  0.25013534  1
  Mn3.30+  Mn113  1  0.16514330  0.66579993  0.75000253  1
  Mn3.30+  Mn114  1  0.49941263  0.00130184  0.25004213  1
  Mn3.30+  Mn115  1  0.50136607  0.00003960  0.75014788  1
  Mn3.30+  Mn116  1  0.50009088  0.33448204  0.25028087  1
  Mn3.30+  Mn117  1  0.50313357  0.33471964  0.74875539  1
  Mn3.30+  Mn118  1  0.50018486  0.66593791  0.25242943  1
  Mn3.30+  Mn119  1  0.49977642  0.66512599  0.74904035  1
  Mn3.30+  Mn120  1  0.83527909  0.00188547  0.25216186  1
  Mn3.30+  Mn121  1  0.83280578  -0.00166232  0.74964591  1
  Mn3.30+  Mn122  1  0.83595945  0.33399472  0.25136022  1
  Mn3.30+  Mn123  1  0.83237789  0.33355298  0.74925603  1
  Mn3.30+  Mn124  1  0.83255065  0.66390664  0.25450423  1
  Mn3.30+  Mn125  1  0.83390580  0.66836475  0.74742482  1
  Mn3.30+  Mn126  1  -0.00168984  0.16730523  -0.00013658  1
  Mn3.30+  Mn127  1  -0.00132269  0.16691258  0.49873903  1
  Mn3.30+  Mn128  1  -0.00212863  0.49947227  -0.00234899  1
  Mn3.30+  Mn129  1  -0.00083024  0.50275038  0.49973841  1
  Mn3.30+  Mn130  1  -0.00291801  0.83193861  -0.00120070  1
  Mn3.30+  Mn131  1  -0.00347110  0.83282568  0.49985639  1
  Mn3.30+  Mn132  1  0.33290852  0.16936910  -0.00026514  1
  Mn3.30+  Mn133  1  0.33359978  0.16961341  0.50111206  1
  Mn3.30+  Mn134  1  0.33347136  0.50068044  0.00030252  1
  Mn3.30+  Mn135  1  0.33326317  0.49889437  0.50025027  1
  Mn3.30+  Mn136  1  0.33357020  0.83082395  -0.00026932  1
  Mn3.30+  Mn137  1  0.33157366  0.83290621  0.49989193  1
  Mn3.30+  Mn138  1  0.66923347  0.16631095  -0.00027698  1
  Mn3.30+  Mn139  1  0.66968873  0.16897144  0.49900406  1
  Mn3.30+  Mn140  1  0.66854242  0.49872697  0.00035591  1
  Mn3.30+  Mn141  1  0.67072419  0.49852384  0.49889888  1
  Mn3.30+  Mn142  1  0.66788404  0.83065942  0.00041197  1
  Mn3.30+  Mn143  1  0.66920904  0.83220251  0.49876622  1
  O2-  O144  1  0.02418806  0.16198122  0.12365286  1
  O2-  O145  1  0.02533891  0.15996784  0.62603129  1
  O2-  O146  1  0.02277929  0.49763049  0.12124814  1
  O2-  O147  1  0.01821503  0.49458172  0.62733646  1
  O2-  O148  1  0.02282006  0.82553832  0.12446580  1
  O2-  O149  1  0.02243928  0.83006456  0.62559076  1
  O2-  O150  1  0.35991359  0.15838523  0.12185259  1
  O2-  O151  1  0.36055440  0.15682045  0.62582452  1
  O2-  O152  1  0.35758693  0.50032788  0.12338327  1
  O2-  O153  1  0.35581354  0.50203452  0.62741540  1
  O2-  O154  1  0.35948697  0.82418803  0.12375676  1
  O2-  O155  1  0.35962761  0.82410102  0.62460377  1
  O2-  O156  1  0.69342335  0.16202783  0.12432029  1
  O2-  O157  1  0.69264426  0.15916487  0.62447025  1
  O2-  O158  1  0.69077664  0.50454690  0.12716354  1
  O2-  O159  1  0.69408704  0.49728681  0.62405911  1
  O2-  O160  1  0.69205890  0.82413027  0.12670801  1
  O2-  O161  1  0.69443731  0.82613414  0.61976958  1
  O2-  O162  1  0.13767138  0.33104899  0.12250675  1
  O2-  O163  1  0.14276160  0.32956487  0.62783563  1
  O2-  O164  1  0.13897699  0.65992521  0.12348442  1
  O2-  O165  1  0.13924156  0.66873673  0.62686242  1
  O2-  O166  1  0.14827851  0.99603384  0.12422275  1
  O2-  O167  1  0.13986192  0.99324983  0.62597188  1
  O2-  O168  1  0.47659058  0.32978025  0.12275715  1
  O2-  O169  1  0.47416799  0.32996974  0.62784660  1
  O2-  O170  1  0.47542236  0.66095481  0.12724184  1
  O2-  O171  1  0.47405753  0.66043226  0.62499361  1
  O2-  O172  1  0.47093057  0.99205246  0.12618822  1
  O2-  O173  1  0.47359005  0.99348781  0.62692062  1
  O2-  O174  1  0.81579498  0.32989445  0.12441290  1
  O2-  O175  1  0.80798373  0.32664066  0.62525990  1
  O2-  O176  1  0.80734261  0.65746260  0.12887860  1
  O2-  O177  1  0.80688933  0.65975201  0.62221063  1
  O2-  O178  1  0.80960634  0.99418877  0.12588993  1
  O2-  O179  1  0.81021065  0.99083696  0.62420722  1
  O2-  O180  1  0.30799964  0.17142513  0.37776272  1
  O2-  O181  1  0.30627308  0.17598049  0.87538011  1
  O2-  O182  1  0.31481580  0.50347170  0.37322070  1
  O2-  O183  1  0.31051340  0.50519078  0.87639699  1
  O2-  O184  1  0.30348377  0.84101030  0.37688617  1
  O2-  O185  1  0.30725867  0.84020050  0.87535251  1
  O2-  O186  1  0.64301563  0.16417390  0.37623867  1
  O2-  O187  1  0.64326228  0.16987684  0.87448775  1
  O2-  O188  1  0.64816363  0.50196768  0.37676820  1
  O2-  O189  1  0.64257998  0.50463018  0.87236042  1
  O2-  O190  1  0.63977289  0.84408162  0.37596003  1
  O2-  O191  1  0.64040804  0.83585089  0.87680881  1
  O2-  O192  1  0.97520075  0.18009237  0.37664665  1
  O2-  O193  1  0.97375900  0.17508529  0.87403608  1
  O2-  O194  1  0.97478701  0.50226531  0.37692645  1
  O2-  O195  1  0.97061749  0.50741975  0.87348169  1
  O2-  O196  1  0.97656318  0.84317200  0.37546909  1
  O2-  O197  1  0.97224654  0.83713782  0.87446457  1
  O2-  O198  1  0.19256559  0.00613558  0.37584380  1
  O2-  O199  1  0.19278593  0.00482026  0.87459756  1
  O2-  O200  1  0.18418889  0.32929533  0.37355604  1
  O2-  O201  1  0.19309172  0.33744609  0.87587765  1
  O2-  O202  1  0.18929909  0.67339240  0.37455099  1
  O2-  O203  1  0.19399956  0.67325019  0.87583778  1
  O2-  O204  1  0.52595990  0.01021926  0.37389328  1
  O2-  O205  1  0.52825968  0.00541541  0.87315584  1
  O2-  O206  1  0.51721950  0.32858710  0.37602774  1
  O2-  O207  1  0.52901306  0.33981960  0.87377693  1
  O2-  O208  1  0.52710049  0.67376070  0.37502294  1
  O2-  O209  1  0.52917043  0.67033658  0.87228208  1
  O2-  O210  1  0.85825349  0.00876693  0.37507519  1
  O2-  O211  1  0.85485536  0.00836328  0.87419844  1
  O2-  O212  1  0.86115648  0.34080711  0.37564354  1
  O2-  O213  1  0.85742254  0.34095754  0.87411304  1
  O2-  O214  1  0.86464068  0.67518751  0.37598952  1
  O2-  O215  1  0.85366034  0.67614821  0.87228027  1
  O2-  O216  1  0.23899735  0.09832221  0.01884435  1
  O2-  O217  1  0.23796563  0.09414731  0.52216197  1
  O2-  O218  1  0.23661898  0.42949806  0.01757927  1
  O2-  O219  1  0.24308150  0.42461933  0.51632522  1
  O2-  O220  1  0.23572339  0.76017344  0.02253713  1
  O2-  O221  1  0.23591848  0.75944989  0.52017033  1
  O2-  O222  1  0.57029236  0.09277325  0.02175402  1
  O2-  O223  1  0.57207886  0.09487966  0.52208642  1
  O2-  O224  1  0.57201361  0.43222234  0.01781775  1
  O2-  O225  1  0.57613731  0.42605696  0.52032621  1
  O2-  O226  1  0.56930045  0.76115281  0.02068144  1
  O2-  O227  1  0.57108379  0.76136975  0.52086726  1
  O2-  O228  1  0.90389007  0.09845541  0.01685245  1
  O2-  O229  1  0.90548869  0.09409065  0.52318608  1
  O2-  O230  1  0.90524426  0.42895085  0.01804694  1
  O2-  O231  1  0.90773550  0.42651516  0.52171837  1
  O2-  O232  1  0.90328365  0.75782918  0.02263050  1
  O2-  O233  1  0.89926908  0.76641510  0.51787259  1
  O2-  O234  1  0.25935074  0.26150926  0.22360682  1
  O2-  O235  1  0.26447045  0.26157969  0.72818703  1
  O2-  O236  1  0.25831669  0.59455892  0.23111371  1
  O2-  O237  1  0.26116062  0.59566601  0.73339817  1
  O2-  O238  1  0.26299043  0.92757344  0.22951545  1
  O2-  O239  1  0.26146595  0.92618635  0.72899687  1
  O2-  O240  1  0.59112013  0.25631596  0.23248194  1
  O2-  O241  1  0.59778633  0.26288725  0.72915488  1
  O2-  O242  1  0.59236065  0.59156586  0.23168242  1
  O2-  O243  1  0.59590332  0.59392717  0.72728110  1
  O2-  O244  1  0.59256307  0.92813535  0.22837251  1
  O2-  O245  1  0.59728862  0.92499459  0.72839064  1
  O2-  O246  1  0.93195850  0.26365304  0.22906454  1
  O2-  O247  1  0.92890997  0.26254900  0.72893870  1
  O2-  O248  1  0.92572681  0.59244233  0.22807824  1
  O2-  O249  1  0.92756025  0.60088120  0.72878801  1
  O2-  O250  1  0.92325548  0.92377014  0.23171816  1
  O2-  O251  1  0.93139400  0.93173199  0.73440704  1
  O2-  O252  1  0.09571160  0.23727122  0.26704746  1
  O2-  O253  1  0.09664399  0.23986761  0.76976305  1
  O2-  O254  1  0.09184259  0.57218589  0.26419848  1
  O2-  O255  1  0.09301123  0.57517978  0.77533928  1
  O2-  O256  1  0.09701303  0.90415362  0.26542156  1
  O2-  O257  1  0.09381142  0.90436365  0.77147127  1
  O2-  O258  1  0.42816927  0.23627078  0.26400440  1
  O2-  O259  1  0.43218596  0.23991416  0.77233452  1
  O2-  O260  1  0.42433779  0.57784287  0.26777494  1
  O2-  O261  1  0.43069347  0.57163936  0.76875785  1
  O2-  O262  1  0.42988776  0.90781576  0.27372265  1
  O2-  O263  1  0.42881738  0.90496098  0.77089002  1
  O2-  O264  1  0.76791179  0.23775865  0.26672195  1
  O2-  O265  1  0.76508403  0.23590958  0.77193066  1
  O2-  O266  1  0.76451676  0.57055467  0.27315364  1
  O2-  O267  1  0.76331906  0.57009254  0.76917819  1
  O2-  O268  1  0.76016464  0.90562287  0.27003432  1
  O2-  O269  1  0.76297735  0.90425664  0.77309947  1
  O2-  O270  1  0.06960245  0.07324985  0.47822944  1
  O2-  O271  1  0.07113424  0.07479252  0.97527198  1
  O2-  O272  1  0.07085360  0.40472704  0.48619091  1
  O2-  O273  1  0.07261239  0.40906761  0.97389185  1
  O2-  O274  1  0.06904014  0.74073493  0.47830662  1
  O2-  O275  1  0.07093268  0.73787515  0.97809423  1
  O2-  O276  1  0.40400338  0.07341025  0.47961620  1
  O2-  O277  1  0.40245145  0.07385763  0.97683464  1
  O2-  O278  1  0.41067692  0.40959896  0.49086226  1
  O2-  O279  1  0.40788326  0.40665016  0.97779602  1
  O2-  O280  1  0.40385266  0.74123368  0.47707816  1
  O2-  O281  1  0.40452756  0.73646758  0.97733461  1
  O2-  O282  1  0.73692896  0.06847502  0.48549177  1
  O2-  O283  1  0.73510489  0.06696272  0.98365722  1
  O2-  O284  1  0.74284161  0.40555729  0.48457283  1
  O2-  O285  1  0.73839504  0.40387908  0.98164175  1
  O2-  O286  1  0.73711154  0.73550856  0.47469682  1
  O2-  O287  1  0.73350922  0.73305319  0.98526574  1
  O2-  O288  1  0.09555355  0.23809022  0.48532779  1
  O2-  O289  1  0.09619960  0.23867398  0.97872677  1
  O2-  O290  1  0.09169999  0.57425202  0.48181913  1
  O2-  O291  1  0.09320411  0.57315059  0.97700038  1
  O2-  O292  1  0.09637557  0.90302463  0.48386425  1
  O2-  O293  1  0.09309797  0.90417008  0.97997415  1
  O2-  O294  1  0.43145624  0.23572206  0.48676987  1
  O2-  O295  1  0.42774695  0.23841784  0.97699327  1
  O2-  O296  1  0.42402022  0.57687848  0.48237069  1
  O2-  O297  1  0.43094145  0.57208085  0.98166285  1
  O2-  O298  1  0.42842345  0.90745249  0.47899435  1
  O2-  O299  1  0.43029250  0.90500164  0.97818794  1
  O2-  O300  1  0.76714290  0.23367198  0.48135702  1
  O2-  O301  1  0.76504185  0.23814860  0.97904311  1
  O2-  O302  1  0.76592479  0.57062872  0.48095165  1
  O2-  O303  1  0.76273343  0.56977481  0.97824280  1
  O2-  O304  1  0.76120948  0.90720662  0.47495134  1
  O2-  O305  1  0.76110875  0.90006087  0.98028824  1
  O2-  O306  1  0.07068751  0.07489988  0.27492313  1
  O2-  O307  1  0.07013064  0.07213860  0.77260417  1
  O2-  O308  1  0.07235404  0.40609120  0.26622411  1
  O2-  O309  1  0.07360778  0.40615836  0.77165302  1
  O2-  O310  1  0.06817731  0.73783805  0.27104102  1
  O2-  O311  1  0.07237967  0.74149976  0.77391895  1
  O2-  O312  1  0.40440214  0.07286069  0.27023291  1
  O2-  O313  1  0.40416312  0.07327416  0.77318540  1
  O2-  O314  1  0.40837936  0.40774942  0.26048356  1
  O2-  O315  1  0.40844931  0.40798943  0.77229265  1
  O2-  O316  1  0.40332570  0.74053874  0.27278511  1
  O2-  O317  1  0.40504185  0.73704621  0.77222817  1
  O2-  O318  1  0.73672204  0.06958627  0.26564894  1
  O2-  O319  1  0.73571977  0.06615276  0.76473927  1
  O2-  O320  1  0.74452916  0.40678297  0.26442826  1
  O2-  O321  1  0.73742502  0.40283984  0.76857173  1
  O2-  O322  1  0.73821570  0.73491174  0.27435371  1
  O2-  O323  1  0.73423180  0.73417797  0.76466732  1
  O2-  O324  1  0.23844684  0.09691416  0.23057893  1
  O2-  O325  1  0.23716701  0.09371954  0.72986617  1
  O2-  O326  1  0.23906164  0.42728604  0.22852212  1
  O2-  O327  1  0.24094015  0.42743498  0.73709223  1
  O2-  O328  1  0.23394525  0.75910489  0.22804083  1
  O2-  O329  1  0.23712857  0.76019435  0.72927867  1
  O2-  O330  1  0.57078586  0.09274025  0.22641050  1
  O2-  O331  1  0.57154272  0.09508190  0.72886251  1
  O2-  O332  1  0.57466553  0.42698234  0.23295319  1
  O2-  O333  1  0.57121853  0.43059750  0.72946409  1
  O2-  O334  1  0.57005561  0.76095546  0.23022889  1
  O2-  O335  1  0.56960270  0.76023274  0.72774201  1
  O2-  O336  1  0.90371680  0.09840872  0.23211843  1
  O2-  O337  1  0.90340889  0.09218443  0.72730981  1
  O2-  O338  1  0.90815448  0.42791093  0.23050017  1
  O2-  O339  1  0.90471747  0.42614232  0.72893786  1
  O2-  O340  1  0.90140225  0.75967480  0.22906431  1
  O2-  O341  1  0.90212024  0.76427227  0.72860979  1
  O2-  O342  1  0.26427622  0.26304237  0.02285234  1
  O2-  O343  1  0.26201813  0.25901250  0.52636050  1
  O2-  O344  1  0.25771116  0.59386908  0.02265567  1
  O2-  O345  1  0.26039874  0.59647274  0.51491403  1
  O2-  O346  1  0.26331707  0.92674570  0.01963751  1
  O2-  O347  1  0.26214227  0.92704883  0.52275467  1
  O2-  O348  1  0.59302051  0.25787679  0.01600085  1
  O2-  O349  1  0.59604753  0.25979905  0.52302553  1
  O2-  O350  1  0.59512374  0.59512641  0.01944261  1
  O2-  O351  1  0.59391323  0.59069811  0.52068627  1
  O2-  O352  1  0.59813371  0.92437515  0.02263759  1
  O2-  O353  1  0.59437681  0.92702247  0.52117120  1
  O2-  O354  1  0.93214316  0.26467012  0.01886675  1
  O2-  O355  1  0.92964011  0.26207184  0.52292215  1
  O2-  O356  1  0.92745286  0.59553076  0.01916876  1
  O2-  O357  1  0.92726530  0.59684521  0.52299087  1
  O2-  O358  1  0.92575558  0.92734291  0.01653912  1
  O2-  O359  1  0.92944142  0.92962821  0.51769667  1
