# generated using pymatgen
data_Sr7Ca15Pr50Mn72O216
_symmetry_space_group_name_H-M   'P 1'
_cell_length_a   16.56027916
_cell_length_b   16.60627456
_cell_length_c   15.59176870
_cell_angle_alpha   89.99920066
_cell_angle_beta   89.99402678
_cell_angle_gamma   90.00097862
_symmetry_Int_Tables_number   1
_chemical_formula_structural   Sr7Ca15Pr50Mn72O216
_chemical_formula_sum   'Sr7 Ca15 Pr50 Mn72 O216'
_cell_volume   4287.80719356
_cell_formula_units_Z   1
loop_
 _symmetry_equiv_pos_site_id
 _symmetry_equiv_pos_as_xyz
  1  'x, y, z'
loop_
 _atom_type_symbol
 _atom_type_oxidation_number
  Sr2+  2.0
  Ca2+  2.0
  Pr3+  3.0
  Mn3.30+  3.3
  O2-  -2.0
loop_
 _atom_site_type_symbol
 _atom_site_label
 _atom_site_symmetry_multiplicity
 _atom_site_fract_x
 _atom_site_fract_y
 _atom_site_fract_z
 _atom_site_occupancy
  Sr2+  Sr0  1  0.50348728  0.84556316  0.12700348  1
  Sr2+  Sr1  1  0.50182481  0.17745523  0.62482399  1
  Sr2+  Sr2  1  0.66479897  0.65766216  0.37379658  1
  Sr2+  Sr3  1  0.16978394  0.84559831  0.12497024  1
  Sr2+  Sr4  1  0.33473465  0.34428564  0.62508959  1
  Sr2+  Sr5  1  0.17052168  0.50810517  0.62515002  1
  Sr2+  Sr6  1  1.00003324  0.99379246  0.37466295  1
  Ca2+  Ca7  1  0.66372696  0.01439502  0.12276120  1
  Ca2+  Ca8  1  0.34066337  0.65082941  0.37611302  1
  Ca2+  Ca9  1  0.16170684  0.15203670  0.37555040  1
  Ca2+  Ca10  1  0.83639592  0.18061921  0.12421635  1
  Ca2+  Ca11  1  0.50179149  0.51305696  0.62127409  1
  Ca2+  Ca12  1  0.33720953  0.65298933  0.87383577  1
  Ca2+  Ca13  1  0.67170817  0.31453979  0.87621967  1
  Ca2+  Ca14  1  0.82935037  0.15205447  0.37181034  1
  Ca2+  Ca15  1  0.49644116  0.48667693  0.37715584  1
  Ca2+  Ca16  1  -0.00561344  0.34697153  0.12471541  1
  Ca2+  Ca17  1  0.66960885  0.98697337  0.87574835  1
  Ca2+  Ca18  1  0.49655050  0.81753575  0.37516881  1
  Ca2+  Ca19  1  0.33839898  0.98548038  0.87615672  1
  Ca2+  Ca20  1  0.82568143  0.14933736  0.87742803  1
  Ca2+  Ca21  1  0.83545989  0.84921254  0.62433233  1
  Pr3+  Pr22  1  0.83642923  0.51219616  0.12548987  1
  Pr3+  Pr23  1  0.16861817  0.51225456  0.12497225  1
  Pr3+  Pr24  1  0.16487793  0.15412390  0.87432340  1
  Pr3+  Pr25  1  0.50437203  0.17531601  0.12449128  1
  Pr3+  Pr26  1  -0.00404246  0.01436425  0.12591879  1
  Pr3+  Pr27  1  0.66474260  0.01437225  0.62687554  1
  Pr3+  Pr28  1  0.66557265  0.34412134  0.12340606  1
  Pr3+  Pr29  1  0.83056992  0.82305792  0.37623160  1
  Pr3+  Pr30  1  0.33135322  0.34574653  0.12492025  1
  Pr3+  Pr31  1  0.49881830  0.15468660  0.37527272  1
  Pr3+  Pr32  1  0.16413403  0.82092285  0.37397168  1
  Pr3+  Pr33  1  -0.00294572  0.34634075  0.62496807  1
  Pr3+  Pr34  1  0.16643901  0.48808320  0.87365012  1
  Pr3+  Pr35  1  0.16642831  0.48883153  0.37626349  1
  Pr3+  Pr36  1  1.00316952  0.65565277  0.37457878  1
  Pr3+  Pr37  1  0.33585954  0.32205300  0.87382828  1
  Pr3+  Pr38  1  0.66998299  0.98924948  0.37466561  1
  Pr3+  Pr39  1  0.66227415  0.67867411  0.62376945  1
  Pr3+  Pr40  1  0.66233943  0.68100504  0.12611400  1
  Pr3+  Pr41  1  -0.00103794  0.68183947  0.12587030  1
  Pr3+  Pr42  1  1.00312138  0.31842560  0.37343465  1
  Pr3+  Pr43  1  0.83465490  0.17833715  0.62493280  1
  Pr3+  Pr44  1  0.16990754  0.17900953  0.62314369  1
  Pr3+  Pr45  1  0.82659294  0.48277361  0.87567414  1
  Pr3+  Pr46  1  1.00313233  0.65521313  0.87563308  1
  Pr3+  Pr47  1  0.82832191  0.48727866  0.37425602  1
  Pr3+  Pr48  1  0.83334352  0.84771122  0.12622906  1
  Pr3+  Pr49  1  0.83529544  0.51221933  0.62439568  1
  Pr3+  Pr50  1  0.33104730  0.00985920  0.12348149  1
  Pr3+  Pr51  1  0.33199266  0.67414757  0.62432779  1
  Pr3+  Pr52  1  0.33081808  0.68229791  0.12575703  1
  Pr3+  Pr53  1  0.16765487  0.82132841  0.87632675  1
  Pr3+  Pr54  1  0.33717092  0.98619245  0.37528973  1
  Pr3+  Pr55  1  0.50284849  0.84479457  0.62291493  1
  Pr3+  Pr56  1  -0.00282234  0.68215069  0.62453468  1
  Pr3+  Pr57  1  0.17076793  0.84535069  0.62454302  1
  Pr3+  Pr58  1  0.49772330  0.48778335  0.87418404  1
  Pr3+  Pr59  1  0.50247151  0.51427937  0.12720957  1
  Pr3+  Pr60  1  -0.00348664  0.01249180  0.62434364  1
  Pr3+  Pr61  1  0.82832903  0.82321078  0.87422957  1
  Pr3+  Pr62  1  0.33175092  0.01222792  0.62692093  1
  Pr3+  Pr63  1  1.00098159  0.31947712  0.87639517  1
  Pr3+  Pr64  1  0.49740138  0.82136527  0.87493452  1
  Pr3+  Pr65  1  0.66911054  0.31976091  0.37353853  1
  Pr3+  Pr66  1  0.16673087  0.17765153  0.12660630  1
  Pr3+  Pr67  1  0.66834809  0.65499283  0.87570112  1
  Pr3+  Pr68  1  0.65861851  0.34713013  0.62560432  1
  Pr3+  Pr69  1  0.99969786  0.98877182  0.87544451  1
  Pr3+  Pr70  1  0.49937892  0.15117106  0.87414745  1
  Pr3+  Pr71  1  0.33523801  0.32156553  0.37606981  1
  Mn3.30+  Mn72  1  0.16738481  0.00002271  -0.00133435  1
  Mn3.30+  Mn73  1  0.16650924  0.00068585  0.49915701  1
  Mn3.30+  Mn74  1  0.16441222  0.33262541  0.00192889  1
  Mn3.30+  Mn75  1  0.16735168  0.33301567  0.49885704  1
  Mn3.30+  Mn76  1  0.16903206  0.66692123  -0.00135034  1
  Mn3.30+  Mn77  1  0.16894880  0.66568156  0.49953045  1
  Mn3.30+  Mn78  1  0.50215710  -0.00132312  -0.00084413  1
  Mn3.30+  Mn79  1  0.50111717  -0.00099097  0.49944339  1
  Mn3.30+  Mn80  1  0.50251737  0.33211779  -0.00151161  1
  Mn3.30+  Mn81  1  0.50020157  0.33511664  0.49992645  1
  Mn3.30+  Mn82  1  0.49897717  0.66780082  -0.00001538  1
  Mn3.30+  Mn83  1  0.49816057  0.66419709  0.49789321  1
  Mn3.30+  Mn84  1  0.82930022  0.00293576  0.00120776  1
  Mn3.30+  Mn85  1  0.83320533  0.00077711  0.49942048  1
  Mn3.30+  Mn86  1  0.83297386  0.32934061  0.00031562  1
  Mn3.30+  Mn87  1  0.83185727  0.33154104  0.49915985  1
  Mn3.30+  Mn88  1  0.83302385  0.66738604  0.00010376  1
  Mn3.30+  Mn89  1  0.83200714  0.66821760  0.50037237  1
  Mn3.30+  Mn90  1  -0.00163256  0.16782348  0.24970292  1
  Mn3.30+  Mn91  1  -0.00296653  0.16649024  0.75189758  1
  Mn3.30+  Mn92  1  -0.00025952  0.49914518  0.24951748  1
  Mn3.30+  Mn93  1  -0.00122506  0.50069644  0.75023101  1
  Mn3.30+  Mn94  1  0.00037880  0.83653148  0.25029383  1
  Mn3.30+  Mn95  1  -0.00141820  0.83450856  0.74991615  1
  Mn3.30+  Mn96  1  0.33220461  0.16560883  0.25107595  1
  Mn3.30+  Mn97  1  0.33381531  0.16589921  0.75048806  1
  Mn3.30+  Mn98  1  0.33511283  0.50079557  0.25138963  1
  Mn3.30+  Mn99  1  0.33524293  0.50056543  0.74910238  1
  Mn3.30+  Mn100  1  0.33488969  0.83296706  0.25126966  1
  Mn3.30+  Mn101  1  0.33482542  0.83210439  0.75081813  1
  Mn3.30+  Mn102  1  0.66983127  0.16555977  0.24700930  1
  Mn3.30+  Mn103  1  0.66810972  0.16687733  0.75329032  1
  Mn3.30+  Mn104  1  0.66511101  0.49980543  0.25143569  1
  Mn3.30+  Mn105  1  0.66486885  0.49907782  0.75000214  1
  Mn3.30+  Mn106  1  0.66452714  0.83521151  0.25137425  1
  Mn3.30+  Mn107  1  0.66746351  0.83458021  0.74862726  1
  Mn3.30+  Mn108  1  0.16628931  0.00099924  0.25032396  1
  Mn3.30+  Mn109  1  0.16737111  -0.00084980  0.75169851  1
  Mn3.30+  Mn110  1  0.16460839  0.33248263  0.24889610  1
  Mn3.30+  Mn111  1  0.16711170  0.33314150  0.75057325  1
  Mn3.30+  Mn112  1  0.17000750  0.66679678  0.25160004  1
  Mn3.30+  Mn113  1  0.16844092  0.66575795  0.75059784  1
  Mn3.30+  Mn114  1  0.50219825  -0.00152619  0.24952601  1
  Mn3.30+  Mn115  1  0.50110628  -0.00073504  0.75139313  1
  Mn3.30+  Mn116  1  0.50000701  0.33331551  0.24975152  1
  Mn3.30+  Mn117  1  0.50272902  0.33356309  0.75080456  1
  Mn3.30+  Mn118  1  0.49795678  0.66725813  0.25357003  1
  Mn3.30+  Mn119  1  0.49907850  0.66517993  0.74930883  1
  Mn3.30+  Mn120  1  0.83124931  0.00383152  0.24856671  1
  Mn3.30+  Mn121  1  0.83138475  0.00039316  0.75107518  1
  Mn3.30+  Mn122  1  0.83540114  0.33070765  0.24867603  1
  Mn3.30+  Mn123  1  0.82963304  0.33037560  0.75125187  1
  Mn3.30+  Mn124  1  0.83236353  0.66768512  0.25067081  1
  Mn3.30+  Mn125  1  0.83284648  0.66792688  0.74928521  1
  Mn3.30+  Mn126  1  -0.00456008  0.16769542  -0.00012117  1
  Mn3.30+  Mn127  1  -0.00010000  0.16642413  0.49816728  1
  Mn3.30+  Mn128  1  -0.00102619  0.49895432  -0.00004978  1
  Mn3.30+  Mn129  1  -0.00059773  0.50070850  0.50014025  1
  Mn3.30+  Mn130  1  -0.00053445  0.83530786  0.00056063  1
  Mn3.30+  Mn131  1  -0.00075496  0.83554915  0.50001565  1
  Mn3.30+  Mn132  1  0.33426167  0.16517784  -0.00080280  1
  Mn3.30+  Mn133  1  0.33185911  0.16634926  0.49896206  1
  Mn3.30+  Mn134  1  0.33415563  0.50139302  -0.00032444  1
  Mn3.30+  Mn135  1  0.33599552  0.50013163  0.49984295  1
  Mn3.30+  Mn136  1  0.33470020  0.83440866  -0.00085294  1
  Mn3.30+  Mn137  1  0.33549822  0.83033711  0.49894428  1
  Mn3.30+  Mn138  1  0.66996490  0.16476899  0.00006237  1
  Mn3.30+  Mn139  1  0.66804604  0.16729116  0.49926632  1
  Mn3.30+  Mn140  1  0.66626629  0.49858122  0.00041338  1
  Mn3.30+  Mn141  1  0.66365464  0.50063623  0.49799644  1
  Mn3.30+  Mn142  1  0.66500537  0.83696617  -0.00007221  1
  Mn3.30+  Mn143  1  0.66679068  0.83335887  0.50003727  1
  O2-  O144  1  0.02454525  0.16092553  0.12381620  1
  O2-  O145  1  0.02510529  0.16240557  0.62708756  1
  O2-  O146  1  0.02467333  0.49415232  0.12450044  1
  O2-  O147  1  0.01883404  0.49441963  0.62528630  1
  O2-  O148  1  0.02040160  0.83061404  0.12404968  1
  O2-  O149  1  0.02690907  0.83059437  0.62513930  1
  O2-  O150  1  0.35984532  0.15962539  0.12305683  1
  O2-  O151  1  0.35222460  0.15991080  0.62494875  1
  O2-  O152  1  0.35839199  0.49362346  0.12490961  1
  O2-  O153  1  0.35877709  0.50164433  0.62423337  1
  O2-  O154  1  0.35375152  0.83023586  0.12497535  1
  O2-  O155  1  0.35871094  0.82414781  0.62552255  1
  O2-  O156  1  0.69353220  0.15916487  0.12407503  1
  O2-  O157  1  0.69052242  0.16343748  0.62701043  1
  O2-  O158  1  0.69269246  0.49440949  0.12470143  1
  O2-  O159  1  0.69273603  0.49417773  0.62555352  1
  O2-  O160  1  0.68989582  0.82663589  0.12555771  1
  O2-  O161  1  0.69326552  0.82572392  0.62477147  1
  O2-  O162  1  0.13701004  0.32678631  0.12539636  1
  O2-  O163  1  0.14105135  0.32767683  0.62574879  1
  O2-  O164  1  0.14263827  0.66088838  0.12417275  1
  O2-  O165  1  0.14169710  0.66489359  0.62549096  1
  O2-  O166  1  0.14204197  0.99945066  0.12138016  1
  O2-  O167  1  0.14123674  0.99331147  0.62692897  1
  O2-  O168  1  0.47504960  0.32447935  0.12456784  1
  O2-  O169  1  0.48411228  0.32926098  0.62590106  1
  O2-  O170  1  0.47519963  0.66242334  0.12720113  1
  O2-  O171  1  0.47591884  0.66114323  0.62397565  1
  O2-  O172  1  0.47479508  1.00222953  0.12548130  1
  O2-  O173  1  0.47575000  0.99465485  0.62581174  1
  O2-  O174  1  0.80861962  0.32731088  0.12481391  1
  O2-  O175  1  0.80423873  0.32602238  0.62644063  1
  O2-  O176  1  0.80744505  0.66108931  0.12455592  1
  O2-  O177  1  0.80651050  0.65863187  0.62515294  1
  O2-  O178  1  0.80443261  0.99259247  0.12446046  1
  O2-  O179  1  0.80876323  0.99590901  0.62561073  1
  O2-  O180  1  0.30476461  0.17205109  0.37490146  1
  O2-  O181  1  0.30806559  0.17446824  0.87637042  1
  O2-  O182  1  0.30875913  0.50457395  0.37249774  1
  O2-  O183  1  0.31027898  0.50570905  0.87825537  1
  O2-  O184  1  0.30671230  0.84062740  0.37618382  1
  O2-  O185  1  0.31025361  0.84171151  0.87369427  1
  O2-  O186  1  0.64286365  0.17130394  0.37249128  1
  O2-  O187  1  0.64202659  0.17345599  0.87665925  1
  O2-  O188  1  0.64015188  0.49967796  0.37305293  1
  O2-  O189  1  0.64157280  0.50817123  0.87621905  1
  O2-  O190  1  0.64005052  0.84223271  0.37583665  1
  O2-  O191  1  0.64237848  0.83870225  0.87365015  1
  O2-  O192  1  0.97160030  0.17210578  0.37376712  1
  O2-  O193  1  0.96867989  0.17206376  0.87543463  1
  O2-  O194  1  0.97302403  0.50749604  0.37518021  1
  O2-  O195  1  0.97161183  0.50739264  0.87491394  1
  O2-  O196  1  0.97572891  0.83421769  0.37572256  1
  O2-  O197  1  0.97290851  0.83811706  0.87592341  1
  O2-  O198  1  0.19242413  0.00675196  0.37709212  1
  O2-  O199  1  0.19433989  0.00720777  0.87468640  1
  O2-  O200  1  0.19100686  0.34085292  0.37187192  1
  O2-  O201  1  0.19064043  0.33720591  0.87708274  1
  O2-  O202  1  0.19488658  0.67231173  0.37525267  1
  O2-  O203  1  0.19392860  0.67325027  0.87508128  1
  O2-  O204  1  0.52528436  0.00736765  0.37434666  1
  O2-  O205  1  0.52724338  0.00216063  0.87395385  1
  O2-  O206  1  0.52415570  0.33756789  0.37225045  1
  O2-  O207  1  0.52908753  0.34161705  0.87653632  1
  O2-  O208  1  0.51827388  0.67435970  0.37522530  1
  O2-  O209  1  0.52565796  0.67207989  0.87418022  1
  O2-  O210  1  0.85066711  0.00562411  0.37424928  1
  O2-  O211  1  0.85736846  0.00419705  0.87610305  1
  O2-  O212  1  0.85923589  0.34173648  0.37309330  1
  O2-  O213  1  0.85877257  0.33920621  0.87527566  1
  O2-  O214  1  0.85933491  0.67280799  0.37575576  1
  O2-  O215  1  0.85872188  0.67430151  0.87508795  1
  O2-  O216  1  0.23704229  0.09496387  0.02009927  1
  O2-  O217  1  0.23988559  0.09079150  0.52333320  1
  O2-  O218  1  0.23857130  0.42759342  0.02085935  1
  O2-  O219  1  0.24017401  0.42778616  0.51161861  1
  O2-  O220  1  0.24068433  0.75988553  0.01630803  1
  O2-  O221  1  0.23808377  0.76146944  0.52089754  1
  O2-  O222  1  0.56929864  0.09749859  0.01568336  1
  O2-  O223  1  0.57664173  0.09424774  0.51641407  1
  O2-  O224  1  0.57136925  0.42804183  0.02290103  1
  O2-  O225  1  0.57339279  0.42922540  0.52113186  1
  O2-  O226  1  0.57377204  0.76002997  0.01610764  1
  O2-  O227  1  0.57281481  0.75870742  0.52112523  1
  O2-  O228  1  0.90395859  0.09467824  0.02407457  1
  O2-  O229  1  0.90711541  0.09375625  0.52258629  1
  O2-  O230  1  0.90059636  0.42912990  0.01733654  1
  O2-  O231  1  0.90219167  0.42590052  0.52033989  1
  O2-  O232  1  0.90452578  0.76067591  0.02155592  1
  O2-  O233  1  0.90674834  0.76241342  0.52271802  1
  O2-  O234  1  0.26003251  0.26162459  0.22664644  1
  O2-  O235  1  0.25623089  0.25726754  0.73330305  1
  O2-  O236  1  0.26112329  0.59265656  0.22639811  1
  O2-  O237  1  0.26257831  0.59513920  0.73360106  1
  O2-  O238  1  0.26505201  0.93053716  0.23495968  1
  O2-  O239  1  0.26199609  0.92426961  0.72689338  1
  O2-  O240  1  0.59759012  0.25876197  0.22871626  1
  O2-  O241  1  0.59867872  0.26345449  0.73531781  1
  O2-  O242  1  0.59423760  0.59282638  0.22683040  1
  O2-  O243  1  0.59724530  0.59809676  0.73301261  1
  O2-  O244  1  0.59857825  0.93356685  0.23154385  1
  O2-  O245  1  0.59361608  0.92584149  0.72555553  1
  O2-  O246  1  0.93347248  0.26646667  0.23121515  1
  O2-  O247  1  0.92773881  0.26236411  0.72778653  1
  O2-  O248  1  0.92921656  0.59573771  0.22912988  1
  O2-  O249  1  0.92721819  0.59730629  0.72941226  1
  O2-  O250  1  0.92261382  0.93052145  0.22841366  1
  O2-  O251  1  0.93009719  0.93121559  0.73362085  1
  O2-  O252  1  0.09574241  0.23760022  0.27284361  1
  O2-  O253  1  0.09037018  0.23818023  0.77256775  1
  O2-  O254  1  0.09632577  0.57333544  0.27001864  1
  O2-  O255  1  0.09487584  0.57616094  0.77464324  1
  O2-  O256  1  0.09582846  0.90628460  0.26955779  1
  O2-  O257  1  0.09573173  0.90607051  0.77281966  1
  O2-  O258  1  0.42614865  0.23761378  0.27090676  1
  O2-  O259  1  0.42837435  0.24189709  0.77328362  1
  O2-  O260  1  0.43156792  0.56743683  0.26760505  1
  O2-  O261  1  0.42940433  0.57231825  0.77100854  1
  O2-  O262  1  0.42875791  0.90463554  0.27345082  1
  O2-  O263  1  0.43071481  0.90266544  0.76616448  1
  O2-  O264  1  0.76273559  0.23992194  0.27190982  1
  O2-  O265  1  0.76667588  0.23237346  0.76993893  1
  O2-  O266  1  0.76231850  0.56972810  0.26697578  1
  O2-  O267  1  0.76076534  0.56974608  0.77064992  1
  O2-  O268  1  0.76113596  0.90533875  0.27053986  1
  O2-  O269  1  0.76351271  0.90547505  0.76846791  1
  O2-  O270  1  0.07277661  0.07444864  0.48674534  1
  O2-  O271  1  0.06974500  0.07438862  0.97793987  1
  O2-  O272  1  0.07106203  0.40601953  0.47985038  1
  O2-  O273  1  0.07228139  0.40826068  0.97580366  1
  O2-  O274  1  0.07376059  0.73859062  0.47994334  1
  O2-  O275  1  0.07391310  0.73893817  0.97991391  1
  O2-  O276  1  0.40507650  0.07324466  0.47981112  1
  O2-  O277  1  0.40659123  0.07016414  0.97711795  1
  O2-  O278  1  0.40483016  0.40581731  0.47849384  1
  O2-  O279  1  0.40412452  0.40541294  0.98055172  1
  O2-  O280  1  0.40146036  0.73407716  0.48316491  1
  O2-  O281  1  0.40545061  0.73742655  0.97902040  1
  O2-  O282  1  0.73754920  0.07148516  0.48551682  1
  O2-  O283  1  0.73526128  0.06917431  0.97704194  1
  O2-  O284  1  0.73706822  0.40450641  0.47907373  1
  O2-  O285  1  0.73819269  0.40094314  0.98018346  1
  O2-  O286  1  0.74055680  0.74213421  0.47954788  1
  O2-  O287  1  0.73761216  0.74033636  0.98012261  1
  O2-  O288  1  0.09299026  0.23857903  0.47853285  1
  O2-  O289  1  0.09351019  0.23709925  0.97774935  1
  O2-  O290  1  0.09440734  0.57555605  0.47637646  1
  O2-  O291  1  0.09610605  0.57354928  0.97860038  1
  O2-  O292  1  0.09868459  0.90418754  0.48266644  1
  O2-  O293  1  0.09387018  0.90905014  0.97499992  1
  O2-  O294  1  0.42487360  0.24013295  0.47738416  1
  O2-  O295  1  0.42907476  0.23919609  0.97728152  1
  O2-  O296  1  0.43023021  0.56966425  0.47861643  1
  O2-  O297  1  0.43124341  0.57022223  0.98385582  1
  O2-  O298  1  0.42830104  0.90148708  0.48034010  1
  O2-  O299  1  0.43059819  0.90474199  0.98049190  1
  O2-  O300  1  0.76420564  0.23662249  0.47779276  1
  O2-  O301  1  0.76509757  0.23491197  0.98108874  1
  O2-  O302  1  0.76200779  0.56876326  0.48251944  1
  O2-  O303  1  0.76155422  0.57203269  0.97965025  1
  O2-  O304  1  0.76014059  0.90750420  0.47911603  1
  O2-  O305  1  0.76430912  0.90280031  0.98272638  1
  O2-  O306  1  0.07232135  0.07468738  0.26340726  1
  O2-  O307  1  0.07026536  0.07335531  0.77208579  1
  O2-  O308  1  0.07274251  0.40740269  0.27340759  1
  O2-  O309  1  0.07212198  0.40612801  0.77081831  1
  O2-  O310  1  0.07505274  0.73722846  0.26938836  1
  O2-  O311  1  0.07220136  0.73983234  0.77103379  1
  O2-  O312  1  0.40657564  0.07096672  0.27184063  1
  O2-  O313  1  0.40561765  0.07020848  0.77117999  1
  O2-  O314  1  0.40068135  0.40318904  0.26598916  1
  O2-  O315  1  0.40846669  0.40661366  0.77397108  1
  O2-  O316  1  0.40091072  0.73552401  0.26746219  1
  O2-  O317  1  0.40503035  0.73758494  0.77169761  1
  O2-  O318  1  0.73708954  0.07241490  0.27023599  1
  O2-  O319  1  0.73566234  0.06844824  0.76754464  1
  O2-  O320  1  0.73869178  0.40456893  0.26866469  1
  O2-  O321  1  0.73613390  0.40152636  0.77246157  1
  O2-  O322  1  0.74289474  0.74317729  0.26792091  1
  O2-  O323  1  0.73830183  0.73798214  0.77155830  1
  O2-  O324  1  0.24122245  0.09319533  0.22649416  1
  O2-  O325  1  0.23613326  0.09237464  0.72966625  1
  O2-  O326  1  0.23701736  0.42759840  0.22802206  1
  O2-  O327  1  0.24222101  0.42802221  0.73948751  1
  O2-  O328  1  0.24009223  0.76010742  0.23203536  1
  O2-  O329  1  0.23817169  0.76080764  0.73044466  1
  O2-  O330  1  0.56995852  0.09737351  0.23334518  1
  O2-  O331  1  0.57378500  0.09401387  0.73395734  1
  O2-  O332  1  0.57433644  0.42533295  0.22492887  1
  O2-  O333  1  0.57064811  0.43217421  0.72908891  1
  O2-  O334  1  0.57612019  0.75759411  0.23307766  1
  O2-  O335  1  0.57053404  0.76021753  0.72920182  1
  O2-  O336  1  0.90476469  0.09624961  0.22613179  1
  O2-  O337  1  0.90580029  0.09316573  0.72729590  1
  O2-  O338  1  0.90172623  0.42945137  0.23101665  1
  O2-  O339  1  0.90036333  0.42561362  0.73076525  1
  O2-  O340  1  0.90737134  0.76154965  0.22991491  1
  O2-  O341  1  0.90544382  0.76333714  0.72717598  1
  O2-  O342  1  0.26026112  0.26048433  0.02192160  1
  O2-  O343  1  0.25836525  0.25787030  0.51843054  1
  O2-  O344  1  0.26087874  0.59262929  0.02340086  1
  O2-  O345  1  0.26301042  0.59459618  0.51717504  1
  O2-  O346  1  0.26367113  0.92883282  0.01648066  1
  O2-  O347  1  0.26375537  0.92685604  0.52168508  1
  O2-  O348  1  0.59707599  0.25786360  0.02266257  1
  O2-  O349  1  0.59910440  0.26362507  0.51275730  1
  O2-  O350  1  0.59383281  0.59636893  0.02093845  1
  O2-  O351  1  0.59547585  0.59500847  0.51974892  1
  O2-  O352  1  0.59730972  0.93101015  0.01927782  1
  O2-  O353  1  0.59649546  0.92621350  0.52318575  1
  O2-  O354  1  0.93267161  0.26653886  0.01861615  1
  O2-  O355  1  0.92897586  0.26157844  0.52152221  1
  O2-  O356  1  0.93017472  0.59516160  0.02160232  1
  O2-  O357  1  0.92780526  0.59597918  0.52059256  1
  O2-  O358  1  0.92554163  0.93136112  0.01963584  1
  O2-  O359  1  0.92686328  0.92932319  0.51982511  1
