# generated using pymatgen
data_Sr7Ca15Pr50Mn72O216
_symmetry_space_group_name_H-M   'P 1'
_cell_length_a   16.55574530
_cell_length_b   16.60263262
_cell_length_c   15.59016166
_cell_angle_alpha   89.99072850
_cell_angle_beta   89.99672963
_cell_angle_gamma   90.00098638
_symmetry_Int_Tables_number   1
_chemical_formula_structural   Sr7Ca15Pr50Mn72O216
_chemical_formula_sum   'Sr7 Ca15 Pr50 Mn72 O216'
_cell_volume   4285.25140997
_cell_formula_units_Z   1
loop_
 _symmetry_equiv_pos_site_id
 _symmetry_equiv_pos_as_xyz
  1  'x, y, z'
loop_
 _atom_type_symbol
 _atom_type_oxidation_number
  Sr2+  2.0
  Ca2+  2.0
  Pr3+  3.0
  Mn3.30+  3.3
  O2-  -2.0
loop_
 _atom_site_type_symbol
 _atom_site_label
 _atom_site_symmetry_multiplicity
 _atom_site_fract_x
 _atom_site_fract_y
 _atom_site_fract_z
 _atom_site_occupancy
  Sr2+  Sr0  1  0.66704703  0.99213227  0.87663419  1
  Sr2+  Sr1  1  0.16447714  0.49290409  0.37863488  1
  Sr2+  Sr2  1  -0.00096830  0.67646731  0.62484305  1
  Sr2+  Sr3  1  0.16661295  0.15685917  0.87547928  1
  Sr2+  Sr4  1  -0.00161969  0.67485181  0.12487292  1
  Sr2+  Sr5  1  0.83390649  0.49229226  0.37639248  1
  Sr2+  Sr6  1  0.49786917  0.82191065  0.37549578  1
  Ca2+  Ca7  1  0.32842138  0.67936508  0.62567693  1
  Ca2+  Ca8  1  0.16066319  0.14960570  0.37461715  1
  Ca2+  Ca9  1  0.50268341  0.51688182  0.62778163  1
  Ca2+  Ca10  1  0.83279444  0.48833110  0.87295198  1
  Ca2+  Ca11  1  0.66124494  0.01745412  0.12381213  1
  Ca2+  Ca12  1  0.16159891  0.81587246  0.87403697  1
  Ca2+  Ca13  1  0.50301147  0.51534301  0.12248515  1
  Ca2+  Ca14  1  0.49433406  0.48543725  0.87400286  1
  Ca2+  Ca15  1  0.49663622  0.15250127  0.87708249  1
  Ca2+  Ca16  1  -0.00121781  0.34830369  0.62587180  1
  Ca2+  Ca17  1  1.00331814  0.98443308  0.37485819  1
  Ca2+  Ca18  1  0.16907540  0.51826583  0.62641091  1
  Ca2+  Ca19  1  0.83910027  0.84684162  0.62598099  1
  Ca2+  Ca20  1  1.00383555  0.65321864  0.87236666  1
  Ca2+  Ca21  1  0.50530974  0.18027386  0.12207100  1
  Pr3+  Pr22  1  0.17132511  0.18014809  0.12552278  1
  Pr3+  Pr23  1  0.66652182  0.32214270  0.87473155  1
  Pr3+  Pr24  1  0.66259309  0.34951144  0.62494663  1
  Pr3+  Pr25  1  0.66939583  0.65079972  0.87403597  1
  Pr3+  Pr26  1  0.49896310  0.82250200  0.87456073  1
  Pr3+  Pr27  1  0.16908016  0.17872247  0.62458876  1
  Pr3+  Pr28  1  0.66774499  0.00994446  0.62602564  1
  Pr3+  Pr29  1  0.16805053  0.51350307  0.12403163  1
  Pr3+  Pr30  1  0.83007447  0.15366254  0.87499968  1
  Pr3+  Pr31  1  0.33249387  0.01433381  0.12660754  1
  Pr3+  Pr32  1  0.33621644  0.65427420  0.37781202  1
  Pr3+  Pr33  1  1.00154256  0.32105171  0.87281315  1
  Pr3+  Pr34  1  0.16315227  0.82051869  0.37508808  1
  Pr3+  Pr35  1  1.00288070  0.65159183  0.37671452  1
  Pr3+  Pr36  1  0.33625208  0.65238772  0.87234798  1
  Pr3+  Pr37  1  0.33371344  0.34672507  0.12374538  1
  Pr3+  Pr38  1  0.50528960  0.84776926  0.12495614  1
  Pr3+  Pr39  1  0.66373157  0.67677123  0.12394264  1
  Pr3+  Pr40  1  -0.00170617  0.01174186  0.12576343  1
  Pr3+  Pr41  1  0.33547684  0.98637761  0.37483761  1
  Pr3+  Pr42  1  0.16325396  0.49027007  0.87252085  1
  Pr3+  Pr43  1  0.83636049  0.84537654  0.12362036  1
  Pr3+  Pr44  1  0.33110328  0.67763709  0.12389898  1
  Pr3+  Pr45  1  0.33876720  0.31773855  0.87425971  1
  Pr3+  Pr46  1  0.32879007  0.34927412  0.62673279  1
  Pr3+  Pr47  1  0.66742625  0.65410311  0.37593288  1
  Pr3+  Pr48  1  0.67033306  0.98636029  0.37338464  1
  Pr3+  Pr49  1  -0.00258758  0.00813373  0.62403133  1
  Pr3+  Pr50  1  0.49900508  0.84309614  0.62524366  1
  Pr3+  Pr51  1  0.83299448  0.17833769  0.12355478  1
  Pr3+  Pr52  1  0.83088547  0.82006438  0.87295005  1
  Pr3+  Pr53  1  0.32906705  0.01199701  0.62351230  1
  Pr3+  Pr54  1  0.33741974  0.98968206  0.87527883  1
  Pr3+  Pr55  1  1.00597708  0.32135111  0.37677904  1
  Pr3+  Pr56  1  0.50217048  0.17868010  0.62723163  1
  Pr3+  Pr57  1  0.83211389  0.15402615  0.37495568  1
  Pr3+  Pr58  1  -0.00181679  0.34454800  0.12282718  1
  Pr3+  Pr59  1  0.49795773  0.15486079  0.37410638  1
  Pr3+  Pr60  1  0.66028009  0.34869102  0.12502100  1
  Pr3+  Pr61  1  1.00532949  0.98482839  0.87553745  1
  Pr3+  Pr62  1  0.67126583  0.32232570  0.37519093  1
  Pr3+  Pr63  1  0.83760294  0.51111246  0.62649687  1
  Pr3+  Pr64  1  0.16884936  0.84532383  0.12301860  1
  Pr3+  Pr65  1  0.66587182  0.67859441  0.62591066  1
  Pr3+  Pr66  1  0.33249589  0.32272195  0.37636695  1
  Pr3+  Pr67  1  0.83233557  0.82060091  0.37701458  1
  Pr3+  Pr68  1  0.16931728  0.84196887  0.62699691  1
  Pr3+  Pr69  1  0.83561804  0.51192130  0.12351844  1
  Pr3+  Pr70  1  0.49455668  0.48941628  0.37596705  1
  Pr3+  Pr71  1  0.83947955  0.18132668  0.62591311  1
  Mn3.30+  Mn72  1  0.16807062  -0.00044147  -0.00099107  1
  Mn3.30+  Mn73  1  0.16370609  -0.00017172  0.49825761  1
  Mn3.30+  Mn74  1  0.16725805  0.33419754  -0.00145613  1
  Mn3.30+  Mn75  1  0.16553881  0.33472803  0.50218634  1
  Mn3.30+  Mn76  1  0.16507442  0.66754082  -0.00246725  1
  Mn3.30+  Mn77  1  0.16750897  0.66650924  0.50317030  1
  Mn3.30+  Mn78  1  0.50214059  0.00235160  0.00047998  1
  Mn3.30+  Mn79  1  0.49992938  -0.00033657  0.50019155  1
  Mn3.30+  Mn80  1  0.50016603  0.33367509  -0.00014400  1
  Mn3.30+  Mn81  1  0.49943898  0.33544302  0.50144233  1
  Mn3.30+  Mn82  1  0.49966291  0.66483445  -0.00208485  1
  Mn3.30+  Mn83  1  0.49830870  0.66627887  0.50373536  1
  Mn3.30+  Mn84  1  0.83186678  -0.00027774  0.00149298  1
  Mn3.30+  Mn85  1  0.83581680  -0.00086491  0.49853589  1
  Mn3.30+  Mn86  1  0.83136557  0.33441689  -0.00150473  1
  Mn3.30+  Mn87  1  0.83588140  0.33452465  0.50058391  1
  Mn3.30+  Mn88  1  0.83467472  0.66439944  -0.00346317  1
  Mn3.30+  Mn89  1  0.83398573  0.66701642  0.50214985  1
  Mn3.30+  Mn90  1  0.00156149  0.16567782  0.25075594  1
  Mn3.30+  Mn91  1  0.00143346  0.16621880  0.74958825  1
  Mn3.30+  Mn92  1  0.00008581  0.49838047  0.24996603  1
  Mn3.30+  Mn93  1  -0.00002503  0.50075823  0.74981141  1
  Mn3.30+  Mn94  1  -0.00036424  0.83288788  0.24943643  1
  Mn3.30+  Mn95  1  0.00028548  0.83050039  0.75065594  1
  Mn3.30+  Mn96  1  0.33315039  0.16813464  0.25154619  1
  Mn3.30+  Mn97  1  0.33487801  0.16594277  0.75029091  1
  Mn3.30+  Mn98  1  0.33399442  0.49996000  0.24941792  1
  Mn3.30+  Mn99  1  0.33388390  0.50157964  0.74772621  1
  Mn3.30+  Mn100  1  0.33443051  0.83306526  0.24873631  1
  Mn3.30+  Mn101  1  0.33111725  0.83239532  0.75252231  1
  Mn3.30+  Mn102  1  0.66492350  0.16670784  0.24878404  1
  Mn3.30+  Mn103  1  0.66677017  0.16700311  0.75050033  1
  Mn3.30+  Mn104  1  0.66404508  0.50061928  0.24941319  1
  Mn3.30+  Mn105  1  0.66484005  0.49978851  0.75157447  1
  Mn3.30+  Mn106  1  0.66735317  0.83369523  0.24963988  1
  Mn3.30+  Mn107  1  0.66843370  0.83372319  0.74904810  1
  Mn3.30+  Mn108  1  0.16491913  0.00056661  0.25081355  1
  Mn3.30+  Mn109  1  0.16637752  -0.00149998  0.75168339  1
  Mn3.30+  Mn110  1  0.16715036  0.33373454  0.25146746  1
  Mn3.30+  Mn111  1  0.16564694  0.33504228  0.74825694  1
  Mn3.30+  Mn112  1  0.16631107  0.66679713  0.24912401  1
  Mn3.30+  Mn113  1  0.16658088  0.66737133  0.75023801  1
  Mn3.30+  Mn114  1  0.50181612  0.00167947  0.24891077  1
  Mn3.30+  Mn115  1  0.50013872  0.00042208  0.75014406  1
  Mn3.30+  Mn116  1  0.50008193  0.33402996  0.25003818  1
  Mn3.30+  Mn117  1  0.49950431  0.33534827  0.74968599  1
  Mn3.30+  Mn118  1  0.49926498  0.66633537  0.24938879  1
  Mn3.30+  Mn119  1  0.49863149  0.66497380  0.74915126  1
  Mn3.30+  Mn120  1  0.83320855  -0.00012248  0.24912360  1
  Mn3.30+  Mn121  1  0.83446682  -0.00145970  0.75030142  1
  Mn3.30+  Mn122  1  0.83334049  0.33368708  0.25007944  1
  Mn3.30+  Mn123  1  0.83379300  0.33512673  0.75031331  1
  Mn3.30+  Mn124  1  0.83257717  0.66598783  0.24965107  1
  Mn3.30+  Mn125  1  0.83604828  0.66583414  0.75122971  1
  Mn3.30+  Mn126  1  0.00084976  0.16594431  0.00007344  1
  Mn3.30+  Mn127  1  0.00264242  0.16578829  0.49930909  1
  Mn3.30+  Mn128  1  -0.00179664  0.50112065  -0.00373419  1
  Mn3.30+  Mn129  1  0.00178958  0.49804568  0.50375908  1
  Mn3.30+  Mn130  1  0.00134831  0.82985516  -0.00110721  1
  Mn3.30+  Mn131  1  -0.00108454  0.83328907  0.50021332  1
  Mn3.30+  Mn132  1  0.33767104  0.16680543  0.00171352  1
  Mn3.30+  Mn133  1  0.33120060  0.16760198  0.49756919  1
  Mn3.30+  Mn134  1  0.33576125  0.49967056  -0.00114025  1
  Mn3.30+  Mn135  1  0.33232681  0.50208253  0.50437981  1
  Mn3.30+  Mn136  1  0.33283868  0.83329006  -0.00164664  1
  Mn3.30+  Mn137  1  0.33259212  0.83195238  0.50086564  1
  Mn3.30+  Mn138  1  0.66383575  0.16679138  -0.00081975  1
  Mn3.30+  Mn139  1  0.66784239  0.16692289  0.50102541  1
  Mn3.30+  Mn140  1  0.66430771  0.49937142  -0.00292651  1
  Mn3.30+  Mn141  1  0.66429087  0.50110566  0.50169066  1
  Mn3.30+  Mn142  1  0.66755602  0.83442784  -0.00083294  1
  Mn3.30+  Mn143  1  0.66802428  0.83307617  0.50163380  1
  O2-  O144  1  0.02739553  0.16081970  0.12485820  1
  O2-  O145  1  0.02667276  0.15503880  0.62280437  1
  O2-  O146  1  0.02352386  0.49306414  0.12183211  1
  O2-  O147  1  0.02549355  0.49290476  0.62714457  1
  O2-  O148  1  0.02511137  0.83002248  0.12368742  1
  O2-  O149  1  0.02523626  0.83558751  0.62605547  1
  O2-  O150  1  0.36201798  0.16305102  0.12785944  1
  O2-  O151  1  0.35784633  0.16119792  0.62216808  1
  O2-  O152  1  0.36081125  0.49542697  0.12270013  1
  O2-  O153  1  0.36315639  0.49372713  0.62635095  1
  O2-  O154  1  0.35986192  0.82605033  0.12301628  1
  O2-  O155  1  0.35454835  0.82783444  0.62839453  1
  O2-  O156  1  0.68961826  0.16465188  0.12414717  1
  O2-  O157  1  0.69393907  0.16104804  0.62360581  1
  O2-  O158  1  0.69162886  0.49734274  0.12167511  1
  O2-  O159  1  0.69288812  0.49733604  0.62729606  1
  O2-  O160  1  0.69251378  0.82328535  0.12455752  1
  O2-  O161  1  0.69581190  0.82802109  0.62565920  1
  O2-  O162  1  0.14329062  0.32804249  0.12464871  1
  O2-  O163  1  0.14080078  0.32338204  0.62598016  1
  O2-  O164  1  0.14868686  0.66271223  0.12159379  1
  O2-  O165  1  0.14854856  0.67050596  0.62688479  1
  O2-  O166  1  0.14217893  0.99393876  0.12469963  1
  O2-  O167  1  0.14158178  0.99180361  0.62381376  1
  O2-  O168  1  0.47597962  0.32294246  0.12723021  1
  O2-  O169  1  0.47276127  0.32372377  0.62522583  1
  O2-  O170  1  0.47531769  0.66063781  0.12083712  1
  O2-  O171  1  0.47145643  0.66267573  0.62791428  1
  O2-  O172  1  0.47558181  0.99449096  0.12537176  1
  O2-  O173  1  0.47381904  0.99456987  0.62375305  1
  O2-  O174  1  0.80606242  0.32712686  0.12502516  1
  O2-  O175  1  0.80685205  0.32839010  0.62725500  1
  O2-  O176  1  0.80775857  0.66035514  0.12174092  1
  O2-  O177  1  0.80916325  0.65853419  0.62690627  1
  O2-  O178  1  0.80465587  0.99379243  0.12538761  1
  O2-  O179  1  0.81197803  0.99462294  0.62391379  1
  O2-  O180  1  0.30326130  0.17447780  0.37496566  1
  O2-  O181  1  0.31555428  0.16864126  0.87626553  1
  O2-  O182  1  0.31449238  0.50496176  0.37800808  1
  O2-  O183  1  0.30719446  0.50338999  0.87324664  1
  O2-  O184  1  0.30909828  0.83791421  0.37277547  1
  O2-  O185  1  0.30563157  0.84331521  0.87629708  1
  O2-  O186  1  0.64258992  0.17289324  0.37745716  1
  O2-  O187  1  0.63994964  0.17337076  0.87475002  1
  O2-  O188  1  0.63817105  0.50579076  0.37708483  1
  O2-  O189  1  0.63557595  0.50294456  0.87378879  1
  O2-  O190  1  0.64657600  0.83843662  0.37564945  1
  O2-  O191  1  0.64272361  0.83652558  0.87345451  1
  O2-  O192  1  0.97431731  0.17557058  0.37555750  1
  O2-  O193  1  0.97434065  0.17125262  0.87655720  1
  O2-  O194  1  0.98485683  0.50185862  0.37720535  1
  O2-  O195  1  0.97486352  0.50729038  0.87427480  1
  O2-  O196  1  0.97575198  0.83863574  0.37392354  1
  O2-  O197  1  0.97360671  0.84035277  0.87561747  1
  O2-  O198  1  0.19264019  0.00372724  0.37369817  1
  O2-  O199  1  0.19381773  0.00523354  0.87772474  1
  O2-  O200  1  0.18963778  0.34088145  0.37572506  1
  O2-  O201  1  0.19317129  0.34056320  0.87314025  1
  O2-  O202  1  0.19093281  0.67065630  0.37599730  1
  O2-  O203  1  0.19208226  0.66690465  0.87483337  1
  O2-  O204  1  0.52567462  0.00596509  0.37513351  1
  O2-  O205  1  0.51715428  0.00390594  0.87566747  1
  O2-  O206  1  0.52737258  0.34311966  0.37683600  1
  O2-  O207  1  0.52363637  0.34308839  0.87240920  1
  O2-  O208  1  0.52307256  0.66729079  0.37844180  1
  O2-  O209  1  0.52580147  0.67602685  0.87357915  1
  O2-  O210  1  0.86135541  0.00693508  0.37324511  1
  O2-  O211  1  0.86000714  0.00634260  0.87706515  1
  O2-  O212  1  0.85966689  0.33538305  0.37301870  1
  O2-  O213  1  0.85767639  0.33901504  0.87403180  1
  O2-  O214  1  0.85770456  0.67222576  0.37737020  1
  O2-  O215  1  0.86180780  0.67394850  0.87377580  1
  O2-  O216  1  0.24289075  0.09506034  0.02469324  1
  O2-  O217  1  0.23717550  0.09189468  0.52137014  1
  O2-  O218  1  0.23960697  0.42950765  0.02065271  1
  O2-  O219  1  0.23970961  0.42993272  0.52576616  1
  O2-  O220  1  0.24051207  0.76038226  0.01986190  1
  O2-  O221  1  0.23595655  0.76439774  0.51479671  1
  O2-  O222  1  0.57115853  0.09700845  0.01920799  1
  O2-  O223  1  0.57253666  0.09377433  0.52134741  1
  O2-  O224  1  0.56967943  0.42823036  0.02375311  1
  O2-  O225  1  0.56842728  0.43044207  0.52444689  1
  O2-  O226  1  0.57244375  0.76262122  0.01920700  1
  O2-  O227  1  0.57212370  0.75866927  0.52480238  1
  O2-  O228  1  0.90669013  0.09393901  0.02272438  1
  O2-  O229  1  0.90448386  0.09569786  0.52003984  1
  O2-  O230  1  0.90508692  0.42421991  0.02110624  1
  O2-  O231  1  0.90456087  0.42649807  0.52126337  1
  O2-  O232  1  0.90313073  0.76369372  0.01750951  1
  O2-  O233  1  0.90278828  0.76461199  0.51756695  1
  O2-  O234  1  0.26233155  0.26241717  0.22820207  1
  O2-  O235  1  0.26228599  0.26042581  0.73132159  1
  O2-  O236  1  0.26150192  0.59362262  0.22981653  1
  O2-  O237  1  0.26567116  0.59745155  0.73209506  1
  O2-  O238  1  0.26081317  0.92811097  0.22932478  1
  O2-  O239  1  0.26153289  0.92845902  0.72854207  1
  O2-  O240  1  0.59621744  0.26613642  0.23574219  1
  O2-  O241  1  0.59491485  0.26253798  0.72791249  1
  O2-  O242  1  0.59449607  0.59680910  0.23184503  1
  O2-  O243  1  0.59762369  0.59684652  0.73153743  1
  O2-  O244  1  0.59830623  0.92882971  0.22901343  1
  O2-  O245  1  0.59166606  0.92567394  0.72613445  1
  O2-  O246  1  0.92864574  0.25891851  0.22684006  1
  O2-  O247  1  0.92712017  0.26179354  0.72964149  1
  O2-  O248  1  0.92208581  0.59061928  0.23502425  1
  O2-  O249  1  0.92524891  0.59055677  0.72896076  1
  O2-  O250  1  0.92615862  0.92667692  0.22612966  1
  O2-  O251  1  0.93156505  0.93024886  0.73517408  1
  O2-  O252  1  0.09867327  0.23795985  0.27045885  1
  O2-  O253  1  0.09131909  0.23926447  0.76841162  1
  O2-  O254  1  0.09221893  0.57440868  0.26347512  1
  O2-  O255  1  0.09607032  0.57226744  0.76694574  1
  O2-  O256  1  0.09731719  0.90397935  0.26654836  1
  O2-  O257  1  0.09659209  0.90305154  0.77275909  1
  O2-  O258  1  0.42711429  0.24285120  0.27774991  1
  O2-  O259  1  0.43163798  0.23745091  0.76958419  1
  O2-  O260  1  0.42677491  0.57350207  0.27042277  1
  O2-  O261  1  0.42869624  0.57173327  0.77453678  1
  O2-  O262  1  0.42604754  0.90861801  0.26604910  1
  O2-  O263  1  0.42593474  0.90439950  0.76948102  1
  O2-  O264  1  0.76218609  0.23870274  0.27017600  1
  O2-  O265  1  0.76171253  0.23960528  0.77097032  1
  O2-  O266  1  0.75612529  0.57465609  0.26738274  1
  O2-  O267  1  0.76050136  0.57057051  0.77320412  1
  O2-  O268  1  0.76418333  0.90613548  0.27189108  1
  O2-  O269  1  0.76379517  0.90707220  0.76827755  1
  O2-  O270  1  0.06860455  0.06764633  0.47868269  1
  O2-  O271  1  0.06986744  0.07003046  0.98354688  1
  O2-  O272  1  0.07071505  0.40083081  0.48490911  1
  O2-  O273  1  0.06985454  0.40744959  0.97754595  1
  O2-  O274  1  0.07134225  0.74095588  0.47779130  1
  O2-  O275  1  0.07078298  0.73651486  0.97710945  1
  O2-  O276  1  0.40438472  0.07429672  0.47712972  1
  O2-  O277  1  0.40347110  0.06886193  0.98505615  1
  O2-  O278  1  0.40394463  0.40444958  0.48068785  1
  O2-  O279  1  0.40161042  0.40102504  0.98233778  1
  O2-  O280  1  0.40429553  0.73796126  0.48347179  1
  O2-  O281  1  0.40431186  0.73934572  0.97738052  1
  O2-  O282  1  0.74079762  0.07068939  0.47901064  1
  O2-  O283  1  0.74230560  0.07827815  0.98162021  1
  O2-  O284  1  0.73258981  0.40615385  0.48424223  1
  O2-  O285  1  0.73281004  0.40502395  0.98130930  1
  O2-  O286  1  0.73777563  0.73950182  0.48011628  1
  O2-  O287  1  0.73995057  0.73569788  0.97784926  1
  O2-  O288  1  0.09726880  0.23380641  0.47864907  1
  O2-  O289  1  0.09062297  0.24153051  0.98257539  1
  O2-  O290  1  0.09150898  0.57752396  0.48645763  1
  O2-  O291  1  0.09695513  0.57011403  0.98303715  1
  O2-  O292  1  0.09604492  0.90339897  0.48019670  1
  O2-  O293  1  0.09529192  0.90168928  0.97955817  1
  O2-  O294  1  0.42896915  0.24061433  0.47786166  1
  O2-  O295  1  0.43054791  0.23875722  0.97750477  1
  O2-  O296  1  0.42737845  0.57294228  0.48035146  1
  O2-  O297  1  0.42673279  0.57112742  0.97454062  1
  O2-  O298  1  0.42445775  0.90793925  0.48343220  1
  O2-  O299  1  0.42840957  0.90430860  0.98114404  1
  O2-  O300  1  0.76345512  0.23983875  0.48002842  1
  O2-  O301  1  0.76070168  0.23991894  0.97816879  1
  O2-  O302  1  0.75539012  0.57598334  0.48257970  1
  O2-  O303  1  0.76036469  0.56922998  0.97535710  1
  O2-  O304  1  0.76187532  0.90899310  0.47740546  1
  O2-  O305  1  0.76391122  0.90222883  0.98218720  1
  O2-  O306  1  0.06881994  0.06809662  0.26866221  1
  O2-  O307  1  0.07175428  0.06732214  0.76783715  1
  O2-  O308  1  0.07050005  0.40015608  0.26353806  1
  O2-  O309  1  0.07112478  0.40780714  0.77400156  1
  O2-  O310  1  0.07296544  0.73961493  0.27275986  1
  O2-  O311  1  0.07013208  0.73801135  0.77093690  1
  O2-  O312  1  0.40310440  0.07443480  0.27355971  1
  O2-  O313  1  0.40411177  0.07015338  0.76435188  1
  O2-  O314  1  0.40488404  0.40445344  0.27057186  1
  O2-  O315  1  0.40067210  0.40230076  0.76749690  1
  O2-  O316  1  0.40338686  0.73528900  0.26605828  1
  O2-  O317  1  0.40613684  0.74208636  0.77421936  1
  O2-  O318  1  0.73973052  0.07272437  0.27195672  1
  O2-  O319  1  0.74313693  0.07413222  0.76710260  1
  O2-  O320  1  0.73409686  0.40478094  0.26643664  1
  O2-  O321  1  0.73490142  0.40404194  0.76765291  1
  O2-  O322  1  0.73865705  0.73850744  0.27061047  1
  O2-  O323  1  0.73922474  0.73643420  0.77086088  1
  O2-  O324  1  0.23824717  0.09328192  0.22764776  1
  O2-  O325  1  0.23902924  0.09208393  0.72726995  1
  O2-  O326  1  0.24024529  0.42637748  0.22680361  1
  O2-  O327  1  0.23769662  0.43141293  0.72642442  1
  O2-  O328  1  0.23887416  0.76146015  0.22918273  1
  O2-  O329  1  0.23752904  0.76285173  0.73598450  1
  O2-  O330  1  0.56934404  0.09952253  0.23256699  1
  O2-  O331  1  0.57567479  0.09267390  0.72651775  1
  O2-  O332  1  0.56879378  0.43082974  0.22747422  1
  O2-  O333  1  0.57094695  0.42800337  0.72464984  1
  O2-  O334  1  0.57174568  0.75968828  0.22828044  1
  O2-  O335  1  0.57161364  0.76035529  0.72796539  1
  O2-  O336  1  0.90262520  0.09382972  0.22699334  1
  O2-  O337  1  0.90636057  0.09478898  0.73028300  1
  O2-  O338  1  0.90532577  0.42410637  0.22610250  1
  O2-  O339  1  0.90449467  0.42752082  0.73190107  1
  O2-  O340  1  0.90212015  0.76157288  0.23308809  1
  O2-  O341  1  0.90233384  0.76579574  0.73175138  1
  O2-  O342  1  0.26468203  0.25975726  0.01977948  1
  O2-  O343  1  0.26110629  0.26360344  0.52132970  1
  O2-  O344  1  0.26274771  0.59352698  0.01817415  1
  O2-  O345  1  0.26438691  0.59761618  0.51946288  1
  O2-  O346  1  0.26375263  0.92758902  0.02398903  1
  O2-  O347  1  0.25977427  0.92776160  0.51843129  1
  O2-  O348  1  0.59747250  0.26526407  0.01687790  1
  O2-  O349  1  0.59330046  0.26287497  0.52099670  1
  O2-  O350  1  0.59812781  0.59637522  0.01633215  1
  O2-  O351  1  0.59420295  0.59635428  0.52151147  1
  O2-  O352  1  0.59325211  0.92944714  0.02300408  1
  O2-  O353  1  0.59618983  0.92588145  0.52160359  1
  O2-  O354  1  0.92675641  0.25799253  0.02016934  1
  O2-  O355  1  0.93305949  0.25884614  0.52318794  1
  O2-  O356  1  0.92317064  0.58955858  0.02092212  1
  O2-  O357  1  0.92407756  0.59025950  0.51605482  1
  O2-  O358  1  0.92906483  0.92743162  0.02082443  1
  O2-  O359  1  0.92867416  0.92800813  0.51739138  1
