# generated using pymatgen
data_Sr7Ca15Pr50Mn72O216
_symmetry_space_group_name_H-M   'P 1'
_cell_length_a   16.55921145
_cell_length_b   16.60476731
_cell_length_c   15.59324357
_cell_angle_alpha   90.00384508
_cell_angle_beta   89.99585659
_cell_angle_gamma   89.98101930
_symmetry_Int_Tables_number   1
_chemical_formula_structural   Sr7Ca15Pr50Mn72O216
_chemical_formula_sum   'Sr7 Ca15 Pr50 Mn72 O216'
_cell_volume   4287.54688830
_cell_formula_units_Z   1
loop_
 _symmetry_equiv_pos_site_id
 _symmetry_equiv_pos_as_xyz
  1  'x, y, z'
loop_
 _atom_type_symbol
 _atom_type_oxidation_number
  Sr2+  2.0
  Ca2+  2.0
  Pr3+  3.0
  Mn3.30+  3.3
  O2-  -2.0
loop_
 _atom_site_type_symbol
 _atom_site_label
 _atom_site_symmetry_multiplicity
 _atom_site_fract_x
 _atom_site_fract_y
 _atom_site_fract_z
 _atom_site_occupancy
  Sr2+  Sr0  1  0.16940656  0.17482867  0.12377774  1
  Sr2+  Sr1  1  0.84006660  0.17806738  0.12518483  1
  Sr2+  Sr2  1  0.50272470  0.17869368  0.62364245  1
  Sr2+  Sr3  1  0.16543698  0.50407624  0.12618934  1
  Sr2+  Sr4  1  0.33081972  0.01021876  0.12475776  1
  Sr2+  Sr5  1  1.00261723  0.32366652  0.37214769  1
  Sr2+  Sr6  1  0.00361807  0.67589711  0.62480913  1
  Ca2+  Ca7  1  0.33306712  0.65274426  0.37307509  1
  Ca2+  Ca8  1  0.49252693  0.81608514  0.37374868  1
  Ca2+  Ca9  1  0.66378280  0.34667310  0.62466436  1
  Ca2+  Ca10  1  0.32968592  0.34700501  0.12579730  1
  Ca2+  Ca11  1  0.16918200  0.84661767  0.62271663  1
  Ca2+  Ca12  1  0.83718794  0.18094498  0.62422478  1
  Ca2+  Ca13  1  0.16343566  0.81874595  0.37474256  1
  Ca2+  Ca14  1  0.50056115  0.51392182  0.12579543  1
  Ca2+  Ca15  1  0.17128926  0.51561775  0.62307132  1
  Ca2+  Ca16  1  0.00068746  0.34223989  0.12664550  1
  Ca2+  Ca17  1  0.49693387  0.15346649  0.37562531  1
  Ca2+  Ca18  1  -0.00225582  0.01530405  0.12628342  1
  Ca2+  Ca19  1  0.16477079  0.15080370  0.87680526  1
  Ca2+  Ca20  1  0.83788103  0.85137595  0.12631237  1
  Ca2+  Ca21  1  0.33396969  0.65068829  0.87747091  1
  Pr3+  Pr22  1  0.66687524  0.98920684  0.37501240  1
  Pr3+  Pr23  1  1.00428959  0.65509340  0.37555402  1
  Pr3+  Pr24  1  0.33717493  0.31942513  0.37238055  1
  Pr3+  Pr25  1  0.83221705  0.15267238  0.87555463  1
  Pr3+  Pr26  1  0.32958906  0.01236780  0.62456944  1
  Pr3+  Pr27  1  0.83399384  0.15495302  0.37457296  1
  Pr3+  Pr28  1  0.32436068  0.68045426  0.62404066  1
  Pr3+  Pr29  1  0.32963768  0.34991511  0.62441656  1
  Pr3+  Pr30  1  0.49496773  0.48823885  0.37344722  1
  Pr3+  Pr31  1  0.49433536  0.48744984  0.87628182  1
  Pr3+  Pr32  1  0.66236839  0.67953459  0.12599091  1
  Pr3+  Pr33  1  0.17168081  0.17946055  0.62651773  1
  Pr3+  Pr34  1  0.66658439  0.65344264  0.37524100  1
  Pr3+  Pr35  1  0.50183897  0.17839343  0.12687469  1
  Pr3+  Pr36  1  0.84023093  0.50766184  0.12581147  1
  Pr3+  Pr37  1  0.83191480  0.48616719  0.37682149  1
  Pr3+  Pr38  1  0.83177268  0.48595738  0.87273353  1
  Pr3+  Pr39  1  0.83498635  0.51207832  0.62439687  1
  Pr3+  Pr40  1  1.00545921  0.98684097  0.37192586  1
  Pr3+  Pr41  1  0.66536182  0.01353377  0.12617186  1
  Pr3+  Pr42  1  0.50025128  0.84681801  0.12804091  1
  Pr3+  Pr43  1  0.16650712  0.48767340  0.37433058  1
  Pr3+  Pr44  1  -0.00128248  0.34534623  0.62369697  1
  Pr3+  Pr45  1  0.16661021  0.48874286  0.87583982  1
  Pr3+  Pr46  1  1.00259387  0.65384796  0.87448942  1
  Pr3+  Pr47  1  0.83087883  0.82134258  0.37359774  1
  Pr3+  Pr48  1  0.67000235  0.31995595  0.87267215  1
  Pr3+  Pr49  1  -0.00410210  0.68032493  0.12534653  1
  Pr3+  Pr50  1  0.50107540  0.51229352  0.62460314  1
  Pr3+  Pr51  1  0.66945588  0.32046951  0.37741818  1
  Pr3+  Pr52  1  1.00624268  0.31708953  0.87681707  1
  Pr3+  Pr53  1  0.66787996  0.65274833  0.87467134  1
  Pr3+  Pr54  1  0.66433279  0.34775423  0.12524547  1
  Pr3+  Pr55  1  0.83068326  0.82145915  0.87637153  1
  Pr3+  Pr56  1  0.49924636  0.15417712  0.87381582  1
  Pr3+  Pr57  1  0.66415877  0.01364105  0.62442139  1
  Pr3+  Pr58  1  0.67057454  0.98765951  0.87550908  1
  Pr3+  Pr59  1  0.66131763  0.67950944  0.62448697  1
  Pr3+  Pr60  1  0.32943538  0.67485056  0.12595904  1
  Pr3+  Pr61  1  0.33652761  0.98671784  0.37326179  1
  Pr3+  Pr62  1  0.49274186  0.81862454  0.87618863  1
  Pr3+  Pr63  1  0.16866534  0.84681717  0.12713808  1
  Pr3+  Pr64  1  1.00388823  0.98951418  0.87822994  1
  Pr3+  Pr65  1  0.33517148  0.32066583  0.87745466  1
  Pr3+  Pr66  1  0.33132404  0.99047438  0.87668709  1
  Pr3+  Pr67  1  0.16356162  0.82094137  0.87605032  1
  Pr3+  Pr68  1  -0.00161670  0.01245757  0.62415871  1
  Pr3+  Pr69  1  0.83709516  0.84404683  0.62375555  1
  Pr3+  Pr70  1  0.50042947  0.84604194  0.62200507  1
  Pr3+  Pr71  1  0.16385511  0.15541766  0.37380325  1
  Mn3.30+  Mn72  1  0.16579948  0.00117882  0.00158901  1
  Mn3.30+  Mn73  1  0.16708061  -0.00259378  0.49950771  1
  Mn3.30+  Mn74  1  0.16880115  0.33112333  0.00180524  1
  Mn3.30+  Mn75  1  0.16702165  0.33434260  0.49999450  1
  Mn3.30+  Mn76  1  0.16651026  0.66482852  0.00107988  1
  Mn3.30+  Mn77  1  0.16845815  0.66877193  0.49853652  1
  Mn3.30+  Mn78  1  0.50024063  0.00031568  0.00063787  1
  Mn3.30+  Mn79  1  0.49918172  0.00025800  0.49815107  1
  Mn3.30+  Mn80  1  0.49940754  0.33468434  0.00267968  1
  Mn3.30+  Mn81  1  0.50132960  0.33206571  0.50034845  1
  Mn3.30+  Mn82  1  0.49754265  0.66526163  0.00111478  1
  Mn3.30+  Mn83  1  0.49498255  0.66775647  0.49844756  1
  Mn3.30+  Mn84  1  0.83617494  -0.00039556  0.00226937  1
  Mn3.30+  Mn85  1  0.83420358  0.00080382  0.49952743  1
  Mn3.30+  Mn86  1  0.83608066  0.33256243  -0.00008763  1
  Mn3.30+  Mn87  1  0.83244167  0.33110425  0.50264197  1
  Mn3.30+  Mn88  1  0.83217131  0.66701112  0.00098149  1
  Mn3.30+  Mn89  1  0.83370382  0.66724235  0.49973962  1
  Mn3.30+  Mn90  1  0.00100482  0.16748023  0.24839251  1
  Mn3.30+  Mn91  1  0.00107872  0.16582026  0.74960231  1
  Mn3.30+  Mn92  1  0.00143008  0.49852567  0.24995954  1
  Mn3.30+  Mn93  1  0.00195966  0.49988272  0.74801996  1
  Mn3.30+  Mn94  1  -0.00058332  0.83428541  0.24935342  1
  Mn3.30+  Mn95  1  0.00095078  0.83362939  0.74840710  1
  Mn3.30+  Mn96  1  0.33438329  0.16648760  0.24889968  1
  Mn3.30+  Mn97  1  0.33282845  0.16730826  0.75098560  1
  Mn3.30+  Mn98  1  0.33374299  0.49917918  0.24775884  1
  Mn3.30+  Mn99  1  0.33185274  0.50190855  0.75092695  1
  Mn3.30+  Mn100  1  0.33189463  0.83064363  0.25283432  1
  Mn3.30+  Mn101  1  0.33092280  0.83267709  0.74996493  1
  Mn3.30+  Mn102  1  0.66686220  0.16773658  0.25135154  1
  Mn3.30+  Mn103  1  0.66859880  0.16826127  0.74647740  1
  Mn3.30+  Mn104  1  0.66535138  0.50028414  0.24907924  1
  Mn3.30+  Mn105  1  0.66493313  0.49846865  0.74933390  1
  Mn3.30+  Mn106  1  0.66553348  0.83365448  0.25080230  1
  Mn3.30+  Mn107  1  0.66509446  0.83331090  0.75007227  1
  Mn3.30+  Mn108  1  0.16779578  -0.00053916  0.24976208  1
  Mn3.30+  Mn109  1  0.16531251  -0.00131543  0.74940081  1
  Mn3.30+  Mn110  1  0.16872954  0.33180232  0.24687387  1
  Mn3.30+  Mn111  1  0.16705698  0.33401601  0.75056011  1
  Mn3.30+  Mn112  1  0.16686635  0.66632062  0.25046839  1
  Mn3.30+  Mn113  1  0.16822211  0.66724852  0.75044550  1
  Mn3.30+  Mn114  1  0.49929332  0.00096780  0.25154985  1
  Mn3.30+  Mn115  1  0.50003255  -0.00064315  0.75016985  1
  Mn3.30+  Mn116  1  0.49932017  0.33365513  0.24856632  1
  Mn3.30+  Mn117  1  0.50158000  0.33328691  0.74897605  1
  Mn3.30+  Mn118  1  0.49679953  0.66648096  0.25057639  1
  Mn3.30+  Mn119  1  0.49551025  0.66692478  0.75013012  1
  Mn3.30+  Mn120  1  0.83589502  -0.00010835  0.24985694  1
  Mn3.30+  Mn121  1  0.83434001  0.00080039  0.74839664  1
  Mn3.30+  Mn122  1  0.83485504  0.33245001  0.25039361  1
  Mn3.30+  Mn123  1  0.83392470  0.33084999  0.74709483  1
  Mn3.30+  Mn124  1  0.83240876  0.66689368  0.24923994  1
  Mn3.30+  Mn125  1  0.83338500  0.66711180  0.74921281  1
  Mn3.30+  Mn126  1  0.00241809  0.16651011  0.00190081  1
  Mn3.30+  Mn127  1  0.00021973  0.16729051  0.50067014  1
  Mn3.30+  Mn128  1  0.00016162  0.49770419  -0.00022193  1
  Mn3.30+  Mn129  1  0.00259075  0.50047630  0.50154200  1
  Mn3.30+  Mn130  1  -0.00278591  0.83486658  0.00209287  1
  Mn3.30+  Mn131  1  0.00337999  0.83307224  0.50037053  1
  Mn3.30+  Mn132  1  0.33252709  0.16711554  0.00033423  1
  Mn3.30+  Mn133  1  0.33496318  0.16708969  0.49992581  1
  Mn3.30+  Mn134  1  0.33348452  0.49916429  0.00288408  1
  Mn3.30+  Mn135  1  0.33254695  0.50194742  0.49858096  1
  Mn3.30+  Mn136  1  0.33129108  0.83141760  0.00037149  1
  Mn3.30+  Mn137  1  0.33141164  0.83184221  0.49697274  1
  Mn3.30+  Mn138  1  0.66851627  0.16791982  0.00149966  1
  Mn3.30+  Mn139  1  0.66664657  0.16811516  0.50093062  1
  Mn3.30+  Mn140  1  0.66567362  0.49988736  0.00048570  1
  Mn3.30+  Mn141  1  0.66477862  0.49883173  0.50083272  1
  Mn3.30+  Mn142  1  0.66666568  0.83322475  0.00205851  1
  Mn3.30+  Mn143  1  0.66427305  0.83343517  0.49747244  1
  O2-  O144  1  0.01963516  0.15898378  0.12505850  1
  O2-  O145  1  0.02786370  0.16071804  0.62580100  1
  O2-  O146  1  0.01342367  0.49280014  0.12433021  1
  O2-  O147  1  0.02779293  0.49393702  0.62592658  1
  O2-  O148  1  0.02551665  0.82588896  0.12502475  1
  O2-  O149  1  0.02632087  0.83302067  0.62245478  1
  O2-  O150  1  0.35972254  0.16150951  0.12366552  1
  O2-  O151  1  0.35245689  0.16072460  0.62598844  1
  O2-  O152  1  0.35992178  0.49368104  0.12476213  1
  O2-  O153  1  0.35759292  0.49729619  0.62483004  1
  O2-  O154  1  0.35735541  0.82471971  0.12565400  1
  O2-  O155  1  0.35849922  0.82747439  0.62355616  1
  O2-  O156  1  0.68924432  0.16277655  0.12628871  1
  O2-  O157  1  0.69636182  0.15762923  0.62449454  1
  O2-  O158  1  0.69538936  0.49571609  0.12413373  1
  O2-  O159  1  0.69025917  0.49638166  0.62535667  1
  O2-  O160  1  0.69345573  0.82674292  0.12566899  1
  O2-  O161  1  0.69118315  0.82706951  0.62299382  1
  O2-  O162  1  0.14226455  0.33011240  0.12362769  1
  O2-  O163  1  0.14270247  0.32613758  0.62723936  1
  O2-  O164  1  0.13958846  0.66166268  0.12517758  1
  O2-  O165  1  0.15149715  0.65849981  0.62529119  1
  O2-  O166  1  0.14140532  0.99418670  0.12538726  1
  O2-  O167  1  0.14233705  0.99207372  0.62403611  1
  O2-  O168  1  0.47187586  0.32364539  0.12479933  1
  O2-  O169  1  0.47326771  0.33311682  0.62347143  1
  O2-  O170  1  0.47432506  0.66111603  0.12596169  1
  O2-  O171  1  0.47060264  0.66156271  0.62491816  1
  O2-  O172  1  0.48065477  0.99621420  0.12518101  1
  O2-  O173  1  0.47477640  0.99345683  0.62318915  1
  O2-  O174  1  0.80957855  0.33693498  0.12594964  1
  O2-  O175  1  0.80583160  0.32592614  0.62560032  1
  O2-  O176  1  0.80611583  0.65498940  0.12483801  1
  O2-  O177  1  0.80591828  0.66343165  0.62394083  1
  O2-  O178  1  0.80812138  0.99526407  0.12712683  1
  O2-  O179  1  0.80724616  0.99011092  0.62335317  1
  O2-  O180  1  0.30823589  0.17210524  0.37621846  1
  O2-  O181  1  0.30842487  0.17260019  0.87411732  1
  O2-  O182  1  0.31113562  0.50431432  0.37398277  1
  O2-  O183  1  0.31098147  0.50425154  0.87618741  1
  O2-  O184  1  0.30407461  0.84098479  0.37487276  1
  O2-  O185  1  0.30738943  0.84227836  0.87559684  1
  O2-  O186  1  0.63988187  0.17301218  0.37550629  1
  O2-  O187  1  0.64409393  0.17146206  0.87482025  1
  O2-  O188  1  0.63972883  0.50468633  0.37562967  1
  O2-  O189  1  0.63884152  0.50449902  0.87487937  1
  O2-  O190  1  0.63696590  0.83994831  0.37524488  1
  O2-  O191  1  0.63885604  0.83921715  0.87640024  1
  O2-  O192  1  0.97841948  0.16772042  0.37665270  1
  O2-  O193  1  0.97534612  0.16915242  0.87285423  1
  O2-  O194  1  0.97639034  0.50584825  0.37660670  1
  O2-  O195  1  0.97567120  0.50481010  0.87249536  1
  O2-  O196  1  0.97350905  0.83826692  0.37413255  1
  O2-  O197  1  0.97300491  0.84058403  0.87794066  1
  O2-  O198  1  0.19226089  0.00820143  0.37621461  1
  O2-  O199  1  0.18700536  0.00190769  0.87455355  1
  O2-  O200  1  0.19157556  0.33679887  0.37462310  1
  O2-  O201  1  0.19197488  0.34145889  0.87350588  1
  O2-  O202  1  0.19160079  0.67437316  0.37354138  1
  O2-  O203  1  0.19203594  0.67407788  0.87635275  1
  O2-  O204  1  0.52371404  0.00777037  0.37547671  1
  O2-  O205  1  0.52675529  0.00333396  0.87665682  1
  O2-  O206  1  0.52628597  0.34251643  0.37468182  1
  O2-  O207  1  0.52674912  0.34057401  0.87712796  1
  O2-  O208  1  0.52401861  0.67063761  0.37477166  1
  O2-  O209  1  0.52494505  0.67215269  0.87464784  1
  O2-  O210  1  0.86079097  0.00502798  0.37664101  1
  O2-  O211  1  0.85886308  0.00355915  0.87298304  1
  O2-  O212  1  0.85212305  0.33782809  0.37705124  1
  O2-  O213  1  0.86024776  0.33777989  0.87159830  1
  O2-  O214  1  0.85855911  0.67260727  0.37462060  1
  O2-  O215  1  0.85732130  0.67335401  0.87579903  1
  O2-  O216  1  0.24256030  0.09121967  0.01115081  1
  O2-  O217  1  0.23665637  0.09363529  0.52052013  1
  O2-  O218  1  0.24031773  0.42707142  0.01363190  1
  O2-  O219  1  0.23981141  0.43054321  0.51993394  1
  O2-  O220  1  0.23618377  0.75999230  0.02184219  1
  O2-  O221  1  0.23712887  0.76328404  0.52296768  1
  O2-  O222  1  0.57440108  0.09596007  0.01922662  1
  O2-  O223  1  0.57880252  0.09220947  0.51979390  1
  O2-  O224  1  0.57122565  0.42976984  0.02462010  1
  O2-  O225  1  0.56970442  0.42964797  0.51882911  1
  O2-  O226  1  0.56853517  0.76143765  0.02189306  1
  O2-  O227  1  0.56891750  0.75805129  0.52205067  1
  O2-  O228  1  0.90587744  0.09504132  0.01164440  1
  O2-  O229  1  0.90531097  0.09469222  0.52266352  1
  O2-  O230  1  0.90113196  0.43043463  0.01173561  1
  O2-  O231  1  0.90475395  0.42544192  0.52201059  1
  O2-  O232  1  0.90260615  0.76491328  0.02242956  1
  O2-  O233  1  0.90400643  0.76402227  0.51635697  1
  O2-  O234  1  0.26734800  0.26333468  0.23325413  1
  O2-  O235  1  0.26204305  0.26479450  0.72948970  1
  O2-  O236  1  0.26251890  0.59270951  0.23183112  1
  O2-  O237  1  0.26431950  0.59734066  0.73543533  1
  O2-  O238  1  0.25949632  0.92476826  0.23157249  1
  O2-  O239  1  0.26297634  0.92987910  0.73275415  1
  O2-  O240  1  0.59412670  0.26456964  0.22910230  1
  O2-  O241  1  0.60144335  0.26390861  0.73213195  1
  O2-  O242  1  0.59731795  0.59665453  0.23266714  1
  O2-  O243  1  0.59167650  0.59735067  0.72921518  1
  O2-  O244  1  0.59556921  0.92821713  0.22954500  1
  O2-  O245  1  0.59505801  0.92684528  0.72862177  1
  O2-  O246  1  0.92923593  0.26377080  0.23214663  1
  O2-  O247  1  0.93222389  0.26220010  0.73085856  1
  O2-  O248  1  0.92841742  0.59441198  0.23089184  1
  O2-  O249  1  0.92376771  0.59095519  0.73159649  1
  O2-  O250  1  0.93141211  0.93020753  0.23147220  1
  O2-  O251  1  0.92733794  0.92872270  0.72810199  1
  O2-  O252  1  0.09739161  0.23784751  0.26778488  1
  O2-  O253  1  0.09685631  0.23575680  0.77126025  1
  O2-  O254  1  0.09399205  0.57512345  0.27343935  1
  O2-  O255  1  0.09534177  0.57581939  0.77264546  1
  O2-  O256  1  0.09609600  0.90366704  0.27110360  1
  O2-  O257  1  0.09274676  0.90633113  0.77324659  1
  O2-  O258  1  0.43112081  0.23673520  0.27176051  1
  O2-  O259  1  0.43128207  0.24197248  0.77271483  1
  O2-  O260  1  0.42953333  0.57118413  0.26757410  1
  O2-  O261  1  0.43068605  0.56930551  0.76814523  1
  O2-  O262  1  0.42728654  0.90235055  0.26975184  1
  O2-  O263  1  0.42627299  0.90257713  0.76974656  1
  O2-  O264  1  0.75983312  0.24026491  0.27252743  1
  O2-  O265  1  0.76340233  0.23814037  0.77281167  1
  O2-  O266  1  0.76095462  0.57143827  0.27317059  1
  O2-  O267  1  0.75746787  0.57203926  0.76982518  1
  O2-  O268  1  0.76081670  0.90805510  0.27349027  1
  O2-  O269  1  0.76225297  0.90675337  0.77076090  1
  O2-  O270  1  0.07140002  0.07024294  0.48158624  1
  O2-  O271  1  0.07266085  0.07237039  0.98100387  1
  O2-  O272  1  0.07557602  0.40731393  0.48177369  1
  O2-  O273  1  0.07508006  0.40585693  0.97795219  1
  O2-  O274  1  0.07157400  0.73889251  0.47906466  1
  O2-  O275  1  0.06732733  0.74013694  0.98018074  1
  O2-  O276  1  0.40270911  0.06972836  0.48260706  1
  O2-  O277  1  0.40926036  0.07476786  0.97559031  1
  O2-  O278  1  0.40420858  0.40542732  0.48009917  1
  O2-  O279  1  0.40734269  0.40625359  0.97702896  1
  O2-  O280  1  0.39967821  0.73497025  0.47932603  1
  O2-  O281  1  0.40220882  0.73876428  0.97828937  1
  O2-  O282  1  0.74018919  0.07224219  0.47699088  1
  O2-  O283  1  0.74110626  0.07050325  0.98040438  1
  O2-  O284  1  0.73973343  0.40730431  0.48044070  1
  O2-  O285  1  0.73649195  0.40561147  0.97810602  1
  O2-  O286  1  0.73682912  0.74021863  0.47801519  1
  O2-  O287  1  0.73638534  0.73758423  0.97872214  1
  O2-  O288  1  0.09712297  0.23549570  0.48543625  1
  O2-  O289  1  0.09759154  0.23757145  0.97562497  1
  O2-  O290  1  0.09606559  0.57642244  0.47770585  1
  O2-  O291  1  0.09209313  0.57393004  0.97702368  1
  O2-  O292  1  0.09461212  0.90608242  0.47404812  1
  O2-  O293  1  0.09256445  0.90405057  0.98050814  1
  O2-  O294  1  0.43005185  0.24027197  0.47690403  1
  O2-  O295  1  0.43087052  0.23856376  0.97759386  1
  O2-  O296  1  0.43075848  0.56923270  0.48236663  1
  O2-  O297  1  0.42934975  0.57177366  0.98162809  1
  O2-  O298  1  0.42731867  0.90072041  0.47793735  1
  O2-  O299  1  0.42556375  0.90512776  0.98149305  1
  O2-  O300  1  0.76104199  0.23794316  0.47743839  1
  O2-  O301  1  0.76261633  0.24057140  0.97837519  1
  O2-  O302  1  0.75839443  0.57283374  0.47962009  1
  O2-  O303  1  0.76035165  0.57033835  0.97552213  1
  O2-  O304  1  0.76163119  0.90708431  0.47768168  1
  O2-  O305  1  0.76131998  0.90716701  0.97841982  1
  O2-  O306  1  0.07527423  0.07263475  0.27132878  1
  O2-  O307  1  0.06827830  0.06823380  0.76569468  1
  O2-  O308  1  0.07741690  0.41115779  0.26741692  1
  O2-  O309  1  0.07246985  0.40369066  0.77110722  1
  O2-  O310  1  0.06686668  0.73769386  0.26652479  1
  O2-  O311  1  0.07276789  0.73973608  0.77313844  1
  O2-  O312  1  0.40675710  0.07229824  0.27011301  1
  O2-  O313  1  0.40665099  0.07147457  0.77145224  1
  O2-  O314  1  0.40779145  0.40540762  0.27246326  1
  O2-  O315  1  0.40272505  0.40640171  0.76953190  1
  O2-  O316  1  0.40134933  0.73546899  0.26969711  1
  O2-  O317  1  0.40178174  0.73659607  0.77288742  1
  O2-  O318  1  0.74069187  0.07197239  0.27229602  1
  O2-  O319  1  0.73969824  0.07117107  0.77130606  1
  O2-  O320  1  0.73649802  0.40596347  0.27030892  1
  O2-  O321  1  0.74182491  0.40525770  0.77160996  1
  O2-  O322  1  0.73550624  0.73877506  0.27249494  1
  O2-  O323  1  0.73590540  0.74010935  0.77035098  1
  O2-  O324  1  0.24067898  0.09418528  0.23715649  1
  O2-  O325  1  0.23668992  0.09086823  0.73052652  1
  O2-  O326  1  0.24183152  0.42594678  0.23609590  1
  O2-  O327  1  0.23772628  0.43195222  0.72913694  1
  O2-  O328  1  0.23785775  0.75834127  0.22596736  1
  O2-  O329  1  0.23589021  0.76486928  0.72906318  1
  O2-  O330  1  0.57621134  0.09441815  0.22952819  1
  O2-  O331  1  0.57731701  0.09408109  0.73278096  1
  O2-  O332  1  0.57144242  0.42979529  0.22593154  1
  O2-  O333  1  0.56981222  0.42949276  0.73141739  1
  O2-  O334  1  0.56938970  0.75951738  0.22790916  1
  O2-  O335  1  0.56695922  0.76038045  0.72904391  1
  O2-  O336  1  0.90631921  0.09471608  0.23790646  1
  O2-  O337  1  0.90358670  0.09529945  0.72735106  1
  O2-  O338  1  0.90186366  0.42985354  0.23912030  1
  O2-  O339  1  0.90408163  0.42506507  0.72582274  1
  O2-  O340  1  0.90154581  0.76287178  0.22797629  1
  O2-  O341  1  0.90421311  0.76496001  0.73314757  1
  O2-  O342  1  0.26725549  0.26469243  0.01711694  1
  O2-  O343  1  0.26233645  0.26266358  0.52004207  1
  O2-  O344  1  0.26385003  0.59231960  0.01840839  1
  O2-  O345  1  0.26320514  0.59669643  0.51496269  1
  O2-  O346  1  0.25676760  0.92324516  0.01789731  1
  O2-  O347  1  0.26501236  0.92990007  0.51832096  1
  O2-  O348  1  0.59425109  0.26372185  0.02036100  1
  O2-  O349  1  0.59989290  0.26578721  0.51919467  1
  O2-  O350  1  0.59886838  0.59676663  0.01770127  1
  O2-  O351  1  0.59264917  0.59575294  0.52062096  1
  O2-  O352  1  0.59555309  0.92776199  0.02196076  1
  O2-  O353  1  0.59481727  0.92741885  0.52099079  1
  O2-  O354  1  0.93524371  0.26471545  0.01554524  1
  O2-  O355  1  0.92853181  0.26004279  0.52158592  1
  O2-  O356  1  0.92668452  0.59620298  0.01821594  1
  O2-  O357  1  0.92438336  0.59069612  0.51897864  1
  O2-  O358  1  0.93045447  0.93151057  0.02127290  1
  O2-  O359  1  0.92845474  0.92756221  0.51946540  1
