# generated using pymatgen
data_Sr7Ca15Pr50Mn72O216
_symmetry_space_group_name_H-M   'P 1'
_cell_length_a   16.55968839
_cell_length_b   16.60554533
_cell_length_c   15.59087396
_cell_angle_alpha   90.00214353
_cell_angle_beta   90.00248571
_cell_angle_gamma   89.98187778
_symmetry_Int_Tables_number   1
_chemical_formula_structural   Sr7Ca15Pr50Mn72O216
_chemical_formula_sum   'Sr7 Ca15 Pr50 Mn72 O216'
_cell_volume   4287.21971357
_cell_formula_units_Z   1
loop_
 _symmetry_equiv_pos_site_id
 _symmetry_equiv_pos_as_xyz
  1  'x, y, z'
loop_
 _atom_type_symbol
 _atom_type_oxidation_number
  Sr2+  2.0
  Ca2+  2.0
  Pr3+  3.0
  Mn3.30+  3.3
  O2-  -2.0
loop_
 _atom_site_type_symbol
 _atom_site_label
 _atom_site_symmetry_multiplicity
 _atom_site_fract_x
 _atom_site_fract_y
 _atom_site_fract_z
 _atom_site_occupancy
  Sr2+  Sr0  1  0.83499885  0.84338836  0.12474395  1
  Sr2+  Sr1  1  0.16563235  0.82399925  0.37628032  1
  Sr2+  Sr2  1  0.83431902  0.16982048  0.12336583  1
  Sr2+  Sr3  1  0.66711405  0.00833253  0.12557776  1
  Sr2+  Sr4  1  0.49719342  0.48824601  0.87581051  1
  Sr2+  Sr5  1  0.17146589  0.84610669  0.62385865  1
  Sr2+  Sr6  1  0.83113239  0.15614669  0.87647228  1
  Ca2+  Ca7  1  -0.00508898  0.68219621  0.12615451  1
  Ca2+  Ca8  1  0.83745907  0.51714385  0.12636599  1
  Ca2+  Ca9  1  0.66500414  0.68210903  0.12549020  1
  Ca2+  Ca10  1  0.33060686  0.68159746  0.12428253  1
  Ca2+  Ca11  1  0.33936196  0.98636287  0.87318141  1
  Ca2+  Ca12  1  0.49414623  0.14843431  0.87530149  1
  Ca2+  Ca13  1  0.66990672  0.98606138  0.37367947  1
  Ca2+  Ca14  1  -0.00679025  0.01243069  0.12619911  1
  Ca2+  Ca15  1  0.33189259  0.01171543  0.62657529  1
  Ca2+  Ca16  1  0.33215904  0.01270637  0.12271300  1
  Ca2+  Ca17  1  0.34082855  0.31517020  0.87567978  1
  Ca2+  Ca18  1  1.00085543  0.31896234  0.37292370  1
  Ca2+  Ca19  1  0.83059114  0.48493575  0.37099480  1
  Ca2+  Ca20  1  0.50377652  0.85300952  0.62593696  1
  Ca2+  Ca21  1  0.66111015  0.01347764  0.62626798  1
  Pr3+  Pr22  1  0.82856660  0.48726445  0.87817193  1
  Pr3+  Pr23  1  0.83029269  0.82286446  0.87740231  1
  Pr3+  Pr24  1  1.00146483  0.65631124  0.37161029  1
  Pr3+  Pr25  1  0.49655669  0.82420631  0.87515413  1
  Pr3+  Pr26  1  0.33611424  0.31841569  0.37364562  1
  Pr3+  Pr27  1  0.66875235  0.65494568  0.87866729  1
  Pr3+  Pr28  1  0.49890120  0.15053149  0.37490744  1
  Pr3+  Pr29  1  0.66657555  0.31858730  0.87495977  1
  Pr3+  Pr30  1  0.50448501  0.17605010  0.12227491  1
  Pr3+  Pr31  1  0.33209148  0.68053650  0.62591007  1
  Pr3+  Pr32  1  0.33416108  0.65725365  0.37307421  1
  Pr3+  Pr33  1  0.16804587  0.51680879  0.12535274  1
  Pr3+  Pr34  1  -0.00211012  0.34520547  0.62462356  1
  Pr3+  Pr35  1  0.16733082  0.82331088  0.87432603  1
  Pr3+  Pr36  1  0.67382038  0.65270925  0.37189503  1
  Pr3+  Pr37  1  0.50465374  0.51494819  0.12406039  1
  Pr3+  Pr38  1  0.83563392  0.51346962  0.62371396  1
  Pr3+  Pr39  1  0.49789424  0.48753652  0.37359489  1
  Pr3+  Pr40  1  0.16732878  0.17611041  0.12450123  1
  Pr3+  Pr41  1  0.66063411  0.68298810  0.62482952  1
  Pr3+  Pr42  1  0.16942664  0.84678579  0.12675112  1
  Pr3+  Pr43  1  0.16316291  0.15372369  0.37444987  1
  Pr3+  Pr44  1  0.32979381  0.34515755  0.62652207  1
  Pr3+  Pr45  1  0.33721630  0.65522120  0.87713186  1
  Pr3+  Pr46  1  -0.00180296  0.68141712  0.62477932  1
  Pr3+  Pr47  1  0.33021685  0.34466676  0.12279264  1
  Pr3+  Pr48  1  0.83002647  0.82314174  0.37243732  1
  Pr3+  Pr49  1  1.00165043  0.98978967  0.87870801  1
  Pr3+  Pr50  1  -0.00815729  0.34487794  0.12575722  1
  Pr3+  Pr51  1  1.00158302  0.31874479  0.87609401  1
  Pr3+  Pr52  1  0.33536393  0.98544934  0.37481213  1
  Pr3+  Pr53  1  0.66751742  0.34149907  0.12439742  1
  Pr3+  Pr54  1  0.16909149  0.51320667  0.62421484  1
  Pr3+  Pr55  1  1.00189347  0.65545996  0.87833220  1
  Pr3+  Pr56  1  0.83016344  0.15205018  0.37367538  1
  Pr3+  Pr57  1  1.00315471  0.98723180  0.37215425  1
  Pr3+  Pr58  1  0.16045561  0.48610692  0.37296468  1
  Pr3+  Pr59  1  0.83361285  0.17773676  0.62620017  1
  Pr3+  Pr60  1  0.17222516  0.17610902  0.62547453  1
  Pr3+  Pr61  1  0.50114856  0.17585386  0.62742164  1
  Pr3+  Pr62  1  0.83541333  0.84791448  0.62506781  1
  Pr3+  Pr63  1  0.00018284  0.01158862  0.62401404  1
  Pr3+  Pr64  1  0.50248035  0.51263702  0.62580136  1
  Pr3+  Pr65  1  0.16473084  0.48647291  0.87660426  1
  Pr3+  Pr66  1  0.66753694  0.99028719  0.87611805  1
  Pr3+  Pr67  1  0.16778323  0.15288565  0.87555011  1
  Pr3+  Pr68  1  0.67054761  0.32071695  0.37521264  1
  Pr3+  Pr69  1  0.49981763  0.82277145  0.37453497  1
  Pr3+  Pr70  1  0.66379348  0.34525827  0.62549148  1
  Pr3+  Pr71  1  0.50375895  0.84703494  0.12436019  1
  Mn3.30+  Mn72  1  0.16996234  -0.00051308  0.00101934  1
  Mn3.30+  Mn73  1  0.16855633  -0.00010178  0.50086610  1
  Mn3.30+  Mn74  1  0.16737554  0.33278336  -0.00023284  1
  Mn3.30+  Mn75  1  0.16497028  0.33268301  0.49856632  1
  Mn3.30+  Mn76  1  0.16697297  0.66859438  0.00220954  1
  Mn3.30+  Mn77  1  0.16676121  0.66718048  0.49850070  1
  Mn3.30+  Mn78  1  0.49718250  0.00091552  -0.00064732  1
  Mn3.30+  Mn79  1  0.50190870  -0.00137201  0.50179000  1
  Mn3.30+  Mn80  1  0.49753263  0.33193730  -0.00150754  1
  Mn3.30+  Mn81  1  0.49980290  0.33235788  0.50023812  1
  Mn3.30+  Mn82  1  0.49961568  0.66767491  0.00240579  1
  Mn3.30+  Mn83  1  0.50136403  0.66839511  0.49891004  1
  Mn3.30+  Mn84  1  0.83510347  -0.00020957  0.00078268  1
  Mn3.30+  Mn85  1  0.82973643  0.00017845  0.50110205  1
  Mn3.30+  Mn86  1  0.83220986  0.33247582  0.00175031  1
  Mn3.30+  Mn87  1  0.83441888  0.33380779  0.49767865  1
  Mn3.30+  Mn88  1  0.83445072  0.66670640  0.00376912  1
  Mn3.30+  Mn89  1  0.83241640  0.66644736  0.49917155  1
  Mn3.30+  Mn90  1  -0.00137601  0.16681708  0.25048267  1
  Mn3.30+  Mn91  1  0.00148846  0.16547554  0.75037408  1
  Mn3.30+  Mn92  1  -0.00416269  0.49979549  0.24967811  1
  Mn3.30+  Mn93  1  -0.00034490  0.50019969  0.75065189  1
  Mn3.30+  Mn94  1  0.00023383  0.83307801  0.24801423  1
  Mn3.30+  Mn95  1  0.00058405  0.83513260  0.75029958  1
  Mn3.30+  Mn96  1  0.33354341  0.16413728  0.24758523  1
  Mn3.30+  Mn97  1  0.33622052  0.16399661  0.75256297  1
  Mn3.30+  Mn98  1  0.33236802  0.50134376  0.24837169  1
  Mn3.30+  Mn99  1  0.33386170  0.49863771  0.75154575  1
  Mn3.30+  Mn100  1  0.33395018  0.83280300  0.24851254  1
  Mn3.30+  Mn101  1  0.33510591  0.83680718  0.74845644  1
  Mn3.30+  Mn102  1  0.66718981  0.16459675  0.24975763  1
  Mn3.30+  Mn103  1  0.66444920  0.16463354  0.75065192  1
  Mn3.30+  Mn104  1  0.67026952  0.50031352  0.24718727  1
  Mn3.30+  Mn105  1  0.66585012  0.50037328  0.75140591  1
  Mn3.30+  Mn106  1  0.66650293  0.83381130  0.24921698  1
  Mn3.30+  Mn107  1  0.66417682  0.83616406  0.74888738  1
  Mn3.30+  Mn108  1  0.16671518  -0.00014123  0.24677127  1
  Mn3.30+  Mn109  1  0.17146127  -0.00056650  0.75149333  1
  Mn3.30+  Mn110  1  0.16331613  0.33286358  0.24876915  1
  Mn3.30+  Mn111  1  0.16902781  0.33257223  0.75205627  1
  Mn3.30+  Mn112  1  0.16587146  0.66862472  0.24800130  1
  Mn3.30+  Mn113  1  0.16768290  0.66725686  0.75099234  1
  Mn3.30+  Mn114  1  0.50053623  -0.00044908  0.24990289  1
  Mn3.30+  Mn115  1  0.49863982  0.00014216  0.74862430  1
  Mn3.30+  Mn116  1  0.50014610  0.33278107  0.24901482  1
  Mn3.30+  Mn117  1  0.49726775  0.33163791  0.75209949  1
  Mn3.30+  Mn118  1  0.50182321  0.66735158  0.24864573  1
  Mn3.30+  Mn119  1  0.49959825  0.66876045  0.75004597  1
  Mn3.30+  Mn120  1  0.83415326  -0.00113878  0.24910863  1
  Mn3.30+  Mn121  1  0.83111084  0.00093235  0.74918203  1
  Mn3.30+  Mn122  1  0.83439973  0.33348860  0.25107958  1
  Mn3.30+  Mn123  1  0.83224310  0.33326400  0.75003405  1
  Mn3.30+  Mn124  1  0.83463119  0.66580009  0.24725349  1
  Mn3.30+  Mn125  1  0.83204084  0.66725855  0.75051507  1
  Mn3.30+  Mn126  1  0.00050147  0.16434713  -0.00008831  1
  Mn3.30+  Mn127  1  -0.00034124  0.16801275  0.49966635  1
  Mn3.30+  Mn128  1  -0.00236169  0.50097489  0.00232473  1
  Mn3.30+  Mn129  1  -0.00195169  0.49912967  0.49694427  1
  Mn3.30+  Mn130  1  0.00046626  0.83349804  0.00133818  1
  Mn3.30+  Mn131  1  0.00008142  0.83453870  0.50067586  1
  Mn3.30+  Mn132  1  0.33560952  0.16408838  -0.00060716  1
  Mn3.30+  Mn133  1  0.33409900  0.16412263  0.50028991  1
  Mn3.30+  Mn134  1  0.33376564  0.50009601  0.00126228  1
  Mn3.30+  Mn135  1  0.33266169  0.49996083  0.49807600  1
  Mn3.30+  Mn136  1  0.33312040  0.83532543  0.00175090  1
  Mn3.30+  Mn137  1  0.33595756  0.83450508  0.50161661  1
  Mn3.30+  Mn138  1  0.66517849  0.16517385  -0.00104994  1
  Mn3.30+  Mn139  1  0.66642724  0.16376257  0.50033554  1
  Mn3.30+  Mn140  1  0.66760415  0.50039999  0.00314641  1
  Mn3.30+  Mn141  1  0.66832465  0.50003872  0.49845028  1
  Mn3.30+  Mn142  1  0.66562894  0.83345855  0.00160219  1
  Mn3.30+  Mn143  1  0.66498584  0.83683419  0.50091363  1
  O2-  O144  1  0.02302097  0.16175119  0.12376967  1
  O2-  O145  1  0.02671746  0.16145445  0.62563997  1
  O2-  O146  1  0.02621829  0.48992940  0.12504938  1
  O2-  O147  1  0.02634688  0.49247143  0.62309892  1
  O2-  O148  1  0.02595817  0.82483452  0.12301758  1
  O2-  O149  1  0.02056720  0.82960808  0.62651322  1
  O2-  O150  1  0.36074746  0.15881670  0.12501988  1
  O2-  O151  1  0.35699977  0.15876004  0.62633902  1
  O2-  O152  1  0.35947056  0.49146303  0.12534921  1
  O2-  O153  1  0.35815564  0.49322266  0.62308762  1
  O2-  O154  1  0.36035144  0.82441174  0.12566576  1
  O2-  O155  1  0.36276121  0.82459649  0.62366477  1
  O2-  O156  1  0.68288925  0.16741136  0.12653348  1
  O2-  O157  1  0.69025006  0.16007081  0.62335140  1
  O2-  O158  1  0.69637768  0.48870524  0.12546057  1
  O2-  O159  1  0.69135606  0.49470867  0.62563872  1
  O2-  O160  1  0.68450390  0.82811640  0.12392781  1
  O2-  O161  1  0.69353385  0.82651234  0.62535067  1
  O2-  O162  1  0.13744175  0.32548742  0.12495774  1
  O2-  O163  1  0.14218254  0.32708466  0.62584013  1
  O2-  O164  1  0.13736717  0.66384903  0.12352612  1
  O2-  O165  1  0.14222782  0.66036999  0.62426715  1
  O2-  O166  1  0.13758083  0.99650336  0.12412198  1
  O2-  O167  1  0.14451243  1.00490959  0.62659986  1
  O2-  O168  1  0.47406575  0.32496923  0.12460065  1
  O2-  O169  1  0.47350322  0.32652834  0.62427132  1
  O2-  O170  1  0.47276222  0.66161973  0.12639382  1
  O2-  O171  1  0.47570596  0.65829450  0.62349603  1
  O2-  O172  1  0.47443328  0.99646565  0.12494124  1
  O2-  O173  1  0.47287696  0.99824226  0.62470978  1
  O2-  O174  1  0.81138501  0.32532588  0.12537885  1
  O2-  O175  1  0.80812542  0.32802004  0.62359249  1
  O2-  O176  1  0.80657712  0.66154286  0.12503315  1
  O2-  O177  1  0.80534932  0.66048930  0.62418907  1
  O2-  O178  1  0.81700550  1.00090579  0.12592135  1
  O2-  O179  1  0.80358821  0.99544007  0.62510808  1
  O2-  O180  1  0.30759998  0.17182025  0.37179875  1
  O2-  O181  1  0.30888721  0.17496250  0.87664833  1
  O2-  O182  1  0.30621612  0.50712497  0.37266654  1
  O2-  O183  1  0.30778398  0.50880786  0.87815696  1
  O2-  O184  1  0.31486130  0.83748371  0.37459587  1
  O2-  O185  1  0.31069178  0.84092570  0.87637764  1
  O2-  O186  1  0.64195256  0.17472093  0.37666512  1
  O2-  O187  1  0.63872056  0.17078842  0.87327162  1
  O2-  O188  1  0.64082058  0.50453254  0.37209854  1
  O2-  O189  1  0.64683243  0.50702193  0.87697572  1
  O2-  O190  1  0.64376970  0.83890710  0.37670099  1
  O2-  O191  1  0.64137888  0.83970249  0.87402670  1
  O2-  O192  1  0.97489450  0.17320054  0.37806908  1
  O2-  O193  1  0.98119669  0.17017912  0.87309507  1
  O2-  O194  1  0.97081691  0.51119739  0.37429278  1
  O2-  O195  1  0.97239632  0.50771156  0.87770470  1
  O2-  O196  1  0.97570201  0.83858301  0.37679251  1
  O2-  O197  1  0.97565447  0.84034949  0.87376469  1
  O2-  O198  1  0.19072782  0.00520214  0.37293063  1
  O2-  O199  1  0.19700050  0.00354171  0.87645411  1
  O2-  O200  1  0.19328964  0.33834179  0.37248509  1
  O2-  O201  1  0.19597803  0.34005088  0.87571505  1
  O2-  O202  1  0.18989925  0.66567148  0.37436408  1
  O2-  O203  1  0.19303420  0.67184298  0.87719348  1
  O2-  O204  1  0.52649526  0.00286400  0.37676253  1
  O2-  O205  1  0.52375714  0.00036029  0.87335278  1
  O2-  O206  1  0.52537003  0.33924600  0.37549350  1
  O2-  O207  1  0.52418101  0.33721599  0.87493323  1
  O2-  O208  1  0.52989711  0.67279269  0.37415112  1
  O2-  O209  1  0.52459021  0.67387071  0.87615412  1
  O2-  O210  1  0.85871730  0.00154227  0.37697439  1
  O2-  O211  1  0.85636964  -0.00272039  0.87276378  1
  O2-  O212  1  0.85940969  0.34008406  0.37655772  1
  O2-  O213  1  0.85716126  0.34004804  0.87579078  1
  O2-  O214  1  0.85746151  0.67539345  0.37537669  1
  O2-  O215  1  0.85771318  0.67217228  0.87604643  1
  O2-  O216  1  0.23786001  0.09613216  0.01943879  1
  O2-  O217  1  0.23767494  0.09749844  0.51480777  1
  O2-  O218  1  0.23534914  0.42838054  0.02289162  1
  O2-  O219  1  0.23591901  0.42686974  0.51916343  1
  O2-  O220  1  0.23703810  0.76463574  0.01792292  1
  O2-  O221  1  0.24637828  0.75773905  0.51847760  1
  O2-  O222  1  0.56920814  0.09427029  0.01521131  1
  O2-  O223  1  0.56724287  0.09623749  0.51773653  1
  O2-  O224  1  0.57303913  0.42667575  0.02322816  1
  O2-  O225  1  0.57118185  0.42817319  0.52020879  1
  O2-  O226  1  0.56988955  0.76133981  0.01766197  1
  O2-  O227  1  0.57185535  0.76535137  0.52237176  1
  O2-  O228  1  0.91242226  0.09082292  0.01168146  1
  O2-  O229  1  0.90317277  0.09358428  0.52153357  1
  O2-  O230  1  0.90262194  0.42996445  0.02089314  1
  O2-  O231  1  0.90591030  0.42718667  0.52428075  1
  O2-  O232  1  0.90598672  0.76004578  0.01350334  1
  O2-  O233  1  0.90410181  0.76117322  0.52108499  1
  O2-  O234  1  0.26161711  0.26014650  0.22783744  1
  O2-  O235  1  0.26306882  0.25859636  0.72746416  1
  O2-  O236  1  0.26035065  0.59632493  0.22661625  1
  O2-  O237  1  0.26032205  0.59378588  0.72941487  1
  O2-  O238  1  0.26215466  0.92912189  0.22826340  1
  O2-  O239  1  0.26486853  0.93007630  0.72918166  1
  O2-  O240  1  0.59417948  0.26193439  0.23158683  1
  O2-  O241  1  0.59387839  0.26079269  0.72811012  1
  O2-  O242  1  0.59765313  0.59473157  0.22661557  1
  O2-  O243  1  0.59446942  0.59532903  0.73048310  1
  O2-  O244  1  0.58919064  0.92504664  0.23177958  1
  O2-  O245  1  0.59704633  0.93182809  0.73072189  1
  O2-  O246  1  0.93011773  0.26267980  0.23420979  1
  O2-  O247  1  0.92783521  0.26122360  0.73040788  1
  O2-  O248  1  0.93096660  0.59801275  0.22928247  1
  O2-  O249  1  0.92907409  0.59458398  0.72845604  1
  O2-  O250  1  0.93195299  0.92901235  0.23451184  1
  O2-  O251  1  0.92585393  0.92923018  0.72774002  1
  O2-  O252  1  0.09623884  0.23737158  0.26858352  1
  O2-  O253  1  0.09720056  0.24041270  0.77127738  1
  O2-  O254  1  0.09325038  0.56927964  0.26841623  1
  O2-  O255  1  0.09404370  0.57116720  0.77137853  1
  O2-  O256  1  0.09381302  0.90704774  0.26690371  1
  O2-  O257  1  0.09665210  0.90989016  0.77216143  1
  O2-  O258  1  0.42689806  0.23784774  0.27107306  1
  O2-  O259  1  0.43027420  0.23271789  0.76812826  1
  O2-  O260  1  0.43195696  0.57411839  0.27176570  1
  O2-  O261  1  0.42456212  0.57322561  0.76631885  1
  O2-  O262  1  0.42794315  0.90557669  0.26994699  1
  O2-  O263  1  0.43161222  0.90417266  0.76743618  1
  O2-  O264  1  0.76011457  0.24040271  0.27371585  1
  O2-  O265  1  0.75680717  0.24057281  0.76577319  1
  O2-  O266  1  0.76295101  0.57156163  0.27286578  1
  O2-  O267  1  0.76289252  0.57295994  0.77059205  1
  O2-  O268  1  0.76124095  0.90689452  0.26834609  1
  O2-  O269  1  0.76107444  0.90423729  0.76992912  1
  O2-  O270  1  0.07056652  0.07408491  0.47949046  1
  O2-  O271  1  0.07898446  0.07310459  0.97641560  1
  O2-  O272  1  0.06786997  0.40544664  0.47630624  1
  O2-  O273  1  0.06945435  0.40667541  0.97733663  1
  O2-  O274  1  0.07030927  0.73599539  0.48391411  1
  O2-  O275  1  0.07469490  0.74166933  0.97455358  1
  O2-  O276  1  0.40567118  0.07239326  0.47634022  1
  O2-  O277  1  0.40228907  0.06890969  0.97822844  1
  O2-  O278  1  0.40323882  0.40565444  0.47787878  1
  O2-  O279  1  0.40222082  0.39933695  0.98324996  1
  O2-  O280  1  0.40814307  0.73718235  0.47727394  1
  O2-  O281  1  0.40441337  0.74169525  0.97810044  1
  O2-  O282  1  0.73903301  0.07218549  0.47501477  1
  O2-  O283  1  0.73774160  0.07403360  0.98197243  1
  O2-  O284  1  0.73748038  0.40235365  0.48258123  1
  O2-  O285  1  0.73720763  0.40522207  0.97877481  1
  O2-  O286  1  0.73590562  0.73865492  0.48014361  1
  O2-  O287  1  0.73976938  0.74093734  0.97795244  1
  O2-  O288  1  0.09756604  0.23876371  0.48132972  1
  O2-  O289  1  0.09578585  0.23982108  0.97872983  1
  O2-  O290  1  0.09300703  0.56956074  0.47936658  1
  O2-  O291  1  0.09573424  0.57186203  0.97945574  1
  O2-  O292  1  0.09006285  0.91115526  0.48380130  1
  O2-  O293  1  0.09781617  0.90622643  0.97835725  1
  O2-  O294  1  0.42743571  0.23740413  0.47883990  1
  O2-  O295  1  0.42994542  0.23266289  0.98219158  1
  O2-  O296  1  0.42847073  0.57215490  0.47746490  1
  O2-  O297  1  0.42759350  0.57479761  0.98333961  1
  O2-  O298  1  0.43018869  0.90604401  0.47838850  1
  O2-  O299  1  0.42933563  0.90373052  0.98366651  1
  O2-  O300  1  0.76310311  0.23853732  0.48047700  1
  O2-  O301  1  0.75446052  0.24323400  0.98008125  1
  O2-  O302  1  0.76335946  0.57023387  0.47772943  1
  O2-  O303  1  0.76242949  0.57381712  0.97944119  1
  O2-  O304  1  0.76381656  0.90215872  0.48286364  1
  O2-  O305  1  0.75770732  0.90727885  0.97979110  1
  O2-  O306  1  0.07339380  0.07529209  0.27247444  1
  O2-  O307  1  0.07499132  0.07095265  0.77113557  1
  O2-  O308  1  0.06778612  0.40503580  0.27274265  1
  O2-  O309  1  0.07069383  0.40577385  0.77207960  1
  O2-  O310  1  0.07171777  0.73881424  0.26931549  1
  O2-  O311  1  0.07315494  0.73829102  0.77047030  1
  O2-  O312  1  0.40635637  0.07182634  0.27364702  1
  O2-  O313  1  0.40358444  0.06957108  0.77129057  1
  O2-  O314  1  0.40530275  0.40479952  0.27061131  1
  O2-  O315  1  0.40040092  0.40022879  0.76661460  1
  O2-  O316  1  0.40871131  0.73929741  0.27343037  1
  O2-  O317  1  0.40485694  0.73944914  0.77133614  1
  O2-  O318  1  0.73969457  0.07370554  0.27254926  1
  O2-  O319  1  0.73721641  0.07190255  0.76953914  1
  O2-  O320  1  0.73645571  0.40259506  0.26936894  1
  O2-  O321  1  0.73751663  0.40594038  0.77033059  1
  O2-  O322  1  0.74103005  0.73938074  0.27060882  1
  O2-  O323  1  0.73555949  0.73923342  0.77124463  1
  O2-  O324  1  0.23701204  0.09562153  0.23018563  1
  O2-  O325  1  0.23711579  0.09833647  0.73569172  1
  O2-  O326  1  0.23374940  0.42593427  0.22771713  1
  O2-  O327  1  0.23677873  0.42878128  0.72888758  1
  O2-  O328  1  0.24048621  0.76242212  0.23040475  1
  O2-  O329  1  0.24324039  0.76075989  0.73336974  1
  O2-  O330  1  0.56824335  0.09679235  0.23546183  1
  O2-  O331  1  0.56945364  0.09421778  0.73071256  1
  O2-  O332  1  0.57223789  0.42887448  0.22848380  1
  O2-  O333  1  0.57155268  0.42619704  0.72762231  1
  O2-  O334  1  0.56997239  0.76117078  0.23192480  1
  O2-  O335  1  0.57150332  0.76464610  0.72793072  1
  O2-  O336  1  0.90700743  0.09467258  0.24009482  1
  O2-  O337  1  0.90653396  0.09151175  0.72633029  1
  O2-  O338  1  0.90407972  0.42983241  0.22665744  1
  O2-  O339  1  0.90504834  0.42885623  0.72969651  1
  O2-  O340  1  0.90620604  0.76113786  0.23569726  1
  O2-  O341  1  0.90224059  0.75990012  0.73057132  1
  O2-  O342  1  0.26159186  0.25736912  0.02417255  1
  O2-  O343  1  0.26454178  0.25957156  0.51926126  1
  O2-  O344  1  0.25998238  0.59696641  0.02319171  1
  O2-  O345  1  0.26146094  0.59309444  0.52091544  1
  O2-  O346  1  0.26048788  0.92687196  0.02770762  1
  O2-  O347  1  0.26641689  0.93012488  0.51655946  1
  O2-  O348  1  0.59282912  0.26216447  0.01878331  1
  O2-  O349  1  0.59577328  0.25996691  0.52153356  1
  O2-  O350  1  0.59719229  0.59445927  0.02308098  1
  O2-  O351  1  0.59471125  0.59600672  0.51943983  1
  O2-  O352  1  0.59044357  0.92634781  0.01649202  1
  O2-  O353  1  0.59678022  0.93042703  0.52288266  1
  O2-  O354  1  0.92957315  0.26345847  0.01357724  1
  O2-  O355  1  0.92670117  0.25986033  0.52462703  1
  O2-  O356  1  0.93199006  0.59735394  0.02025398  1
  O2-  O357  1  0.92909856  0.59450643  0.52363451  1
  O2-  O358  1  0.93336545  0.92763536  0.01619102  1
  O2-  O359  1  0.92490929  0.92968675  0.52199429  1
