# generated using pymatgen
data_Sr7Ca15Pr50Mn72O216
_symmetry_space_group_name_H-M   'P 1'
_cell_length_a   16.55759688
_cell_length_b   16.60560142
_cell_length_c   15.59362164
_cell_angle_alpha   90.00861580
_cell_angle_beta   90.00006197
_cell_angle_gamma   90.00339886
_symmetry_Int_Tables_number   1
_chemical_formula_structural   Sr7Ca15Pr50Mn72O216
_chemical_formula_sum   'Sr7 Ca15 Pr50 Mn72 O216'
_cell_volume   4287.44834965
_cell_formula_units_Z   1
loop_
 _symmetry_equiv_pos_site_id
 _symmetry_equiv_pos_as_xyz
  1  'x, y, z'
loop_
 _atom_type_symbol
 _atom_type_oxidation_number
  Sr2+  2.0
  Ca2+  2.0
  Pr3+  3.0
  Mn3.30+  3.3
  O2-  -2.0
loop_
 _atom_site_type_symbol
 _atom_site_label
 _atom_site_symmetry_multiplicity
 _atom_site_fract_x
 _atom_site_fract_y
 _atom_site_fract_z
 _atom_site_occupancy
  Sr2+  Sr0  1  0.16671974  0.49315319  0.37615284  1
  Sr2+  Sr1  1  0.00097859  0.67843144  0.12424104  1
  Sr2+  Sr2  1  1.00286176  0.32306832  0.87452868  1
  Sr2+  Sr3  1  0.50127144  0.84341908  0.62463270  1
  Sr2+  Sr4  1  0.16672948  0.82430993  0.37263937  1
  Sr2+  Sr5  1  0.33183590  0.34260591  0.12423542  1
  Sr2+  Sr6  1  0.33082153  0.00766440  0.12531353  1
  Ca2+  Ca7  1  0.17117256  0.84836806  0.12480950  1
  Ca2+  Ca8  1  0.66822805  0.65470647  0.87300712  1
  Ca2+  Ca9  1  0.33374394  0.01406257  0.62404193  1
  Ca2+  Ca10  1  0.50225515  0.17884778  0.62473766  1
  Ca2+  Ca11  1  1.00380734  0.98741957  0.87244151  1
  Ca2+  Ca12  1  0.16416080  0.48532884  0.87478259  1
  Ca2+  Ca13  1  0.17083709  0.51399956  0.62903145  1
  Ca2+  Ca14  1  0.49649575  0.82130821  0.37592286  1
  Ca2+  Ca15  1  0.49516567  0.15011752  0.37778032  1
  Ca2+  Ca16  1  -0.00478114  0.01628873  0.62601967  1
  Ca2+  Ca17  1  0.67215399  0.31716205  0.87358762  1
  Ca2+  Ca18  1  0.66516184  0.98474361  0.37754891  1
  Ca2+  Ca19  1  0.83729084  0.18098571  0.62472948  1
  Ca2+  Ca20  1  0.49440358  0.81685456  0.87414034  1
  Ca2+  Ca21  1  0.33589711  0.65174687  0.87407477  1
  Pr3+  Pr22  1  0.16821290  0.17762672  0.62482414  1
  Pr3+  Pr23  1  0.66222878  0.68069928  0.12237249  1
  Pr3+  Pr24  1  0.33857854  0.98451340  0.37642697  1
  Pr3+  Pr25  1  0.00171336  0.67806356  0.62566463  1
  Pr3+  Pr26  1  0.83194604  0.15532106  0.87217437  1
  Pr3+  Pr27  1  1.00563973  0.65679413  0.37402178  1
  Pr3+  Pr28  1  0.33232993  0.32220985  0.87484049  1
  Pr3+  Pr29  1  0.50005869  0.17773047  0.12531722  1
  Pr3+  Pr30  1  0.83714127  0.51454196  0.12381942  1
  Pr3+  Pr31  1  0.66652499  0.31942429  0.37599790  1
  Pr3+  Pr32  1  1.00499097  0.65206813  0.87605882  1
  Pr3+  Pr33  1  0.33069816  0.67861872  0.62762549  1
  Pr3+  Pr34  1  0.83207718  0.82000717  0.87433985  1
  Pr3+  Pr35  1  0.33456782  0.65723806  0.37608640  1
  Pr3+  Pr36  1  0.49876975  0.48802221  0.87391315  1
  Pr3+  Pr37  1  0.83637922  0.51247892  0.62640055  1
  Pr3+  Pr38  1  0.83563364  0.84544006  0.12425742  1
  Pr3+  Pr39  1  0.66213080  0.01483181  0.62377559  1
  Pr3+  Pr40  1  0.83144917  0.82247877  0.37558845  1
  Pr3+  Pr41  1  0.17377823  0.84931726  0.62479642  1
  Pr3+  Pr42  1  1.00407799  0.32039783  0.37572183  1
  Pr3+  Pr43  1  0.66104307  0.34708882  0.12308107  1
  Pr3+  Pr44  1  1.00394103  0.98650949  0.37758465  1
  Pr3+  Pr45  1  0.83688878  0.84796035  0.62586495  1
  Pr3+  Pr46  1  0.49316229  0.48816321  0.37580531  1
  Pr3+  Pr47  1  0.17256895  0.17871445  0.12500158  1
  Pr3+  Pr48  1  0.82735470  0.14968469  0.37824755  1
  Pr3+  Pr49  1  0.50241032  0.51351544  0.62660080  1
  Pr3+  Pr50  1  0.83551078  0.17789274  0.12616785  1
  Pr3+  Pr51  1  0.33794394  0.31770619  0.37509082  1
  Pr3+  Pr52  1  -0.00063401  0.34574088  0.12441353  1
  Pr3+  Pr53  1  0.16067060  0.15287587  0.87424874  1
  Pr3+  Pr54  1  -0.00214640  0.34631921  0.62561545  1
  Pr3+  Pr55  1  0.66236308  0.68106427  0.62757274  1
  Pr3+  Pr56  1  0.49975470  0.51390126  0.12307516  1
  Pr3+  Pr57  1  0.82868649  0.48421179  0.87531751  1
  Pr3+  Pr58  1  0.00139467  0.00714102  0.12453877  1
  Pr3+  Pr59  1  0.66588872  0.65765794  0.37678373  1
  Pr3+  Pr60  1  0.33737758  0.98675159  0.87348126  1
  Pr3+  Pr61  1  0.49950880  0.15619438  0.87185898  1
  Pr3+  Pr62  1  0.16429989  0.82296300  0.87661315  1
  Pr3+  Pr63  1  0.32783845  0.68112215  0.12222664  1
  Pr3+  Pr64  1  0.16627242  0.15435042  0.37575339  1
  Pr3+  Pr65  1  0.83113758  0.48860785  0.37492587  1
  Pr3+  Pr66  1  0.50195263  0.84778762  0.12445807  1
  Pr3+  Pr67  1  0.66159092  0.01270472  0.12604434  1
  Pr3+  Pr68  1  0.66824302  0.98794060  0.87313058  1
  Pr3+  Pr69  1  0.17038363  0.51085346  0.12196008  1
  Pr3+  Pr70  1  0.66404587  0.34321471  0.62698657  1
  Pr3+  Pr71  1  0.33049307  0.34686751  0.62579114  1
  Mn3.30+  Mn72  1  0.16655350  -0.00112236  -0.00134248  1
  Mn3.30+  Mn73  1  0.16751721  0.00099722  0.50262403  1
  Mn3.30+  Mn74  1  0.16616710  0.33352507  -0.00099624  1
  Mn3.30+  Mn75  1  0.16746766  0.33512842  0.50023944  1
  Mn3.30+  Mn76  1  0.16859456  0.66715532  -0.00201874  1
  Mn3.30+  Mn77  1  0.16676497  0.66717987  0.50126268  1
  Mn3.30+  Mn78  1  0.49966659  -0.00050218  -0.00166763  1
  Mn3.30+  Mn79  1  0.50047589  0.00042839  0.50077819  1
  Mn3.30+  Mn80  1  0.50121594  0.33307487  -0.00266891  1
  Mn3.30+  Mn81  1  0.49958936  0.33049179  0.50163842  1
  Mn3.30+  Mn82  1  0.49801888  0.66800339  -0.00381128  1
  Mn3.30+  Mn83  1  0.49995052  0.66840136  0.50081985  1
  Mn3.30+  Mn84  1  0.83406939  0.00001888  -0.00166653  1
  Mn3.30+  Mn85  1  0.83250015  0.00029184  0.50170913  1
  Mn3.30+  Mn86  1  0.83166259  0.33156133  0.00007893  1
  Mn3.30+  Mn87  1  0.83312726  0.33188188  0.50011151  1
  Mn3.30+  Mn88  1  0.83246020  0.66685915  -0.00171139  1
  Mn3.30+  Mn89  1  0.83392161  0.66778733  0.50111071  1
  Mn3.30+  Mn90  1  0.00002884  0.16521247  0.25030676  1
  Mn3.30+  Mn91  1  -0.00159850  0.16545200  0.74898196  1
  Mn3.30+  Mn92  1  0.00051260  0.50104384  0.25002008  1
  Mn3.30+  Mn93  1  0.00339988  0.49966431  0.75009612  1
  Mn3.30+  Mn94  1  0.00133375  0.83375880  0.24815363  1
  Mn3.30+  Mn95  1  0.00165686  0.83606256  0.74994509  1
  Mn3.30+  Mn96  1  0.33472241  0.16433714  0.25121418  1
  Mn3.30+  Mn97  1  0.33353520  0.16579178  0.74778707  1
  Mn3.30+  Mn98  1  0.33251110  0.49934384  0.24902659  1
  Mn3.30+  Mn99  1  0.33141872  0.50102197  0.75229322  1
  Mn3.30+  Mn100  1  0.33381002  0.83283213  0.25023145  1
  Mn3.30+  Mn101  1  0.33515404  0.83365829  0.75051605  1
  Mn3.30+  Mn102  1  0.66463943  0.16473309  0.25360191  1
  Mn3.30+  Mn103  1  0.66712199  0.16722835  0.74697355  1
  Mn3.30+  Mn104  1  0.66505113  0.50150146  0.25031693  1
  Mn3.30+  Mn105  1  0.66728130  0.49967513  0.75132424  1
  Mn3.30+  Mn106  1  0.66505953  0.83432692  0.25208316  1
  Mn3.30+  Mn107  1  0.66470222  0.83315595  0.75212901  1
  Mn3.30+  Mn108  1  0.16816082  -0.00123968  0.25068609  1
  Mn3.30+  Mn109  1  0.16614254  0.00094376  0.74763346  1
  Mn3.30+  Mn110  1  0.16802490  0.33432422  0.25212815  1
  Mn3.30+  Mn111  1  0.16560819  0.33477063  0.74876373  1
  Mn3.30+  Mn112  1  0.16680112  0.66865725  0.24776594  1
  Mn3.30+  Mn113  1  0.16859355  0.66544526  0.75310322  1
  Mn3.30+  Mn114  1  0.50064762  0.00007220  0.25345318  1
  Mn3.30+  Mn115  1  0.49937943  -0.00067760  0.74719987  1
  Mn3.30+  Mn116  1  0.49970397  0.33228442  0.24969219  1
  Mn3.30+  Mn117  1  0.50103461  0.33196309  0.75065064  1
  Mn3.30+  Mn118  1  0.49872220  0.66843312  0.24893808  1
  Mn3.30+  Mn119  1  0.49935311  0.66800654  0.75405037  1
  Mn3.30+  Mn120  1  0.83068769  -0.00115275  0.25125943  1
  Mn3.30+  Mn121  1  0.83614796  0.00174050  0.74911976  1
  Mn3.30+  Mn122  1  0.83229607  0.33287886  0.25053267  1
  Mn3.30+  Mn123  1  0.83275913  0.33114222  0.74967950  1
  Mn3.30+  Mn124  1  0.83316985  0.66782416  0.25019307  1
  Mn3.30+  Mn125  1  0.83313768  0.66659712  0.75079173  1
  Mn3.30+  Mn126  1  0.00029400  0.16493131  0.00001961  1
  Mn3.30+  Mn127  1  -0.00257097  0.16555228  0.50078949  1
  Mn3.30+  Mn128  1  0.00126209  0.49949684  -0.00137511  1
  Mn3.30+  Mn129  1  0.00205454  0.50101806  0.50137678  1
  Mn3.30+  Mn130  1  0.00099964  0.83480066  -0.00036502  1
  Mn3.30+  Mn131  1  0.00216821  0.83519872  0.50254352  1
  Mn3.30+  Mn132  1  0.33230577  0.16556560  -0.00187806  1
  Mn3.30+  Mn133  1  0.33646811  0.16489629  0.50311522  1
  Mn3.30+  Mn134  1  0.33256210  0.50006580  -0.00337546  1
  Mn3.30+  Mn135  1  0.33124963  0.50044685  0.50187770  1
  Mn3.30+  Mn136  1  0.33300118  0.83275242  -0.00217699  1
  Mn3.30+  Mn137  1  0.33598578  0.83404835  0.50135710  1
  Mn3.30+  Mn138  1  0.66746059  0.16704737  -0.00083874  1
  Mn3.30+  Mn139  1  0.66396603  0.16489748  0.49967650  1
  Mn3.30+  Mn140  1  0.66657760  0.50101722  -0.00179525  1
  Mn3.30+  Mn141  1  0.66570811  0.49962667  0.50013785  1
  Mn3.30+  Mn142  1  0.66488963  0.83242856  -0.00354042  1
  Mn3.30+  Mn143  1  0.66534061  0.83538204  0.49950366  1
  O2-  O144  1  0.02804251  0.15639544  0.12534739  1
  O2-  O145  1  0.02454760  0.16087961  0.62276074  1
  O2-  O146  1  0.02398655  0.49488971  0.12382806  1
  O2-  O147  1  0.02670639  0.49594611  0.62473997  1
  O2-  O148  1  0.02516788  0.83650626  0.12425703  1
  O2-  O149  1  0.02902876  0.82421161  0.62771616  1
  O2-  O150  1  0.35549020  0.16391059  0.12434493  1
  O2-  O151  1  0.36041617  0.16170741  0.62561678  1
  O2-  O152  1  0.35669478  0.49766947  0.12162010  1
  O2-  O153  1  0.35938873  0.49644461  0.62720244  1
  O2-  O154  1  0.35921915  0.82938053  0.12270142  1
  O2-  O155  1  0.35333702  0.82476790  0.62705209  1
  O2-  O156  1  0.69184281  0.15964206  0.12894320  1
  O2-  O157  1  0.69535830  0.16170563  0.62308973  1
  O2-  O158  1  0.69295421  0.49492553  0.12543082  1
  O2-  O159  1  0.69253848  0.49256531  0.62595213  1
  O2-  O160  1  0.69130393  0.82805029  0.12253826  1
  O2-  O161  1  0.69210646  0.82820341  0.62651797  1
  O2-  O162  1  0.14400231  0.32653749  0.12799929  1
  O2-  O163  1  0.14160239  0.32483228  0.62377763  1
  O2-  O164  1  0.14903411  0.65697880  0.12210962  1
  O2-  O165  1  0.14416585  0.66002837  0.62964969  1
  O2-  O166  1  0.14545914  0.99646363  0.12516825  1
  O2-  O167  1  0.13874810  0.99723491  0.62525968  1
  O2-  O168  1  0.48178080  0.32697227  0.12385740  1
  O2-  O169  1  0.47490771  0.32803205  0.62679806  1
  O2-  O170  1  0.47355527  0.66171602  0.12284922  1
  O2-  O171  1  0.47619754  0.66129922  0.62912174  1
  O2-  O172  1  0.48145467  0.99609189  0.12443735  1
  O2-  O173  1  0.47438648  0.99396191  0.62593212  1
  O2-  O174  1  0.80472866  0.32686484  0.12747690  1
  O2-  O175  1  0.80788018  0.32991004  0.62427583  1
  O2-  O176  1  0.80653230  0.66343861  0.12371524  1
  O2-  O177  1  0.80697251  0.66188453  0.62627982  1
  O2-  O178  1  0.80480298  0.99388540  0.12680096  1
  O2-  O179  1  0.80551574  0.99299478  0.62638958  1
  O2-  O180  1  0.31000447  0.17034920  0.37866832  1
  O2-  O181  1  0.30634356  0.17220087  0.87141534  1
  O2-  O182  1  0.31665228  0.50757296  0.37667902  1
  O2-  O183  1  0.30625369  0.50403725  0.87362002  1
  O2-  O184  1  0.31567927  0.83385883  0.37743709  1
  O2-  O185  1  0.30706430  0.84116598  0.87294270  1
  O2-  O186  1  0.63633000  0.17454840  0.37567998  1
  O2-  O187  1  0.64384106  0.17065401  0.87178555  1
  O2-  O188  1  0.63718851  0.50900606  0.37452343  1
  O2-  O189  1  0.64178540  0.50978653  0.87455209  1
  O2-  O190  1  0.64077030  0.83648808  0.37623206  1
  O2-  O191  1  0.63725522  0.84251370  0.87506334  1
  O2-  O192  1  0.97196645  0.17274631  0.37591747  1
  O2-  O193  1  0.97496459  0.17116041  0.87585488  1
  O2-  O194  1  0.97471889  0.50708396  0.37646306  1
  O2-  O195  1  0.97361720  0.50291771  0.87501410  1
  O2-  O196  1  0.97543053  0.83829419  0.37569712  1
  O2-  O197  1  0.97597366  0.84086920  0.87293060  1
  O2-  O198  1  0.19214017  0.00608241  0.37794796  1
  O2-  O199  1  0.19237457  0.00511441  0.87106354  1
  O2-  O200  1  0.19304000  0.33667311  0.37729013  1
  O2-  O201  1  0.18822134  0.33704577  0.87105887  1
  O2-  O202  1  0.18998409  0.66926008  0.37253827  1
  O2-  O203  1  0.19559904  0.67776237  0.87562548  1
  O2-  O204  1  0.52587899  0.00866215  0.37637466  1
  O2-  O205  1  0.52542820  0.00967417  0.87292399  1
  O2-  O206  1  0.52364949  0.34283340  0.37503279  1
  O2-  O207  1  0.52953646  0.33859591  0.87383716  1
  O2-  O208  1  0.52222029  0.67104285  0.37240482  1
  O2-  O209  1  0.52723289  0.67078062  0.87568193  1
  O2-  O210  1  0.85976551  0.00178840  0.37549687  1
  O2-  O211  1  0.86115377  0.00761890  0.87185716  1
  O2-  O212  1  0.85949346  0.34042378  0.37384451  1
  O2-  O213  1  0.85348333  0.33593812  0.87452748  1
  O2-  O214  1  0.86005914  0.67302818  0.37709408  1
  O2-  O215  1  0.85999991  0.67114004  0.87320087  1
  O2-  O216  1  0.23451852  0.09556011  0.01447422  1
  O2-  O217  1  0.23810272  0.09685240  0.51934297  1
  O2-  O218  1  0.23847453  0.42845406  0.01535996  1
  O2-  O219  1  0.23982914  0.42916040  0.52499932  1
  O2-  O220  1  0.23734700  0.76374745  0.02205585  1
  O2-  O221  1  0.23949596  0.75927770  0.52147995  1
  O2-  O222  1  0.57345321  0.09615090  0.01877706  1
  O2-  O223  1  0.57059390  0.09568482  0.52561781  1
  O2-  O224  1  0.57220938  0.42985270  0.02045029  1
  O2-  O225  1  0.57153594  0.42750077  0.52099173  1
  O2-  O226  1  0.57071552  0.76102291  0.02208894  1
  O2-  O227  1  0.57780296  0.75712418  0.51860763  1
  O2-  O228  1  0.90565762  0.09403055  0.02334639  1
  O2-  O229  1  0.89972257  0.09744280  0.51752118  1
  O2-  O230  1  0.90240349  0.42498692  0.02105594  1
  O2-  O231  1  0.90633997  0.43035345  0.52046244  1
  O2-  O232  1  0.90277213  0.76380099  0.01513134  1
  O2-  O233  1  0.90735426  0.76345083  0.52240578  1
  O2-  O234  1  0.25981253  0.25929375  0.23639011  1
  O2-  O235  1  0.26104748  0.26170311  0.72860269  1
  O2-  O236  1  0.26204878  0.59398973  0.23065188  1
  O2-  O237  1  0.26315045  0.59523152  0.73109834  1
  O2-  O238  1  0.26167056  0.92534160  0.23856228  1
  O2-  O239  1  0.26274910  0.93083067  0.72757492  1
  O2-  O240  1  0.59638448  0.26211225  0.23021296  1
  O2-  O241  1  0.59611236  0.25894606  0.72859153  1
  O2-  O242  1  0.59411909  0.59612397  0.22779037  1
  O2-  O243  1  0.59470643  0.59237935  0.72828356  1
  O2-  O244  1  0.59467554  0.92742513  0.22921212  1
  O2-  O245  1  0.59883749  0.93178759  0.73262342  1
  O2-  O246  1  0.92984668  0.25788476  0.22770453  1
  O2-  O247  1  0.92850039  0.26096383  0.72849482  1
  O2-  O248  1  0.92235403  0.59319134  0.23194941  1
  O2-  O249  1  0.92979968  0.59366986  0.72939843  1
  O2-  O250  1  0.92614624  0.92780783  0.22984586  1
  O2-  O251  1  0.92750303  0.92891182  0.72507503  1
  O2-  O252  1  0.09564608  0.24015003  0.27175442  1
  O2-  O253  1  0.09553567  0.23516066  0.76460946  1
  O2-  O254  1  0.09120158  0.57600729  0.26573392  1
  O2-  O255  1  0.09660549  0.57390075  0.77615368  1
  O2-  O256  1  0.08895491  0.91141120  0.26941765  1
  O2-  O257  1  0.09895442  0.90309193  0.76712751  1
  O2-  O258  1  0.42871279  0.23598632  0.27019821  1
  O2-  O259  1  0.42505555  0.24152617  0.77411770  1
  O2-  O260  1  0.42962091  0.57247971  0.26725079  1
  O2-  O261  1  0.43045918  0.57008587  0.76925126  1
  O2-  O262  1  0.43128882  0.90401005  0.26967644  1
  O2-  O263  1  0.42820656  0.90518087  0.77455777  1
  O2-  O264  1  0.75983583  0.23661623  0.27333350  1
  O2-  O265  1  0.76195040  0.23824808  0.76806510  1
  O2-  O266  1  0.75842119  0.57284937  0.27203936  1
  O2-  O267  1  0.76357607  0.56823706  0.76763268  1
  O2-  O268  1  0.76324845  0.90317515  0.26897923  1
  O2-  O269  1  0.76289020  0.90532831  0.77172320  1
  O2-  O270  1  0.07119157  0.07581216  0.47716687  1
  O2-  O271  1  0.07003796  0.06991667  0.97827537  1
  O2-  O272  1  0.06794281  0.40452473  0.48208452  1
  O2-  O273  1  0.07201342  0.40462894  0.98809263  1
  O2-  O274  1  0.06945267  0.73814470  0.48446722  1
  O2-  O275  1  0.07321319  0.73925496  0.97725599  1
  O2-  O276  1  0.40427838  0.06993151  0.48122092  1
  O2-  O277  1  0.40704415  0.07408544  0.97679507  1
  O2-  O278  1  0.40386376  0.40497994  0.48248783  1
  O2-  O279  1  0.40706226  0.40722893  0.97505793  1
  O2-  O280  1  0.40511096  0.73697776  0.48442033  1
  O2-  O281  1  0.40063170  0.73554442  0.97940970  1
  O2-  O282  1  0.73367246  0.07056938  0.47676715  1
  O2-  O283  1  0.73975637  0.07150982  0.97946754  1
  O2-  O284  1  0.73844409  0.40649645  0.47743121  1
  O2-  O285  1  0.73501055  0.40466495  0.97937930  1
  O2-  O286  1  0.74027457  0.73954423  0.47980059  1
  O2-  O287  1  0.73570104  0.73818720  0.97643290  1
  O2-  O288  1  0.09375631  0.23910166  0.47896082  1
  O2-  O289  1  0.09533427  0.23511754  0.98503919  1
  O2-  O290  1  0.08964246  0.57748412  0.48158702  1
  O2-  O291  1  0.09697563  0.57287317  0.97693703  1
  O2-  O292  1  0.09383595  0.90694537  0.48259381  1
  O2-  O293  1  0.09436739  0.90754370  0.98001742  1
  O2-  O294  1  0.42818030  0.23874552  0.47781765  1
  O2-  O295  1  0.42780028  0.23949832  0.97788480  1
  O2-  O296  1  0.42886298  0.57185404  0.48371816  1
  O2-  O297  1  0.43018457  0.56981405  0.97983216  1
  O2-  O298  1  0.43053733  0.90625450  0.47684430  1
  O2-  O299  1  0.42892050  0.90306704  0.97848625  1
  O2-  O300  1  0.75771246  0.23798206  0.47607916  1
  O2-  O301  1  0.76351214  0.23548308  0.98350269  1
  O2-  O302  1  0.75978218  0.57195999  0.47924062  1
  O2-  O303  1  0.76272342  0.56918137  0.98191261  1
  O2-  O304  1  0.76451698  0.90270853  0.48358677  1
  O2-  O305  1  0.76127151  0.90471218  0.97706314  1
  O2-  O306  1  0.07094846  0.07339039  0.27238078  1
  O2-  O307  1  0.07102158  0.07205188  0.77152060  1
  O2-  O308  1  0.06971405  0.40256517  0.26678396  1
  O2-  O309  1  0.07195522  0.40508239  0.76339025  1
  O2-  O310  1  0.07044085  0.73987204  0.26730989  1
  O2-  O311  1  0.07276883  0.73715345  0.77214628  1
  O2-  O312  1  0.40569984  0.06937458  0.27047055  1
  O2-  O313  1  0.40665558  0.07378946  0.77185628  1
  O2-  O314  1  0.40616226  0.40574909  0.27053046  1
  O2-  O315  1  0.40462524  0.40709851  0.77111559  1
  O2-  O316  1  0.40303844  0.73583933  0.26550816  1
  O2-  O317  1  0.40323488  0.73572847  0.77054183  1
  O2-  O318  1  0.73617623  0.06996399  0.27475065  1
  O2-  O319  1  0.73833074  0.07190464  0.77036904  1
  O2-  O320  1  0.73513543  0.40840397  0.27273339  1
  O2-  O321  1  0.73702612  0.40451524  0.77135287  1
  O2-  O322  1  0.73721875  0.73864861  0.27112091  1
  O2-  O323  1  0.73857731  0.73934524  0.77209056  1
  O2-  O324  1  0.23662440  0.09621670  0.23517123  1
  O2-  O325  1  0.23638239  0.09648418  0.73050552  1
  O2-  O326  1  0.23659268  0.42871939  0.23134973  1
  O2-  O327  1  0.24056904  0.42672873  0.72703077  1
  O2-  O328  1  0.23932266  0.75995334  0.22586014  1
  O2-  O329  1  0.23726890  0.76229349  0.73026854  1
  O2-  O330  1  0.57197408  0.09450517  0.22709530  1
  O2-  O331  1  0.57216299  0.09592779  0.72795030  1
  O2-  O332  1  0.57198913  0.43037489  0.22873799  1
  O2-  O333  1  0.57245277  0.42810639  0.72894844  1
  O2-  O334  1  0.57145369  0.75981048  0.22649032  1
  O2-  O335  1  0.57513487  0.75808667  0.73125038  1
  O2-  O336  1  0.90231259  0.09158497  0.23061739  1
  O2-  O337  1  0.90172928  0.09834744  0.72886388  1
  O2-  O338  1  0.90537211  0.42826239  0.22897365  1
  O2-  O339  1  0.90366038  0.42660464  0.72947057  1
  O2-  O340  1  0.90307116  0.76493012  0.23275666  1
  O2-  O341  1  0.90708702  0.76221984  0.73014424  1
  O2-  O342  1  0.25917204  0.25960698  0.01462832  1
  O2-  O343  1  0.26392031  0.26041950  0.52065236  1
  O2-  O344  1  0.26200570  0.59379277  0.01901162  1
  O2-  O345  1  0.26362292  0.59609597  0.51747764  1
  O2-  O346  1  0.26125737  0.92749471  0.01186072  1
  O2-  O347  1  0.26459653  0.92771346  0.52124213  1
  O2-  O348  1  0.59528926  0.25890581  0.02068900  1
  O2-  O349  1  0.59790063  0.26323051  0.51888832  1
  O2-  O350  1  0.59350369  0.59345688  0.02258106  1
  O2-  O351  1  0.59444457  0.59426980  0.52189742  1
  O2-  O352  1  0.59632884  0.92867191  0.01967909  1
  O2-  O353  1  0.59747169  0.93062564  0.51855453  1
  O2-  O354  1  0.92741019  0.25751753  0.02592294  1
  O2-  O355  1  0.92985350  0.26268192  0.51835186  1
  O2-  O356  1  0.92638309  0.59191031  0.01720699  1
  O2-  O357  1  0.92616541  0.59475812  0.52314631  1
  O2-  O358  1  0.92424821  0.92774390  0.02247089  1
  O2-  O359  1  0.93076268  0.92893390  0.52263065  1
