# generated using pymatgen
data_Sr7Ca15Pr50Mn72O216
_symmetry_space_group_name_H-M   'P 1'
_cell_length_a   16.55402567
_cell_length_b   16.59915705
_cell_length_c   15.58948204
_cell_angle_alpha   89.99635819
_cell_angle_beta   89.99688665
_cell_angle_gamma   89.99722476
_symmetry_Int_Tables_number   1
_chemical_formula_structural   Sr7Ca15Pr50Mn72O216
_chemical_formula_sum   'Sr7 Ca15 Pr50 Mn72 O216'
_cell_volume   4283.72262743
_cell_formula_units_Z   1
loop_
 _symmetry_equiv_pos_site_id
 _symmetry_equiv_pos_as_xyz
  1  'x, y, z'
loop_
 _atom_type_symbol
 _atom_type_oxidation_number
  Sr2+  2.0
  Ca2+  2.0
  Pr3+  3.0
  Mn3.30+  3.3
  O2-  -2.0
loop_
 _atom_site_type_symbol
 _atom_site_label
 _atom_site_symmetry_multiplicity
 _atom_site_fract_x
 _atom_site_fract_y
 _atom_site_fract_z
 _atom_site_occupancy
  Sr2+  Sr0  1  0.50171280  0.84463235  0.12398097  1
  Sr2+  Sr1  1  0.00077439  0.01048217  0.12431588  1
  Sr2+  Sr2  1  0.33211432  0.67699872  0.12385024  1
  Sr2+  Sr3  1  0.49716117  0.49104737  0.37671770  1
  Sr2+  Sr4  1  0.33149190  0.34258124  0.12513910  1
  Sr2+  Sr5  1  0.66732809  0.98868278  0.87668620  1
  Sr2+  Sr6  1  0.33261354  0.67232616  0.62638848  1
  Ca2+  Ca7  1  0.16181734  0.48419840  0.37692638  1
  Ca2+  Ca8  1  0.16894055  0.51449935  0.62377620  1
  Ca2+  Ca9  1  0.83952460  0.18482324  0.62737271  1
  Ca2+  Ca10  1  -0.00323610  0.34920322  0.62335601  1
  Ca2+  Ca11  1  -0.00189246  0.68233775  0.12576401  1
  Ca2+  Ca12  1  0.83159877  0.81817345  0.37309527  1
  Ca2+  Ca13  1  1.00313858  0.32045297  0.37755264  1
  Ca2+  Ca14  1  0.16414908  0.81697952  0.37336643  1
  Ca2+  Ca15  1  0.50081941  0.51606287  0.62489736  1
  Ca2+  Ca16  1  0.66309574  0.01300941  0.12329777  1
  Ca2+  Ca17  1  0.33703359  0.65443485  0.87567009  1
  Ca2+  Ca18  1  0.16457804  0.15145339  0.87502545  1
  Ca2+  Ca19  1  0.49339347  0.81765663  0.87653488  1
  Ca2+  Ca20  1  0.66998247  0.31826562  0.87306421  1
  Ca2+  Ca21  1  0.34011018  0.98269226  0.87476053  1
  Pr3+  Pr22  1  0.83927882  0.51593871  0.12562929  1
  Pr3+  Pr23  1  0.17045194  0.18042403  0.12323435  1
  Pr3+  Pr24  1  0.33501640  0.98666612  0.37546062  1
  Pr3+  Pr25  1  0.32922246  0.35038560  0.62501601  1
  Pr3+  Pr26  1  0.49728991  0.15520227  0.37584043  1
  Pr3+  Pr27  1  0.17205141  0.84352154  0.62334264  1
  Pr3+  Pr28  1  0.50220458  0.17967385  0.62687940  1
  Pr3+  Pr29  1  0.33464598  0.32109685  0.87512502  1
  Pr3+  Pr30  1  0.49826305  0.15086580  0.87418960  1
  Pr3+  Pr31  1  0.16864943  0.18155873  0.62656036  1
  Pr3+  Pr32  1  0.83285241  0.15649639  0.37670121  1
  Pr3+  Pr33  1  0.16840764  0.82061328  0.87577416  1
  Pr3+  Pr34  1  0.33071922  0.01162494  0.62725596  1
  Pr3+  Pr35  1  0.67233872  0.98562777  0.37367154  1
  Pr3+  Pr36  1  0.83695659  0.51236134  0.62456703  1
  Pr3+  Pr37  1  0.17096095  0.84489639  0.12601072  1
  Pr3+  Pr38  1  0.66349721  0.34873914  0.62699970  1
  Pr3+  Pr39  1  0.66168900  0.34387520  0.12320430  1
  Pr3+  Pr40  1  1.00300754  0.65485811  0.87648626  1
  Pr3+  Pr41  1  0.33373359  0.32396316  0.37482322  1
  Pr3+  Pr42  1  0.82943488  0.15349270  0.87296529  1
  Pr3+  Pr43  1  0.83441059  0.17576114  0.12260131  1
  Pr3+  Pr44  1  0.49489783  0.49068511  0.87395131  1
  Pr3+  Pr45  1  0.83022834  0.82261300  0.87627133  1
  Pr3+  Pr46  1  0.83632399  0.84754547  0.12560852  1
  Pr3+  Pr47  1  0.66549765  0.65842424  0.87676650  1
  Pr3+  Pr48  1  0.82751525  0.48547679  0.87414180  1
  Pr3+  Pr49  1  1.00573374  0.65326816  0.37398725  1
  Pr3+  Pr50  1  0.50192411  0.84270463  0.62585580  1
  Pr3+  Pr51  1  0.50262010  0.17509076  0.12288619  1
  Pr3+  Pr52  1  1.00445926  0.98367339  0.37365420  1
  Pr3+  Pr53  1  0.67035737  0.65341198  0.37393328  1
  Pr3+  Pr54  1  0.66108106  0.67727759  0.62449638  1
  Pr3+  Pr55  1  0.33050356  0.00929972  0.12263565  1
  Pr3+  Pr56  1  0.00043440  0.67749099  0.62541535  1
  Pr3+  Pr57  1  0.83622841  0.84471040  0.62374349  1
  Pr3+  Pr58  1  0.83134365  0.48542937  0.37608680  1
  Pr3+  Pr59  1  0.17040948  0.51223666  0.12612585  1
  Pr3+  Pr60  1  1.00351730  0.98916505  0.87596629  1
  Pr3+  Pr61  1  0.33131559  0.65327225  0.37412266  1
  Pr3+  Pr62  1  0.16842259  0.49271695  0.87254316  1
  Pr3+  Pr63  1  0.49849062  0.51226752  0.12678196  1
  Pr3+  Pr64  1  1.00467838  0.31925888  0.87283983  1
  Pr3+  Pr65  1  -0.00215284  0.34396189  0.12585352  1
  Pr3+  Pr66  1  0.66544195  0.01359268  0.62675334  1
  Pr3+  Pr67  1  0.66183472  0.68046788  0.12591376  1
  Pr3+  Pr68  1  -0.00364830  0.01507920  0.62522031  1
  Pr3+  Pr69  1  0.49749551  0.82025430  0.37364973  1
  Pr3+  Pr70  1  0.16201333  0.15772785  0.37523216  1
  Pr3+  Pr71  1  0.66838702  0.32119384  0.37644206  1
  Mn3.30+  Mn72  1  0.16908084  0.00074488  -0.00306852  1
  Mn3.30+  Mn73  1  0.16586958  -0.00066786  0.49988524  1
  Mn3.30+  Mn74  1  0.16663517  0.33355626  -0.00255378  1
  Mn3.30+  Mn75  1  0.16277484  0.33654709  0.50216344  1
  Mn3.30+  Mn76  1  0.16716952  0.66666947  0.00038292  1
  Mn3.30+  Mn77  1  0.16669714  0.66476411  0.49932100  1
  Mn3.30+  Mn78  1  0.49998544  -0.00297260  -0.00144711  1
  Mn3.30+  Mn79  1  0.50102440  -0.00058078  0.50057832  1
  Mn3.30+  Mn80  1  0.50097727  0.33286711  -0.00219936  1
  Mn3.30+  Mn81  1  0.49904875  0.33584705  0.50172619  1
  Mn3.30+  Mn82  1  0.49827617  0.66805558  0.00009151  1
  Mn3.30+  Mn83  1  0.49825514  0.66531105  0.49974391  1
  Mn3.30+  Mn84  1  0.83239475  0.00020918  0.00106158  1
  Mn3.30+  Mn85  1  0.83480470  0.00044636  0.49965721  1
  Mn3.30+  Mn86  1  0.83156345  0.33305198  -0.00119497  1
  Mn3.30+  Mn87  1  0.83656937  0.33253502  0.50174123  1
  Mn3.30+  Mn88  1  0.83434706  0.66749047  0.00117023  1
  Mn3.30+  Mn89  1  0.83466393  0.66743273  0.49896661  1
  Mn3.30+  Mn90  1  -0.00060976  0.16745329  0.24986551  1
  Mn3.30+  Mn91  1  0.00076881  0.16825365  0.74935205  1
  Mn3.30+  Mn92  1  0.00180962  0.49915578  0.25093652  1
  Mn3.30+  Mn93  1  0.00026884  0.49941346  0.74894964  1
  Mn3.30+  Mn94  1  0.00031222  0.83145911  0.25036355  1
  Mn3.30+  Mn95  1  0.00132585  0.83388202  0.75011778  1
  Mn3.30+  Mn96  1  0.33268343  0.16676265  0.24991337  1
  Mn3.30+  Mn97  1  0.33199320  0.16566054  0.75217405  1
  Mn3.30+  Mn98  1  0.33022246  0.49902459  0.25154510  1
  Mn3.30+  Mn99  1  0.33276549  0.50209455  0.74796318  1
  Mn3.30+  Mn100  1  0.33180075  0.83287905  0.25041398  1
  Mn3.30+  Mn101  1  0.33555539  0.83122579  0.75092635  1
  Mn3.30+  Mn102  1  0.66693489  0.16509861  0.25033463  1
  Mn3.30+  Mn103  1  0.66895660  0.16828005  0.74885226  1
  Mn3.30+  Mn104  1  0.66804218  0.49847742  0.24933007  1
  Mn3.30+  Mn105  1  0.66411236  0.50050194  0.75109980  1
  Mn3.30+  Mn106  1  0.66836300  0.83462478  0.24967910  1
  Mn3.30+  Mn107  1  0.66551095  0.83351829  0.75224493  1
  Mn3.30+  Mn108  1  0.16651413  -0.00032267  0.25049674  1
  Mn3.30+  Mn109  1  0.16830757  0.00028834  0.75193049  1
  Mn3.30+  Mn110  1  0.16415984  0.33456440  0.25203483  1
  Mn3.30+  Mn111  1  0.16518376  0.33501910  0.74836465  1
  Mn3.30+  Mn112  1  0.16490208  0.66627881  0.24924210  1
  Mn3.30+  Mn113  1  0.16892690  0.66609035  0.75052266  1
  Mn3.30+  Mn114  1  0.50223738  -0.00013503  0.24905435  1
  Mn3.30+  Mn115  1  0.49899862  -0.00334889  0.75138207  1
  Mn3.30+  Mn116  1  0.49917923  0.33331164  0.24994963  1
  Mn3.30+  Mn117  1  0.50080380  0.33515050  0.75084250  1
  Mn3.30+  Mn118  1  0.49929927  0.66694245  0.25005661  1
  Mn3.30+  Mn119  1  0.49764135  0.66713076  0.75049576  1
  Mn3.30+  Mn120  1  0.83429432  -0.00018319  0.25010830  1
  Mn3.30+  Mn121  1  0.83318315  0.00071635  0.74910234  1
  Mn3.30+  Mn122  1  0.83391181  0.33246266  0.25018279  1
  Mn3.30+  Mn123  1  0.83461182  0.33290876  0.74905622  1
  Mn3.30+  Mn124  1  0.83630674  0.66822756  0.24989603  1
  Mn3.30+  Mn125  1  0.83250005  0.66660820  0.75033840  1
  Mn3.30+  Mn126  1  0.00171410  0.16636796  -0.00121857  1
  Mn3.30+  Mn127  1  -0.00174681  0.16966933  0.50169051  1
  Mn3.30+  Mn128  1  -0.00030895  0.50046026  -0.00019555  1
  Mn3.30+  Mn129  1  0.00256230  0.49810326  0.50053828  1
  Mn3.30+  Mn130  1  0.00056515  0.83313478  0.00116275  1
  Mn3.30+  Mn131  1  0.00149646  0.83206036  0.49803952  1
  Mn3.30+  Mn132  1  0.33253400  0.16449100  -0.00361107  1
  Mn3.30+  Mn133  1  0.33212800  0.16777699  0.50164692  1
  Mn3.30+  Mn134  1  0.33261673  0.50012705  0.00004423  1
  Mn3.30+  Mn135  1  0.32980390  0.50090308  0.50033010  1
  Mn3.30+  Mn136  1  0.33548116  0.83287130  -0.00084460  1
  Mn3.30+  Mn137  1  0.33220487  0.83133036  0.49907311  1
  Mn3.30+  Mn138  1  0.66703744  0.16593981  -0.00207389  1
  Mn3.30+  Mn139  1  0.66856470  0.16754032  0.50301806  1
  Mn3.30+  Mn140  1  0.66641942  0.49929596  -0.00005101  1
  Mn3.30+  Mn141  1  0.66557908  0.49974545  0.50031850  1
  Mn3.30+  Mn142  1  0.66413524  0.83567387  -0.00049234  1
  Mn3.30+  Mn143  1  0.66919146  0.83266276  0.49888307  1
  O2-  O144  1  0.02592481  0.16737108  0.12198719  1
  O2-  O145  1  0.02702740  0.15944870  0.62560552  1
  O2-  O146  1  0.02621704  0.48988240  0.12528428  1
  O2-  O147  1  0.02550763  0.49580448  0.62590310  1
  O2-  O148  1  0.02662792  0.82879993  0.12518137  1
  O2-  O149  1  0.02692382  0.82818599  0.62586377  1
  O2-  O150  1  0.35838837  0.15997954  0.12177794  1
  O2-  O151  1  0.35856237  0.16080473  0.62653141  1
  O2-  O152  1  0.35378796  0.49643043  0.12507474  1
  O2-  O153  1  0.35892864  0.49652702  0.62479813  1
  O2-  O154  1  0.35091340  0.83626784  0.12544791  1
  O2-  O155  1  0.35789164  0.82930187  0.62386494  1
  O2-  O156  1  0.68947417  0.16096302  0.12337243  1
  O2-  O157  1  0.69514651  0.16149348  0.62446236  1
  O2-  O158  1  0.69535071  0.49177947  0.12418036  1
  O2-  O159  1  0.69275878  0.49802112  0.62526066  1
  O2-  O160  1  0.69265367  0.82653225  0.12592053  1
  O2-  O161  1  0.69251195  0.82482877  0.62464291  1
  O2-  O162  1  0.14178626  0.32854559  0.12282951  1
  O2-  O163  1  0.13741119  0.32642611  0.62686816  1
  O2-  O164  1  0.13934872  0.65933443  0.12435745  1
  O2-  O165  1  0.14338890  0.66256907  0.62562457  1
  O2-  O166  1  0.14975718  0.99310401  0.12418390  1
  O2-  O167  1  0.14060575  0.99101242  0.62450036  1
  O2-  O168  1  0.48126271  0.32434157  0.12335493  1
  O2-  O169  1  0.47310451  0.32546150  0.62668871  1
  O2-  O170  1  0.48256212  0.66131616  0.12535271  1
  O2-  O171  1  0.48313382  0.66560304  0.62330461  1
  O2-  O172  1  0.47496520  1.00373665  0.12494997  1
  O2-  O173  1  0.47492380  0.99253927  0.62527007  1
  O2-  O174  1  0.80573468  0.32543757  0.12251084  1
  O2-  O175  1  0.80737520  0.33177995  0.62543448  1
  O2-  O176  1  0.80617052  0.66193516  0.12536076  1
  O2-  O177  1  0.80605165  0.66087111  0.62620344  1
  O2-  O178  1  0.80672282  0.99613327  0.12498285  1
  O2-  O179  1  0.80876912  0.99038461  0.62236307  1
  O2-  O180  1  0.30717477  0.17363201  0.37861363  1
  O2-  O181  1  0.30560510  0.17481450  0.87289000  1
  O2-  O182  1  0.30569352  0.50291639  0.37589859  1
  O2-  O183  1  0.31328646  0.50365505  0.87423689  1
  O2-  O184  1  0.30678829  0.84040329  0.37561348  1
  O2-  O185  1  0.31030550  0.84024463  0.87459675  1
  O2-  O186  1  0.64135874  0.17298007  0.37997872  1
  O2-  O187  1  0.64334533  0.17279368  0.87213241  1
  O2-  O188  1  0.64860603  0.50308799  0.37444409  1
  O2-  O189  1  0.63936459  0.50976088  0.87658227  1
  O2-  O190  1  0.64154181  0.83918571  0.37432710  1
  O2-  O191  1  0.63956216  0.83245073  0.87516293  1
  O2-  O192  1  0.97591112  0.17461039  0.37801260  1
  O2-  O193  1  0.97352450  0.17055977  0.87382946  1
  O2-  O194  1  0.97255163  0.50791170  0.37429056  1
  O2-  O195  1  0.97111028  0.50719440  0.87523535  1
  O2-  O196  1  0.97325061  0.83608652  0.37470176  1
  O2-  O197  1  0.97468263  0.83907529  0.87394663  1
  O2-  O198  1  0.19186285  0.01102765  0.37648074  1
  O2-  O199  1  0.19602610  0.00652754  0.87358188  1
  O2-  O200  1  0.19042004  0.33624352  0.37930063  1
  O2-  O201  1  0.19193812  0.34470483  0.87168147  1
  O2-  O202  1  0.18763690  0.67372001  0.37428748  1
  O2-  O203  1  0.19268268  0.67131974  0.87563882  1
  O2-  O204  1  0.52734156  0.00682161  0.37679698  1
  O2-  O205  1  0.52054983  0.00508976  0.87320519  1
  O2-  O206  1  0.52410145  0.33415725  0.37712304  1
  O2-  O207  1  0.52804369  0.34300217  0.87344162  1
  O2-  O208  1  0.52524464  0.67076283  0.37451673  1
  O2-  O209  1  0.52246766  0.66679614  0.87692723  1
  O2-  O210  1  0.86095996  0.01015587  0.37744653  1
  O2-  O211  1  0.85860834  0.00385494  0.87500688  1
  O2-  O212  1  0.85976157  0.33739617  0.37731316  1
  O2-  O213  1  0.86019757  0.33919390  0.87487009  1
  O2-  O214  1  0.86094225  0.67183615  0.37341212  1
  O2-  O215  1  0.85911545  0.67346561  0.87527895  1
  O2-  O216  1  0.24017669  0.09306027  0.02256640  1
  O2-  O217  1  0.23827445  0.09513157  0.52254244  1
  O2-  O218  1  0.23540755  0.42888433  0.01486601  1
  O2-  O219  1  0.23526252  0.42759660  0.52497543  1
  O2-  O220  1  0.23521859  0.76409648  0.01671817  1
  O2-  O221  1  0.23719507  0.76174658  0.51676221  1
  O2-  O222  1  0.56962820  0.09595850  0.01334423  1
  O2-  O223  1  0.57257303  0.09500915  0.52359386  1
  O2-  O224  1  0.57232405  0.42936769  0.02301675  1
  O2-  O225  1  0.57123740  0.42686556  0.52434850  1
  O2-  O226  1  0.57648699  0.75718652  0.01838359  1
  O2-  O227  1  0.57219107  0.76161973  0.51705925  1
  O2-  O228  1  0.90469253  0.09528324  0.01660295  1
  O2-  O229  1  0.90391863  0.09753876  0.52345108  1
  O2-  O230  1  0.90224974  0.42760820  0.02093670  1
  O2-  O231  1  0.90262509  0.43149004  0.51822916  1
  O2-  O232  1  0.90388481  0.76227583  0.01877845  1
  O2-  O233  1  0.90678938  0.75919824  0.52356583  1
  O2-  O234  1  0.25709234  0.25886346  0.23376746  1
  O2-  O235  1  0.26135551  0.26327345  0.72851681  1
  O2-  O236  1  0.25731546  0.59382315  0.23291036  1
  O2-  O237  1  0.25667690  0.59142699  0.73533832  1
  O2-  O238  1  0.26327055  0.92936176  0.23375496  1
  O2-  O239  1  0.26178206  0.92566500  0.72776934  1
  O2-  O240  1  0.59598308  0.25951391  0.23201134  1
  O2-  O241  1  0.59354950  0.26150189  0.72726322  1
  O2-  O242  1  0.59720717  0.59067696  0.23062656  1
  O2-  O243  1  0.59614153  0.59688541  0.73377906  1
  O2-  O244  1  0.59926733  0.93335767  0.23321386  1
  O2-  O245  1  0.59513461  0.92582000  0.72522607  1
  O2-  O246  1  0.92427364  0.25993129  0.22642490  1
  O2-  O247  1  0.93373012  0.26574807  0.73131013  1
  O2-  O248  1  0.93052691  0.59537876  0.22697048  1
  O2-  O249  1  0.92780312  0.59342956  0.72877043  1
  O2-  O250  1  0.92795363  0.92634820  0.23263684  1
  O2-  O251  1  0.92850973  0.92851636  0.72936825  1
  O2-  O252  1  0.09445566  0.23788052  0.26706002  1
  O2-  O253  1  0.09710027  0.23686599  0.77292000  1
  O2-  O254  1  0.09494627  0.56786920  0.27187702  1
  O2-  O255  1  0.08996303  0.57554764  0.77276559  1
  O2-  O256  1  0.09482073  0.90386469  0.27175003  1
  O2-  O257  1  0.09652795  0.90760266  0.77327652  1
  O2-  O258  1  0.42666121  0.23838025  0.27023892  1
  O2-  O259  1  0.42960628  0.23906482  0.77207207  1
  O2-  O260  1  0.42217505  0.57379773  0.26687973  1
  O2-  O261  1  0.42862673  0.57161082  0.76632920  1
  O2-  O262  1  0.42910035  0.90895340  0.27248816  1
  O2-  O263  1  0.43162794  0.89974898  0.76657945  1
  O2-  O264  1  0.76039981  0.23830792  0.27117794  1
  O2-  O265  1  0.76566539  0.24087479  0.76883669  1
  O2-  O266  1  0.76509196  0.57225882  0.26936047  1
  O2-  O267  1  0.76024700  0.57277079  0.77230604  1
  O2-  O268  1  0.76384465  0.90422193  0.27271632  1
  O2-  O269  1  0.76254866  0.90165221  0.76635746  1
  O2-  O270  1  0.06898314  0.07183939  0.48040689  1
  O2-  O271  1  0.07508856  0.07220305  0.97819714  1
  O2-  O272  1  0.06803637  0.40326054  0.47870116  1
  O2-  O273  1  0.06976904  0.40626580  0.97818003  1
  O2-  O274  1  0.07010045  0.73436673  0.48432665  1
  O2-  O275  1  0.07345482  0.74009731  0.97746244  1
  O2-  O276  1  0.40522751  0.07299869  0.48019122  1
  O2-  O277  1  0.40420435  0.07067290  0.97707607  1
  O2-  O278  1  0.39888007  0.40434738  0.48342841  1
  O2-  O279  1  0.40666338  0.40613934  0.97831836  1
  O2-  O280  1  0.40647338  0.74128303  0.47463851  1
  O2-  O281  1  0.40355565  0.73811100  0.98042747  1
  O2-  O282  1  0.73831683  0.07122487  0.47958180  1
  O2-  O283  1  0.74242398  0.07645231  0.97997566  1
  O2-  O284  1  0.73911378  0.40450354  0.48167545  1
  O2-  O285  1  0.73626795  0.40402196  0.97610339  1
  O2-  O286  1  0.73764455  0.73718023  0.47969157  1
  O2-  O287  1  0.73939373  0.74012217  0.98049234  1
  O2-  O288  1  0.09718478  0.23622287  0.48388116  1
  O2-  O289  1  0.09562580  0.24041437  0.97606893  1
  O2-  O290  1  0.09306930  0.57082893  0.47811379  1
  O2-  O291  1  0.09428042  0.57287833  0.97726655  1
  O2-  O292  1  0.09626185  0.90316573  0.47632149  1
  O2-  O293  1  0.09540383  0.90762348  0.97816989  1
  O2-  O294  1  0.42713831  0.23927649  0.48117759  1
  O2-  O295  1  0.42728532  0.23720609  0.97609998  1
  O2-  O296  1  0.42244171  0.57690567  0.48076165  1
  O2-  O297  1  0.42959248  0.56988562  0.98593266  1
  O2-  O298  1  0.42877267  0.90522322  0.47912994  1
  O2-  O299  1  0.42995531  0.90375381  0.98070786  1
  O2-  O300  1  0.76107783  0.24127618  0.47860668  1
  O2-  O301  1  0.76328804  0.23808144  0.97987862  1
  O2-  O302  1  0.76360036  0.57294554  0.47919566  1
  O2-  O303  1  0.76142115  0.57221255  0.97994615  1
  O2-  O304  1  0.76493553  0.90397762  0.47751362  1
  O2-  O305  1  0.76296368  0.90338855  0.98233755  1
  O2-  O306  1  0.07277328  0.07347454  0.27166504  1
  O2-  O307  1  0.06974157  0.07018891  0.76744713  1
  O2-  O308  1  0.06613214  0.40068382  0.26912842  1
  O2-  O309  1  0.07210848  0.40879613  0.77431411  1
  O2-  O310  1  0.06990292  0.73644217  0.26804466  1
  O2-  O311  1  0.07259991  0.73912606  0.77062576  1
  O2-  O312  1  0.40586991  0.07264664  0.27286362  1
  O2-  O313  1  0.40467057  0.06931193  0.76905277  1
  O2-  O314  1  0.40375493  0.40525871  0.26828557  1
  O2-  O315  1  0.40432299  0.40443616  0.76995557  1
  O2-  O316  1  0.40413351  0.74326819  0.27283950  1
  O2-  O317  1  0.40449554  0.73654871  0.77123190  1
  O2-  O318  1  0.73964176  0.07385007  0.27313671  1
  O2-  O319  1  0.74110092  0.07207565  0.76678896  1
  O2-  O320  1  0.73952150  0.40341510  0.27052651  1
  O2-  O321  1  0.73524006  0.40590381  0.77062309  1
  O2-  O322  1  0.73919194  0.73703072  0.26906889  1
  O2-  O323  1  0.73796543  0.73958543  0.77179615  1
  O2-  O324  1  0.24000623  0.09505802  0.22922859  1
  O2-  O325  1  0.23742580  0.09203042  0.72532324  1
  O2-  O326  1  0.23438238  0.42791464  0.23381014  1
  O2-  O327  1  0.23802986  0.42900982  0.72749132  1
  O2-  O328  1  0.23572674  0.76200395  0.23242209  1
  O2-  O329  1  0.23632528  0.76461115  0.73406332  1
  O2-  O330  1  0.56911515  0.09751957  0.23431278  1
  O2-  O331  1  0.57113974  0.09309006  0.72923344  1
  O2-  O332  1  0.57341436  0.42462663  0.22745398  1
  O2-  O333  1  0.56940867  0.43089107  0.72665492  1
  O2-  O334  1  0.57625707  0.76102347  0.23449068  1
  O2-  O335  1  0.57366218  0.75958067  0.72966618  1
  O2-  O336  1  0.90402408  0.09747187  0.23274219  1
  O2-  O337  1  0.90601997  0.09737791  0.72860879  1
  O2-  O338  1  0.90401969  0.42901157  0.22879632  1
  O2-  O339  1  0.90188470  0.43052079  0.73249197  1
  O2-  O340  1  0.90511159  0.76139040  0.22739420  1
  O2-  O341  1  0.90546166  0.76018802  0.72875397  1
  O2-  O342  1  0.25956677  0.25873540  0.01623117  1
  O2-  O343  1  0.26000336  0.26315240  0.52285187  1
  O2-  O344  1  0.25666553  0.59070442  0.01791243  1
  O2-  O345  1  0.25948626  0.59499340  0.51395393  1
  O2-  O346  1  0.26105590  0.92654442  0.01765797  1
  O2-  O347  1  0.26384107  0.92830207  0.52037464  1
  O2-  O348  1  0.59483965  0.25835511  0.01867142  1
  O2-  O349  1  0.59516662  0.26120439  0.52332905  1
  O2-  O350  1  0.59595318  0.59279352  0.02184464  1
  O2-  O351  1  0.59654154  0.59579453  0.51496751  1
  O2-  O352  1  0.59710573  0.93014046  0.02147148  1
  O2-  O353  1  0.59805896  0.92708938  0.52075994  1
  O2-  O354  1  0.92687193  0.26215681  0.01851984  1
  O2-  O355  1  0.92876432  0.26331906  0.52442221  1
  O2-  O356  1  0.92965400  0.59528822  0.02249135  1
  O2-  O357  1  0.92913461  0.59394579  0.52179977  1
  O2-  O358  1  0.92518233  0.92589398  0.01788714  1
  O2-  O359  1  0.93069779  0.92889238  0.51988577  1
