# generated using pymatgen
data_Sr7Ca15Pr50Mn72O216
_symmetry_space_group_name_H-M   'P 1'
_cell_length_a   16.55447231
_cell_length_b   16.59881575
_cell_length_c   15.58805258
_cell_angle_alpha   90.00406591
_cell_angle_beta   90.00370265
_cell_angle_gamma   89.99399301
_symmetry_Int_Tables_number   1
_chemical_formula_structural   Sr7Ca15Pr50Mn72O216
_chemical_formula_sum   'Sr7 Ca15 Pr50 Mn72 O216'
_cell_volume   4283.35730589
_cell_formula_units_Z   1
loop_
 _symmetry_equiv_pos_site_id
 _symmetry_equiv_pos_as_xyz
  1  'x, y, z'
loop_
 _atom_type_symbol
 _atom_type_oxidation_number
  Sr2+  2.0
  Ca2+  2.0
  Pr3+  3.0
  Mn3.30+  3.3
  O2-  -2.0
loop_
 _atom_site_type_symbol
 _atom_site_label
 _atom_site_symmetry_multiplicity
 _atom_site_fract_x
 _atom_site_fract_y
 _atom_site_fract_z
 _atom_site_occupancy
  Sr2+  Sr0  1  0.83577647  0.17714646  0.62365306  1
  Sr2+  Sr1  1  0.16065318  0.15576274  0.87437657  1
  Sr2+  Sr2  1  0.16696107  0.84543069  0.12523334  1
  Sr2+  Sr3  1  0.83416939  0.17514376  0.12651920  1
  Sr2+  Sr4  1  1.00376035  0.32423015  0.87268438  1
  Sr2+  Sr5  1  0.67105970  0.32252898  0.87447230  1
  Sr2+  Sr6  1  0.66675657  0.67970055  0.12414058  1
  Ca2+  Ca7  1  0.16888051  0.84961557  0.62543532  1
  Ca2+  Ca8  1  1.00158765  0.98945841  0.87418807  1
  Ca2+  Ca9  1  0.82966665  0.82291780  0.87433378  1
  Ca2+  Ca10  1  0.66846017  0.98418042  0.37624849  1
  Ca2+  Ca11  1  0.49534666  0.14712405  0.37632478  1
  Ca2+  Ca12  1  0.16135463  0.48328744  0.87325481  1
  Ca2+  Ca13  1  0.83352590  0.84835321  0.62764615  1
  Ca2+  Ca14  1  0.34141782  0.31502014  0.37754754  1
  Ca2+  Ca15  1  0.66419897  0.68332677  0.62649467  1
  Ca2+  Ca16  1  0.83518928  0.84931522  0.12223697  1
  Ca2+  Ca17  1  0.50063805  0.82165053  0.37530084  1
  Ca2+  Ca18  1  0.34008816  0.98136826  0.37561478  1
  Ca2+  Ca19  1  0.32952484  0.34773968  0.62351451  1
  Ca2+  Ca20  1  -0.00195531  0.34562213  0.62785975  1
  Ca2+  Ca21  1  0.67352448  0.98399452  0.87384596  1
  Pr3+  Pr22  1  1.00172311  0.65572398  0.37563016  1
  Pr3+  Pr23  1  0.16904214  0.15258148  0.37607578  1
  Pr3+  Pr24  1  0.16495434  0.82297251  0.37610539  1
  Pr3+  Pr25  1  1.00352992  0.32015992  0.37719539  1
  Pr3+  Pr26  1  0.83038157  0.48835740  0.37520894  1
  Pr3+  Pr27  1  0.83088158  0.15426805  0.87367304  1
  Pr3+  Pr28  1  0.33033245  0.68126642  0.12463602  1
  Pr3+  Pr29  1  0.67140464  0.65614327  0.87381660  1
  Pr3+  Pr30  1  0.50252724  0.17918828  0.62268288  1
  Pr3+  Pr31  1  0.66872594  0.31943648  0.37577850  1
  Pr3+  Pr32  1  0.16977894  0.18201234  0.62509675  1
  Pr3+  Pr33  1  0.99941337  0.98851497  0.37604957  1
  Pr3+  Pr34  1  0.32778585  0.68201435  0.62570231  1
  Pr3+  Pr35  1  0.32993419  0.01073633  0.62239974  1
  Pr3+  Pr36  1  0.82750257  0.14898576  0.37610007  1
  Pr3+  Pr37  1  0.66479474  0.34419199  0.12429998  1
  Pr3+  Pr38  1  0.49437391  0.48631938  0.37476275  1
  Pr3+  Pr39  1  0.33314407  0.98914197  0.87455316  1
  Pr3+  Pr40  1  0.16852815  0.17677324  0.12510824  1
  Pr3+  Pr41  1  0.66564360  0.34411523  0.62594477  1
  Pr3+  Pr42  1  0.33723954  0.65814395  0.37513054  1
  Pr3+  Pr43  1  0.50368119  0.51382549  0.62524530  1
  Pr3+  Pr44  1  0.83142234  0.48516563  0.87458808  1
  Pr3+  Pr45  1  0.49988527  0.82154028  0.87426210  1
  Pr3+  Pr46  1  0.83676980  0.51015312  0.62637872  1
  Pr3+  Pr47  1  0.66589623  0.00927421  0.12522731  1
  Pr3+  Pr48  1  0.33301535  0.65346411  0.87497414  1
  Pr3+  Pr49  1  0.82754137  0.82386670  0.37643921  1
  Pr3+  Pr50  1  0.66614558  0.65748528  0.37616389  1
  Pr3+  Pr51  1  0.33028739  0.34434245  0.12629276  1
  Pr3+  Pr52  1  0.16791213  0.50910707  0.62830614  1
  Pr3+  Pr53  1  0.83578688  0.51254707  0.12327300  1
  Pr3+  Pr54  1  0.66488826  0.01203601  0.62456364  1
  Pr3+  Pr55  1  0.33051019  0.01104943  0.12786343  1
  Pr3+  Pr56  1  -0.00104870  0.34513726  0.12391338  1
  Pr3+  Pr57  1  -0.00458854  0.68225355  0.62544818  1
  Pr3+  Pr58  1  0.15910367  0.82688582  0.87376253  1
  Pr3+  Pr59  1  0.49952944  0.15321207  0.87389787  1
  Pr3+  Pr60  1  0.16917149  0.51272586  0.12193773  1
  Pr3+  Pr61  1  0.50480144  0.84556611  0.12627643  1
  Pr3+  Pr62  1  1.00190401  0.65478316  0.87459182  1
  Pr3+  Pr63  1  0.33342620  0.31952953  0.87204205  1
  Pr3+  Pr64  1  -0.00282877  0.01159788  0.62657662  1
  Pr3+  Pr65  1  -0.00409467  0.01121138  0.12285830  1
  Pr3+  Pr66  1  0.49912027  0.48615898  0.87517077  1
  Pr3+  Pr67  1  0.50464168  0.17695981  0.12713316  1
  Pr3+  Pr68  1  0.16669574  0.48761524  0.37635130  1
  Pr3+  Pr69  1  0.50412529  0.84551671  0.62372606  1
  Pr3+  Pr70  1  0.50439334  0.51357042  0.12460406  1
  Pr3+  Pr71  1  -0.00704285  0.68458634  0.12416163  1
  Mn3.30+  Mn72  1  0.16411572  0.00079052  -0.00004654  1
  Mn3.30+  Mn73  1  0.16828106  -0.00104719  0.49877342  1
  Mn3.30+  Mn74  1  0.16600873  0.33284922  -0.00055525  1
  Mn3.30+  Mn75  1  0.17086888  0.33350451  0.49950124  1
  Mn3.30+  Mn76  1  0.16528905  0.66787995  -0.00133104  1
  Mn3.30+  Mn77  1  0.16646579  0.66784354  0.50201888  1
  Mn3.30+  Mn78  1  0.50160805  -0.00097927  -0.00169583  1
  Mn3.30+  Mn79  1  0.49884283  -0.00162005  0.49680917  1
  Mn3.30+  Mn80  1  0.49953552  0.33126238  -0.00085913  1
  Mn3.30+  Mn81  1  0.49729819  0.33204627  0.50013487  1
  Mn3.30+  Mn82  1  0.50075194  0.66717149  -0.00132413  1
  Mn3.30+  Mn83  1  0.50066307  0.66826076  0.50179368  1
  Mn3.30+  Mn84  1  0.83314998  -0.00115383  -0.00300178  1
  Mn3.30+  Mn85  1  0.83120321  -0.00209119  0.50205815  1
  Mn3.30+  Mn86  1  0.83440835  0.33124284  0.00065212  1
  Mn3.30+  Mn87  1  0.83586115  0.33284153  0.50033566  1
  Mn3.30+  Mn88  1  0.83350983  0.67093873  -0.00140373  1
  Mn3.30+  Mn89  1  0.83128983  0.66877427  0.50300189  1
  Mn3.30+  Mn90  1  -0.00004192  0.16607987  0.25204769  1
  Mn3.30+  Mn91  1  -0.00062443  0.16782800  0.74925779  1
  Mn3.30+  Mn92  1  0.00124500  0.50113762  0.25058498  1
  Mn3.30+  Mn93  1  0.00191885  0.49966283  0.74975611  1
  Mn3.30+  Mn94  1  -0.00253026  0.83496939  0.24981181  1
  Mn3.30+  Mn95  1  -0.00352045  0.83567562  0.74949760  1
  Mn3.30+  Mn96  1  0.33715200  0.16518389  0.25315456  1
  Mn3.30+  Mn97  1  0.33267827  0.16643851  0.74850510  1
  Mn3.30+  Mn98  1  0.33353969  0.49895855  0.24983751  1
  Mn3.30+  Mn99  1  0.33252057  0.49870397  0.75044996  1
  Mn3.30+  Mn100  1  0.33519089  0.83415236  0.25137670  1
  Mn3.30+  Mn101  1  0.33071740  0.83442319  0.74976126  1
  Mn3.30+  Mn102  1  0.66468415  0.16382022  0.25274674  1
  Mn3.30+  Mn103  1  0.66726852  0.16582324  0.74992356  1
  Mn3.30+  Mn104  1  0.66554250  0.50069351  0.25100305  1
  Mn3.30+  Mn105  1  0.66821045  0.50109914  0.74843441  1
  Mn3.30+  Mn106  1  0.66643009  0.83436324  0.25026186  1
  Mn3.30+  Mn107  1  0.66960022  0.83414147  0.74939705  1
  Mn3.30+  Mn108  1  0.16842168  -0.00035678  0.25249305  1
  Mn3.30+  Mn109  1  0.16388570  0.00049430  0.74913581  1
  Mn3.30+  Mn110  1  0.17009213  0.33228540  0.25342760  1
  Mn3.30+  Mn111  1  0.16640792  0.33394606  0.74740371  1
  Mn3.30+  Mn112  1  0.16660892  0.66770667  0.24935313  1
  Mn3.30+  Mn113  1  0.16486251  0.66818195  0.74998939  1
  Mn3.30+  Mn114  1  0.49939854  -0.00182546  0.25438926  1
  Mn3.30+  Mn115  1  0.50151313  -0.00094296  0.75066502  1
  Mn3.30+  Mn116  1  0.49825271  0.33056385  0.25184876  1
  Mn3.30+  Mn117  1  0.49867879  0.33288445  0.74846310  1
  Mn3.30+  Mn118  1  0.50064808  0.66838128  0.25005025  1
  Mn3.30+  Mn119  1  0.50061951  0.66713918  0.74959256  1
  Mn3.30+  Mn120  1  0.83105333  -0.00217763  0.24991284  1
  Mn3.30+  Mn121  1  0.83364717  -0.00153061  0.75155989  1
  Mn3.30+  Mn122  1  0.83396949  0.33224625  0.25034104  1
  Mn3.30+  Mn123  1  0.83585685  0.33161477  0.74860707  1
  Mn3.30+  Mn124  1  0.83279003  0.66935618  0.24993891  1
  Mn3.30+  Mn125  1  0.83255862  0.67009972  0.74848704  1
  Mn3.30+  Mn126  1  -0.00077040  0.16657230  -0.00087869  1
  Mn3.30+  Mn127  1  0.00007542  0.16716978  0.50021824  1
  Mn3.30+  Mn128  1  0.00263798  0.50116670  -0.00098552  1
  Mn3.30+  Mn129  1  0.00050064  0.49946013  0.50053434  1
  Mn3.30+  Mn130  1  -0.00464381  0.83658224  -0.00252692  1
  Mn3.30+  Mn131  1  -0.00132200  0.83419959  0.50272166  1
  Mn3.30+  Mn132  1  0.33367705  0.16545871  -0.00062059  1
  Mn3.30+  Mn133  1  0.33617576  0.16627404  0.49886183  1
  Mn3.30+  Mn134  1  0.33261421  0.49851411  -0.00171275  1
  Mn3.30+  Mn135  1  0.33398749  0.49868704  0.50142917  1
  Mn3.30+  Mn136  1  0.33190907  0.83417636  -0.00092330  1
  Mn3.30+  Mn137  1  0.33402372  0.83384789  0.50005165  1
  Mn3.30+  Mn138  1  0.66773085  0.16482333  -0.00056155  1
  Mn3.30+  Mn139  1  0.66418011  0.16515500  0.49852095  1
  Mn3.30+  Mn140  1  0.66772371  0.50014713  -0.00034136  1
  Mn3.30+  Mn141  1  0.66593886  0.50137455  0.50052360  1
  Mn3.30+  Mn142  1  0.66981109  0.83502753  -0.00088103  1
  Mn3.30+  Mn143  1  0.66596563  0.83363859  0.50125475  1
  O2-  O144  1  0.02396374  0.15939436  0.13084225  1
  O2-  O145  1  0.02492856  0.15839889  0.62137840  1
  O2-  O146  1  0.02570505  0.49596110  0.12656641  1
  O2-  O147  1  0.02348031  0.49583850  0.62407076  1
  O2-  O148  1  0.01914034  0.83157187  0.12601087  1
  O2-  O149  1  0.02801263  0.82858296  0.62401582  1
  O2-  O150  1  0.36058799  0.15950622  0.12798373  1
  O2-  O151  1  0.35969715  0.15687687  0.62440942  1
  O2-  O152  1  0.36149159  0.49193366  0.12301314  1
  O2-  O153  1  0.36025198  0.49425824  0.62599057  1
  O2-  O154  1  0.35968345  0.83010083  0.12285693  1
  O2-  O155  1  0.35924553  0.83059029  0.62549031  1
  O2-  O156  1  0.68467939  0.15825658  0.12722931  1
  O2-  O157  1  0.68558374  0.16135066  0.62325007  1
  O2-  O158  1  0.69027454  0.49395037  0.12601585  1
  O2-  O159  1  0.69219494  0.49185259  0.62319574  1
  O2-  O160  1  0.69184415  0.83489065  0.12353077  1
  O2-  O161  1  0.69131128  0.82790812  0.62605075  1
  O2-  O162  1  0.14376732  0.32674218  0.13002483  1
  O2-  O163  1  0.14070081  0.33085718  0.62156091  1
  O2-  O164  1  0.13868530  0.66020185  0.12490695  1
  O2-  O165  1  0.13934485  0.65643601  0.62691634  1
  O2-  O166  1  0.14240041  1.00254612  0.12862848  1
  O2-  O167  1  0.14230456  0.99510633  0.62303838  1
  O2-  O168  1  0.47318995  0.32521728  0.12600966  1
  O2-  O169  1  0.47131750  0.32785229  0.62440525  1
  O2-  O170  1  0.47467534  0.66212922  0.12201738  1
  O2-  O171  1  0.47248159  0.66213262  0.62756332  1
  O2-  O172  1  0.47423157  0.99331576  0.12663337  1
  O2-  O173  1  0.47385656  0.99270419  0.62524222  1
  O2-  O174  1  0.80936683  0.33279532  0.12787298  1
  O2-  O175  1  0.80936102  0.33510142  0.62245683  1
  O2-  O176  1  0.81505410  0.65826988  0.12544343  1
  O2-  O177  1  0.80469057  0.65549325  0.62509410  1
  O2-  O178  1  0.80985481  0.99601422  0.12401463  1
  O2-  O179  1  0.80863845  0.99594801  0.62602027  1
  O2-  O180  1  0.31039844  0.17427595  0.37586281  1
  O2-  O181  1  0.31134607  0.17082745  0.87120181  1
  O2-  O182  1  0.30917565  0.51170555  0.37602077  1
  O2-  O183  1  0.30410988  0.50575801  0.87513552  1
  O2-  O184  1  0.30889803  0.83141855  0.37760505  1
  O2-  O185  1  0.30508658  0.83985495  0.87432889  1
  O2-  O186  1  0.63767248  0.17447218  0.37576661  1
  O2-  O187  1  0.64236681  0.17076103  0.87393780  1
  O2-  O188  1  0.63932740  0.50714056  0.37682553  1
  O2-  O189  1  0.64381927  0.50573230  0.87342103  1
  O2-  O190  1  0.64230996  0.83756989  0.37665725  1
  O2-  O191  1  0.64193188  0.83819897  0.87370378  1
  O2-  O192  1  0.97337697  0.17285235  0.37606830  1
  O2-  O193  1  0.97566819  0.17240287  0.87202369  1
  O2-  O194  1  0.97476297  0.50677297  0.37514107  1
  O2-  O195  1  0.97500849  0.50578243  0.87376496  1
  O2-  O196  1  0.97234322  0.83780058  0.37674853  1
  O2-  O197  1  0.97202667  0.84142198  0.87290013  1
  O2-  O198  1  0.19672725  0.00388937  0.37546994  1
  O2-  O199  1  0.18954802  -0.00094583  0.87345658  1
  O2-  O200  1  0.19977493  0.34065760  0.37510459  1
  O2-  O201  1  0.19017967  0.33714746  0.87263597  1
  O2-  O202  1  0.19215981  0.67353841  0.37566786  1
  O2-  O203  1  0.19055843  0.67949428  0.87276068  1
  O2-  O204  1  0.52836641  0.00496455  0.37574230  1
  O2-  O205  1  0.52911349  0.00514697  0.87251414  1
  O2-  O206  1  0.52621617  0.34178965  0.37569611  1
  O2-  O207  1  0.52124367  0.33764516  0.87322923  1
  O2-  O208  1  0.52108071  0.67155904  0.37706550  1
  O2-  O209  1  0.52559221  0.67137503  0.87364022  1
  O2-  O210  1  0.85473330  -0.00131938  0.37684481  1
  O2-  O211  1  0.86078649  0.00841779  0.87369978  1
  O2-  O212  1  0.85911124  0.34071123  0.37467605  1
  O2-  O213  1  0.85293981  0.33647769  0.87453269  1
  O2-  O214  1  0.85874809  0.67510493  0.37621087  1
  O2-  O215  1  0.85909100  0.67603570  0.87260685  1
  O2-  O216  1  0.24180734  0.09349268  0.02138431  1
  O2-  O217  1  0.23810441  0.09514122  0.51993363  1
  O2-  O218  1  0.24158958  0.42568473  0.02314166  1
  O2-  O219  1  0.23731806  0.43154832  0.51960020  1
  O2-  O220  1  0.24077762  0.75741352  0.01950634  1
  O2-  O221  1  0.23614758  0.76196488  0.52314000  1
  O2-  O222  1  0.57152402  0.09327858  0.01953842  1
  O2-  O223  1  0.56928123  0.09162496  0.52221202  1
  O2-  O224  1  0.57009986  0.42422842  0.02047490  1
  O2-  O225  1  0.56989210  0.42746928  0.52137686  1
  O2-  O226  1  0.57091918  0.76458481  0.01511361  1
  O2-  O227  1  0.57217810  0.76217221  0.52009507  1
  O2-  O228  1  0.90616962  0.09309271  0.01763486  1
  O2-  O229  1  0.90596794  0.09019798  0.51350545  1
  O2-  O230  1  0.90818025  0.42943665  0.01967457  1
  O2-  O231  1  0.90339343  0.43128943  0.51578358  1
  O2-  O232  1  0.90363900  0.76271711  0.02206519  1
  O2-  O233  1  0.90219944  0.76200566  0.52385036  1
  O2-  O234  1  0.26241579  0.25906059  0.22819872  1
  O2-  O235  1  0.26259353  0.26275197  0.72705024  1
  O2-  O236  1  0.26143716  0.59343201  0.22666388  1
  O2-  O237  1  0.26251702  0.59456242  0.73019863  1
  O2-  O238  1  0.26358060  0.92733420  0.23320340  1
  O2-  O239  1  0.26200324  0.92995911  0.73170031  1
  O2-  O240  1  0.59566457  0.26190325  0.22944459  1
  O2-  O241  1  0.59095563  0.26054331  0.72676215  1
  O2-  O242  1  0.59102260  0.59307311  0.23221482  1
  O2-  O243  1  0.59556422  0.59452039  0.72803787  1
  O2-  O244  1  0.59361867  0.92736737  0.22792637  1
  O2-  O245  1  0.59488415  0.92588269  0.72684242  1
  O2-  O246  1  0.93353409  0.26358848  0.23405633  1
  O2-  O247  1  0.92964036  0.26336074  0.72835488  1
  O2-  O248  1  0.92882802  0.59763637  0.23178104  1
  O2-  O249  1  0.92843352  0.59575308  0.72986526  1
  O2-  O250  1  0.92905732  0.92991090  0.23383791  1
  O2-  O251  1  0.92750316  0.92819026  0.72665982  1
  O2-  O252  1  0.09768400  0.23898735  0.27398639  1
  O2-  O253  1  0.09631118  0.23806379  0.75983220  1
  O2-  O254  1  0.09548548  0.57274077  0.27216223  1
  O2-  O255  1  0.09505627  0.57393065  0.77291140  1
  O2-  O256  1  0.09152752  0.90683012  0.27426925  1
  O2-  O257  1  0.09284966  0.90535632  0.76688060  1
  O2-  O258  1  0.43317786  0.23308152  0.27038993  1
  O2-  O259  1  0.42806275  0.23777801  0.76972605  1
  O2-  O260  1  0.42669900  0.57025600  0.26808145  1
  O2-  O261  1  0.42726949  0.57088681  0.77219447  1
  O2-  O262  1  0.43232330  0.90112363  0.27069069  1
  O2-  O263  1  0.42843024  0.90675947  0.77215948  1
  O2-  O264  1  0.75840985  0.23745298  0.27332542  1
  O2-  O265  1  0.76214914  0.23811146  0.76523862  1
  O2-  O266  1  0.76249277  0.57488749  0.27099752  1
  O2-  O267  1  0.76440169  0.57377197  0.77245727  1
  O2-  O268  1  0.75990101  0.90477788  0.26886508  1
  O2-  O269  1  0.76307288  0.90397353  0.77016115  1
  O2-  O270  1  0.07478826  0.07275512  0.47690007  1
  O2-  O271  1  0.06914947  0.07014626  0.98409578  1
  O2-  O272  1  0.07753080  0.40641288  0.47501533  1
  O2-  O273  1  0.07538489  0.40705103  0.98750622  1
  O2-  O274  1  0.06955408  0.74013719  0.47925820  1
  O2-  O275  1  0.06650040  0.74292022  0.97920950  1
  O2-  O276  1  0.40334884  0.06486346  0.48073608  1
  O2-  O277  1  0.40684398  0.07196494  0.97865398  1
  O2-  O278  1  0.40527197  0.40487375  0.47630122  1
  O2-  O279  1  0.40328542  0.40507981  0.97729795  1
  O2-  O280  1  0.40112435  0.73512437  0.48643786  1
  O2-  O281  1  0.40542399  0.73877806  0.97729740  1
  O2-  O282  1  0.73622666  0.07158899  0.47862981  1
  O2-  O283  1  0.73891924  0.06979421  0.97828760  1
  O2-  O284  1  0.73854419  0.40585661  0.47821614  1
  O2-  O285  1  0.74317028  0.40834454  0.98460044  1
  O2-  O286  1  0.73751647  0.73981999  0.47804445  1
  O2-  O287  1  0.73695180  0.73936352  0.97888751  1
  O2-  O288  1  0.10018980  0.23998019  0.47710205  1
  O2-  O289  1  0.09485924  0.23774596  0.99054564  1
  O2-  O290  1  0.09447629  0.57366341  0.47873974  1
  O2-  O291  1  0.09646991  0.57293139  0.97698593  1
  O2-  O292  1  0.09370360  0.90794014  0.47613413  1
  O2-  O293  1  0.09182724  0.90585404  0.98208179  1
  O2-  O294  1  0.43393747  0.23377470  0.48113727  1
  O2-  O295  1  0.42810053  0.23768307  0.97923494  1
  O2-  O296  1  0.42844631  0.57045239  0.48181081  1
  O2-  O297  1  0.42615899  0.57020324  0.97751766  1
  O2-  O298  1  0.43185897  0.90035889  0.48059767  1
  O2-  O299  1  0.42815384  0.90686538  0.97687060  1
  O2-  O300  1  0.76214846  0.24084671  0.47738543  1
  O2-  O301  1  0.76090730  0.23576415  0.98410903  1
  O2-  O302  1  0.76147724  0.57392767  0.47667794  1
  O2-  O303  1  0.76477462  0.57563324  0.97879678  1
  O2-  O304  1  0.75955522  0.90426800  0.48365085  1
  O2-  O305  1  0.76289113  0.90549057  0.97763290  1
  O2-  O306  1  0.07426079  0.07424678  0.27575687  1
  O2-  O307  1  0.06962861  0.06946085  0.76522289  1
  O2-  O308  1  0.07509010  0.40505893  0.27226727  1
  O2-  O309  1  0.07645014  0.41009147  0.76481772  1
  O2-  O310  1  0.07015502  0.74078152  0.27072672  1
  O2-  O311  1  0.06719518  0.74084186  0.77049212  1
  O2-  O312  1  0.40321134  0.06570183  0.27058256  1
  O2-  O313  1  0.40692871  0.07170858  0.77077683  1
  O2-  O314  1  0.40345104  0.40188935  0.27184738  1
  O2-  O315  1  0.40626831  0.40679105  0.77376622  1
  O2-  O316  1  0.40397975  0.73579771  0.26498907  1
  O2-  O317  1  0.40224495  0.73909789  0.77112435  1
  O2-  O318  1  0.73689106  0.07045094  0.27274478  1
  O2-  O319  1  0.74024202  0.06951971  0.77046369  1
  O2-  O320  1  0.73784818  0.40671312  0.27164155  1
  O2-  O321  1  0.74252981  0.40819885  0.76529948  1
  O2-  O322  1  0.73813841  0.74012656  0.27315395  1
  O2-  O323  1  0.73602020  0.73778887  0.76871255  1
  O2-  O324  1  0.24093252  0.09633884  0.23142559  1
  O2-  O325  1  0.23990251  0.09328404  0.72653210  1
  O2-  O326  1  0.23896615  0.42976950  0.22830118  1
  O2-  O327  1  0.24082938  0.42739032  0.72925474  1
  O2-  O328  1  0.24115195  0.75875780  0.23169372  1
  O2-  O329  1  0.23501761  0.76172360  0.72624858  1
  O2-  O330  1  0.57071288  0.09147325  0.22923314  1
  O2-  O331  1  0.57091268  0.09338050  0.72842682  1
  O2-  O332  1  0.56861248  0.42528778  0.22901662  1
  O2-  O333  1  0.57145988  0.42703258  0.72885316  1
  O2-  O334  1  0.57255440  0.76299785  0.23216927  1
  O2-  O335  1  0.56973608  0.76366873  0.73307528  1
  O2-  O336  1  0.90636129  0.09072761  0.23797483  1
  O2-  O337  1  0.90700548  0.09326848  0.73117347  1
  O2-  O338  1  0.90761497  0.43091026  0.22935242  1
  O2-  O339  1  0.90570477  0.42986632  0.73373505  1
  O2-  O340  1  0.90294748  0.76373998  0.22946272  1
  O2-  O341  1  0.90438976  0.76088869  0.72326743  1
  O2-  O342  1  0.26252481  0.26033792  0.01981440  1
  O2-  O343  1  0.26212646  0.26191015  0.52374802  1
  O2-  O344  1  0.26425961  0.59188304  0.02179207  1
  O2-  O345  1  0.26215829  0.59407138  0.52253239  1
  O2-  O346  1  0.26206677  0.93029844  0.01728833  1
  O2-  O347  1  0.26216247  0.92657039  0.51865153  1
  O2-  O348  1  0.59376446  0.25792361  0.02273600  1
  O2-  O349  1  0.59497648  0.26354034  0.52065721  1
  O2-  O350  1  0.59096552  0.59140683  0.01693093  1
  O2-  O351  1  0.59451501  0.59649325  0.52275183  1
  O2-  O352  1  0.59411348  0.92636378  0.02125473  1
  O2-  O353  1  0.59417995  0.92696901  0.52370255  1
  O2-  O354  1  0.92924877  0.26208956  0.02074779  1
  O2-  O355  1  0.93325921  0.26687214  0.51676087  1
  O2-  O356  1  0.93015032  0.59648399  0.01773739  1
  O2-  O357  1  0.92619244  0.59752153  0.51994441  1
  O2-  O358  1  0.92701988  0.92969376  0.02039919  1
  O2-  O359  1  0.93026292  0.92793104  0.51908642  1
