# generated using pymatgen
data_Sr7Ca15Pr50Mn72O216
_symmetry_space_group_name_H-M   'P 1'
_cell_length_a   16.56012048
_cell_length_b   16.60681563
_cell_length_c   15.59281393
_cell_angle_alpha   90.00330183
_cell_angle_beta   90.00696638
_cell_angle_gamma   89.99519924
_symmetry_Int_Tables_number   1
_chemical_formula_structural   Sr7Ca15Pr50Mn72O216
_chemical_formula_sum   'Sr7 Ca15 Pr50 Mn72 O216'
_cell_volume   4288.19323175
_cell_formula_units_Z   1
loop_
 _symmetry_equiv_pos_site_id
 _symmetry_equiv_pos_as_xyz
  1  'x, y, z'
loop_
 _atom_type_symbol
 _atom_type_oxidation_number
  Sr2+  2.0
  Ca2+  2.0
  Pr3+  3.0
  Mn3.30+  3.3
  O2-  -2.0
loop_
 _atom_site_type_symbol
 _atom_site_label
 _atom_site_symmetry_multiplicity
 _atom_site_fract_x
 _atom_site_fract_y
 _atom_site_fract_z
 _atom_site_occupancy
  Sr2+  Sr0  1  0.83903638  0.51300257  0.62500186  1
  Sr2+  Sr1  1  0.16574438  0.48989676  0.87308116  1
  Sr2+  Sr2  1  0.83453422  0.17510364  0.12473910  1
  Sr2+  Sr3  1  0.16883967  0.51118223  0.62396290  1
  Sr2+  Sr4  1  0.16723056  0.17509636  0.62571351  1
  Sr2+  Sr5  1  -0.00196795  0.01310051  0.12553227  1
  Sr2+  Sr6  1  0.83293106  0.49044540  0.87286153  1
  Ca2+  Ca7  1  0.50247181  0.51437201  0.62230971  1
  Ca2+  Ca8  1  0.16420783  0.48533973  0.37723908  1
  Ca2+  Ca9  1  0.00007767  0.01218281  0.62485777  1
  Ca2+  Ca10  1  -0.00187761  0.67846062  0.62565931  1
  Ca2+  Ca11  1  0.50403255  0.84973064  0.12655748  1
  Ca2+  Ca12  1  0.83085579  0.82064765  0.37551730  1
  Ca2+  Ca13  1  0.16676668  0.84391299  0.62442850  1
  Ca2+  Ca14  1  0.49659825  0.48565391  0.37725282  1
  Ca2+  Ca15  1  0.16180999  0.15356918  0.87336896  1
  Ca2+  Ca16  1  0.49592911  0.15077042  0.87500894  1
  Ca2+  Ca17  1  0.67103385  0.98288852  0.37464121  1
  Ca2+  Ca18  1  -0.00339248  0.68059397  0.12467546  1
  Ca2+  Ca19  1  0.16993020  0.18009433  0.12455542  1
  Ca2+  Ca20  1  0.49659481  0.15081356  0.37540999  1
  Ca2+  Ca21  1  0.32651417  0.68086030  0.62492451  1
  Pr3+  Pr22  1  0.50250398  0.51191814  0.12750581  1
  Pr3+  Pr23  1  0.66728696  0.32121357  0.37534023  1
  Pr3+  Pr24  1  0.50388304  0.17907902  0.12481604  1
  Pr3+  Pr25  1  0.16587662  0.84613875  0.12566313  1
  Pr3+  Pr26  1  0.33528519  0.98829378  0.37676236  1
  Pr3+  Pr27  1  0.66235373  0.68296839  0.12586273  1
  Pr3+  Pr28  1  0.83821282  0.17814462  0.62484509  1
  Pr3+  Pr29  1  0.33361827  0.65280363  0.87276144  1
  Pr3+  Pr30  1  0.66317028  0.34966864  0.62466462  1
  Pr3+  Pr31  1  0.49739224  0.82141607  0.37513355  1
  Pr3+  Pr32  1  0.32866887  0.34473181  0.12588004  1
  Pr3+  Pr33  1  0.16337942  0.82196125  0.87388230  1
  Pr3+  Pr34  1  0.83886230  0.51353962  0.12520045  1
  Pr3+  Pr35  1  0.66621190  0.67679136  0.62433062  1
  Pr3+  Pr36  1  0.33676287  0.31995042  0.37649636  1
  Pr3+  Pr37  1  0.33113587  0.68044279  0.12539313  1
  Pr3+  Pr38  1  -0.00010548  0.34121036  0.12464502  1
  Pr3+  Pr39  1  0.83302654  0.15498780  0.87634393  1
  Pr3+  Pr40  1  0.83761812  0.84630861  0.12722773  1
  Pr3+  Pr41  1  0.83259798  0.82135162  0.87565856  1
  Pr3+  Pr42  1  0.16386057  0.82142814  0.37640418  1
  Pr3+  Pr43  1  0.32908192  0.01068141  0.62427586  1
  Pr3+  Pr44  1  1.00497924  0.32145020  0.87297745  1
  Pr3+  Pr45  1  0.66317990  0.01138385  0.12688236  1
  Pr3+  Pr46  1  0.66844173  0.98808553  0.87487059  1
  Pr3+  Pr47  1  0.66938941  0.65324417  0.87418295  1
  Pr3+  Pr48  1  0.32997185  0.34620379  0.62426663  1
  Pr3+  Pr49  1  0.33471973  0.31742058  0.87381380  1
  Pr3+  Pr50  1  0.67008513  0.32065892  0.87423127  1
  Pr3+  Pr51  1  1.00478407  0.99010560  0.87485886  1
  Pr3+  Pr52  1  1.00361391  0.65270447  0.87441635  1
  Pr3+  Pr53  1  0.16351899  0.15470046  0.37561700  1
  Pr3+  Pr54  1  0.83907425  0.84571294  0.62308535  1
  Pr3+  Pr55  1  0.50125265  0.84479415  0.62378642  1
  Pr3+  Pr56  1  0.16933436  0.51326934  0.12606776  1
  Pr3+  Pr57  1  1.00374912  0.65391468  0.37568297  1
  Pr3+  Pr58  1  0.66405329  0.01219753  0.62276210  1
  Pr3+  Pr59  1  0.82952607  0.15167403  0.37364842  1
  Pr3+  Pr60  1  0.33580602  0.65105626  0.37734597  1
  Pr3+  Pr61  1  1.00318861  0.32285555  0.37668739  1
  Pr3+  Pr62  1  0.50250985  0.17888467  0.62505564  1
  Pr3+  Pr63  1  0.33354215  0.98924053  0.87335757  1
  Pr3+  Pr64  1  0.00054349  0.34703919  0.62467204  1
  Pr3+  Pr65  1  0.33026264  0.01431047  0.12592145  1
  Pr3+  Pr66  1  0.83136357  0.48753367  0.37713423  1
  Pr3+  Pr67  1  0.66579892  0.34528741  0.12492246  1
  Pr3+  Pr68  1  0.49553511  0.48722831  0.87335824  1
  Pr3+  Pr69  1  0.49470780  0.82005669  0.87473229  1
  Pr3+  Pr70  1  1.00167384  0.98691289  0.37485212  1
  Pr3+  Pr71  1  0.66949922  0.65487562  0.37560049  1
  Mn3.30+  Mn72  1  0.16698096  0.00375456  0.00102188  1
  Mn3.30+  Mn73  1  0.16528388  -0.00155373  0.50206515  1
  Mn3.30+  Mn74  1  0.16698926  0.33130244  -0.00100292  1
  Mn3.30+  Mn75  1  0.16850885  0.33408955  0.50000390  1
  Mn3.30+  Mn76  1  0.16485313  0.66739711  0.00158688  1
  Mn3.30+  Mn77  1  0.16726306  0.66636890  0.50218312  1
  Mn3.30+  Mn78  1  0.49879247  -0.00030154  0.00004038  1
  Mn3.30+  Mn79  1  0.50144728  0.00037459  0.49769814  1
  Mn3.30+  Mn80  1  0.49919640  0.33190763  -0.00084535  1
  Mn3.30+  Mn81  1  0.49990731  0.33417923  0.49936697  1
  Mn3.30+  Mn82  1  0.49973232  0.66749467  0.00068980  1
  Mn3.30+  Mn83  1  0.49777485  0.66459343  0.50177840  1
  Mn3.30+  Mn84  1  0.83459395  0.00012534  0.00001002  1
  Mn3.30+  Mn85  1  0.83303551  -0.00174833  0.49926074  1
  Mn3.30+  Mn86  1  0.83421058  0.33341920  -0.00031422  1
  Mn3.30+  Mn87  1  0.83334079  0.33331268  0.50017706  1
  Mn3.30+  Mn88  1  0.83355313  0.66652016  0.00127091  1
  Mn3.30+  Mn89  1  0.83579515  0.66847388  0.49953557  1
  Mn3.30+  Mn90  1  -0.00014583  0.16687603  0.24921023  1
  Mn3.30+  Mn91  1  0.00177245  0.16580139  0.74864272  1
  Mn3.30+  Mn92  1  0.00216011  0.50065100  0.25019399  1
  Mn3.30+  Mn93  1  0.00127681  0.50147582  0.74904155  1
  Mn3.30+  Mn94  1  -0.00215811  0.83198260  0.25155106  1
  Mn3.30+  Mn95  1  0.00120563  0.83394719  0.74689175  1
  Mn3.30+  Mn96  1  0.33441371  0.16684626  0.25041636  1
  Mn3.30+  Mn97  1  0.33302708  0.16518013  0.75144901  1
  Mn3.30+  Mn98  1  0.33358383  0.49909532  0.25312851  1
  Mn3.30+  Mn99  1  0.33402564  0.50118257  0.74668585  1
  Mn3.30+  Mn100  1  0.33460098  0.83358173  0.24939671  1
  Mn3.30+  Mn101  1  0.33029800  0.83148097  0.74799930  1
  Mn3.30+  Mn102  1  0.66422472  0.16485104  0.25247107  1
  Mn3.30+  Mn103  1  0.66635963  0.16642146  0.75014031  1
  Mn3.30+  Mn104  1  0.66641781  0.50010412  0.25166258  1
  Mn3.30+  Mn105  1  0.66491457  0.50112331  0.74771174  1
  Mn3.30+  Mn106  1  0.66667993  0.83443783  0.25158588  1
  Mn3.30+  Mn107  1  0.66650060  0.83303657  0.74926892  1
  Mn3.30+  Mn108  1  0.16648320  0.00172420  0.24904813  1
  Mn3.30+  Mn109  1  0.16604693  -0.00018327  0.74805660  1
  Mn3.30+  Mn110  1  0.16701372  0.33320193  0.25101003  1
  Mn3.30+  Mn111  1  0.16851430  0.33267290  0.74987633  1
  Mn3.30+  Mn112  1  0.16564875  0.66625320  0.25048677  1
  Mn3.30+  Mn113  1  0.16628313  0.66756599  0.74581955  1
  Mn3.30+  Mn114  1  0.50077738  -0.00020330  0.25235904  1
  Mn3.30+  Mn115  1  0.49955696  0.00028101  0.74987621  1
  Mn3.30+  Mn116  1  0.49915352  0.33280663  0.25171596  1
  Mn3.30+  Mn117  1  0.49996514  0.33293536  0.74959041  1
  Mn3.30+  Mn118  1  0.49976563  0.66676243  0.25130014  1
  Mn3.30+  Mn119  1  0.49757614  0.66545019  0.74602603  1
  Mn3.30+  Mn120  1  0.83214911  -0.00175532  0.25188834  1
  Mn3.30+  Mn121  1  0.83546590  -0.00009334  0.74889589  1
  Mn3.30+  Mn122  1  0.83372385  0.33245907  0.24973586  1
  Mn3.30+  Mn123  1  0.83405476  0.33436762  0.74995312  1
  Mn3.30+  Mn124  1  0.83455255  0.66788154  0.25068486  1
  Mn3.30+  Mn125  1  0.83494626  0.66720530  0.74891759  1
  Mn3.30+  Mn126  1  0.00274066  0.16724715  0.00079000  1
  Mn3.30+  Mn127  1  -0.00072048  0.16550728  0.50075053  1
  Mn3.30+  Mn128  1  0.00162050  0.49960008  0.00062961  1
  Mn3.30+  Mn129  1  0.00203503  0.50272247  0.50039869  1
  Mn3.30+  Mn130  1  -0.00065957  0.83319511  0.00063060  1
  Mn3.30+  Mn131  1  -0.00004667  0.83301676  0.50126884  1
  Mn3.30+  Mn132  1  0.33230089  0.16599227  -0.00138546  1
  Mn3.30+  Mn133  1  0.33464545  0.16586161  0.49969180  1
  Mn3.30+  Mn134  1  0.33313983  0.49912211  -0.00011971  1
  Mn3.30+  Mn135  1  0.33468306  0.50095149  0.50064833  1
  Mn3.30+  Mn136  1  0.33393327  0.83434188  0.00157634  1
  Mn3.30+  Mn137  1  0.33084735  0.83102217  0.50109676  1
  Mn3.30+  Mn138  1  0.66481165  0.16604230  -0.00103752  1
  Mn3.30+  Mn139  1  0.66559924  0.16525803  0.49775876  1
  Mn3.30+  Mn140  1  0.66717602  0.50028820  0.00028887  1
  Mn3.30+  Mn141  1  0.66408596  0.50108419  0.49996617  1
  Mn3.30+  Mn142  1  0.66459812  0.83424723  0.00037108  1
  Mn3.30+  Mn143  1  0.66862865  0.83313527  0.49902829  1
  O2-  O144  1  0.02607197  0.17011875  0.12567122  1
  O2-  O145  1  0.01754299  0.15928133  0.62357247  1
  O2-  O146  1  0.02671287  0.48990730  0.12624591  1
  O2-  O147  1  0.01918683  0.49438906  0.62393088  1
  O2-  O148  1  0.02305428  0.82556662  0.12642748  1
  O2-  O149  1  0.02574077  0.82314903  0.62505443  1
  O2-  O150  1  0.36083362  0.16342497  0.12513437  1
  O2-  O151  1  0.35920454  0.16005629  0.62565264  1
  O2-  O152  1  0.35908490  0.49402927  0.12677862  1
  O2-  O153  1  0.36227172  0.49221153  0.62427682  1
  O2-  O154  1  0.36171331  0.82781173  0.12573808  1
  O2-  O155  1  0.35834704  0.82860565  0.62395890  1
  O2-  O156  1  0.68416073  0.16045750  0.12567683  1
  O2-  O157  1  0.69392365  0.16034046  0.62321866  1
  O2-  O158  1  0.69327524  0.49430233  0.12755638  1
  O2-  O159  1  0.68878191  0.49818179  0.62330311  1
  O2-  O160  1  0.69280008  0.83087017  0.12583132  1
  O2-  O161  1  0.69326056  0.82655854  0.62514088  1
  O2-  O162  1  0.14464108  0.32535490  0.12478893  1
  O2-  O163  1  0.14581076  0.32971837  0.62338372  1
  O2-  O164  1  0.13969245  0.66093936  0.12812089  1
  O2-  O165  1  0.13956121  0.66346377  0.62310873  1
  O2-  O166  1  0.14652568  0.99290894  0.12612109  1
  O2-  O167  1  0.14169343  0.99080435  0.62344010  1
  O2-  O168  1  0.47285931  0.32625729  0.12643565  1
  O2-  O169  1  0.47347161  0.32349698  0.62558241  1
  O2-  O170  1  0.47409416  0.65798514  0.12778525  1
  O2-  O171  1  0.46945999  0.66000805  0.62368516  1
  O2-  O172  1  0.47497308  0.99411665  0.12705740  1
  O2-  O173  1  0.47492635  0.99419266  0.62472462  1
  O2-  O174  1  0.81003063  0.33177294  0.12578951  1
  O2-  O175  1  0.80834316  0.32665512  0.62414950  1
  O2-  O176  1  0.80656218  0.66135637  0.12574907  1
  O2-  O177  1  0.81041360  0.66945703  0.62394775  1
  O2-  O178  1  0.80788517  0.99471578  0.12663501  1
  O2-  O179  1  0.80694024  0.99529128  0.62452967  1
  O2-  O180  1  0.30788926  0.16980269  0.37450184  1
  O2-  O181  1  0.30470911  0.16837735  0.87510945  1
  O2-  O182  1  0.30561383  0.50455510  0.37488573  1
  O2-  O183  1  0.31587714  0.50527051  0.87396556  1
  O2-  O184  1  0.30876616  0.83884690  0.37522080  1
  O2-  O185  1  0.30827706  0.83876341  0.87534188  1
  O2-  O186  1  0.63670638  0.17568996  0.37545912  1
  O2-  O187  1  0.63857909  0.17216681  0.87492694  1
  O2-  O188  1  0.63993591  0.50633312  0.37511909  1
  O2-  O189  1  0.63966329  0.50562656  0.87350538  1
  O2-  O190  1  0.64058721  0.83639116  0.37579416  1
  O2-  O191  1  0.63872695  0.83934388  0.87360257  1
  O2-  O192  1  0.97457267  0.17378664  0.37693355  1
  O2-  O193  1  0.97606204  0.17177053  0.87305195  1
  O2-  O194  1  0.97480439  0.50539929  0.37425548  1
  O2-  O195  1  0.98245255  0.50408695  0.87556683  1
  O2-  O196  1  0.97313991  0.83999469  0.37613499  1
  O2-  O197  1  0.97586338  0.84209131  0.87335351  1
  O2-  O198  1  0.19069721  0.00428808  0.37383208  1
  O2-  O199  1  0.18996733  0.00462472  0.87637929  1
  O2-  O200  1  0.19158144  0.33797162  0.37632796  1
  O2-  O201  1  0.19116904  0.33754182  0.87539211  1
  O2-  O202  1  0.19295759  0.67535253  0.37462282  1
  O2-  O203  1  0.19045225  0.67397574  0.87430120  1
  O2-  O204  1  0.52732592  0.00511077  0.37608271  1
  O2-  O205  1  0.52453536  0.00437270  0.87243091  1
  O2-  O206  1  0.52557837  0.34316851  0.37460267  1
  O2-  O207  1  0.52747462  0.34191324  0.87312137  1
  O2-  O208  1  0.52571800  0.67523133  0.37461661  1
  O2-  O209  1  0.52503785  0.67283915  0.87377401  1
  O2-  O210  1  0.85861320  0.00514350  0.37609254  1
  O2-  O211  1  0.85943456  0.00398410  0.87275621  1
  O2-  O212  1  0.85725389  0.33779328  0.37514553  1
  O2-  O213  1  0.85768933  0.33327712  0.87488593  1
  O2-  O214  1  0.85870885  0.67309088  0.37446001  1
  O2-  O215  1  0.85733584  0.67290984  0.87618598  1
  O2-  O216  1  0.23980513  0.09502150  0.02544097  1
  O2-  O217  1  0.24009321  0.08968865  0.51687907  1
  O2-  O218  1  0.23919874  0.42605421  0.02279108  1
  O2-  O219  1  0.24455074  0.42582550  0.51874912  1
  O2-  O220  1  0.23797855  0.76190097  0.02233661  1
  O2-  O221  1  0.23498720  0.76422714  0.51829899  1
  O2-  O222  1  0.57074877  0.09210542  0.02037109  1
  O2-  O223  1  0.57331685  0.09443343  0.52391113  1
  O2-  O224  1  0.57188625  0.42898328  0.02170627  1
  O2-  O225  1  0.57089871  0.42582129  0.52316362  1
  O2-  O226  1  0.56930236  0.76321568  0.02227912  1
  O2-  O227  1  0.57025257  0.75907012  0.52182514  1
  O2-  O228  1  0.90693457  0.09532982  0.01207328  1
  O2-  O229  1  0.89949291  0.09577756  0.51493044  1
  O2-  O230  1  0.90762419  0.42773393  0.02194276  1
  O2-  O231  1  0.90884572  0.42729926  0.51419423  1
  O2-  O232  1  0.90125960  0.76207327  0.01718987  1
  O2-  O233  1  0.90516765  0.76404534  0.51825597  1
  O2-  O234  1  0.26533032  0.26250323  0.23430122  1
  O2-  O235  1  0.26626224  0.26148051  0.73355741  1
  O2-  O236  1  0.26356417  0.59480563  0.22873499  1
  O2-  O237  1  0.26446538  0.59927265  0.73296141  1
  O2-  O238  1  0.26235331  0.92689182  0.23042352  1
  O2-  O239  1  0.26277253  0.92800288  0.73268383  1
  O2-  O240  1  0.59385297  0.26170714  0.22910989  1
  O2-  O241  1  0.59490256  0.26324984  0.72767029  1
  O2-  O242  1  0.59586976  0.59511001  0.22886908  1
  O2-  O243  1  0.59380052  0.59691053  0.73061551  1
  O2-  O244  1  0.59585710  0.92886476  0.23159574  1
  O2-  O245  1  0.59515384  0.92655692  0.72823052  1
  O2-  O246  1  0.93009608  0.26310248  0.23458574  1
  O2-  O247  1  0.92900020  0.25955515  0.72886232  1
  O2-  O248  1  0.93185181  0.59454624  0.22805563  1
  O2-  O249  1  0.92977987  0.59803316  0.73513304  1
  O2-  O250  1  0.92672398  0.92477516  0.23166474  1
  O2-  O251  1  0.92977095  0.92952575  0.72629461  1
  O2-  O252  1  0.09395191  0.24079314  0.27383693  1
  O2-  O253  1  0.09261149  0.23860152  0.77006793  1
  O2-  O254  1  0.09777036  0.56982551  0.27232568  1
  O2-  O255  1  0.09243108  0.57709998  0.76860978  1
  O2-  O256  1  0.09275079  0.90509524  0.26937299  1
  O2-  O257  1  0.09377912  0.90731952  0.77263728  1
  O2-  O258  1  0.42998881  0.23668147  0.27336397  1
  O2-  O259  1  0.42951678  0.23563711  0.77291406  1
  O2-  O260  1  0.42844928  0.56891268  0.27247959  1
  O2-  O261  1  0.42838278  0.57300041  0.77174441  1
  O2-  O262  1  0.42887836  0.90820813  0.27443340  1
  O2-  O263  1  0.42662181  0.90368080  0.76870923  1
  O2-  O264  1  0.75647528  0.23853133  0.27191992  1
  O2-  O265  1  0.76027566  0.23779991  0.77037307  1
  O2-  O266  1  0.76413761  0.57284799  0.27163329  1
  O2-  O267  1  0.75533606  0.57682516  0.76751403  1
  O2-  O268  1  0.76204737  0.90101861  0.27018815  1
  O2-  O269  1  0.76318259  0.90754546  0.77102956  1
  O2-  O270  1  0.07256709  0.07357833  0.47749920  1
  O2-  O271  1  0.07276875  0.07327783  0.97961740  1
  O2-  O272  1  0.07238354  0.40574112  0.48332079  1
  O2-  O273  1  0.07068530  0.40153196  0.98452417  1
  O2-  O274  1  0.07238765  0.74066700  0.47525010  1
  O2-  O275  1  0.07198835  0.74182957  0.97824155  1
  O2-  O276  1  0.40477397  0.07125541  0.48131503  1
  O2-  O277  1  0.40111016  0.06986415  0.98249883  1
  O2-  O278  1  0.40446394  0.40330598  0.48092203  1
  O2-  O279  1  0.40629112  0.40292610  0.97978991  1
  O2-  O280  1  0.40603949  0.73964206  0.47735934  1
  O2-  O281  1  0.40385322  0.73732709  0.97900329  1
  O2-  O282  1  0.73544641  0.06959037  0.47729824  1
  O2-  O283  1  0.73924487  0.07185240  0.97890379  1
  O2-  O284  1  0.73842618  0.40560623  0.47979865  1
  O2-  O285  1  0.73605771  0.40379229  0.98280511  1
  O2-  O286  1  0.73682320  0.73706959  0.48132373  1
  O2-  O287  1  0.73463245  0.74045577  0.98024803  1
  O2-  O288  1  0.09324551  0.24106935  0.47902827  1
  O2-  O289  1  0.09541884  0.23925050  0.97577396  1
  O2-  O290  1  0.09648528  0.57317247  0.47519366  1
  O2-  O291  1  0.09366625  0.57359398  0.98406350  1
  O2-  O292  1  0.09271366  0.90621516  0.47641929  1
  O2-  O293  1  0.09542250  0.90740150  0.98196651  1
  O2-  O294  1  0.43163687  0.23830538  0.47833729  1
  O2-  O295  1  0.42801706  0.23529938  0.97647020  1
  O2-  O296  1  0.42893358  0.57088922  0.47452261  1
  O2-  O297  1  0.42941459  0.57179135  0.98153324  1
  O2-  O298  1  0.42770903  0.90483898  0.48063963  1
  O2-  O299  1  0.42750447  0.90704151  0.97683496  1
  O2-  O300  1  0.75928699  0.23690845  0.47822324  1
  O2-  O301  1  0.75805314  0.23979343  0.97906956  1
  O2-  O302  1  0.76143034  0.57508083  0.47801734  1
  O2-  O303  1  0.75903044  0.57458776  0.98202699  1
  O2-  O304  1  0.76616420  0.90312405  0.48220565  1
  O2-  O305  1  0.75960655  0.90586684  0.97840785  1
  O2-  O306  1  0.07241847  0.07512130  0.27352550  1
  O2-  O307  1  0.07116976  0.07203703  0.76761570  1
  O2-  O308  1  0.07000173  0.40432426  0.26887590  1
  O2-  O309  1  0.07239389  0.40428446  0.76375423  1
  O2-  O310  1  0.07203533  0.74120408  0.27342323  1
  O2-  O311  1  0.07185173  0.74163072  0.77420426  1
  O2-  O312  1  0.40298863  0.06995650  0.26848349  1
  O2-  O313  1  0.40429566  0.07081437  0.76869780  1
  O2-  O314  1  0.40330334  0.40254998  0.26859715  1
  O2-  O315  1  0.40727567  0.40297568  0.77106415  1
  O2-  O316  1  0.40360273  0.73800640  0.27134395  1
  O2-  O317  1  0.40458382  0.73934803  0.77190575  1
  O2-  O318  1  0.73578535  0.07080409  0.27235228  1
  O2-  O319  1  0.73941583  0.07115199  0.77100767  1
  O2-  O320  1  0.73873637  0.40607802  0.27193731  1
  O2-  O321  1  0.73460105  0.40432306  0.76572856  1
  O2-  O322  1  0.73348954  0.73682969  0.26656930  1
  O2-  O323  1  0.73797705  0.74083589  0.77188765  1
  O2-  O324  1  0.23980230  0.09747221  0.22931781  1
  O2-  O325  1  0.24202889  0.08843190  0.72951217  1
  O2-  O326  1  0.23922261  0.42722040  0.22808761  1
  O2-  O327  1  0.24592972  0.42622164  0.73034305  1
  O2-  O328  1  0.23759970  0.76071044  0.22792721  1
  O2-  O329  1  0.23472898  0.76498919  0.73110775  1
  O2-  O330  1  0.57008231  0.09346523  0.22847691  1
  O2-  O331  1  0.57516911  0.09363438  0.72659975  1
  O2-  O332  1  0.57277999  0.42458722  0.22662349  1
  O2-  O333  1  0.57036249  0.43016509  0.72695284  1
  O2-  O334  1  0.57147500  0.76422019  0.22847332  1
  O2-  O335  1  0.56868631  0.75881265  0.72733425  1
  O2-  O336  1  0.90580971  0.09538786  0.23809125  1
  O2-  O337  1  0.90176385  0.09661585  0.73411104  1
  O2-  O338  1  0.90633676  0.43066164  0.23190416  1
  O2-  O339  1  0.91004108  0.42392680  0.73219908  1
  O2-  O340  1  0.90382482  0.76040349  0.22981329  1
  O2-  O341  1  0.90399470  0.76643647  0.73509175  1
  O2-  O342  1  0.26531982  0.26279113  0.01702283  1
  O2-  O343  1  0.26550016  0.26071671  0.51584326  1
  O2-  O344  1  0.26119494  0.59518441  0.02057149  1
  O2-  O345  1  0.26678793  0.59937370  0.51761907  1
  O2-  O346  1  0.26143559  0.92847318  0.02046265  1
  O2-  O347  1  0.26299835  0.92767700  0.51628118  1
  O2-  O348  1  0.59318365  0.26292323  0.02091038  1
  O2-  O349  1  0.59582982  0.26203053  0.52161704  1
  O2-  O350  1  0.59456879  0.59563209  0.02087528  1
  O2-  O351  1  0.59467083  0.59755550  0.51906474  1
  O2-  O352  1  0.59697802  0.92946938  0.01786919  1
  O2-  O353  1  0.59438495  0.92485191  0.52224530  1
  O2-  O354  1  0.93072003  0.26229991  0.01508234  1
  O2-  O355  1  0.92734185  0.26113997  0.52072659  1
  O2-  O356  1  0.92906133  0.59375531  0.02187196  1
  O2-  O357  1  0.93195239  0.59964595  0.51534391  1
  O2-  O358  1  0.92534445  0.92474541  0.01846768  1
  O2-  O359  1  0.93133053  0.92968348  0.52319876  1
