# generated using pymatgen
data_Sr7Ca15Pr50Mn72O216
_symmetry_space_group_name_H-M   'P 1'
_cell_length_a   16.55843514
_cell_length_b   16.60351055
_cell_length_c   15.59271858
_cell_angle_alpha   90.00083500
_cell_angle_beta   90.00260055
_cell_angle_gamma   90.00798792
_symmetry_Int_Tables_number   1
_chemical_formula_structural   Sr7Ca15Pr50Mn72O216
_chemical_formula_sum   'Sr7 Ca15 Pr50 Mn72 O216'
_cell_volume   4286.87726508
_cell_formula_units_Z   1
loop_
 _symmetry_equiv_pos_site_id
 _symmetry_equiv_pos_as_xyz
  1  'x, y, z'
loop_
 _atom_type_symbol
 _atom_type_oxidation_number
  Sr2+  2.0
  Ca2+  2.0
  Pr3+  3.0
  Mn3.30+  3.3
  O2-  -2.0
loop_
 _atom_site_type_symbol
 _atom_site_label
 _atom_site_symmetry_multiplicity
 _atom_site_fract_x
 _atom_site_fract_y
 _atom_site_fract_z
 _atom_site_occupancy
  Sr2+  Sr0  1  0.16748518  0.82666720  0.87466322  1
  Sr2+  Sr1  1  0.16474876  0.15899028  0.87822503  1
  Sr2+  Sr2  1  1.00518427  0.32154427  0.87634134  1
  Sr2+  Sr3  1  0.83015622  0.82444578  0.37604431  1
  Sr2+  Sr4  1  0.66293541  0.34195129  0.12457466  1
  Sr2+  Sr5  1  0.33403014  0.98962677  0.87525333  1
  Sr2+  Sr6  1  0.83520792  0.84195921  0.62540007  1
  Ca2+  Ca7  1  -0.00039451  0.68298781  0.62579873  1
  Ca2+  Ca8  1  0.17257706  0.51579507  0.62563012  1
  Ca2+  Ca9  1  0.16184333  0.81690244  0.37502248  1
  Ca2+  Ca10  1  0.32760570  0.35204845  0.62590724  1
  Ca2+  Ca11  1  0.49162507  0.15164418  0.87902781  1
  Ca2+  Ca12  1  0.49639648  0.48488325  0.37470668  1
  Ca2+  Ca13  1  0.33343577  0.34584762  0.12454597  1
  Ca2+  Ca14  1  0.67138193  0.98373134  0.37371781  1
  Ca2+  Ca15  1  0.50293835  0.18388705  0.12217542  1
  Ca2+  Ca16  1  -0.00157300  0.01530110  0.12345603  1
  Ca2+  Ca17  1  0.83124808  0.82032188  0.87370821  1
  Ca2+  Ca18  1  0.49498072  0.48453881  0.87578422  1
  Ca2+  Ca19  1  0.17014465  0.18395100  0.12266608  1
  Ca2+  Ca20  1  0.49306203  0.82000801  0.87530001  1
  Ca2+  Ca21  1  0.33654894  0.64875166  0.37515843  1
  Pr3+  Pr22  1  0.66459614  0.00929784  0.62253416  1
  Pr3+  Pr23  1  0.17222561  0.18121919  0.62637596  1
  Pr3+  Pr24  1  0.66440594  0.68165165  0.62478750  1
  Pr3+  Pr25  1  0.32968316  0.01599174  0.12356687  1
  Pr3+  Pr26  1  0.66438354  0.31922176  0.87561604  1
  Pr3+  Pr27  1  0.33016721  0.01099213  0.62590727  1
  Pr3+  Pr28  1  -0.00295366  0.00954304  0.62541768  1
  Pr3+  Pr29  1  0.83303359  0.15536807  0.87657110  1
  Pr3+  Pr30  1  0.16551351  0.48777495  0.87364161  1
  Pr3+  Pr31  1  0.66612435  0.32318666  0.37434547  1
  Pr3+  Pr32  1  1.00444751  0.65960659  0.87180954  1
  Pr3+  Pr33  1  0.67128175  0.65337458  0.37582447  1
  Pr3+  Pr34  1  0.66423289  0.34520721  0.62614708  1
  Pr3+  Pr35  1  -0.00052770  0.34503116  0.12176278  1
  Pr3+  Pr36  1  0.83161871  0.48966208  0.37634337  1
  Pr3+  Pr37  1  0.17184671  0.50990654  0.12435821  1
  Pr3+  Pr38  1  0.50282236  0.84512049  0.62631788  1
  Pr3+  Pr39  1  -0.00014267  0.34589332  0.62785891  1
  Pr3+  Pr40  1  0.50260132  0.50770434  0.12563041  1
  Pr3+  Pr41  1  1.00262604  0.98359025  0.37269594  1
  Pr3+  Pr42  1  0.33785150  0.65587039  0.87472125  1
  Pr3+  Pr43  1  0.16394223  0.15529135  0.37214601  1
  Pr3+  Pr44  1  0.66062156  0.01473714  0.12691866  1
  Pr3+  Pr45  1  1.00477443  0.32101720  0.37483405  1
  Pr3+  Pr46  1  0.82770354  0.15173954  0.37365969  1
  Pr3+  Pr47  1  0.50166765  0.84469146  0.12333616  1
  Pr3+  Pr48  1  0.66686118  0.98589318  0.87605252  1
  Pr3+  Pr49  1  0.33352208  0.98626788  0.37348163  1
  Pr3+  Pr50  1  1.00534856  0.98788660  0.87657228  1
  Pr3+  Pr51  1  0.33819011  0.31908299  0.87563597  1
  Pr3+  Pr52  1  0.16878388  0.84766293  0.12499976  1
  Pr3+  Pr53  1  0.49744088  0.81780583  0.37428945  1
  Pr3+  Pr54  1  0.33100522  0.67822643  0.12678090  1
  Pr3+  Pr55  1  0.33804132  0.32249955  0.37516405  1
  Pr3+  Pr56  1  0.49789821  0.15302393  0.37193933  1
  Pr3+  Pr57  1  -0.00116538  0.67879349  0.12476839  1
  Pr3+  Pr58  1  0.33012254  0.67791281  0.62320842  1
  Pr3+  Pr59  1  0.16714090  0.84461739  0.62499693  1
  Pr3+  Pr60  1  0.83217488  0.48738599  0.87398684  1
  Pr3+  Pr61  1  1.00239053  0.65776011  0.37853241  1
  Pr3+  Pr62  1  0.83623042  0.17721509  0.62560613  1
  Pr3+  Pr63  1  0.16736913  0.48933349  0.37663043  1
  Pr3+  Pr64  1  0.49994958  0.17849044  0.62714922  1
  Pr3+  Pr65  1  0.66363003  0.67822825  0.12509264  1
  Pr3+  Pr66  1  0.50119041  0.51171947  0.62483505  1
  Pr3+  Pr67  1  0.83482542  0.17965608  0.12434834  1
  Pr3+  Pr68  1  0.83909934  0.51616565  0.62702763  1
  Pr3+  Pr69  1  0.83725233  0.84886203  0.12479714  1
  Pr3+  Pr70  1  0.83523690  0.51129501  0.12335640  1
  Pr3+  Pr71  1  0.66680703  0.65585910  0.87387187  1
  Mn3.30+  Mn72  1  0.16534558  0.00313869  0.00212199  1
  Mn3.30+  Mn73  1  0.16590059  -0.00103312  0.49786993  1
  Mn3.30+  Mn74  1  0.16966866  0.33322115  0.00136868  1
  Mn3.30+  Mn75  1  0.16962761  0.33578473  0.50108828  1
  Mn3.30+  Mn76  1  0.16792970  0.66827131  -0.00067036  1
  Mn3.30+  Mn77  1  0.16787787  0.66660852  0.49974943  1
  Mn3.30+  Mn78  1  0.49794493  0.00088529  -0.00007981  1
  Mn3.30+  Mn79  1  0.49987209  -0.00123626  0.49699095  1
  Mn3.30+  Mn80  1  0.49873317  0.33246326  -0.00009686  1
  Mn3.30+  Mn81  1  0.49763079  0.33383926  0.50215085  1
  Mn3.30+  Mn82  1  0.49971565  0.66509806  -0.00024898  1
  Mn3.30+  Mn83  1  0.49818111  0.66385435  0.49772767  1
  Mn3.30+  Mn84  1  0.83371182  -0.00028156  -0.00025955  1
  Mn3.30+  Mn85  1  0.83143138  -0.00123724  0.49968954  1
  Mn3.30+  Mn86  1  0.83236833  0.33316413  -0.00123702  1
  Mn3.30+  Mn87  1  0.83441681  0.33372295  0.50093778  1
  Mn3.30+  Mn88  1  0.83319215  0.66790142  -0.00174530  1
  Mn3.30+  Mn89  1  0.83597559  0.66831704  0.50162008  1
  Mn3.30+  Mn90  1  0.00024222  0.16616691  0.24794405  1
  Mn3.30+  Mn91  1  0.00201357  0.16687189  0.75058072  1
  Mn3.30+  Mn92  1  0.00116999  0.50081260  0.25092955  1
  Mn3.30+  Mn93  1  0.00374955  0.50260701  0.74787759  1
  Mn3.30+  Mn94  1  0.00137573  0.83346671  0.24975220  1
  Mn3.30+  Mn95  1  -0.00130823  0.83343193  0.75052614  1
  Mn3.30+  Mn96  1  0.33264942  0.16942749  0.24647541  1
  Mn3.30+  Mn97  1  0.33482932  0.16695158  0.75104979  1
  Mn3.30+  Mn98  1  0.33583726  0.49915991  0.25106740  1
  Mn3.30+  Mn99  1  0.33359036  0.50001239  0.74966772  1
  Mn3.30+  Mn100  1  0.33125591  0.83152420  0.25248811  1
  Mn3.30+  Mn101  1  0.33514326  0.83286317  0.75017057  1
  Mn3.30+  Mn102  1  0.66354358  0.16681670  0.24976495  1
  Mn3.30+  Mn103  1  0.66401978  0.16412400  0.75157411  1
  Mn3.30+  Mn104  1  0.66550145  0.49858559  0.25052272  1
  Mn3.30+  Mn105  1  0.66520266  0.49999046  0.75107149  1
  Mn3.30+  Mn106  1  0.66697338  0.83371843  0.24937416  1
  Mn3.30+  Mn107  1  0.66583506  0.83336022  0.75274440  1
  Mn3.30+  Mn108  1  0.16517852  0.00145366  0.24788877  1
  Mn3.30+  Mn109  1  0.16601784  0.00094569  0.75162655  1
  Mn3.30+  Mn110  1  0.16993166  0.33400745  0.24885730  1
  Mn3.30+  Mn111  1  0.16896796  0.33544102  0.74886426  1
  Mn3.30+  Mn112  1  0.16816325  0.66674027  0.25260894  1
  Mn3.30+  Mn113  1  0.16749896  0.66764250  0.74835196  1
  Mn3.30+  Mn114  1  0.49945022  -0.00014333  0.25012159  1
  Mn3.30+  Mn115  1  0.49871098  -0.00039953  0.75152136  1
  Mn3.30+  Mn116  1  0.49896150  0.33298936  0.24935122  1
  Mn3.30+  Mn117  1  0.49696951  0.33344174  0.74924312  1
  Mn3.30+  Mn118  1  0.49863827  0.66290176  0.25208615  1
  Mn3.30+  Mn119  1  0.49956408  0.66600655  0.75053708  1
  Mn3.30+  Mn120  1  0.83210477  0.00045950  0.24846924  1
  Mn3.30+  Mn121  1  0.83280753  -0.00192227  0.75197142  1
  Mn3.30+  Mn122  1  0.83402015  0.33418561  0.24975149  1
  Mn3.30+  Mn123  1  0.83316185  0.33240750  0.75139198  1
  Mn3.30+  Mn124  1  0.83336189  0.66727023  0.24975323  1
  Mn3.30+  Mn125  1  0.83582427  0.66915711  0.75113375  1
  Mn3.30+  Mn126  1  0.00198361  0.16648969  0.00276322  1
  Mn3.30+  Mn127  1  0.00031301  0.16603112  0.49892641  1
  Mn3.30+  Mn128  1  0.00209024  0.50182001  -0.00139847  1
  Mn3.30+  Mn129  1  0.00285426  0.50189753  0.50325132  1
  Mn3.30+  Mn130  1  -0.00085362  0.83484085  0.00034362  1
  Mn3.30+  Mn131  1  0.00055129  0.83204214  0.49898474  1
  Mn3.30+  Mn132  1  0.33436383  0.16835234  0.00242316  1
  Mn3.30+  Mn133  1  0.33314572  0.16730837  0.49922738  1
  Mn3.30+  Mn134  1  0.33581098  0.49895253  -0.00021477  1
  Mn3.30+  Mn135  1  0.33403529  0.50006203  0.50039703  1
  Mn3.30+  Mn136  1  0.33486406  0.83361134  -0.00044225  1
  Mn3.30+  Mn137  1  0.33160630  0.83084004  0.49635776  1
  Mn3.30+  Mn138  1  0.66155967  0.16542375  -0.00172282  1
  Mn3.30+  Mn139  1  0.66593761  0.16571820  0.50008978  1
  Mn3.30+  Mn140  1  0.66449424  0.49872858  -0.00231573  1
  Mn3.30+  Mn141  1  0.66621276  0.49984153  0.50115307  1
  Mn3.30+  Mn142  1  0.66648939  0.83276957  -0.00215171  1
  Mn3.30+  Mn143  1  0.66626038  0.83430661  0.49906807  1
  O2-  O144  1  0.02525031  0.16152942  0.12799124  1
  O2-  O145  1  0.02623242  0.15807458  0.62207840  1
  O2-  O146  1  0.02652059  0.49563873  0.12371126  1
  O2-  O147  1  0.03087617  0.49124107  0.62434098  1
  O2-  O148  1  0.02549886  0.82528160  0.12638364  1
  O2-  O149  1  0.02309425  0.83270895  0.62310097  1
  O2-  O150  1  0.36292939  0.16167710  0.12635305  1
  O2-  O151  1  0.35703562  0.15779298  0.62253184  1
  O2-  O152  1  0.35833298  0.49533705  0.12510487  1
  O2-  O153  1  0.35845736  0.49891630  0.62503754  1
  O2-  O154  1  0.35784801  0.82752520  0.12809812  1
  O2-  O155  1  0.35934441  0.82775116  0.62033033  1
  O2-  O156  1  0.69097083  0.16242936  0.12424388  1
  O2-  O157  1  0.69304629  0.15904283  0.62495846  1
  O2-  O158  1  0.69136813  0.49811044  0.12190122  1
  O2-  O159  1  0.69437533  0.49404025  0.62626649  1
  O2-  O160  1  0.69219153  0.82671016  0.12167889  1
  O2-  O161  1  0.68384694  0.83059054  0.62511022  1
  O2-  O162  1  0.14335699  0.33672515  0.12674828  1
  O2-  O163  1  0.14232643  0.32736189  0.62242382  1
  O2-  O164  1  0.14301727  0.65815570  0.12634222  1
  O2-  O165  1  0.14286041  0.66089141  0.62391856  1
  O2-  O166  1  0.13950686  0.99305246  0.12733390  1
  O2-  O167  1  0.14229473  0.99490967  0.62283235  1
  O2-  O168  1  0.47604234  0.33015161  0.12459642  1
  O2-  O169  1  0.47043158  0.32533732  0.62476595  1
  O2-  O170  1  0.47513769  0.65638925  0.12833751  1
  O2-  O171  1  0.47473560  0.66001627  0.62265933  1
  O2-  O172  1  0.47354892  0.98981723  0.12720034  1
  O2-  O173  1  0.47417736  0.99248591  0.62202432  1
  O2-  O174  1  0.81297973  0.33078903  0.12286155  1
  O2-  O175  1  0.80844992  0.32687581  0.62693625  1
  O2-  O176  1  0.80799701  0.65946943  0.12274287  1
  O2-  O177  1  0.80843880  0.66294801  0.62685016  1
  O2-  O178  1  0.80486407  0.99665078  0.12313849  1
  O2-  O179  1  0.80879519  0.99997977  0.62814611  1
  O2-  O180  1  0.30734915  0.17337179  0.37345338  1
  O2-  O181  1  0.31376771  0.17173681  0.87812108  1
  O2-  O182  1  0.31025714  0.50191052  0.37628530  1
  O2-  O183  1  0.30902901  0.50695357  0.87456915  1
  O2-  O184  1  0.30270417  0.84091498  0.37379378  1
  O2-  O185  1  0.31709460  0.82903814  0.87763654  1
  O2-  O186  1  0.64114956  0.17603438  0.37678557  1
  O2-  O187  1  0.63484000  0.16982473  0.87341413  1
  O2-  O188  1  0.64120220  0.50546045  0.37876779  1
  O2-  O189  1  0.63777711  0.50839935  0.87350637  1
  O2-  O190  1  0.64207723  0.83743113  0.37512828  1
  O2-  O191  1  0.63581159  0.83778418  0.87708445  1
  O2-  O192  1  0.97335414  0.17429742  0.37389440  1
  O2-  O193  1  0.97779510  0.16748990  0.87623065  1
  O2-  O194  1  0.97461544  0.50718622  0.37877182  1
  O2-  O195  1  0.97607780  0.51025562  0.87388796  1
  O2-  O196  1  0.97906505  0.83514130  0.37284432  1
  O2-  O197  1  0.97396625  0.83956344  0.87778697  1
  O2-  O198  1  0.19147579  0.00932191  0.37206373  1
  O2-  O199  1  0.18307171  0.00284716  0.87690224  1
  O2-  O200  1  0.19315600  0.33943528  0.37619280  1
  O2-  O201  1  0.19262398  0.33823868  0.87568435  1
  O2-  O202  1  0.19371925  0.67158592  0.37496240  1
  O2-  O203  1  0.19308758  0.67057484  0.87416027  1
  O2-  O204  1  0.52826389  0.00613424  0.37313363  1
  O2-  O205  1  0.52367032  0.00884542  0.87619244  1
  O2-  O206  1  0.52292533  0.33892548  0.37896170  1
  O2-  O207  1  0.52242497  0.34158208  0.87252636  1
  O2-  O208  1  0.52883643  0.67175022  0.37471310  1
  O2-  O209  1  0.52340169  0.67624287  0.87443654  1
  O2-  O210  1  0.85779766  0.00522352  0.37229159  1
  O2-  O211  1  0.86102276  0.00924589  0.87624415  1
  O2-  O212  1  0.86105736  0.34050297  0.37617207  1
  O2-  O213  1  0.85516277  0.33652873  0.87432621  1
  O2-  O214  1  0.85629598  0.66442995  0.37554998  1
  O2-  O215  1  0.85968279  0.67204993  0.87575806  1
  O2-  O216  1  0.23944764  0.09667030  0.02517996  1
  O2-  O217  1  0.23817332  0.09489510  0.51823696  1
  O2-  O218  1  0.23921777  0.43139049  0.01626232  1
  O2-  O219  1  0.23643871  0.43255464  0.51921263  1
  O2-  O220  1  0.24007585  0.76010511  0.02372203  1
  O2-  O221  1  0.23855658  0.75988280  0.52353408  1
  O2-  O222  1  0.57123059  0.09300836  0.02512946  1
  O2-  O223  1  0.57190212  0.09580456  0.52122442  1
  O2-  O224  1  0.57023527  0.42800725  0.01695019  1
  O2-  O225  1  0.57448717  0.42516943  0.52538486  1
  O2-  O226  1  0.57237735  0.75788433  0.02429697  1
  O2-  O227  1  0.56942311  0.76024716  0.51819582  1
  O2-  O228  1  0.90093379  0.09650924  0.01915055  1
  O2-  O229  1  0.90281240  0.09433955  0.51877849  1
  O2-  O230  1  0.90911397  0.42971015  0.01799754  1
  O2-  O231  1  0.90769932  0.42925361  0.52341918  1
  O2-  O232  1  0.90601206  0.76155789  0.02311469  1
  O2-  O233  1  0.90909297  0.75836861  0.51566097  1
  O2-  O234  1  0.26420672  0.26677565  0.23031518  1
  O2-  O235  1  0.26320873  0.26316578  0.72906782  1
  O2-  O236  1  0.26150190  0.59275313  0.23035332  1
  O2-  O237  1  0.26509314  0.59686973  0.73257627  1
  O2-  O238  1  0.26023881  0.93115452  0.22871138  1
  O2-  O239  1  0.25963488  0.92528657  0.72916728  1
  O2-  O240  1  0.59291271  0.26155155  0.23741239  1
  O2-  O241  1  0.59419732  0.26009458  0.72760778  1
  O2-  O242  1  0.59566533  0.59407753  0.23008494  1
  O2-  O243  1  0.59498444  0.59471906  0.72733890  1
  O2-  O244  1  0.59234324  0.92529862  0.22716496  1
  O2-  O245  1  0.59497969  0.92910809  0.73120815  1
  O2-  O246  1  0.92932068  0.26234389  0.22869720  1
  O2-  O247  1  0.92730595  0.25738765  0.72760889  1
  O2-  O248  1  0.92733034  0.59379712  0.22903935  1
  O2-  O249  1  0.93185940  0.59467518  0.72731938  1
  O2-  O250  1  0.92923059  0.92995775  0.22856416  1
  O2-  O251  1  0.92879682  0.93061486  0.73309792  1
  O2-  O252  1  0.09541069  0.24245928  0.27120771  1
  O2-  O253  1  0.09466966  0.23907285  0.76039395  1
  O2-  O254  1  0.09527840  0.57260017  0.27201988  1
  O2-  O255  1  0.09585252  0.57563782  0.77291432  1
  O2-  O256  1  0.09561073  0.90309152  0.27122599  1
  O2-  O257  1  0.09040272  0.90746699  0.76555373  1
  O2-  O258  1  0.42706030  0.23964088  0.27366321  1
  O2-  O259  1  0.43067712  0.23657552  0.77080940  1
  O2-  O260  1  0.43125375  0.56717726  0.27066605  1
  O2-  O261  1  0.43058918  0.57014046  0.77071820  1
  O2-  O262  1  0.42700513  0.90414734  0.27288031  1
  O2-  O263  1  0.43208790  0.90155257  0.76525375  1
  O2-  O264  1  0.76200690  0.24031559  0.27019612  1
  O2-  O265  1  0.75639997  0.23591366  0.77158573  1
  O2-  O266  1  0.76081299  0.57078860  0.26948244  1
  O2-  O267  1  0.76421688  0.57354312  0.77072762  1
  O2-  O268  1  0.76161852  0.90647606  0.26245250  1
  O2-  O269  1  0.76045222  0.90728394  0.77594434  1
  O2-  O270  1  0.06998170  0.07201171  0.47630459  1
  O2-  O271  1  0.06883203  0.07137606  0.98485309  1
  O2-  O272  1  0.07224982  0.40571305  0.47805904  1
  O2-  O273  1  0.07619061  0.41063527  0.98181438  1
  O2-  O274  1  0.07412609  0.73900652  0.48128006  1
  O2-  O275  1  0.06870911  0.73834031  0.98413288  1
  O2-  O276  1  0.40589083  0.06966173  0.47736808  1
  O2-  O277  1  0.40396089  0.07042182  0.98686343  1
  O2-  O278  1  0.40338090  0.40467053  0.48332484  1
  O2-  O279  1  0.40432333  0.40395953  0.98066296  1
  O2-  O280  1  0.40233952  0.73704554  0.47493290  1
  O2-  O281  1  0.40509710  0.73342788  0.98815079  1
  O2-  O282  1  0.73645882  0.07263923  0.47732259  1
  O2-  O283  1  0.73645918  0.07158700  0.97854624  1
  O2-  O284  1  0.73857327  0.40669069  0.48002661  1
  O2-  O285  1  0.73786159  0.40889208  0.97414503  1
  O2-  O286  1  0.73461273  0.73774111  0.48458213  1
  O2-  O287  1  0.73540084  0.73761287  0.97933128  1
  O2-  O288  1  0.09667638  0.23948535  0.47883198  1
  O2-  O289  1  0.09466336  0.24291001  0.99056512  1
  O2-  O290  1  0.09516770  0.57509021  0.47582072  1
  O2-  O291  1  0.09540932  0.57469583  0.97857594  1
  O2-  O292  1  0.09563280  0.90498027  0.47770509  1
  O2-  O293  1  0.09135185  0.90637243  0.98449403  1
  O2-  O294  1  0.42861912  0.23594180  0.47810668  1
  O2-  O295  1  0.42855645  0.23934868  0.97800642  1
  O2-  O296  1  0.43238990  0.56728657  0.48126711  1
  O2-  O297  1  0.42969535  0.56963384  0.97882550  1
  O2-  O298  1  0.42571152  0.90270747  0.47551786  1
  O2-  O299  1  0.43208122  0.90156626  0.98449436  1
  O2-  O300  1  0.76009772  0.23843192  0.48019270  1
  O2-  O301  1  0.75619696  0.23629146  0.97835237  1
  O2-  O302  1  0.76277663  0.57176126  0.48244246  1
  O2-  O303  1  0.76061517  0.57176105  0.97697446  1
  O2-  O304  1  0.75692660  0.90928158  0.48413544  1
  O2-  O305  1  0.76290990  0.90451354  0.97738892  1
  O2-  O306  1  0.07113315  0.07313737  0.27347840  1
  O2-  O307  1  0.06829741  0.07086616  0.76494826  1
  O2-  O308  1  0.07283171  0.40619187  0.27132728  1
  O2-  O309  1  0.07432499  0.40879113  0.76901261  1
  O2-  O310  1  0.07091391  0.73466416  0.26769316  1
  O2-  O311  1  0.07291246  0.74028967  0.76612350  1
  O2-  O312  1  0.40307459  0.07081292  0.27136830  1
  O2-  O313  1  0.40718754  0.07028691  0.76227127  1
  O2-  O314  1  0.40524225  0.40375548  0.26877264  1
  O2-  O315  1  0.40206368  0.40483993  0.76805351  1
  O2-  O316  1  0.40564870  0.73422167  0.27265852  1
  O2-  O317  1  0.40418402  0.73447576  0.76367819  1
  O2-  O318  1  0.73453859  0.07217840  0.27058117  1
  O2-  O319  1  0.73887559  0.07168891  0.77351413  1
  O2-  O320  1  0.74111924  0.40750804  0.27382934  1
  O2-  O321  1  0.73718898  0.40646948  0.77161354  1
  O2-  O322  1  0.73630864  0.73559253  0.26618977  1
  O2-  O323  1  0.73550083  0.73866028  0.76869328  1
  O2-  O324  1  0.23764641  0.09937890  0.22737529  1
  O2-  O325  1  0.24080246  0.09391537  0.72873865  1
  O2-  O326  1  0.23757432  0.43172939  0.23451286  1
  O2-  O327  1  0.23725135  0.43332770  0.73150925  1
  O2-  O328  1  0.23794569  0.75971379  0.22649751  1
  O2-  O329  1  0.24013983  0.75977600  0.72588236  1
  O2-  O330  1  0.56732143  0.09547525  0.22738203  1
  O2-  O331  1  0.57446194  0.09050548  0.72351613  1
  O2-  O332  1  0.57137680  0.42763958  0.23384269  1
  O2-  O333  1  0.57134400  0.42363924  0.72544031  1
  O2-  O334  1  0.57024921  0.75957938  0.22968559  1
  O2-  O335  1  0.57129132  0.75802587  0.72759668  1
  O2-  O336  1  0.89894443  0.09715657  0.23194823  1
  O2-  O337  1  0.90496342  0.09492690  0.73016318  1
  O2-  O338  1  0.90669090  0.42880384  0.22958089  1
  O2-  O339  1  0.90858926  0.43031623  0.73021722  1
  O2-  O340  1  0.90627163  0.76073124  0.22731918  1
  O2-  O341  1  0.90790975  0.76042252  0.73513854  1
  O2-  O342  1  0.26534386  0.26511473  0.02022014  1
  O2-  O343  1  0.26225983  0.26398416  0.52148196  1
  O2-  O344  1  0.26401488  0.59381501  0.02031227  1
  O2-  O345  1  0.26347852  0.59476041  0.51713461  1
  O2-  O346  1  0.25832785  0.92818213  0.02189933  1
  O2-  O347  1  0.26198213  0.92690570  0.51991936  1
  O2-  O348  1  0.59315583  0.26176236  0.01312722  1
  O2-  O349  1  0.59471700  0.26024592  0.52274823  1
  O2-  O350  1  0.59486103  0.59413630  0.02016887  1
  O2-  O351  1  0.59746969  0.59358780  0.52283284  1
  O2-  O352  1  0.59637862  0.92858882  0.02066549  1
  O2-  O353  1  0.59069955  0.92596958  0.52057598  1
  O2-  O354  1  0.92689034  0.25750186  0.02155468  1
  O2-  O355  1  0.93014229  0.26064814  0.52182157  1
  O2-  O356  1  0.92813290  0.59341362  0.02097920  1
  O2-  O357  1  0.93111544  0.59360943  0.52492253  1
  O2-  O358  1  0.92788145  0.92964475  0.02423006  1
  O2-  O359  1  0.93020449  0.92949286  0.51387223  1
