# generated using pymatgen
data_Sr7Ca15Pr50Mn72O216
_symmetry_space_group_name_H-M   'P 1'
_cell_length_a   16.55912161
_cell_length_b   16.60297223
_cell_length_c   15.59534500
_cell_angle_alpha   89.99837494
_cell_angle_beta   90.00805554
_cell_angle_gamma   90.00368212
_symmetry_Int_Tables_number   1
_chemical_formula_structural   Sr7Ca15Pr50Mn72O216
_chemical_formula_sum   'Sr7 Ca15 Pr50 Mn72 O216'
_cell_volume   4287.63807027
_cell_formula_units_Z   1
loop_
 _symmetry_equiv_pos_site_id
 _symmetry_equiv_pos_as_xyz
  1  'x, y, z'
loop_
 _atom_type_symbol
 _atom_type_oxidation_number
  Sr2+  2.0
  Ca2+  2.0
  Pr3+  3.0
  Mn3.30+  3.3
  O2-  -2.0
loop_
 _atom_site_type_symbol
 _atom_site_label
 _atom_site_symmetry_multiplicity
 _atom_site_fract_x
 _atom_site_fract_y
 _atom_site_fract_z
 _atom_site_occupancy
  Sr2+  Sr0  1  0.32873509  0.00928491  0.12656510  1
  Sr2+  Sr1  1  0.16630220  0.49163409  0.37458332  1
  Sr2+  Sr2  1  0.00146529  0.00901817  0.62453637  1
  Sr2+  Sr3  1  0.66325419  0.01048973  0.12601042  1
  Sr2+  Sr4  1  1.00471694  0.32433709  0.37279908  1
  Sr2+  Sr5  1  0.16558400  0.82444005  0.87833026  1
  Sr2+  Sr6  1  0.50106651  0.51093417  0.62487016  1
  Ca2+  Ca7  1  0.33074721  0.68016840  0.62019089  1
  Ca2+  Ca8  1  0.16791226  0.18189870  0.62287048  1
  Ca2+  Ca9  1  -0.00004328  0.34559015  0.12912072  1
  Ca2+  Ca10  1  0.49138054  0.81596865  0.37241858  1
  Ca2+  Ca11  1  0.33618908  0.98249007  0.37169310  1
  Ca2+  Ca12  1  1.00716794  0.65122941  0.37103851  1
  Ca2+  Ca13  1  0.32658861  0.68343486  0.12964937  1
  Ca2+  Ca14  1  -0.00047330  0.68138650  0.12765552  1
  Ca2+  Ca15  1  0.16584786  0.17827130  0.12726562  1
  Ca2+  Ca16  1  0.00091777  0.01149888  0.12609425  1
  Ca2+  Ca17  1  0.66098371  0.35073018  0.62344684  1
  Ca2+  Ca18  1  0.33689848  0.65295795  0.37439749  1
  Ca2+  Ca19  1  0.67198555  0.32063208  0.37782128  1
  Ca2+  Ca20  1  0.66980005  0.65286395  0.87439395  1
  Ca2+  Ca21  1  0.16912256  0.84749022  0.12573643  1
  Pr3+  Pr22  1  0.49552971  0.15160268  0.87510048  1
  Pr3+  Pr23  1  0.32962288  0.34306010  0.12548381  1
  Pr3+  Pr24  1  1.00617582  0.65661871  0.87742209  1
  Pr3+  Pr25  1  0.17342168  0.51656794  0.62211652  1
  Pr3+  Pr26  1  0.66487073  0.34507810  0.12638370  1
  Pr3+  Pr27  1  0.49697556  0.82060588  0.87774009  1
  Pr3+  Pr28  1  0.66127985  0.67637968  0.62496794  1
  Pr3+  Pr29  1  0.17149387  0.84415433  0.62443691  1
  Pr3+  Pr30  1  0.83359956  0.51085654  0.62364541  1
  Pr3+  Pr31  1  0.66546846  0.65542324  0.37451463  1
  Pr3+  Pr32  1  0.32594979  0.01442613  0.62327416  1
  Pr3+  Pr33  1  0.83544479  0.17951595  0.62435399  1
  Pr3+  Pr34  1  0.49983744  0.48838538  0.87493768  1
  Pr3+  Pr35  1  0.66167950  0.01138194  0.62335632  1
  Pr3+  Pr36  1  0.83651722  0.84511816  0.62337023  1
  Pr3+  Pr37  1  0.83063929  0.48887364  0.87552329  1
  Pr3+  Pr38  1  0.50126462  0.51323114  0.12611574  1
  Pr3+  Pr39  1  0.83269128  0.48577709  0.37463963  1
  Pr3+  Pr40  1  0.83047445  0.81880552  0.87565522  1
  Pr3+  Pr41  1  0.49833130  0.84099953  0.62171050  1
  Pr3+  Pr42  1  0.16697811  0.51261276  0.12823803  1
  Pr3+  Pr43  1  0.49475808  0.15221809  0.37472609  1
  Pr3+  Pr44  1  0.84155082  0.51455069  0.12590617  1
  Pr3+  Pr45  1  0.83869998  0.84827262  0.12637139  1
  Pr3+  Pr46  1  0.66847732  0.98577927  0.87632797  1
  Pr3+  Pr47  1  0.33320697  0.98419389  0.87722713  1
  Pr3+  Pr48  1  0.00014372  0.67749720  0.62120681  1
  Pr3+  Pr49  1  0.00129624  0.34471758  0.62264953  1
  Pr3+  Pr50  1  0.16315548  0.15355044  0.87569764  1
  Pr3+  Pr51  1  1.00398389  0.98947014  0.37407234  1
  Pr3+  Pr52  1  0.66725139  0.98581054  0.37320382  1
  Pr3+  Pr53  1  0.50268600  0.17587142  0.12587959  1
  Pr3+  Pr54  1  1.00299469  0.32072674  0.87622908  1
  Pr3+  Pr55  1  0.33598780  0.31985994  0.87548080  1
  Pr3+  Pr56  1  0.33469619  0.65683555  0.87743839  1
  Pr3+  Pr57  1  0.16380215  0.48887503  0.87577330  1
  Pr3+  Pr58  1  0.83209619  0.15224312  0.87496327  1
  Pr3+  Pr59  1  0.16589172  0.82023025  0.37141045  1
  Pr3+  Pr60  1  0.67036028  0.32072226  0.87313398  1
  Pr3+  Pr61  1  0.50418134  0.18210092  0.62449041  1
  Pr3+  Pr62  1  0.66466189  0.67886693  0.12544239  1
  Pr3+  Pr63  1  0.32998367  0.34715791  0.62462087  1
  Pr3+  Pr64  1  0.83350705  0.82051706  0.37428844  1
  Pr3+  Pr65  1  0.83817130  0.17999463  0.12584411  1
  Pr3+  Pr66  1  0.50050013  0.84628502  0.12813466  1
  Pr3+  Pr67  1  0.49611710  0.48701287  0.37553525  1
  Pr3+  Pr68  1  0.16325655  0.15599812  0.37424321  1
  Pr3+  Pr69  1  0.83260799  0.15644027  0.37505979  1
  Pr3+  Pr70  1  1.00321094  0.98530799  0.87611603  1
  Pr3+  Pr71  1  0.33330719  0.32293795  0.37454745  1
  Mn3.30+  Mn72  1  0.16504812  0.00009023  0.00410413  1
  Mn3.30+  Mn73  1  0.16930122  0.00099889  0.49786579  1
  Mn3.30+  Mn74  1  0.16539455  0.33247357  0.00240028  1
  Mn3.30+  Mn75  1  0.16681410  0.33363715  0.49958256  1
  Mn3.30+  Mn76  1  0.16723791  0.66888048  0.00469992  1
  Mn3.30+  Mn77  1  0.16844173  0.66797347  0.49602232  1
  Mn3.30+  Mn78  1  0.49917060  -0.00064786  0.00162395  1
  Mn3.30+  Mn79  1  0.49560683  -0.00284872  0.49847726  1
  Mn3.30+  Mn80  1  0.50009216  0.33246250  0.00050088  1
  Mn3.30+  Mn81  1  0.50307751  0.33340674  0.49881633  1
  Mn3.30+  Mn82  1  0.50017857  0.66653151  0.00137711  1
  Mn3.30+  Mn83  1  0.49649631  0.66671492  0.49938389  1
  Mn3.30+  Mn84  1  0.83492270  0.00025517  0.00228394  1
  Mn3.30+  Mn85  1  0.83303652  0.00022076  0.49900099  1
  Mn3.30+  Mn86  1  0.83570391  0.33389253  0.00066828  1
  Mn3.30+  Mn87  1  0.83131790  0.33314672  0.50068786  1
  Mn3.30+  Mn88  1  0.83495363  0.66725575  0.00112752  1
  Mn3.30+  Mn89  1  0.83418466  0.66528071  0.49739152  1
  Mn3.30+  Mn90  1  0.00144911  0.16704918  0.24801050  1
  Mn3.30+  Mn91  1  0.00045296  0.16642571  0.74795273  1
  Mn3.30+  Mn92  1  0.00205511  0.50072240  0.25011360  1
  Mn3.30+  Mn93  1  0.00050129  0.50097675  0.74891778  1
  Mn3.30+  Mn94  1  0.00256409  0.83294219  0.24843559  1
  Mn3.30+  Mn95  1  0.00045107  0.83242814  0.74951810  1
  Mn3.30+  Mn96  1  0.33061447  0.16452375  0.24956287  1
  Mn3.30+  Mn97  1  0.33158913  0.16659540  0.74893233  1
  Mn3.30+  Mn98  1  0.33321618  0.50192716  0.24955326  1
  Mn3.30+  Mn99  1  0.33361134  0.50282094  0.75009398  1
  Mn3.30+  Mn100  1  0.33146858  0.83228799  0.25028623  1
  Mn3.30+  Mn101  1  0.33359455  0.83091481  0.75019045  1
  Mn3.30+  Mn102  1  0.66654951  0.16742225  0.25172656  1
  Mn3.30+  Mn103  1  0.66615438  0.16691500  0.74865610  1
  Mn3.30+  Mn104  1  0.66795310  0.49915078  0.25036683  1
  Mn3.30+  Mn105  1  0.66629322  0.50086914  0.75034227  1
  Mn3.30+  Mn106  1  0.66511810  0.83241260  0.25161139  1
  Mn3.30+  Mn107  1  0.66620570  0.83107143  0.74953762  1
  Mn3.30+  Mn108  1  0.16815968  0.00025013  0.24899213  1
  Mn3.30+  Mn109  1  0.16600563  0.00107281  0.74879366  1
  Mn3.30+  Mn110  1  0.16524794  0.33283696  0.24825557  1
  Mn3.30+  Mn111  1  0.16715547  0.33345402  0.75037035  1
  Mn3.30+  Mn112  1  0.16671315  0.66800933  0.24880125  1
  Mn3.30+  Mn113  1  0.16899166  0.66854930  0.75032355  1
  Mn3.30+  Mn114  1  0.49733512  -0.00187874  0.25185262  1
  Mn3.30+  Mn115  1  0.49777534  -0.00199758  0.74815664  1
  Mn3.30+  Mn116  1  0.50136356  0.33188275  0.25144453  1
  Mn3.30+  Mn117  1  0.50162747  0.33421390  0.74956780  1
  Mn3.30+  Mn118  1  0.49551572  0.66742855  0.24904624  1
  Mn3.30+  Mn119  1  0.50018673  0.66633889  0.75079734  1
  Mn3.30+  Mn120  1  0.83515651  0.00133659  0.24923462  1
  Mn3.30+  Mn121  1  0.83289298  -0.00103459  0.74931269  1
  Mn3.30+  Mn122  1  0.83409222  0.33322050  0.25134788  1
  Mn3.30+  Mn123  1  0.83278454  0.33380761  0.74785741  1
  Mn3.30+  Mn124  1  0.83723506  0.66676790  0.25150836  1
  Mn3.30+  Mn125  1  0.83289443  0.66595677  0.74929465  1
  Mn3.30+  Mn126  1  0.00091573  0.16680857  0.00286525  1
  Mn3.30+  Mn127  1  0.00118432  0.16700866  0.50149463  1
  Mn3.30+  Mn128  1  0.00011013  0.50068373  0.00143399  1
  Mn3.30+  Mn129  1  0.00228612  0.50086106  0.49897631  1
  Mn3.30+  Mn130  1  0.00177753  0.83323663  0.00407562  1
  Mn3.30+  Mn131  1  0.00155325  0.83231776  0.49727678  1
  Mn3.30+  Mn132  1  0.33030079  0.16512748  0.00206095  1
  Mn3.30+  Mn133  1  0.33187381  0.16638103  0.49961700  1
  Mn3.30+  Mn134  1  0.33246564  0.50149133  0.00163896  1
  Mn3.30+  Mn135  1  0.33431983  0.50262556  0.49893452  1
  Mn3.30+  Mn136  1  0.33055336  0.83178962  0.00358666  1
  Mn3.30+  Mn137  1  0.33455338  0.83167799  0.49672802  1
  Mn3.30+  Mn138  1  0.66720591  0.16584075  0.00035230  1
  Mn3.30+  Mn139  1  0.66547060  0.16855742  0.49905426  1
  Mn3.30+  Mn140  1  0.66843411  0.50111481  0.00116436  1
  Mn3.30+  Mn141  1  0.66545045  0.49859592  0.49865149  1
  Mn3.30+  Mn142  1  0.66678733  0.83130485  0.00057203  1
  Mn3.30+  Mn143  1  0.66456275  0.83189760  0.49759215  1
  O2-  O144  1  0.02483572  0.15624217  0.12348388  1
  O2-  O145  1  0.02561636  0.16504066  0.62655737  1
  O2-  O146  1  0.02162428  0.49079917  0.12376103  1
  O2-  O147  1  0.02716649  0.49524523  0.62584074  1
  O2-  O148  1  0.02633117  0.82441398  0.12709532  1
  O2-  O149  1  0.02600069  0.82561635  0.62068504  1
  O2-  O150  1  0.35912140  0.16594710  0.12461333  1
  O2-  O151  1  0.36047408  0.16193518  0.62332191  1
  O2-  O152  1  0.35942597  0.48981923  0.12445664  1
  O2-  O153  1  0.35209020  0.49353133  0.62622008  1
  O2-  O154  1  0.35780117  0.82876875  0.12678385  1
  O2-  O155  1  0.35517476  0.82682919  0.62283378  1
  O2-  O156  1  0.69208733  0.16504537  0.12644481  1
  O2-  O157  1  0.69129212  0.15651380  0.62399076  1
  O2-  O158  1  0.69558551  0.49369278  0.12563937  1
  O2-  O159  1  0.68976354  0.49767966  0.62233878  1
  O2-  O160  1  0.69348551  0.82624683  0.12506221  1
  O2-  O161  1  0.69277781  0.82531868  0.62217101  1
  O2-  O162  1  0.14215618  0.32577984  0.12252945  1
  O2-  O163  1  0.14559169  0.32854558  0.62728496  1
  O2-  O164  1  0.13883197  0.65854959  0.12606030  1
  O2-  O165  1  0.14408870  0.66585629  0.62234981  1
  O2-  O166  1  0.14126494  0.99204931  0.12598507  1
  O2-  O167  1  0.15053234  0.99064473  0.62286292  1
  O2-  O168  1  0.47431981  0.32522238  0.12506107  1
  O2-  O169  1  0.47405722  0.32932041  0.62581231  1
  O2-  O170  1  0.47088936  0.66003093  0.12443187  1
  O2-  O171  1  0.47478526  0.66796483  0.62565860  1
  O2-  O172  1  0.48032529  0.99652975  0.12725451  1
  O2-  O173  1  0.47071718  0.99117498  0.62310778  1
  O2-  O174  1  0.80800865  0.32916649  0.12675638  1
  O2-  O175  1  0.80304136  0.32829017  0.62568967  1
  O2-  O176  1  0.80785681  0.66246376  0.12712571  1
  O2-  O177  1  0.80519455  0.66066619  0.62163352  1
  O2-  O178  1  0.81163447  0.99681035  0.12530709  1
  O2-  O179  1  0.80560293  0.99330739  0.62298698  1
  O2-  O180  1  0.30768388  0.17611180  0.37611349  1
  O2-  O181  1  0.30824983  0.17147096  0.87615615  1
  O2-  O182  1  0.31645057  0.50302656  0.37212008  1
  O2-  O183  1  0.30686071  0.50801253  0.87689326  1
  O2-  O184  1  0.30878864  0.83951641  0.37351337  1
  O2-  O185  1  0.31545738  0.83510489  0.87765460  1
  O2-  O186  1  0.63927374  0.17600100  0.37659731  1
  O2-  O187  1  0.64024878  0.17299696  0.87276949  1
  O2-  O188  1  0.64014924  0.50817675  0.37348857  1
  O2-  O189  1  0.64424029  0.50674340  0.87911533  1
  O2-  O190  1  0.63735038  0.83639676  0.37621454  1
  O2-  O191  1  0.64102341  0.83951952  0.87580702  1
  O2-  O192  1  0.97727497  0.16857149  0.37579000  1
  O2-  O193  1  0.97476154  0.17398633  0.87448829  1
  O2-  O194  1  0.97723940  0.50550799  0.37592135  1
  O2-  O195  1  0.97535531  0.50865721  0.87380311  1
  O2-  O196  1  0.97548333  0.84223364  0.37397099  1
  O2-  O197  1  0.97511772  0.83588363  0.87751606  1
  O2-  O198  1  0.19430231  0.00910018  0.37545126  1
  O2-  O199  1  0.18989548  0.00648301  0.87492360  1
  O2-  O200  1  0.18920738  0.33367984  0.37390283  1
  O2-  O201  1  0.19188982  0.34032364  0.87595987  1
  O2-  O202  1  0.19502981  0.67223496  0.37189458  1
  O2-  O203  1  0.19023934  0.66754897  0.87927286  1
  O2-  O204  1  0.52448307  0.00646416  0.37640121  1
  O2-  O205  1  0.52368705  0.00303818  0.87378516  1
  O2-  O206  1  0.52858987  0.33832806  0.37303025  1
  O2-  O207  1  0.52576764  0.33779954  0.87553383  1
  O2-  O208  1  0.52291520  0.67056631  0.37268689  1
  O2-  O209  1  0.52875464  0.67394673  0.87827511  1
  O2-  O210  1  0.85909023  0.00671485  0.37459039  1
  O2-  O211  1  0.85791882  0.00302459  0.87682413  1
  O2-  O212  1  0.85513612  0.33608955  0.37563753  1
  O2-  O213  1  0.85940735  0.33946692  0.87260457  1
  O2-  O214  1  0.86413117  0.67243593  0.37477690  1
  O2-  O215  1  0.86195705  0.67113926  0.87594425  1
  O2-  O216  1  0.23328383  0.09917269  0.01786330  1
  O2-  O217  1  0.23804612  0.09836934  0.52282159  1
  O2-  O218  1  0.23657694  0.42754789  0.02090789  1
  O2-  O219  1  0.24110468  0.42707828  0.51936161  1
  O2-  O220  1  0.23798600  0.76117487  0.02367624  1
  O2-  O221  1  0.23543202  0.76585602  0.51483909  1
  O2-  O222  1  0.56915692  0.09655429  0.01504850  1
  O2-  O223  1  0.56838004  0.09389115  0.52036295  1
  O2-  O224  1  0.57210375  0.42665221  0.02160597  1
  O2-  O225  1  0.57248346  0.42784840  0.51528581  1
  O2-  O226  1  0.57150672  0.76010820  0.02454154  1
  O2-  O227  1  0.57237170  0.75756274  0.52088907  1
  O2-  O228  1  0.90348208  0.09999245  0.01538138  1
  O2-  O229  1  0.90244898  0.09580901  0.51810663  1
  O2-  O230  1  0.90303797  0.43235974  0.01494742  1
  O2-  O231  1  0.90482995  0.42598988  0.52098026  1
  O2-  O232  1  0.90098298  0.76467201  0.01854993  1
  O2-  O233  1  0.90465787  0.75879501  0.52101567  1
  O2-  O234  1  0.26394335  0.26333651  0.23307464  1
  O2-  O235  1  0.26502987  0.26531100  0.73400902  1
  O2-  O236  1  0.25983937  0.59401468  0.22626911  1
  O2-  O237  1  0.26308772  0.59744240  0.72932532  1
  O2-  O238  1  0.25913409  0.92705748  0.23524918  1
  O2-  O239  1  0.26359572  0.92804102  0.73366995  1
  O2-  O240  1  0.59318511  0.25913307  0.22600852  1
  O2-  O241  1  0.59675613  0.26151547  0.72740882  1
  O2-  O242  1  0.59594742  0.59376926  0.22878006  1
  O2-  O243  1  0.59531620  0.59678333  0.73333436  1
  O2-  O244  1  0.59405602  0.92466090  0.23393335  1
  O2-  O245  1  0.59425267  0.92646943  0.72800068  1
  O2-  O246  1  0.92777634  0.25985554  0.22679625  1
  O2-  O247  1  0.92771484  0.26187672  0.72798520  1
  O2-  O248  1  0.92857139  0.59506774  0.22710750  1
  O2-  O249  1  0.92777327  0.59410171  0.72611712  1
  O2-  O250  1  0.93108270  0.92780324  0.22897075  1
  O2-  O251  1  0.92377749  0.92384948  0.73208622  1
  O2-  O252  1  0.09587313  0.23627857  0.26628236  1
  O2-  O253  1  0.09455720  0.24228003  0.77270957  1
  O2-  O254  1  0.09524947  0.57306808  0.26485580  1
  O2-  O255  1  0.09729120  0.57349390  0.76837799  1
  O2-  O256  1  0.09382949  0.90811546  0.27383058  1
  O2-  O257  1  0.09082553  0.90835566  0.76626719  1
  O2-  O258  1  0.42764314  0.23823649  0.27097086  1
  O2-  O259  1  0.42879317  0.23786823  0.77003908  1
  O2-  O260  1  0.43221262  0.56847070  0.26542083  1
  O2-  O261  1  0.42877518  0.57498646  0.77608970  1
  O2-  O262  1  0.42909150  0.90067777  0.26743457  1
  O2-  O263  1  0.42832094  0.90309255  0.76965361  1
  O2-  O264  1  0.76243531  0.23832565  0.26846046  1
  O2-  O265  1  0.76354284  0.23915686  0.77157807  1
  O2-  O266  1  0.76407647  0.57341224  0.27176301  1
  O2-  O267  1  0.76442952  0.57087075  0.76709304  1
  O2-  O268  1  0.76253352  0.90691658  0.27153658  1
  O2-  O269  1  0.75909998  0.90407488  0.77022374  1
  O2-  O270  1  0.07407878  0.07265111  0.47860681  1
  O2-  O271  1  0.07061832  0.07365748  0.97652885  1
  O2-  O272  1  0.07316746  0.40505743  0.48818614  1
  O2-  O273  1  0.07195525  0.40776842  0.97656719  1
  O2-  O274  1  0.07165536  0.73788936  0.47583856  1
  O2-  O275  1  0.07009800  0.73744961  0.98290182  1
  O2-  O276  1  0.40181906  0.06858770  0.47857724  1
  O2-  O277  1  0.40380611  0.07300123  0.97762550  1
  O2-  O278  1  0.40804655  0.40391769  0.47980573  1
  O2-  O279  1  0.40546069  0.40651441  0.97835198  1
  O2-  O280  1  0.40202128  0.73600414  0.47953956  1
  O2-  O281  1  0.40885480  0.73898056  0.97968202  1
  O2-  O282  1  0.73496656  0.07281593  0.47772300  1
  O2-  O283  1  0.73828301  0.07304350  0.97679011  1
  O2-  O284  1  0.74049351  0.40756127  0.47752855  1
  O2-  O285  1  0.73895223  0.40408106  0.97918468  1
  O2-  O286  1  0.74139203  0.73826285  0.47544498  1
  O2-  O287  1  0.73733663  0.73666225  0.97810273  1
  O2-  O288  1  0.09656700  0.23895770  0.48511681  1
  O2-  O289  1  0.09364101  0.23992844  0.97644554  1
  O2-  O290  1  0.09538714  0.57552157  0.48639557  1
  O2-  O291  1  0.09533931  0.57139259  0.98115328  1
  O2-  O292  1  0.09640360  0.90678720  0.47800538  1
  O2-  O293  1  0.08925460  0.90960485  0.98062402  1
  O2-  O294  1  0.42925822  0.23780138  0.48023447  1
  O2-  O295  1  0.42822379  0.23787278  0.97863792  1
  O2-  O296  1  0.43014817  0.57136535  0.48043850  1
  O2-  O297  1  0.43014137  0.57291628  0.97802235  1
  O2-  O298  1  0.43172227  0.89820884  0.48058367  1
  O2-  O299  1  0.42668837  0.90533372  0.98326899  1
  O2-  O300  1  0.76339102  0.23693741  0.48225682  1
  O2-  O301  1  0.76256640  0.23883379  0.97887823  1
  O2-  O302  1  0.76130275  0.57241086  0.47654700  1
  O2-  O303  1  0.76682359  0.57159840  0.98359362  1
  O2-  O304  1  0.75919535  0.90610255  0.47709292  1
  O2-  O305  1  0.76069119  0.90377712  0.98005366  1
  O2-  O306  1  0.07242197  0.07231348  0.27143126  1
  O2-  O307  1  0.07072798  0.07415526  0.77281603  1
  O2-  O308  1  0.07446388  0.40725170  0.26182108  1
  O2-  O309  1  0.07122529  0.40593189  0.77077839  1
  O2-  O310  1  0.07196550  0.73945299  0.27430941  1
  O2-  O311  1  0.07004651  0.73607301  0.76546751  1
  O2-  O312  1  0.40318866  0.07281179  0.27309295  1
  O2-  O313  1  0.40236774  0.07032935  0.77031358  1
  O2-  O314  1  0.40802336  0.40385678  0.26979461  1
  O2-  O315  1  0.40515401  0.40739619  0.77203827  1
  O2-  O316  1  0.40109489  0.73561857  0.26914499  1
  O2-  O317  1  0.40873370  0.73932627  0.77375985  1
  O2-  O318  1  0.73750433  0.07555492  0.27470231  1
  O2-  O319  1  0.73648105  0.07078209  0.77064284  1
  O2-  O320  1  0.73687515  0.40496081  0.27205355  1
  O2-  O321  1  0.74105790  0.40720737  0.77250368  1
  O2-  O322  1  0.73909476  0.73901996  0.27201288  1
  O2-  O323  1  0.73900581  0.73754728  0.77175438  1
  O2-  O324  1  0.23396488  0.09925242  0.23143629  1
  O2-  O325  1  0.23685231  0.09798877  0.72832170  1
  O2-  O326  1  0.24219881  0.42601506  0.22779435  1
  O2-  O327  1  0.23637015  0.42957937  0.73192607  1
  O2-  O328  1  0.23370854  0.76495187  0.22982907  1
  O2-  O329  1  0.23915379  0.76221066  0.73208029  1
  O2-  O330  1  0.56964654  0.09679225  0.23628490  1
  O2-  O331  1  0.56878383  0.09294718  0.72863298  1
  O2-  O332  1  0.57154889  0.42638647  0.22639849  1
  O2-  O333  1  0.57376505  0.42813992  0.73731066  1
  O2-  O334  1  0.57095730  0.75654092  0.22676974  1
  O2-  O335  1  0.57167995  0.76138057  0.72920723  1
  O2-  O336  1  0.90382506  0.09752021  0.23316495  1
  O2-  O337  1  0.90110514  0.09602948  0.73347646  1
  O2-  O338  1  0.90275233  0.43015746  0.23542133  1
  O2-  O339  1  0.90488726  0.42665275  0.72724193  1
  O2-  O340  1  0.90262338  0.76508187  0.23279608  1
  O2-  O341  1  0.90404241  0.75954166  0.72833671  1
  O2-  O342  1  0.26504373  0.26376050  0.01523753  1
  O2-  O343  1  0.26449156  0.26476430  0.51797222  1
  O2-  O344  1  0.26170892  0.59560637  0.02385114  1
  O2-  O345  1  0.26034195  0.59638186  0.51985503  1
  O2-  O346  1  0.25854454  0.92900162  0.01271952  1
  O2-  O347  1  0.26397004  0.92703447  0.51875467  1
  O2-  O348  1  0.59656014  0.26061934  0.01979933  1
  O2-  O349  1  0.59476764  0.26100265  0.52519353  1
  O2-  O350  1  0.59315874  0.59327512  0.02538998  1
  O2-  O351  1  0.59659390  0.59711992  0.51500110  1
  O2-  O352  1  0.59307920  0.92368299  0.01668002  1
  O2-  O353  1  0.59298507  0.92847623  0.52127564  1
  O2-  O354  1  0.93074657  0.26368982  0.02168644  1
  O2-  O355  1  0.92474518  0.26041299  0.52448757  1
  O2-  O356  1  0.93075056  0.59751754  0.02254806  1
  O2-  O357  1  0.92421061  0.59099822  0.52377303  1
  O2-  O358  1  0.92909139  0.92808535  0.02224832  1
  O2-  O359  1  0.92520693  0.92300594  0.51745232  1
