# generated using pymatgen
data_Sr7Ca15Pr50Mn72O216
_symmetry_space_group_name_H-M   'P 1'
_cell_length_a   16.55945673
_cell_length_b   16.60530042
_cell_length_c   15.59248128
_cell_angle_alpha   90.00120542
_cell_angle_beta   89.99440718
_cell_angle_gamma   89.99392325
_symmetry_Int_Tables_number   1
_chemical_formula_structural   Sr7Ca15Pr50Mn72O216
_chemical_formula_sum   'Sr7 Ca15 Pr50 Mn72 O216'
_cell_volume   4287.53865563
_cell_formula_units_Z   1
loop_
 _symmetry_equiv_pos_site_id
 _symmetry_equiv_pos_as_xyz
  1  'x, y, z'
loop_
 _atom_type_symbol
 _atom_type_oxidation_number
  Sr2+  2.0
  Ca2+  2.0
  Pr3+  3.0
  Mn3.30+  3.3
  O2-  -2.0
loop_
 _atom_site_type_symbol
 _atom_site_label
 _atom_site_symmetry_multiplicity
 _atom_site_fract_x
 _atom_site_fract_y
 _atom_site_fract_z
 _atom_site_occupancy
  Sr2+  Sr0  1  0.33379238  0.01015317  0.62260960  1
  Sr2+  Sr1  1  0.16408908  0.82352465  0.87626324  1
  Sr2+  Sr2  1  0.16650280  0.82620964  0.37307758  1
  Sr2+  Sr3  1  0.33276069  0.99068779  0.37556088  1
  Sr2+  Sr4  1  0.66492168  0.34177096  0.62347252  1
  Sr2+  Sr5  1  0.82997168  0.15528789  0.87559277  1
  Sr2+  Sr6  1  1.00235175  0.32297677  0.37452555  1
  Ca2+  Ca7  1  0.67274713  0.98378233  0.37372162  1
  Ca2+  Ca8  1  0.50465313  0.18137512  0.62380477  1
  Ca2+  Ca9  1  0.49572436  0.82017654  0.87599896  1
  Ca2+  Ca10  1  0.83085218  0.82115409  0.37123013  1
  Ca2+  Ca11  1  0.82879228  0.48529645  0.87582209  1
  Ca2+  Ca12  1  0.16708378  0.84725254  0.12654604  1
  Ca2+  Ca13  1  -0.00355197  0.01096887  0.12633615  1
  Ca2+  Ca14  1  0.82787446  0.15048015  0.37366310  1
  Ca2+  Ca15  1  0.33387896  0.65412118  0.37335199  1
  Ca2+  Ca16  1  0.83858368  0.85087795  0.12807765  1
  Ca2+  Ca17  1  0.49742254  0.15371099  0.87265655  1
  Ca2+  Ca18  1  0.67398014  0.31519758  0.37620451  1
  Ca2+  Ca19  1  -0.00295886  0.68577799  0.12649364  1
  Ca2+  Ca20  1  0.16338220  0.48689851  0.37407946  1
  Ca2+  Ca21  1  0.50502125  0.17903248  0.12629713  1
  Pr3+  Pr22  1  0.83666566  0.17727377  0.12550880  1
  Pr3+  Pr23  1  0.83521044  0.51190434  0.62533336  1
  Pr3+  Pr24  1  0.33406856  0.32303889  0.37414584  1
  Pr3+  Pr25  1  -0.00239852  0.01096009  0.62462329  1
  Pr3+  Pr26  1  0.67020278  0.65348588  0.87688851  1
  Pr3+  Pr27  1  0.33176974  0.01076144  0.12691857  1
  Pr3+  Pr28  1  0.16444022  0.48837188  0.87561380  1
  Pr3+  Pr29  1  1.00015118  0.32001779  0.87529979  1
  Pr3+  Pr30  1  0.49934324  0.48754400  0.37388579  1
  Pr3+  Pr31  1  0.50285155  0.51374738  0.12521797  1
  Pr3+  Pr32  1  0.83180617  0.82398828  0.87792609  1
  Pr3+  Pr33  1  0.50325315  0.84805954  0.12456470  1
  Pr3+  Pr34  1  0.16932906  0.51088881  0.62089055  1
  Pr3+  Pr35  1  0.66900703  0.31872188  0.87442089  1
  Pr3+  Pr36  1  0.32774405  0.68213515  0.12670948  1
  Pr3+  Pr37  1  0.17086336  0.17778368  0.62361582  1
  Pr3+  Pr38  1  0.33471059  0.34188011  0.62304301  1
  Pr3+  Pr39  1  1.00327002  0.65607115  0.87714520  1
  Pr3+  Pr40  1  0.33479726  0.65534750  0.87634514  1
  Pr3+  Pr41  1  0.66772563  0.98946460  0.87577292  1
  Pr3+  Pr42  1  1.00116878  0.98856466  0.37185887  1
  Pr3+  Pr43  1  1.00200987  0.98704063  0.87872940  1
  Pr3+  Pr44  1  0.66502137  0.34331318  0.12664772  1
  Pr3+  Pr45  1  0.66586470  0.68249418  0.12613112  1
  Pr3+  Pr46  1  0.33970990  0.31627883  0.87511845  1
  Pr3+  Pr47  1  0.16982789  0.84673532  0.62423905  1
  Pr3+  Pr48  1  0.33019916  0.67863131  0.62313356  1
  Pr3+  Pr49  1  1.00335947  0.65536966  0.37257474  1
  Pr3+  Pr50  1  -0.00354246  0.34521688  0.12576496  1
  Pr3+  Pr51  1  0.67089810  0.65673456  0.37398399  1
  Pr3+  Pr52  1  -0.00389079  0.34642938  0.62415398  1
  Pr3+  Pr53  1  0.33856562  0.98508004  0.87479349  1
  Pr3+  Pr54  1  0.66389002  0.01452241  0.12720300  1
  Pr3+  Pr55  1  0.66069831  0.01540692  0.62255071  1
  Pr3+  Pr56  1  0.66321527  0.67966518  0.62454536  1
  Pr3+  Pr57  1  0.49464118  0.82204291  0.37392217  1
  Pr3+  Pr58  1  0.16693873  0.51284567  0.12859958  1
  Pr3+  Pr59  1  0.33212598  0.34413025  0.12612941  1
  Pr3+  Pr60  1  0.49996155  0.15513839  0.37584343  1
  Pr3+  Pr61  1  0.50488076  0.51156294  0.62454807  1
  Pr3+  Pr62  1  0.16519531  0.15272833  0.87562807  1
  Pr3+  Pr63  1  0.49709630  0.48582099  0.87576571  1
  Pr3+  Pr64  1  0.16301049  0.15407641  0.37439757  1
  Pr3+  Pr65  1  0.50284871  0.84758665  0.62516820  1
  Pr3+  Pr66  1  0.16686624  0.17593971  0.12615537  1
  Pr3+  Pr67  1  0.83391296  0.84689476  0.62263522  1
  Pr3+  Pr68  1  0.84055997  0.51570776  0.12515922  1
  Pr3+  Pr69  1  -0.00204346  0.68079987  0.62378303  1
  Pr3+  Pr70  1  0.82938410  0.48532090  0.37435403  1
  Pr3+  Pr71  1  0.83461803  0.17947352  0.62458236  1
  Mn3.30+  Mn72  1  0.16627215  -0.00221967  0.00263710  1
  Mn3.30+  Mn73  1  0.16597741  -0.00021203  0.49864662  1
  Mn3.30+  Mn74  1  0.16737899  0.33298649  0.00011478  1
  Mn3.30+  Mn75  1  0.16570478  0.33367986  0.49902686  1
  Mn3.30+  Mn76  1  0.16427726  0.66930159  0.00368733  1
  Mn3.30+  Mn77  1  0.16715514  0.66657668  0.49553604  1
  Mn3.30+  Mn78  1  0.50032963  0.00245914  -0.00016714  1
  Mn3.30+  Mn79  1  0.50187833  0.00123611  0.49846077  1
  Mn3.30+  Mn80  1  0.50045826  0.32995958  0.00197012  1
  Mn3.30+  Mn81  1  0.50375929  0.33227290  0.49720791  1
  Mn3.30+  Mn82  1  0.49995841  0.66826053  0.00027839  1
  Mn3.30+  Mn83  1  0.49863707  0.66680066  0.49822542  1
  Mn3.30+  Mn84  1  0.83389644  -0.00065058  0.00233714  1
  Mn3.30+  Mn85  1  0.83024663  -0.00012655  0.49687235  1
  Mn3.30+  Mn86  1  0.83179985  0.33411779  -0.00038974  1
  Mn3.30+  Mn87  1  0.83219819  0.33130672  0.49809953  1
  Mn3.30+  Mn88  1  0.83593400  0.66880407  0.00132094  1
  Mn3.30+  Mn89  1  0.83326983  0.66801080  0.49875815  1
  Mn3.30+  Mn90  1  -0.00313055  0.16579236  0.25091578  1
  Mn3.30+  Mn91  1  0.00030934  0.16563079  0.75051619  1
  Mn3.30+  Mn92  1  0.00133818  0.50178832  0.25019147  1
  Mn3.30+  Mn93  1  -0.00128151  0.50097358  0.75166902  1
  Mn3.30+  Mn94  1  -0.00212458  0.83441905  0.24812620  1
  Mn3.30+  Mn95  1  -0.00052728  0.83362898  0.75011116  1
  Mn3.30+  Mn96  1  0.33572501  0.16634874  0.24935855  1
  Mn3.30+  Mn97  1  0.33668917  0.16504418  0.74834914  1
  Mn3.30+  Mn98  1  0.33256317  0.50142027  0.25222473  1
  Mn3.30+  Mn99  1  0.33376001  0.49884241  0.74907521  1
  Mn3.30+  Mn100  1  0.33166432  0.83376783  0.25071047  1
  Mn3.30+  Mn101  1  0.33470165  0.83253701  0.75100841  1
  Mn3.30+  Mn102  1  0.66811555  0.16561539  0.25192868  1
  Mn3.30+  Mn103  1  0.66353859  0.16669467  0.74996624  1
  Mn3.30+  Mn104  1  0.66849787  0.49945377  0.24936170  1
  Mn3.30+  Mn105  1  0.66760321  0.49940740  0.75138865  1
  Mn3.30+  Mn106  1  0.66970342  0.83573298  0.25000841  1
  Mn3.30+  Mn107  1  0.66475579  0.83378155  0.75232389  1
  Mn3.30+  Mn108  1  0.16410347  -0.00173357  0.24755370  1
  Mn3.30+  Mn109  1  0.16796774  -0.00024900  0.75051407  1
  Mn3.30+  Mn110  1  0.16528837  0.33372522  0.25020859  1
  Mn3.30+  Mn111  1  0.16779946  0.33312943  0.75038118  1
  Mn3.30+  Mn112  1  0.16518226  0.66876316  0.25071791  1
  Mn3.30+  Mn113  1  0.16629123  0.66654822  0.74976041  1
  Mn3.30+  Mn114  1  0.50196528  0.00157334  0.25184917  1
  Mn3.30+  Mn115  1  0.50037723  0.00224226  0.75004953  1
  Mn3.30+  Mn116  1  0.50301447  0.33164008  0.25099301  1
  Mn3.30+  Mn117  1  0.50131579  0.33092327  0.74923685  1
  Mn3.30+  Mn118  1  0.49875703  0.66770556  0.24993606  1
  Mn3.30+  Mn119  1  0.49979938  0.66743299  0.75145353  1
  Mn3.30+  Mn120  1  0.83255181  -0.00086336  0.25064300  1
  Mn3.30+  Mn121  1  0.83135797  0.00029853  0.74990991  1
  Mn3.30+  Mn122  1  0.83179093  0.33086615  0.25264284  1
  Mn3.30+  Mn123  1  0.83217289  0.33436652  0.75003339  1
  Mn3.30+  Mn124  1  0.83619233  0.67062006  0.24874003  1
  Mn3.30+  Mn125  1  0.83289036  0.66649064  0.75163750  1
  Mn3.30+  Mn126  1  -0.00059351  0.16475352  0.00046916  1
  Mn3.30+  Mn127  1  -0.00232238  0.16660478  0.49814404  1
  Mn3.30+  Mn128  1  -0.00177846  0.50170087  -0.00109506  1
  Mn3.30+  Mn129  1  0.00125639  0.50064195  0.49864404  1
  Mn3.30+  Mn130  1  -0.00055571  0.83387682  0.00538758  1
  Mn3.30+  Mn131  1  -0.00172683  0.83387181  0.49660472  1
  Mn3.30+  Mn132  1  0.33686724  0.16506883  0.00177968  1
  Mn3.30+  Mn133  1  0.33565277  0.16637253  0.49979316  1
  Mn3.30+  Mn134  1  0.33261978  0.49971971  0.00174847  1
  Mn3.30+  Mn135  1  0.33392325  0.50044496  0.49710443  1
  Mn3.30+  Mn136  1  0.33270571  0.83339867  0.00045309  1
  Mn3.30+  Mn137  1  0.33324824  0.83271790  0.49758795  1
  Mn3.30+  Mn138  1  0.66416635  0.16604205  0.00029437  1
  Mn3.30+  Mn139  1  0.66743410  0.16607578  0.49747846  1
  Mn3.30+  Mn140  1  0.66921546  0.49973018  0.00091319  1
  Mn3.30+  Mn141  1  0.66706578  0.49879382  0.49930422  1
  Mn3.30+  Mn142  1  0.66660524  0.83477315  0.00064628  1
  Mn3.30+  Mn143  1  0.66785396  0.83438424  0.49697346  1
  O2-  O144  1  0.02253142  0.16344112  0.12380418  1
  O2-  O145  1  0.02641191  0.16011185  0.62631011  1
  O2-  O146  1  0.02330149  0.49187532  0.12278442  1
  O2-  O147  1  0.02518804  0.49607928  0.62450902  1
  O2-  O148  1  0.02674818  0.82704249  0.12600613  1
  O2-  O149  1  0.02431599  0.82947339  0.62329132  1
  O2-  O150  1  0.36253043  0.15993212  0.12607664  1
  O2-  O151  1  0.35962862  0.16966138  0.62330861  1
  O2-  O152  1  0.35915433  0.49367901  0.12626505  1
  O2-  O153  1  0.36134385  0.49283069  0.62208673  1
  O2-  O154  1  0.35984835  0.83046876  0.12463188  1
  O2-  O155  1  0.35870952  0.82650410  0.62440816  1
  O2-  O156  1  0.69286850  0.16309485  0.12740754  1
  O2-  O157  1  0.69145757  0.16187165  0.62198211  1
  O2-  O158  1  0.69568603  0.49258254  0.12637782  1
  O2-  O159  1  0.69061950  0.50044460  0.62712517  1
  O2-  O160  1  0.69402474  0.82996426  0.12482238  1
  O2-  O161  1  0.69026534  0.82727250  0.62466320  1
  O2-  O162  1  0.14158530  0.32611935  0.12542287  1
  O2-  O163  1  0.14100925  0.32690051  0.62671169  1
  O2-  O164  1  0.13814946  0.65665027  0.12664302  1
  O2-  O165  1  0.14140697  0.65775788  0.62181776  1
  O2-  O166  1  0.14094622  0.99747284  0.12432298  1
  O2-  O167  1  0.14319957  0.99759450  0.62490177  1
  O2-  O168  1  0.47469555  0.32504154  0.12635482  1
  O2-  O169  1  0.47774249  0.33008706  0.62152205  1
  O2-  O170  1  0.47391301  0.66201192  0.12377872  1
  O2-  O171  1  0.47510781  0.65974073  0.62286213  1
  O2-  O172  1  0.47568335  0.99359564  0.12526621  1
  O2-  O173  1  0.48269789  0.99253845  0.62441626  1
  O2-  O174  1  0.80945611  0.32759063  0.12769053  1
  O2-  O175  1  0.81472823  0.32965993  0.62467460  1
  O2-  O176  1  0.80757291  0.65957664  0.12412776  1
  O2-  O177  1  0.80712642  0.66016868  0.62614739  1
  O2-  O178  1  0.80707998  0.99591844  0.12593866  1
  O2-  O179  1  0.80541837  0.99344132  0.62254152  1
  O2-  O180  1  0.30721712  0.17412519  0.37369044  1
  O2-  O181  1  0.30827494  0.17000559  0.87654607  1
  O2-  O182  1  0.30619384  0.50446016  0.37407970  1
  O2-  O183  1  0.30860808  0.50542768  0.87704790  1
  O2-  O184  1  0.31641738  0.83687716  0.37429302  1
  O2-  O185  1  0.31308117  0.83609337  0.87651602  1
  O2-  O186  1  0.64256512  0.17267262  0.37433576  1
  O2-  O187  1  0.64037961  0.17014389  0.87643288  1
  O2-  O188  1  0.64279445  0.51046187  0.37172102  1
  O2-  O189  1  0.63996266  0.50624493  0.87619266  1
  O2-  O190  1  0.63966572  0.83515466  0.37386562  1
  O2-  O191  1  0.63826918  0.84022874  0.87732656  1
  O2-  O192  1  0.97271208  0.16732187  0.37493153  1
  O2-  O193  1  0.97992326  0.17153628  0.87539264  1
  O2-  O194  1  0.97324874  0.50701108  0.37575942  1
  O2-  O195  1  0.97093900  0.50922313  0.87660518  1
  O2-  O196  1  0.97158447  0.84030585  0.37407115  1
  O2-  O197  1  0.97562484  0.83818786  0.87699389  1
  O2-  O198  1  0.18271545  0.00634402  0.37276258  1
  O2-  O199  1  0.19295566  0.00504014  0.87718599  1
  O2-  O200  1  0.18975093  0.33742756  0.37278689  1
  O2-  O201  1  0.19505542  0.34008082  0.87456964  1
  O2-  O202  1  0.19307852  0.67338550  0.37403401  1
  O2-  O203  1  0.19065947  0.66779418  0.87763091  1
  O2-  O204  1  0.52916298  0.00611784  0.37475176  1
  O2-  O205  1  0.52530211  0.01084672  0.87577724  1
  O2-  O206  1  0.53072507  0.34152146  0.37333393  1
  O2-  O207  1  0.52471412  0.34056941  0.87823054  1
  O2-  O208  1  0.52687657  0.67310007  0.37451639  1
  O2-  O209  1  0.52531609  0.67240580  0.87883801  1
  O2-  O210  1  0.85855624  0.00792391  0.37476955  1
  O2-  O211  1  0.85692670  -0.00100424  0.87691944  1
  O2-  O212  1  0.85498494  0.33938952  0.37472105  1
  O2-  O213  1  0.85671506  0.33906281  0.87343021  1
  O2-  O214  1  0.85819153  0.67397974  0.37362644  1
  O2-  O215  1  0.86064587  0.67753866  0.87669634  1
  O2-  O216  1  0.24036139  0.09433915  0.02242433  1
  O2-  O217  1  0.23793604  0.09635991  0.51506601  1
  O2-  O218  1  0.23763599  0.42761274  0.02227476  1
  O2-  O219  1  0.24345567  0.42472558  0.52183948  1
  O2-  O220  1  0.23694164  0.76080293  0.02512593  1
  O2-  O221  1  0.23879163  0.75760381  0.52408870  1
  O2-  O222  1  0.57198312  0.09523924  0.02542499  1
  O2-  O223  1  0.57178837  0.09691056  0.52031548  1
  O2-  O224  1  0.57013920  0.42660081  0.02236201  1
  O2-  O225  1  0.56989029  0.43172913  0.51618483  1
  O2-  O226  1  0.57483705  0.76130523  0.02388706  1
  O2-  O227  1  0.57037237  0.76131094  0.52004020  1
  O2-  O228  1  0.90461440  0.09287766  0.01929995  1
  O2-  O229  1  0.90557796  0.09270573  0.52436880  1
  O2-  O230  1  0.90588892  0.42798088  0.02138658  1
  O2-  O231  1  0.90664235  0.42948617  0.51934190  1
  O2-  O232  1  0.90077589  0.76702828  0.02011720  1
  O2-  O233  1  0.90530950  0.76043153  0.52291290  1
  O2-  O234  1  0.26100071  0.25948165  0.22834045  1
  O2-  O235  1  0.26384195  0.26081644  0.73013198  1
  O2-  O236  1  0.26022007  0.59325979  0.22697565  1
  O2-  O237  1  0.26159250  0.59269845  0.72923687  1
  O2-  O238  1  0.26013318  0.92607670  0.23003628  1
  O2-  O239  1  0.25930985  0.92437983  0.73268273  1
  O2-  O240  1  0.59683826  0.26066847  0.23093153  1
  O2-  O241  1  0.59354858  0.26220778  0.73533703  1
  O2-  O242  1  0.59453171  0.59546099  0.22743350  1
  O2-  O243  1  0.59486702  0.59564858  0.73169709  1
  O2-  O244  1  0.59523124  0.92730202  0.22860481  1
  O2-  O245  1  0.59548097  0.93004289  0.73131613  1
  O2-  O246  1  0.92726247  0.26075558  0.22725640  1
  O2-  O247  1  0.92952528  0.26004958  0.73146049  1
  O2-  O248  1  0.92996407  0.59808141  0.22907400  1
  O2-  O249  1  0.92812133  0.59535918  0.72806224  1
  O2-  O250  1  0.92944698  0.93180989  0.23058183  1
  O2-  O251  1  0.92556273  0.92721262  0.72937115  1
  O2-  O252  1  0.09624933  0.23707149  0.26606129  1
  O2-  O253  1  0.09708413  0.23987097  0.77138739  1
  O2-  O254  1  0.09685215  0.57162898  0.27256681  1
  O2-  O255  1  0.09496867  0.57169338  0.77068622  1
  O2-  O256  1  0.08851077  0.90822046  0.26855420  1
  O2-  O257  1  0.09035700  0.90817530  0.76643244  1
  O2-  O258  1  0.42831577  0.24332628  0.27493355  1
  O2-  O259  1  0.42665475  0.23802498  0.77215287  1
  O2-  O260  1  0.42919556  0.57026466  0.26790960  1
  O2-  O261  1  0.42854234  0.57156345  0.77110798  1
  O2-  O262  1  0.43200124  0.90521196  0.26533803  1
  O2-  O263  1  0.43106967  0.90538187  0.77039082  1
  O2-  O264  1  0.76410383  0.23342385  0.26876125  1
  O2-  O265  1  0.75695953  0.23975720  0.76627478  1
  O2-  O266  1  0.76481401  0.57316328  0.26923246  1
  O2-  O267  1  0.76171308  0.57194332  0.77374476  1
  O2-  O268  1  0.76323664  0.90406840  0.27183121  1
  O2-  O269  1  0.76022274  0.90447326  0.77025446  1
  O2-  O270  1  0.06927379  0.07353540  0.48069623  1
  O2-  O271  1  0.07620369  0.07397253  0.97834047  1
  O2-  O272  1  0.07328456  0.40719884  0.48630167  1
  O2-  O273  1  0.06927825  0.40747664  0.97700712  1
  O2-  O274  1  0.06781093  0.73705274  0.48257968  1
  O2-  O275  1  0.06845414  0.73712696  0.98271062  1
  O2-  O276  1  0.40932454  0.07752904  0.47882068  1
  O2-  O277  1  0.40206966  0.06827611  0.98236918  1
  O2-  O278  1  0.40660697  0.40651232  0.47636832  1
  O2-  O279  1  0.40597689  0.40222945  0.98173350  1
  O2-  O280  1  0.40468879  0.73613321  0.47842282  1
  O2-  O281  1  0.40134497  0.73728480  0.98311094  1
  O2-  O282  1  0.73435636  0.06654973  0.48079977  1
  O2-  O283  1  0.73508504  0.07085522  0.98472744  1
  O2-  O284  1  0.73952366  0.40581400  0.47836145  1
  O2-  O285  1  0.73634501  0.40473165  0.98106454  1
  O2-  O286  1  0.73485905  0.73647820  0.48355874  1
  O2-  O287  1  0.73783017  0.73866319  0.97905454  1
  O2-  O288  1  0.09567177  0.23554945  0.48289634  1
  O2-  O289  1  0.09606430  0.24027265  0.97984792  1
  O2-  O290  1  0.09544685  0.57155899  0.47650624  1
  O2-  O291  1  0.09476438  0.57060333  0.97916347  1
  O2-  O292  1  0.08863612  0.90763802  0.48357990  1
  O2-  O293  1  0.09084986  0.90847929  0.98104134  1
  O2-  O294  1  0.42581211  0.24409709  0.47476343  1
  O2-  O295  1  0.42882004  0.23707594  0.97647538  1
  O2-  O296  1  0.42996779  0.57047938  0.47885689  1
  O2-  O297  1  0.42745881  0.57123374  0.98038446  1
  O2-  O298  1  0.43217676  0.90461862  0.48421099  1
  O2-  O299  1  0.43095153  0.90530117  0.97936377  1
  O2-  O300  1  0.76381391  0.23236571  0.48215905  1
  O2-  O301  1  0.75708989  0.24075757  0.98310549  1
  O2-  O302  1  0.76209706  0.57184112  0.47965099  1
  O2-  O303  1  0.76553937  0.57334142  0.97867905  1
  O2-  O304  1  0.76502715  0.90006588  0.47972095  1
  O2-  O305  1  0.75843016  0.90728198  0.97796662  1
  O2-  O306  1  0.07147431  0.07561267  0.26886086  1
  O2-  O307  1  0.07216749  0.07213771  0.77155511  1
  O2-  O308  1  0.07423922  0.40623534  0.26291771  1
  O2-  O309  1  0.07119477  0.40642165  0.77251914  1
  O2-  O310  1  0.06808120  0.73846376  0.26961781  1
  O2-  O311  1  0.06860833  0.73610834  0.76499251  1
  O2-  O312  1  0.40871963  0.07488431  0.27020349  1
  O2-  O313  1  0.40421999  0.07023683  0.76945371  1
  O2-  O314  1  0.40681033  0.40618078  0.27086170  1
  O2-  O315  1  0.40522924  0.40354999  0.76967158  1
  O2-  O316  1  0.40427813  0.73768055  0.26887253  1
  O2-  O317  1  0.40379403  0.73518596  0.76807871  1
  O2-  O318  1  0.73505380  0.06747486  0.26802312  1
  O2-  O319  1  0.73480303  0.06987597  0.76610761  1
  O2-  O320  1  0.73812701  0.40248332  0.27162261  1
  O2-  O321  1  0.73704178  0.40764190  0.77122753  1
  O2-  O322  1  0.73554447  0.73641519  0.26629654  1
  O2-  O323  1  0.73755470  0.73855663  0.77182698  1
  O2-  O324  1  0.23921991  0.09249988  0.22923776  1
  O2-  O325  1  0.23813378  0.09796837  0.73310884  1
  O2-  O326  1  0.24175400  0.42470643  0.22769773  1
  O2-  O327  1  0.23835656  0.42725149  0.72764624  1
  O2-  O328  1  0.23681232  0.75944924  0.22482597  1
  O2-  O329  1  0.23823410  0.75751431  0.72710232  1
  O2-  O330  1  0.57195168  0.09657978  0.22906904  1
  O2-  O331  1  0.57123643  0.09607036  0.72637772  1
  O2-  O332  1  0.57119811  0.42751171  0.22632777  1
  O2-  O333  1  0.56961361  0.43177117  0.73502882  1
  O2-  O334  1  0.57247455  0.76284868  0.22888731  1
  O2-  O335  1  0.57218662  0.76043346  0.72843710  1
  O2-  O336  1  0.90269804  0.09421405  0.22987937  1
  O2-  O337  1  0.90535521  0.09167327  0.72762015  1
  O2-  O338  1  0.90493317  0.42896411  0.23131753  1
  O2-  O339  1  0.90767566  0.42792040  0.72804345  1
  O2-  O340  1  0.90259707  0.76511204  0.22854032  1
  O2-  O341  1  0.90373327  0.76205530  0.72896410  1
  O2-  O342  1  0.26541837  0.25811261  0.02153847  1
  O2-  O343  1  0.26072614  0.26074468  0.51940277  1
  O2-  O344  1  0.25901080  0.59575873  0.02218687  1
  O2-  O345  1  0.26171377  0.59092859  0.52245150  1
  O2-  O346  1  0.26387058  0.92936049  0.01860149  1
  O2-  O347  1  0.25643547  0.92190962  0.51801124  1
  O2-  O348  1  0.59638736  0.26325888  0.01972001  1
  O2-  O349  1  0.59342650  0.25903016  0.51410917  1
  O2-  O350  1  0.59731581  0.59302002  0.02231618  1
  O2-  O351  1  0.59420688  0.59580202  0.51942975  1
  O2-  O352  1  0.59465116  0.93004564  0.02137713  1
  O2-  O353  1  0.59679011  0.92554395  0.51990144  1
  O2-  O354  1  0.92686928  0.26188167  0.01809627  1
  O2-  O355  1  0.92860018  0.25948467  0.52332756  1
  O2-  O356  1  0.93092228  0.59846640  0.02304477  1
  O2-  O357  1  0.92820689  0.59429677  0.52074757  1
  O2-  O358  1  0.92998411  0.92970459  0.01972162  1
  O2-  O359  1  0.92603836  0.92854574  0.52109708  1
