# generated using pymatgen
data_Sr7Ca15Pr50Mn72O216
_symmetry_space_group_name_H-M   'P 1'
_cell_length_a   16.55882444
_cell_length_b   16.60055821
_cell_length_c   15.58918326
_cell_angle_alpha   89.99574649
_cell_angle_beta   89.99966676
_cell_angle_gamma   90.00550916
_symmetry_Int_Tables_number   1
_chemical_formula_structural   Sr7Ca15Pr50Mn72O216
_chemical_formula_sum   'Sr7 Ca15 Pr50 Mn72 O216'
_cell_volume   4285.24397248
_cell_formula_units_Z   1
loop_
 _symmetry_equiv_pos_site_id
 _symmetry_equiv_pos_as_xyz
  1  'x, y, z'
loop_
 _atom_type_symbol
 _atom_type_oxidation_number
  Sr2+  2.0
  Ca2+  2.0
  Pr3+  3.0
  Mn3.30+  3.3
  O2-  -2.0
loop_
 _atom_site_type_symbol
 _atom_site_label
 _atom_site_symmetry_multiplicity
 _atom_site_fract_x
 _atom_site_fract_y
 _atom_site_fract_z
 _atom_site_occupancy
  Sr2+  Sr0  1  0.16698246  0.82162342  0.37419049  1
  Sr2+  Sr1  1  0.83171466  0.82284153  0.87466960  1
  Sr2+  Sr2  1  0.33139508  0.99040634  0.87635282  1
  Sr2+  Sr3  1  0.83599711  0.51242616  0.12641143  1
  Sr2+  Sr4  1  0.83698873  0.18023477  0.62529153  1
  Sr2+  Sr5  1  0.83218804  0.49055228  0.37614203  1
  Sr2+  Sr6  1  0.50182853  0.50740354  0.12496785  1
  Ca2+  Ca7  1  0.16299638  0.15332905  0.87527244  1
  Ca2+  Ca8  1  0.49518585  0.48452460  0.37404073  1
  Ca2+  Ca9  1  0.50251977  0.84642144  0.12533015  1
  Ca2+  Ca10  1  1.00536061  0.31779454  0.87330817  1
  Ca2+  Ca11  1  -0.00459646  0.35038495  0.62649318  1
  Ca2+  Ca12  1  0.32837562  0.68018927  0.62269879  1
  Ca2+  Ca13  1  0.83769174  0.18377958  0.12459475  1
  Ca2+  Ca14  1  0.49686393  0.15480029  0.37469192  1
  Ca2+  Ca15  1  0.83752306  0.51145564  0.62329578  1
  Ca2+  Ca16  1  0.16036980  0.48180061  0.87402517  1
  Ca2+  Ca17  1  0.33762811  0.32009880  0.37501086  1
  Ca2+  Ca18  1  -0.00196193  0.67769599  0.12627617  1
  Ca2+  Ca19  1  0.16512052  0.48585603  0.37619775  1
  Ca2+  Ca20  1  0.33588763  0.64805369  0.37580405  1
  Ca2+  Ca21  1  0.49697734  0.48634244  0.87560595  1
  Pr3+  Pr22  1  0.33699855  0.98772934  0.37458459  1
  Pr3+  Pr23  1  0.33156455  0.01132359  0.12533564  1
  Pr3+  Pr24  1  0.49180152  0.81606705  0.37307047  1
  Pr3+  Pr25  1  0.16573225  0.15725235  0.37465554  1
  Pr3+  Pr26  1  -0.00611776  0.01537263  0.12532454  1
  Pr3+  Pr27  1  0.16906893  0.18133295  0.62652302  1
  Pr3+  Pr28  1  0.66865083  0.32440457  0.87583131  1
  Pr3+  Pr29  1  0.17048740  0.84400479  0.62407747  1
  Pr3+  Pr30  1  0.66720586  0.67677335  0.62384551  1
  Pr3+  Pr31  1  0.33315652  0.32304437  0.87490823  1
  Pr3+  Pr32  1  1.00354117  0.98743740  0.37512756  1
  Pr3+  Pr33  1  0.49630297  0.15331852  0.87545376  1
  Pr3+  Pr34  1  0.66376419  0.01205878  0.12384056  1
  Pr3+  Pr35  1  0.83013584  0.15982257  0.37430580  1
  Pr3+  Pr36  1  0.49952139  0.84455386  0.62420287  1
  Pr3+  Pr37  1  0.83578317  0.84232134  0.12454806  1
  Pr3+  Pr38  1  0.66689012  0.98954130  0.37517831  1
  Pr3+  Pr39  1  0.17140998  0.51412158  0.62464649  1
  Pr3+  Pr40  1  1.00618475  0.64951973  0.37351926  1
  Pr3+  Pr41  1  0.83360346  0.48852650  0.87408779  1
  Pr3+  Pr42  1  0.50329935  0.18032924  0.62418286  1
  Pr3+  Pr43  1  0.49441344  0.82166147  0.87733773  1
  Pr3+  Pr44  1  0.33038033  0.34797665  0.12645418  1
  Pr3+  Pr45  1  0.32939198  0.34659306  0.62359961  1
  Pr3+  Pr46  1  0.32949760  0.01320093  0.62479373  1
  Pr3+  Pr47  1  0.83664759  0.84659312  0.62497136  1
  Pr3+  Pr48  1  -0.00265004  0.01384376  0.62455352  1
  Pr3+  Pr49  1  0.66460726  0.01400204  0.62563497  1
  Pr3+  Pr50  1  0.16374253  0.82068413  0.87577417  1
  Pr3+  Pr51  1  0.83359418  0.15767026  0.87544020  1
  Pr3+  Pr52  1  1.00467012  0.65117657  0.87661727  1
  Pr3+  Pr53  1  0.66670755  0.34737593  0.62514433  1
  Pr3+  Pr54  1  1.00140343  0.32633161  0.37624246  1
  Pr3+  Pr55  1  0.17054493  0.18086990  0.12351112  1
  Pr3+  Pr56  1  0.66935822  0.65493851  0.87500244  1
  Pr3+  Pr57  1  0.17149950  0.51205347  0.12559980  1
  Pr3+  Pr58  1  0.66642826  0.34780376  0.12482323  1
  Pr3+  Pr59  1  0.33619481  0.65148846  0.87337583  1
  Pr3+  Pr60  1  1.00406281  0.98863999  0.87455630  1
  Pr3+  Pr61  1  0.50006893  0.51245415  0.62502975  1
  Pr3+  Pr62  1  0.50221395  0.18022815  0.12540880  1
  Pr3+  Pr63  1  0.83024771  0.81987563  0.37471678  1
  Pr3+  Pr64  1  0.33329717  0.67682514  0.12702500  1
  Pr3+  Pr65  1  0.66109877  0.67953402  0.12603728  1
  Pr3+  Pr66  1  0.16650508  0.84342528  0.12647594  1
  Pr3+  Pr67  1  -0.00221000  0.34574808  0.12303618  1
  Pr3+  Pr68  1  0.67006399  0.98656108  0.87433440  1
  Pr3+  Pr69  1  0.66775138  0.65191811  0.37520896  1
  Pr3+  Pr70  1  0.66870365  0.32535312  0.37404463  1
  Pr3+  Pr71  1  -0.00193093  0.67597347  0.62380834  1
  Mn3.30+  Mn72  1  0.16511056  0.00028262  0.00068022  1
  Mn3.30+  Mn73  1  0.16668637  0.00052888  0.49934341  1
  Mn3.30+  Mn74  1  0.16446147  0.33329110  -0.00275350  1
  Mn3.30+  Mn75  1  0.16680788  0.33519737  0.49967118  1
  Mn3.30+  Mn76  1  0.16639973  0.66416538  0.00122917  1
  Mn3.30+  Mn77  1  0.17007620  0.66476757  0.49687143  1
  Mn3.30+  Mn78  1  0.49937868  -0.00142242  0.00088986  1
  Mn3.30+  Mn79  1  0.49938513  0.00081258  0.49918950  1
  Mn3.30+  Mn80  1  0.50013705  0.33509710  -0.00107249  1
  Mn3.30+  Mn81  1  0.49789706  0.33417618  0.49812593  1
  Mn3.30+  Mn82  1  0.49963662  0.66523895  0.00004664  1
  Mn3.30+  Mn83  1  0.49588889  0.66362287  0.50034549  1
  Mn3.30+  Mn84  1  0.83302576  0.00166490  0.00101118  1
  Mn3.30+  Mn85  1  0.83370392  0.00218076  0.49847925  1
  Mn3.30+  Mn86  1  0.83679008  0.33409614  -0.00159856  1
  Mn3.30+  Mn87  1  0.83518591  0.33598012  0.50245566  1
  Mn3.30+  Mn88  1  0.83524306  0.66688030  0.00079474  1
  Mn3.30+  Mn89  1  0.83413109  0.66458915  0.49992125  1
  Mn3.30+  Mn90  1  -0.00117790  0.16894233  0.24998924  1
  Mn3.30+  Mn91  1  0.00169609  0.16987596  0.75011667  1
  Mn3.30+  Mn92  1  0.00265986  0.50000329  0.24982545  1
  Mn3.30+  Mn93  1  0.00126928  0.49763832  0.74943339  1
  Mn3.30+  Mn94  1  -0.00026594  0.83113730  0.24995558  1
  Mn3.30+  Mn95  1  0.00040621  0.83177152  0.75013889  1
  Mn3.30+  Mn96  1  0.33551587  0.16804736  0.25126108  1
  Mn3.30+  Mn97  1  0.33207988  0.16745304  0.75132275  1
  Mn3.30+  Mn98  1  0.33414510  0.49933545  0.25410705  1
  Mn3.30+  Mn99  1  0.33215773  0.50011280  0.75117783  1
  Mn3.30+  Mn100  1  0.33424889  0.83080200  0.24890460  1
  Mn3.30+  Mn101  1  0.33226552  0.83202185  0.75037333  1
  Mn3.30+  Mn102  1  0.66650308  0.16791589  0.24908707  1
  Mn3.30+  Mn103  1  0.66758869  0.16889856  0.75037228  1
  Mn3.30+  Mn104  1  0.66528194  0.50063345  0.25062969  1
  Mn3.30+  Mn105  1  0.66697995  0.50073227  0.74973802  1
  Mn3.30+  Mn106  1  0.66319091  0.83374654  0.25115933  1
  Mn3.30+  Mn107  1  0.66600000  0.83260945  0.74877380  1
  Mn3.30+  Mn108  1  0.16586370  0.00025754  0.24930549  1
  Mn3.30+  Mn109  1  0.16614380  0.00069299  0.75082272  1
  Mn3.30+  Mn110  1  0.16880238  0.33495457  0.25322570  1
  Mn3.30+  Mn111  1  0.16250912  0.33391912  0.74976528  1
  Mn3.30+  Mn112  1  0.16753150  0.66467016  0.25146391  1
  Mn3.30+  Mn113  1  0.16829691  0.66460862  0.75042384  1
  Mn3.30+  Mn114  1  0.50017627  0.00007276  0.24937332  1
  Mn3.30+  Mn115  1  0.49828650  -0.00061439  0.75022428  1
  Mn3.30+  Mn116  1  0.49884309  0.33360632  0.25230661  1
  Mn3.30+  Mn117  1  0.49925185  0.33509307  0.75047775  1
  Mn3.30+  Mn118  1  0.49761023  0.66292070  0.25107015  1
  Mn3.30+  Mn119  1  0.49829337  0.66562201  0.74884008  1
  Mn3.30+  Mn120  1  0.83212264  0.00184743  0.24996218  1
  Mn3.30+  Mn121  1  0.83419994  0.00199384  0.75001455  1
  Mn3.30+  Mn122  1  0.83452707  0.33463279  0.24930449  1
  Mn3.30+  Mn123  1  0.83824327  0.33532724  0.74993380  1
  Mn3.30+  Mn124  1  0.83412792  0.66576999  0.24936959  1
  Mn3.30+  Mn125  1  0.83490732  0.66553631  0.75020097  1
  Mn3.30+  Mn126  1  0.00084763  0.16821502  -0.00048773  1
  Mn3.30+  Mn127  1  -0.00031602  0.17041064  0.50025181  1
  Mn3.30+  Mn128  1  0.00211680  0.49929170  -0.00010361  1
  Mn3.30+  Mn129  1  0.00181732  0.49822666  0.50075608  1
  Mn3.30+  Mn130  1  -0.00084138  0.83144444  0.00078856  1
  Mn3.30+  Mn131  1  0.00132098  0.83160362  0.49906311  1
  Mn3.30+  Mn132  1  0.33235025  0.16718474  -0.00100174  1
  Mn3.30+  Mn133  1  0.33529375  0.16841409  0.49873884  1
  Mn3.30+  Mn134  1  0.33270714  0.49992369  -0.00209202  1
  Mn3.30+  Mn135  1  0.33364003  0.49996826  0.49695664  1
  Mn3.30+  Mn136  1  0.33337561  0.83241280  0.00234301  1
  Mn3.30+  Mn137  1  0.33284415  0.82937124  0.49881356  1
  Mn3.30+  Mn138  1  0.66869613  0.16767900  0.00112204  1
  Mn3.30+  Mn139  1  0.66517167  0.16913469  0.49896342  1
  Mn3.30+  Mn140  1  0.66609537  0.50145062  -0.00135758  1
  Mn3.30+  Mn141  1  0.66578828  0.49988383  0.50066341  1
  Mn3.30+  Mn142  1  0.66506631  0.83306650  0.00045923  1
  Mn3.30+  Mn143  1  0.66463533  0.83356840  0.49935948  1
  O2-  O144  1  0.02652167  0.16314020  0.12545972  1
  O2-  O145  1  0.02644281  0.15898406  0.62368670  1
  O2-  O146  1  0.02838868  0.49183934  0.12443112  1
  O2-  O147  1  0.02763530  0.49785419  0.62566391  1
  O2-  O148  1  0.02199948  0.82711049  0.12587206  1
  O2-  O149  1  0.02568794  0.82615153  0.62468450  1
  O2-  O150  1  0.35741710  0.16204404  0.12497665  1
  O2-  O151  1  0.35853365  0.16269019  0.62489613  1
  O2-  O152  1  0.35211596  0.49556165  0.12485980  1
  O2-  O153  1  0.35760961  0.49214616  0.62506318  1
  O2-  O154  1  0.36137030  0.82535909  0.12593203  1
  O2-  O155  1  0.35638411  0.82679390  0.62257608  1
  O2-  O156  1  0.69629270  0.15888760  0.12257550  1
  O2-  O157  1  0.68662531  0.16154623  0.62435602  1
  O2-  O158  1  0.68514669  0.49724943  0.12222137  1
  O2-  O159  1  0.69369184  0.49615004  0.62648632  1
  O2-  O160  1  0.69142723  0.82872276  0.12846574  1
  O2-  O161  1  0.69238795  0.82759663  0.62344968  1
  O2-  O162  1  0.14258386  0.32782177  0.12454006  1
  O2-  O163  1  0.13886092  0.32707808  0.62529607  1
  O2-  O164  1  0.14009316  0.65827288  0.12465143  1
  O2-  O165  1  0.14208995  0.66207062  0.62437556  1
  O2-  O166  1  0.13897469  0.99480576  0.12612969  1
  O2-  O167  1  0.14209319  0.99425947  0.62375393  1
  O2-  O168  1  0.47512283  0.32818956  0.12645201  1
  O2-  O169  1  0.47383530  0.32752655  0.62559099  1
  O2-  O170  1  0.47616081  0.65927788  0.12585197  1
  O2-  O171  1  0.46948377  0.65937413  0.62499081  1
  O2-  O172  1  0.47595396  0.99444741  0.12550884  1
  O2-  O173  1  0.47362688  0.99430985  0.62620190  1
  O2-  O174  1  0.81066966  0.32811724  0.12379432  1
  O2-  O175  1  0.80936062  0.33138068  0.62698222  1
  O2-  O176  1  0.80730726  0.66991873  0.12566860  1
  O2-  O177  1  0.81190134  0.66032424  0.62450278  1
  O2-  O178  1  0.80641559  0.99077852  0.12653440  1
  O2-  O179  1  0.80909140  0.99568870  0.62272209  1
  O2-  O180  1  0.30948441  0.17054851  0.37482898  1
  O2-  O181  1  0.30650343  0.17367358  0.87555957  1
  O2-  O182  1  0.30499467  0.50635911  0.37645042  1
  O2-  O183  1  0.30310807  0.50500539  0.87380094  1
  O2-  O184  1  0.31570302  0.84166422  0.37413358  1
  O2-  O185  1  0.30785717  0.83503227  0.87842615  1
  O2-  O186  1  0.63897675  0.17564617  0.37588952  1
  O2-  O187  1  0.63976607  0.17436621  0.87611769  1
  O2-  O188  1  0.64001130  0.50339721  0.37776577  1
  O2-  O189  1  0.63975554  0.50634822  0.87329902  1
  O2-  O190  1  0.63624648  0.84135801  0.37586081  1
  O2-  O191  1  0.63932458  0.83825027  0.87207823  1
  O2-  O192  1  0.97421604  0.17618542  0.37509517  1
  O2-  O193  1  0.97662551  0.16993035  0.87546822  1
  O2-  O194  1  0.98149759  0.50117463  0.37518695  1
  O2-  O195  1  0.97637398  0.50661084  0.87461740  1
  O2-  O196  1  0.97433050  0.83931649  0.37498469  1
  O2-  O197  1  0.98110046  0.83938838  0.87486686  1
  O2-  O198  1  0.19192678  0.00728033  0.37394238  1
  O2-  O199  1  0.18214375  0.00426555  0.87647883  1
  O2-  O200  1  0.19488340  0.33788111  0.37629361  1
  O2-  O201  1  0.19121617  0.33979587  0.87374893  1
  O2-  O202  1  0.19416349  0.67058373  0.37481681  1
  O2-  O203  1  0.19265741  0.67454731  0.87642820  1
  O2-  O204  1  0.52336862  0.00764108  0.37332177  1
  O2-  O205  1  0.52531059  0.00402395  0.87429804  1
  O2-  O206  1  0.52551770  0.34028984  0.37582532  1
  O2-  O207  1  0.52398989  0.33889736  0.87245728  1
  O2-  O208  1  0.52526827  0.67202129  0.37624099  1
  O2-  O209  1  0.52591021  0.67676831  0.87313220  1
  O2-  O210  1  0.85964338  0.00902365  0.37382521  1
  O2-  O211  1  0.85942036  0.00742602  0.87660504  1
  O2-  O212  1  0.85628467  0.33277596  0.37571990  1
  O2-  O213  1  0.86248100  0.34042218  0.87349445  1
  O2-  O214  1  0.85906873  0.67216210  0.37548519  1
  O2-  O215  1  0.85916196  0.66838535  0.87494530  1
  O2-  O216  1  0.23959612  0.09124440  0.02262040  1
  O2-  O217  1  0.23906716  0.09488479  0.52051020  1
  O2-  O218  1  0.23793622  0.42587398  0.02018983  1
  O2-  O219  1  0.23891785  0.42729535  0.52381390  1
  O2-  O220  1  0.23884997  0.76007137  0.02342789  1
  O2-  O221  1  0.23710002  0.76130406  0.51982996  1
  O2-  O222  1  0.57419026  0.09496095  0.02012995  1
  O2-  O223  1  0.57262484  0.09354988  0.52167157  1
  O2-  O224  1  0.57648053  0.42273186  0.01606799  1
  O2-  O225  1  0.57189251  0.42656014  0.52442852  1
  O2-  O226  1  0.56908848  0.76267026  0.02184754  1
  O2-  O227  1  0.56939421  0.75919202  0.52119126  1
  O2-  O228  1  0.90253308  0.09674994  0.02269768  1
  O2-  O229  1  0.90898784  0.09366789  0.51677156  1
  O2-  O230  1  0.90878704  0.42895912  0.01853059  1
  O2-  O231  1  0.90609188  0.42964865  0.52017046  1
  O2-  O232  1  0.90475112  0.76238051  0.01868621  1
  O2-  O233  1  0.90417332  0.76179039  0.52011443  1
  O2-  O234  1  0.26031513  0.26026276  0.22876946  1
  O2-  O235  1  0.26022431  0.26323695  0.72902653  1
  O2-  O236  1  0.26149775  0.59311849  0.22804346  1
  O2-  O237  1  0.26457085  0.59681490  0.72852747  1
  O2-  O238  1  0.26064420  0.92609957  0.22857926  1
  O2-  O239  1  0.26007583  0.92604992  0.72846588  1
  O2-  O240  1  0.59645022  0.26028555  0.22603850  1
  O2-  O241  1  0.59506134  0.26079521  0.72980706  1
  O2-  O242  1  0.59550781  0.59852446  0.23501897  1
  O2-  O243  1  0.59411938  0.59562762  0.72703876  1
  O2-  O244  1  0.59716593  0.93106398  0.23188953  1
  O2-  O245  1  0.59339736  0.92778367  0.72769214  1
  O2-  O246  1  0.92934952  0.26205536  0.23095546  1
  O2-  O247  1  0.93318531  0.26437086  0.73184664  1
  O2-  O248  1  0.93485978  0.59544020  0.23336976  1
  O2-  O249  1  0.93370093  0.59541671  0.73364539  1
  O2-  O250  1  0.92500679  0.92905734  0.23074232  1
  O2-  O251  1  0.92774062  0.92734413  0.72863183  1
  O2-  O252  1  0.09736388  0.24136622  0.27101793  1
  O2-  O253  1  0.10024704  0.23303472  0.76882844  1
  O2-  O254  1  0.09914783  0.56940303  0.27180766  1
  O2-  O255  1  0.09808115  0.56935067  0.77062880  1
  O2-  O256  1  0.09088172  0.90835275  0.26781525  1
  O2-  O257  1  0.09452115  0.90399997  0.76794762  1
  O2-  O258  1  0.43319570  0.23509707  0.26805787  1
  O2-  O259  1  0.42736014  0.23895001  0.77118636  1
  O2-  O260  1  0.42808075  0.56743830  0.27217884  1
  O2-  O261  1  0.43048586  0.57045954  0.77298469  1
  O2-  O262  1  0.42899351  0.90633119  0.26966296  1
  O2-  O263  1  0.42971268  0.90253076  0.76622173  1
  O2-  O264  1  0.76019309  0.24170086  0.27037725  1
  O2-  O265  1  0.76252190  0.24364131  0.77351826  1
  O2-  O266  1  0.75766678  0.57734952  0.26877564  1
  O2-  O267  1  0.75990010  0.57448635  0.77240546  1
  O2-  O268  1  0.75996677  0.90764790  0.27416028  1
  O2-  O269  1  0.75705409  0.90927735  0.76635584  1
  O2-  O270  1  0.07206658  0.07519929  0.47768472  1
  O2-  O271  1  0.06525328  0.07007392  0.98508502  1
  O2-  O272  1  0.07339958  0.40525735  0.48070259  1
  O2-  O273  1  0.06932966  0.39949027  0.98093965  1
  O2-  O274  1  0.07025396  0.73504108  0.48194396  1
  O2-  O275  1  0.07563659  0.73777467  0.97952935  1
  O2-  O276  1  0.40278581  0.06805527  0.48329041  1
  O2-  O277  1  0.40882981  0.07517797  0.98285997  1
  O2-  O278  1  0.40135813  0.40037686  0.48158228  1
  O2-  O279  1  0.40100266  0.40604137  0.98146022  1
  O2-  O280  1  0.40452732  0.73580998  0.47667655  1
  O2-  O281  1  0.40431506  0.73630029  0.97969029  1
  O2-  O282  1  0.73756775  0.07554714  0.47797293  1
  O2-  O283  1  0.73832482  0.07361483  0.97597230  1
  O2-  O284  1  0.73486434  0.40460855  0.48372818  1
  O2-  O285  1  0.74109648  0.40812671  0.97850068  1
  O2-  O286  1  0.73724766  0.74145478  0.47865407  1
  O2-  O287  1  0.73416404  0.73935698  0.98250623  1
  O2-  O288  1  0.09673740  0.23968769  0.47778271  1
  O2-  O289  1  0.09980885  0.23358329  0.98213668  1
  O2-  O290  1  0.09847653  0.57085538  0.48017659  1
  O2-  O291  1  0.09765624  0.56763048  0.97748422  1
  O2-  O292  1  0.09167864  0.90827082  0.48170643  1
  O2-  O293  1  0.09358303  0.90431423  0.98284610  1
  O2-  O294  1  0.43238380  0.23497089  0.48215630  1
  O2-  O295  1  0.42909411  0.24028276  0.97937484  1
  O2-  O296  1  0.43141983  0.56469141  0.48092678  1
  O2-  O297  1  0.42755254  0.57265864  0.97461815  1
  O2-  O298  1  0.42973515  0.90322287  0.48139837  1
  O2-  O299  1  0.42697514  0.90358659  0.98298535  1
  O2-  O300  1  0.75888073  0.24151640  0.47949079  1
  O2-  O301  1  0.75998254  0.24163907  0.97609884  1
  O2-  O302  1  0.75558286  0.57693911  0.48157871  1
  O2-  O303  1  0.76114762  0.57442430  0.97792648  1
  O2-  O304  1  0.76055607  0.90811549  0.47800558  1
  O2-  O305  1  0.75784238  0.90925577  0.98173608  1
  O2-  O306  1  0.06957633  0.07510077  0.27125675  1
  O2-  O307  1  0.06929850  0.06982037  0.76519949  1
  O2-  O308  1  0.07349091  0.40351525  0.26791076  1
  O2-  O309  1  0.06859747  0.40186554  0.76988426  1
  O2-  O310  1  0.07249700  0.73561703  0.26805051  1
  O2-  O311  1  0.07326688  0.73592121  0.77008650  1
  O2-  O312  1  0.40333358  0.06840005  0.26581851  1
  O2-  O313  1  0.40784027  0.07330846  0.76880837  1
  O2-  O314  1  0.40128702  0.40162566  0.26878939  1
  O2-  O315  1  0.40110655  0.40516116  0.76854282  1
  O2-  O316  1  0.40399268  0.73291796  0.27149066  1
  O2-  O317  1  0.40581364  0.73937920  0.77199076  1
  O2-  O318  1  0.73716961  0.07364683  0.27280560  1
  O2-  O319  1  0.73858514  0.07578566  0.77109491  1
  O2-  O320  1  0.73913923  0.40517326  0.26513633  1
  O2-  O321  1  0.73913617  0.40646835  0.77248224  1
  O2-  O322  1  0.73479734  0.74285178  0.27410215  1
  O2-  O323  1  0.73597057  0.73818258  0.76527877  1
  O2-  O324  1  0.23824219  0.09386577  0.22915264  1
  O2-  O325  1  0.24035483  0.09299997  0.72793645  1
  O2-  O326  1  0.23932229  0.42647590  0.22850608  1
  O2-  O327  1  0.23652911  0.42635632  0.72754626  1
  O2-  O328  1  0.23858075  0.75825109  0.22574108  1
  O2-  O329  1  0.23571879  0.76268108  0.73304662  1
  O2-  O330  1  0.57258723  0.09307687  0.22600129  1
  O2-  O331  1  0.57079661  0.09263677  0.73077357  1
  O2-  O332  1  0.57544807  0.42270222  0.23264776  1
  O2-  O333  1  0.57384801  0.42682379  0.72689865  1
  O2-  O334  1  0.56882868  0.76283260  0.23049987  1
  O2-  O335  1  0.57103523  0.75975050  0.72536397  1
  O2-  O336  1  0.90218837  0.09533306  0.22780632  1
  O2-  O337  1  0.90909260  0.09515867  0.73321822  1
  O2-  O338  1  0.91092631  0.42409532  0.23149068  1
  O2-  O339  1  0.90209345  0.43404174  0.73066295  1
  O2-  O340  1  0.90137367  0.76391860  0.23477730  1
  O2-  O341  1  0.90672438  0.76042956  0.72708995  1
  O2-  O342  1  0.26178417  0.26245204  0.02048122  1
  O2-  O343  1  0.25871910  0.26063495  0.52180815  1
  O2-  O344  1  0.26287759  0.59532091  0.02040442  1
  O2-  O345  1  0.26303559  0.59414856  0.52370530  1
  O2-  O346  1  0.25915424  0.92389095  0.02521776  1
  O2-  O347  1  0.26223686  0.92687609  0.51931214  1
  O2-  O348  1  0.59684302  0.25880184  0.02226461  1
  O2-  O349  1  0.59445299  0.26297599  0.52218622  1
  O2-  O350  1  0.59709511  0.59936367  0.01496026  1
  O2-  O351  1  0.59275948  0.59451181  0.52299264  1
  O2-  O352  1  0.59623999  0.92911742  0.01722155  1
  O2-  O353  1  0.59467460  0.92901750  0.52195906  1
  O2-  O354  1  0.93058300  0.25994451  0.01822972  1
  O2-  O355  1  0.93335438  0.26463332  0.51863232  1
  O2-  O356  1  0.93421850  0.59706863  0.01767313  1
  O2-  O357  1  0.93308310  0.59436078  0.51560463  1
  O2-  O358  1  0.92629204  0.92936752  0.02119779  1
  O2-  O359  1  0.92742221  0.92651523  0.51984201  1
