# generated using pymatgen
data_Sr7Ca15Pr50Mn72O216
_symmetry_space_group_name_H-M   'P 1'
_cell_length_a   16.55992426
_cell_length_b   16.60514238
_cell_length_c   15.59178615
_cell_angle_alpha   89.99742924
_cell_angle_beta   89.99238050
_cell_angle_gamma   89.99727034
_symmetry_Int_Tables_number   1
_chemical_formula_structural   Sr7Ca15Pr50Mn72O216
_chemical_formula_sum   'Sr7 Ca15 Pr50 Mn72 O216'
_cell_volume   4287.42775186
_cell_formula_units_Z   1
loop_
 _symmetry_equiv_pos_site_id
 _symmetry_equiv_pos_as_xyz
  1  'x, y, z'
loop_
 _atom_type_symbol
 _atom_type_oxidation_number
  Sr2+  2.0
  Ca2+  2.0
  Pr3+  3.0
  Mn3.30+  3.3
  O2-  -2.0
loop_
 _atom_site_type_symbol
 _atom_site_label
 _atom_site_symmetry_multiplicity
 _atom_site_fract_x
 _atom_site_fract_y
 _atom_site_fract_z
 _atom_site_occupancy
  Sr2+  Sr0  1  1.00013838  0.32400147  0.37746301  1
  Sr2+  Sr1  1  0.83369823  0.84294457  0.62519380  1
  Sr2+  Sr2  1  0.49929007  0.17418403  0.12447543  1
  Sr2+  Sr3  1  1.00193450  0.98857731  0.87480151  1
  Sr2+  Sr4  1  0.50073496  0.50874195  0.12310183  1
  Sr2+  Sr5  1  0.50122240  0.15858658  0.37519130  1
  Sr2+  Sr6  1  -0.00288424  0.34264599  0.62383318  1
  Ca2+  Ca7  1  0.50053119  0.48780229  0.87628802  1
  Ca2+  Ca8  1  0.50529328  0.18331873  0.62534612  1
  Ca2+  Ca9  1  0.49471473  0.15130111  0.87346015  1
  Ca2+  Ca10  1  0.66148943  0.34562374  0.62322299  1
  Ca2+  Ca11  1  0.16079133  0.48433853  0.37468780  1
  Ca2+  Ca12  1  0.66885711  0.65119800  0.87642451  1
  Ca2+  Ca13  1  0.33666498  0.01243349  0.12607893  1
  Ca2+  Ca14  1  0.33294771  0.01731749  0.62477081  1
  Ca2+  Ca15  1  0.66003891  0.01759999  0.62327361  1
  Ca2+  Ca16  1  0.66780466  0.98766699  0.37716443  1
  Ca2+  Ca17  1  0.83604158  0.51388419  0.12645897  1
  Ca2+  Ca18  1  1.00493829  0.64889657  0.37482251  1
  Ca2+  Ca19  1  0.66893385  0.31815498  0.37661741  1
  Ca2+  Ca20  1  0.50334267  0.84862316  0.12560367  1
  Ca2+  Ca21  1  0.17244550  0.85239871  0.12465248  1
  Pr3+  Pr22  1  0.83099375  0.82011569  0.37526024  1
  Pr3+  Pr23  1  0.82873410  0.48799796  0.87650599  1
  Pr3+  Pr24  1  0.33864729  0.99057886  0.37449104  1
  Pr3+  Pr25  1  0.66994728  0.65361154  0.37473827  1
  Pr3+  Pr26  1  0.17167156  0.17741666  0.12500355  1
  Pr3+  Pr27  1  0.33552071  0.32069239  0.37474673  1
  Pr3+  Pr28  1  -0.00117573  0.01247978  0.12448731  1
  Pr3+  Pr29  1  0.50481310  0.51075202  0.62583586  1
  Pr3+  Pr30  1  0.66119573  0.34585641  0.12629608  1
  Pr3+  Pr31  1  0.16447575  0.82309425  0.87715906  1
  Pr3+  Pr32  1  1.00231026  0.32028006  0.87341341  1
  Pr3+  Pr33  1  0.66565869  0.98940602  0.87362950  1
  Pr3+  Pr34  1  0.83526658  0.50855362  0.62423798  1
  Pr3+  Pr35  1  -0.00211703  0.67927955  0.12703495  1
  Pr3+  Pr36  1  0.17089060  0.84814849  0.62509245  1
  Pr3+  Pr37  1  0.83140445  0.17834335  0.62631400  1
  Pr3+  Pr38  1  0.17144301  0.51271003  0.12847664  1
  Pr3+  Pr39  1  0.82961392  0.81813889  0.87498697  1
  Pr3+  Pr40  1  0.33870991  0.98854477  0.87541259  1
  Pr3+  Pr41  1  0.83539532  0.84631787  0.12543751  1
  Pr3+  Pr42  1  -0.00512266  0.34794231  0.12664926  1
  Pr3+  Pr43  1  0.83010680  0.15339186  0.87321711  1
  Pr3+  Pr44  1  0.33920827  0.65184613  0.87594619  1
  Pr3+  Pr45  1  0.33353668  0.34388171  0.12681010  1
  Pr3+  Pr46  1  0.33717829  0.65452026  0.37387580  1
  Pr3+  Pr47  1  -0.00557191  0.01109380  0.62564076  1
  Pr3+  Pr48  1  0.83378680  0.17741382  0.12377325  1
  Pr3+  Pr49  1  0.16888735  0.17918978  0.62523256  1
  Pr3+  Pr50  1  0.66239921  0.67964330  0.12441479  1
  Pr3+  Pr51  1  0.33124076  0.68344278  0.12536256  1
  Pr3+  Pr52  1  0.16814909  0.51139540  0.62082582  1
  Pr3+  Pr53  1  0.50047758  0.48563881  0.37305500  1
  Pr3+  Pr54  1  -0.00349140  0.67809172  0.62349643  1
  Pr3+  Pr55  1  0.33187788  0.67920856  0.62458158  1
  Pr3+  Pr56  1  0.49794188  0.82076671  0.87640899  1
  Pr3+  Pr57  1  0.16254449  0.82067297  0.37296739  1
  Pr3+  Pr58  1  0.50529959  0.85024194  0.62442829  1
  Pr3+  Pr59  1  0.83046209  0.48220701  0.37355184  1
  Pr3+  Pr60  1  0.33309359  0.34398401  0.62313641  1
  Pr3+  Pr61  1  0.16391898  0.48741469  0.87549442  1
  Pr3+  Pr62  1  0.66508822  0.67901070  0.62551501  1
  Pr3+  Pr63  1  0.66001485  0.01170053  0.12606740  1
  Pr3+  Pr64  1  1.00168945  0.65569384  0.87525108  1
  Pr3+  Pr65  1  0.49925513  0.82486005  0.37326709  1
  Pr3+  Pr66  1  0.66327594  0.32083418  0.87433701  1
  Pr3+  Pr67  1  1.00119620  0.98947823  0.37557010  1
  Pr3+  Pr68  1  0.34132914  0.31892500  0.87468541  1
  Pr3+  Pr69  1  0.82517150  0.15457386  0.37734951  1
  Pr3+  Pr70  1  0.16526099  0.15183714  0.87351451  1
  Pr3+  Pr71  1  0.16423504  0.15551042  0.37637999  1
  Mn3.30+  Mn72  1  0.16971268  -0.00043319  0.00149568  1
  Mn3.30+  Mn73  1  0.16846647  0.00050816  0.50087774  1
  Mn3.30+  Mn74  1  0.16694837  0.33338750  -0.00047846  1
  Mn3.30+  Mn75  1  0.16567272  0.33430163  0.49983951  1
  Mn3.30+  Mn76  1  0.16798224  0.66848387  0.00166280  1
  Mn3.30+  Mn77  1  0.16553641  0.66613124  0.49735291  1
  Mn3.30+  Mn78  1  0.49950832  -0.00008517  0.00078034  1
  Mn3.30+  Mn79  1  0.50135752  0.00382534  0.50114711  1
  Mn3.30+  Mn80  1  0.50029448  0.33284220  -0.00021518  1
  Mn3.30+  Mn81  1  0.50264401  0.33191339  0.49959150  1
  Mn3.30+  Mn82  1  0.50159200  0.66586458  0.00001943  1
  Mn3.30+  Mn83  1  0.50070704  0.66746449  0.49910893  1
  Mn3.30+  Mn84  1  0.83212766  -0.00104269  -0.00150343  1
  Mn3.30+  Mn85  1  0.82897621  -0.00080078  0.50203424  1
  Mn3.30+  Mn86  1  0.83206261  0.33395594  -0.00004780  1
  Mn3.30+  Mn87  1  0.82966505  0.33141810  0.50090535  1
  Mn3.30+  Mn88  1  0.83149708  0.66477935  0.00198332  1
  Mn3.30+  Mn89  1  0.83552956  0.66487383  0.49772014  1
  Mn3.30+  Mn90  1  -0.00081335  0.16738142  0.25091563  1
  Mn3.30+  Mn91  1  -0.00055537  0.16570669  0.74952482  1
  Mn3.30+  Mn92  1  0.00077603  0.50070541  0.25080828  1
  Mn3.30+  Mn93  1  -0.00068580  0.49969341  0.74986437  1
  Mn3.30+  Mn94  1  0.00166726  0.83294452  0.24932064  1
  Mn3.30+  Mn95  1  -0.00011124  0.83305101  0.75023137  1
  Mn3.30+  Mn96  1  0.33374323  0.16558183  0.24978615  1
  Mn3.30+  Mn97  1  0.33712487  0.16616084  0.74754256  1
  Mn3.30+  Mn98  1  0.33232355  0.50059197  0.25170966  1
  Mn3.30+  Mn99  1  0.33534606  0.49932341  0.74976982  1
  Mn3.30+  Mn100  1  0.33253275  0.83669426  0.24795271  1
  Mn3.30+  Mn101  1  0.33442505  0.83501315  0.74929048  1
  Mn3.30+  Mn102  1  0.66578645  0.16560257  0.25169700  1
  Mn3.30+  Mn103  1  0.66129464  0.16692126  0.74938322  1
  Mn3.30+  Mn104  1  0.66832827  0.49909505  0.24828197  1
  Mn3.30+  Mn105  1  0.66573731  0.49935643  0.75155202  1
  Mn3.30+  Mn106  1  0.66614913  0.83405551  0.25043699  1
  Mn3.30+  Mn107  1  0.66585543  0.83395313  0.74932931  1
  Mn3.30+  Mn108  1  0.16915445  -0.00015982  0.24930410  1
  Mn3.30+  Mn109  1  0.16897881  -0.00002942  0.74868197  1
  Mn3.30+  Mn110  1  0.16402293  0.33353665  0.25092709  1
  Mn3.30+  Mn111  1  0.16853552  0.33428092  0.74932696  1
  Mn3.30+  Mn112  1  0.16568859  0.66720560  0.25115927  1
  Mn3.30+  Mn113  1  0.16774478  0.66721682  0.74987253  1
  Mn3.30+  Mn114  1  0.50125816  0.00022660  0.25121752  1
  Mn3.30+  Mn115  1  0.49975698  0.00380824  0.74683477  1
  Mn3.30+  Mn116  1  0.50196924  0.33165321  0.25083006  1
  Mn3.30+  Mn117  1  0.50120211  0.33313948  0.74913392  1
  Mn3.30+  Mn118  1  0.50058757  0.66758124  0.24799603  1
  Mn3.30+  Mn119  1  0.50152543  0.66555897  0.75207630  1
  Mn3.30+  Mn120  1  0.83137499  0.00013287  0.25069074  1
  Mn3.30+  Mn121  1  0.83002436  -0.00179708  0.74865472  1
  Mn3.30+  Mn122  1  0.83069931  0.33197589  0.24919267  1
  Mn3.30+  Mn123  1  0.83035848  0.33326552  0.74979268  1
  Mn3.30+  Mn124  1  0.83517942  0.66439935  0.25036928  1
  Mn3.30+  Mn125  1  0.83174749  0.66507597  0.75068577  1
  Mn3.30+  Mn126  1  0.00137356  0.16619683  -0.00012971  1
  Mn3.30+  Mn127  1  -0.00274339  0.16679072  0.49973880  1
  Mn3.30+  Mn128  1  -0.00114788  0.50077332  0.00125253  1
  Mn3.30+  Mn129  1  0.00123611  0.49939754  0.49836242  1
  Mn3.30+  Mn130  1  0.00190200  0.83355390  0.00210237  1
  Mn3.30+  Mn131  1  -0.00029859  0.83218784  0.49890006  1
  Mn3.30+  Mn132  1  0.33491011  0.16551151  0.00004297  1
  Mn3.30+  Mn133  1  0.33621210  0.16609255  0.50200811  1
  Mn3.30+  Mn134  1  0.33470577  0.49966126  0.00059098  1
  Mn3.30+  Mn135  1  0.33353444  0.50030645  0.49769787  1
  Mn3.30+  Mn136  1  0.33362672  0.83636882  0.00333699  1
  Mn3.30+  Mn137  1  0.33358455  0.83561500  0.49979293  1
  Mn3.30+  Mn138  1  0.66357005  0.16610256  -0.00217431  1
  Mn3.30+  Mn139  1  0.66339929  0.16668013  0.50179409  1
  Mn3.30+  Mn140  1  0.66650988  0.50088493  -0.00002660  1
  Mn3.30+  Mn141  1  0.66770373  0.49702507  0.49997421  1
  Mn3.30+  Mn142  1  0.66495096  0.83201867  -0.00057824  1
  Mn3.30+  Mn143  1  0.66694466  0.83630908  0.50043252  1
  O2-  O144  1  0.02599739  0.16172309  0.12456093  1
  O2-  O145  1  0.02331488  0.15992482  0.62500285  1
  O2-  O146  1  0.02739734  0.49530919  0.12434873  1
  O2-  O147  1  0.02382189  0.49987179  0.62482506  1
  O2-  O148  1  0.02834968  0.82649505  0.12685359  1
  O2-  O149  1  0.02635218  0.82574498  0.62302359  1
  O2-  O150  1  0.34892000  0.16222530  0.12492695  1
  O2-  O151  1  0.36108855  0.16441840  0.62497868  1
  O2-  O152  1  0.35080455  0.49338204  0.12650891  1
  O2-  O153  1  0.36016052  0.49584812  0.62199870  1
  O2-  O154  1  0.36286460  0.82773800  0.12475428  1
  O2-  O155  1  0.36087683  0.82425951  0.62319384  1
  O2-  O156  1  0.69051556  0.15920519  0.12307744  1
  O2-  O157  1  0.68984546  0.16016735  0.62685306  1
  O2-  O158  1  0.69438171  0.49270002  0.12550867  1
  O2-  O159  1  0.69124840  0.49250741  0.62522881  1
  O2-  O160  1  0.69228750  0.82792665  0.12508141  1
  O2-  O161  1  0.68535715  0.82513704  0.62548511  1
  O2-  O162  1  0.13939701  0.32540922  0.12448151  1
  O2-  O163  1  0.14712357  0.32831194  0.62562018  1
  O2-  O164  1  0.14152341  0.65838187  0.12612651  1
  O2-  O165  1  0.14131673  0.66033924  0.62266826  1
  O2-  O166  1  0.14209618  0.99896280  0.12625130  1
  O2-  O167  1  0.13900291  0.99522703  0.62320868  1
  O2-  O168  1  0.47829270  0.33126514  0.12601168  1
  O2-  O169  1  0.47606866  0.33214886  0.62417975  1
  O2-  O170  1  0.47465046  0.66160156  0.12465254  1
  O2-  O171  1  0.47537294  0.65937888  0.62472320  1
  O2-  O172  1  0.47896011  0.99338545  0.12525520  1
  O2-  O173  1  0.47152583  0.99277736  0.62472116  1
  O2-  O174  1  0.80537980  0.32449063  0.12279560  1
  O2-  O175  1  0.80421643  0.32929662  0.62834378  1
  O2-  O176  1  0.80694119  0.66055608  0.12634225  1
  O2-  O177  1  0.80901511  0.65791436  0.62321326  1
  O2-  O178  1  0.80558067  0.99554769  0.12267055  1
  O2-  O179  1  0.80442479  0.99754974  0.62554091  1
  O2-  O180  1  0.30838759  0.17109028  0.37659792  1
  O2-  O181  1  0.30853805  0.17139820  0.87324199  1
  O2-  O182  1  0.30437500  0.50644605  0.37545787  1
  O2-  O183  1  0.30699023  0.50431258  0.87596771  1
  O2-  O184  1  0.30602634  0.84279595  0.37556813  1
  O2-  O185  1  0.30772105  0.84078506  0.87672408  1
  O2-  O186  1  0.65028552  0.17478232  0.37712205  1
  O2-  O187  1  0.63640801  0.17238724  0.87290063  1
  O2-  O188  1  0.64330977  0.50777611  0.37432938  1
  O2-  O189  1  0.64191762  0.50724048  0.87499156  1
  O2-  O190  1  0.64343105  0.83728983  0.37544679  1
  O2-  O191  1  0.64075678  0.84106720  0.87337521  1
  O2-  O192  1  0.97256163  0.16478028  0.37518376  1
  O2-  O193  1  0.97610085  0.17140131  0.87531045  1
  O2-  O194  1  0.97469061  0.50402284  0.37459553  1
  O2-  O195  1  0.97392035  0.50682225  0.87666763  1
  O2-  O196  1  0.97494843  0.84274228  0.37330849  1
  O2-  O197  1  0.97590153  0.83259012  0.87779076  1
  O2-  O198  1  0.19317331  0.00624267  0.37662973  1
  O2-  O199  1  0.19353267  0.00259198  0.87497720  1
  O2-  O200  1  0.19067670  0.33607554  0.37612354  1
  O2-  O201  1  0.19495792  0.34036895  0.87330641  1
  O2-  O202  1  0.19542234  0.67653076  0.37424586  1
  O2-  O203  1  0.19447577  0.67456273  0.87710311  1
  O2-  O204  1  0.52494747  0.00035744  0.37690410  1
  O2-  O205  1  0.52164700  0.00468571  0.87252727  1
  O2-  O206  1  0.52577795  0.33818414  0.37487806  1
  O2-  O207  1  0.52000396  0.34250137  0.87430194  1
  O2-  O208  1  0.52574316  0.67514629  0.37331333  1
  O2-  O209  1  0.52697505  0.67533713  0.87667384  1
  O2-  O210  1  0.85813826  0.00620472  0.37620117  1
  O2-  O211  1  0.85277168  0.00460114  0.87503963  1
  O2-  O212  1  0.85090889  0.33270754  0.37298519  1
  O2-  O213  1  0.85947590  0.33934877  0.87641301  1
  O2-  O214  1  0.86126114  0.67277022  0.37325877  1
  O2-  O215  1  0.85828048  0.66944635  0.87751933  1
  O2-  O216  1  0.23575379  0.09836475  0.01340389  1
  O2-  O217  1  0.23603155  0.09617970  0.51997628  1
  O2-  O218  1  0.23482912  0.42796455  0.02012142  1
  O2-  O219  1  0.24259425  0.42586674  0.52196651  1
  O2-  O220  1  0.23956171  0.76565605  0.02368875  1
  O2-  O221  1  0.23787918  0.76179849  0.52048420  1
  O2-  O222  1  0.57472819  0.08947702  0.01768221  1
  O2-  O223  1  0.56921564  0.09825440  0.52227457  1
  O2-  O224  1  0.57763707  0.42557082  0.01754827  1
  O2-  O225  1  0.56845977  0.43102842  0.51632179  1
  O2-  O226  1  0.57037654  0.76336505  0.02224947  1
  O2-  O227  1  0.57228967  0.76157910  0.51902514  1
  O2-  O228  1  0.90616152  0.09287420  0.01959073  1
  O2-  O229  1  0.90291564  0.09176434  0.52279894  1
  O2-  O230  1  0.90527926  0.43025466  0.02319760  1
  O2-  O231  1  0.90063529  0.42619289  0.51477372  1
  O2-  O232  1  0.90352510  0.75897529  0.02193879  1
  O2-  O233  1  0.90755340  0.75752030  0.51832061  1
  O2-  O234  1  0.25816538  0.26161653  0.23089228  1
  O2-  O235  1  0.26513657  0.26010932  0.72935635  1
  O2-  O236  1  0.26259980  0.59862353  0.22972059  1
  O2-  O237  1  0.26244927  0.59521620  0.72951155  1
  O2-  O238  1  0.26473489  0.93299371  0.22970908  1
  O2-  O239  1  0.26338240  0.92947282  0.72676516  1
  O2-  O240  1  0.59680236  0.25950474  0.23196174  1
  O2-  O241  1  0.59768636  0.26729224  0.73124042  1
  O2-  O242  1  0.59982617  0.59653243  0.23330485  1
  O2-  O243  1  0.59582910  0.59353900  0.72685294  1
  O2-  O244  1  0.59570924  0.92624424  0.23189030  1
  O2-  O245  1  0.59310077  0.93352498  0.72930765  1
  O2-  O246  1  0.92526072  0.26059194  0.22586400  1
  O2-  O247  1  0.92216873  0.25790487  0.73394983  1
  O2-  O248  1  0.93042724  0.59449252  0.22917314  1
  O2-  O249  1  0.92812788  0.59368412  0.73043683  1
  O2-  O250  1  0.92818772  0.92874175  0.22845023  1
  O2-  O251  1  0.92939470  0.92559344  0.73100296  1
  O2-  O252  1  0.09513896  0.23694846  0.26937348  1
  O2-  O253  1  0.09556470  0.24150676  0.77007753  1
  O2-  O254  1  0.10056526  0.57020926  0.26952218  1
  O2-  O255  1  0.09594495  0.57397991  0.77137124  1
  O2-  O256  1  0.09607852  0.90819438  0.27150239  1
  O2-  O257  1  0.09876279  0.90191377  0.76601073  1
  O2-  O258  1  0.42093812  0.24336523  0.26799337  1
  O2-  O259  1  0.42947271  0.23884599  0.77171534  1
  O2-  O260  1  0.42772261  0.57506995  0.27346903  1
  O2-  O261  1  0.42949625  0.57080396  0.77205999  1
  O2-  O262  1  0.42755023  0.90747509  0.27287989  1
  O2-  O263  1  0.42972087  0.90436482  0.76992931  1
  O2-  O264  1  0.76436794  0.23274569  0.26290738  1
  O2-  O265  1  0.75901959  0.23858622  0.77296308  1
  O2-  O266  1  0.76304544  0.57164708  0.27288864  1
  O2-  O267  1  0.76322098  0.56896575  0.76711149  1
  O2-  O268  1  0.76448559  0.90144758  0.26669417  1
  O2-  O269  1  0.75960140  0.90509514  0.77349327  1
  O2-  O270  1  0.07224568  0.07154065  0.48004104  1
  O2-  O271  1  0.07568865  0.07322623  0.98269775  1
  O2-  O272  1  0.07588915  0.40848542  0.48422340  1
  O2-  O273  1  0.06944296  0.40548392  0.97850737  1
  O2-  O274  1  0.07250249  0.73691527  0.47672635  1
  O2-  O275  1  0.07226316  0.73789550  0.98005345  1
  O2-  O276  1  0.40362324  0.07148197  0.48116173  1
  O2-  O277  1  0.40446824  0.07170772  0.98205885  1
  O2-  O278  1  0.40593178  0.40743964  0.47724101  1
  O2-  O279  1  0.40187876  0.40358212  0.98530057  1
  O2-  O280  1  0.40336094  0.74168194  0.47775429  1
  O2-  O281  1  0.40417725  0.73881592  0.97915163  1
  O2-  O282  1  0.73745770  0.07168480  0.47892667  1
  O2-  O283  1  0.73706152  0.07410466  0.97748355  1
  O2-  O284  1  0.73712468  0.40451199  0.47745722  1
  O2-  O285  1  0.73809696  0.40562026  0.97739114  1
  O2-  O286  1  0.74143567  0.73674657  0.47987376  1
  O2-  O287  1  0.73667182  0.73846287  0.97876843  1
  O2-  O288  1  0.09501150  0.23767365  0.48456516  1
  O2-  O289  1  0.09607270  0.24030094  0.97636413  1
  O2-  O290  1  0.09960696  0.57146130  0.47939437  1
  O2-  O291  1  0.09496425  0.57135107  0.97922458  1
  O2-  O292  1  0.09657808  0.90555301  0.47983533  1
  O2-  O293  1  0.09977101  0.90528191  0.98376974  1
  O2-  O294  1  0.42411768  0.24548894  0.48065288  1
  O2-  O295  1  0.42654681  0.23799609  0.97817124  1
  O2-  O296  1  0.42861609  0.57321505  0.47665975  1
  O2-  O297  1  0.42891622  0.57329472  0.97652431  1
  O2-  O298  1  0.42921045  0.90614057  0.47910979  1
  O2-  O299  1  0.42830146  0.90627843  0.97730324  1
  O2-  O300  1  0.76191258  0.23454936  0.48734317  1
  O2-  O301  1  0.76015335  0.23673546  0.97740660  1
  O2-  O302  1  0.76351263  0.57011877  0.47854462  1
  O2-  O303  1  0.76248992  0.57106055  0.98144794  1
  O2-  O304  1  0.76253507  0.90459730  0.47819783  1
  O2-  O305  1  0.76070746  0.90307071  0.97974941  1
  O2-  O306  1  0.07272619  0.07104093  0.27014443  1
  O2-  O307  1  0.07645575  0.07357813  0.76741845  1
  O2-  O308  1  0.07110088  0.40457355  0.26413104  1
  O2-  O309  1  0.07219063  0.40897607  0.77331191  1
  O2-  O310  1  0.07095954  0.73576941  0.27317300  1
  O2-  O311  1  0.07358198  0.73849859  0.77000900  1
  O2-  O312  1  0.40517642  0.07196694  0.26690581  1
  O2-  O313  1  0.40314923  0.07070797  0.76928283  1
  O2-  O314  1  0.40587816  0.40722705  0.27150548  1
  O2-  O315  1  0.40252600  0.40198021  0.76442916  1
  O2-  O316  1  0.40293804  0.74150302  0.27077741  1
  O2-  O317  1  0.40466766  0.73805097  0.77111034  1
  O2-  O318  1  0.73776541  0.06989324  0.27085535  1
  O2-  O319  1  0.73656747  0.07573542  0.77226087  1
  O2-  O320  1  0.73674579  0.40198313  0.27084535  1
  O2-  O321  1  0.73843656  0.40697321  0.77582106  1
  O2-  O322  1  0.73888510  0.73831749  0.27054357  1
  O2-  O323  1  0.73987570  0.73539116  0.77058292  1
  O2-  O324  1  0.23478590  0.09772424  0.23597307  1
  O2-  O325  1  0.23881146  0.09753143  0.73087747  1
  O2-  O326  1  0.23857781  0.42437306  0.22967264  1
  O2-  O327  1  0.23859534  0.42957464  0.72791116  1
  O2-  O328  1  0.23657896  0.76531781  0.22818049  1
  O2-  O329  1  0.23952893  0.76184765  0.72852732  1
  O2-  O330  1  0.57551771  0.09068223  0.23134907  1
  O2-  O331  1  0.56761056  0.09857249  0.72878244  1
  O2-  O332  1  0.57424286  0.42797137  0.23311442  1
  O2-  O333  1  0.57057199  0.42963482  0.73223239  1
  O2-  O334  1  0.57171091  0.76211496  0.22846008  1
  O2-  O335  1  0.57045407  0.76214157  0.72977229  1
  O2-  O336  1  0.90586987  0.09345459  0.22709144  1
  O2-  O337  1  0.90335278  0.09081397  0.73011869  1
  O2-  O338  1  0.90193270  0.42697428  0.22956527  1
  O2-  O339  1  0.90200083  0.42787199  0.73314145  1
  O2-  O340  1  0.90420664  0.76085482  0.22780014  1
  O2-  O341  1  0.90790794  0.75618258  0.73372419  1
  O2-  O342  1  0.26268551  0.26192448  0.01968788  1
  O2-  O343  1  0.26047523  0.25956147  0.51967388  1
  O2-  O344  1  0.26263853  0.59650728  0.02040242  1
  O2-  O345  1  0.26285063  0.59559487  0.52093074  1
  O2-  O346  1  0.26612464  0.93337867  0.02149289  1
  O2-  O347  1  0.26291893  0.92939208  0.52398305  1
  O2-  O348  1  0.59783214  0.26246600  0.01642834  1
  O2-  O349  1  0.59552418  0.26326234  0.52072356  1
  O2-  O350  1  0.59791883  0.59627258  0.01991995  1
  O2-  O351  1  0.59863901  0.59343818  0.51954836  1
  O2-  O352  1  0.59673227  0.92825924  0.01566603  1
  O2-  O353  1  0.59233497  0.93068052  0.52242059  1
  O2-  O354  1  0.92812914  0.26132831  0.01956874  1
  O2-  O355  1  0.92079509  0.25683345  0.52044802  1
  O2-  O356  1  0.93182971  0.59655673  0.01946248  1
  O2-  O357  1  0.92730551  0.59205792  0.52117023  1
  O2-  O358  1  0.92800887  0.92457231  0.02398345  1
  O2-  O359  1  0.92920706  0.92976457  0.51745766  1
