# generated using pymatgen
data_Sr7Ca15Pr50Mn72O216
_symmetry_space_group_name_H-M   'P 1'
_cell_length_a   16.55836924
_cell_length_b   16.60596681
_cell_length_c   15.59346414
_cell_angle_alpha   89.99599919
_cell_angle_beta   90.00971250
_cell_angle_gamma   89.99773724
_symmetry_Int_Tables_number   1
_chemical_formula_structural   Sr7Ca15Pr50Mn72O216
_chemical_formula_sum   'Sr7 Ca15 Pr50 Mn72 O216'
_cell_volume   4287.69936244
_cell_formula_units_Z   1
loop_
 _symmetry_equiv_pos_site_id
 _symmetry_equiv_pos_as_xyz
  1  'x, y, z'
loop_
 _atom_type_symbol
 _atom_type_oxidation_number
  Sr2+  2.0
  Ca2+  2.0
  Pr3+  3.0
  Mn3.30+  3.3
  O2-  -2.0
loop_
 _atom_site_type_symbol
 _atom_site_label
 _atom_site_symmetry_multiplicity
 _atom_site_fract_x
 _atom_site_fract_y
 _atom_site_fract_z
 _atom_site_occupancy
  Sr2+  Sr0  1  -0.00209169  0.67738356  0.12303980  1
  Sr2+  Sr1  1  0.83362441  0.15607214  0.37369497  1
  Sr2+  Sr2  1  0.83347896  0.49084453  0.37320229  1
  Sr2+  Sr3  1  0.16798576  0.17555381  0.62916015  1
  Sr2+  Sr4  1  1.00302429  0.65675281  0.87395398  1
  Sr2+  Sr5  1  0.49878867  0.82165804  0.87551151  1
  Sr2+  Sr6  1  0.49877529  0.49211886  0.87480884  1
  Ca2+  Ca7  1  0.32849075  0.01435216  0.12161328  1
  Ca2+  Ca8  1  0.32902073  0.34942953  0.11843411  1
  Ca2+  Ca9  1  0.67109959  0.31692742  0.87633099  1
  Ca2+  Ca10  1  0.83118620  0.15147352  0.87744967  1
  Ca2+  Ca11  1  0.16438459  0.15397891  0.87596191  1
  Ca2+  Ca12  1  0.33386289  0.32281976  0.87583503  1
  Ca2+  Ca13  1  0.84163348  0.84875841  0.12262862  1
  Ca2+  Ca14  1  0.66945439  0.65374389  0.87307693  1
  Ca2+  Ca15  1  0.16297365  0.81833806  0.87591500  1
  Ca2+  Ca16  1  0.16615570  0.48966127  0.87580143  1
  Ca2+  Ca17  1  0.33538672  0.65406291  0.87564525  1
  Ca2+  Ca18  1  -0.00332311  0.01340516  0.12314009  1
  Ca2+  Ca19  1  0.16134901  0.81842398  0.37451598  1
  Ca2+  Ca20  1  -0.00266068  0.68162907  0.62726254  1
  Ca2+  Ca21  1  0.66254061  0.68092203  0.62878290  1
  Pr3+  Pr22  1  0.49941817  0.18036930  0.12259365  1
  Pr3+  Pr23  1  0.67227432  0.98799646  0.37334336  1
  Pr3+  Pr24  1  -0.00176161  0.34600006  0.12318038  1
  Pr3+  Pr25  1  0.83229294  0.82160341  0.37271575  1
  Pr3+  Pr26  1  1.00532710  0.32115613  0.87533680  1
  Pr3+  Pr27  1  1.00211660  0.31961351  0.37387635  1
  Pr3+  Pr28  1  0.16752786  0.51366441  0.62844292  1
  Pr3+  Pr29  1  0.83722191  0.51671743  0.62499845  1
  Pr3+  Pr30  1  -0.00173471  0.01281191  0.62661538  1
  Pr3+  Pr31  1  0.50236780  0.17973531  0.62766016  1
  Pr3+  Pr32  1  0.49862652  0.51219823  0.12190212  1
  Pr3+  Pr33  1  0.49732482  0.15358810  0.37403901  1
  Pr3+  Pr34  1  0.50349856  0.84471078  0.62695976  1
  Pr3+  Pr35  1  0.82790328  0.48921941  0.87625550  1
  Pr3+  Pr36  1  0.66388938  0.34570326  0.12193065  1
  Pr3+  Pr37  1  0.17075393  0.18027404  0.12089616  1
  Pr3+  Pr38  1  0.16240293  0.15289089  0.37476308  1
  Pr3+  Pr39  1  0.49686609  0.48717487  0.37551725  1
  Pr3+  Pr40  1  0.49805796  0.15903351  0.87611765  1
  Pr3+  Pr41  1  0.49997751  0.84582689  0.12273247  1
  Pr3+  Pr42  1  0.67075840  0.98741528  0.87702268  1
  Pr3+  Pr43  1  0.16913747  0.84705457  0.12208777  1
  Pr3+  Pr44  1  0.33360935  0.98981266  0.87660959  1
  Pr3+  Pr45  1  0.82881695  0.81679984  0.87723996  1
  Pr3+  Pr46  1  0.66515273  0.01226679  0.62659642  1
  Pr3+  Pr47  1  0.33015697  0.34602689  0.62893555  1
  Pr3+  Pr48  1  0.83637760  0.84390299  0.62673723  1
  Pr3+  Pr49  1  1.00283931  0.65532003  0.37594518  1
  Pr3+  Pr50  1  0.66531735  0.67796143  0.12267139  1
  Pr3+  Pr51  1  1.00439958  0.98665118  0.87695156  1
  Pr3+  Pr52  1  0.33184249  0.67918848  0.62924007  1
  Pr3+  Pr53  1  0.67146684  0.65247858  0.37639257  1
  Pr3+  Pr54  1  -0.00211001  0.34574315  0.62630901  1
  Pr3+  Pr55  1  0.33379483  0.98721987  0.37322380  1
  Pr3+  Pr56  1  0.83648414  0.51274498  0.12455841  1
  Pr3+  Pr57  1  0.16225127  0.48673902  0.37487549  1
  Pr3+  Pr58  1  0.50426376  0.51573657  0.62785114  1
  Pr3+  Pr59  1  0.33319631  0.65449829  0.37514296  1
  Pr3+  Pr60  1  0.16946015  0.51389356  0.12134664  1
  Pr3+  Pr61  1  0.66706613  0.01194579  0.12337160  1
  Pr3+  Pr62  1  0.49807409  0.82045057  0.37453102  1
  Pr3+  Pr63  1  0.32841003  0.67829364  0.12075745  1
  Pr3+  Pr64  1  0.67115278  0.32055862  0.37426014  1
  Pr3+  Pr65  1  1.00492417  0.98452974  0.37307511  1
  Pr3+  Pr66  1  0.66368532  0.34512562  0.62793330  1
  Pr3+  Pr67  1  0.33544211  0.31951863  0.37360346  1
  Pr3+  Pr68  1  0.33049238  0.01202761  0.62792344  1
  Pr3+  Pr69  1  0.83829574  0.17788633  0.12279399  1
  Pr3+  Pr70  1  0.16666964  0.84334495  0.62836190  1
  Pr3+  Pr71  1  0.83812739  0.17970690  0.62724839  1
  Mn3.30+  Mn72  1  0.16602352  0.00074570  0.00003220  1
  Mn3.30+  Mn73  1  0.16733243  -0.00240787  0.49993960  1
  Mn3.30+  Mn74  1  0.16913982  0.33448575  -0.00346844  1
  Mn3.30+  Mn75  1  0.16708362  0.33197741  0.50219743  1
  Mn3.30+  Mn76  1  0.16604909  0.66761896  -0.00410839  1
  Mn3.30+  Mn77  1  0.16540026  0.66814687  0.50250459  1
  Mn3.30+  Mn78  1  0.49795776  0.00077953  0.00120241  1
  Mn3.30+  Mn79  1  0.50063304  -0.00017705  0.49932782  1
  Mn3.30+  Mn80  1  0.49731174  0.33496964  -0.00235672  1
  Mn3.30+  Mn81  1  0.50002411  0.33339709  0.50061780  1
  Mn3.30+  Mn82  1  0.49834821  0.66684621  -0.00293006  1
  Mn3.30+  Mn83  1  0.50170941  0.66742471  0.50068641  1
  Mn3.30+  Mn84  1  0.83677219  -0.00104566  0.00068291  1
  Mn3.30+  Mn85  1  0.83428952  -0.00012756  0.49933330  1
  Mn3.30+  Mn86  1  0.83246323  0.33192931  -0.00231346  1
  Mn3.30+  Mn87  1  0.83221405  0.33441980  0.50006459  1
  Mn3.30+  Mn88  1  0.83325275  0.66666495  -0.00041677  1
  Mn3.30+  Mn89  1  0.83316100  0.66836318  0.50235002  1
  Mn3.30+  Mn90  1  0.00106014  0.16414525  0.24749495  1
  Mn3.30+  Mn91  1  0.00030700  0.16715295  0.75326484  1
  Mn3.30+  Mn92  1  0.00029012  0.50023621  0.24959928  1
  Mn3.30+  Mn93  1  0.00051343  0.50179916  0.75158859  1
  Mn3.30+  Mn94  1  0.00077871  0.83358257  0.24705505  1
  Mn3.30+  Mn95  1  0.00112378  0.83169299  0.75212407  1
  Mn3.30+  Mn96  1  0.33162221  0.16621884  0.24704474  1
  Mn3.30+  Mn97  1  0.33176806  0.16873318  0.75409714  1
  Mn3.30+  Mn98  1  0.33178356  0.49917764  0.24917394  1
  Mn3.30+  Mn99  1  0.33312243  0.50059609  0.75347347  1
  Mn3.30+  Mn100  1  0.33064470  0.83424665  0.24997260  1
  Mn3.30+  Mn101  1  0.33284396  0.83213635  0.75350954  1
  Mn3.30+  Mn102  1  0.66709853  0.16655055  0.24797791  1
  Mn3.30+  Mn103  1  0.66979267  0.16714413  0.75292150  1
  Mn3.30+  Mn104  1  0.66586427  0.49991489  0.24890132  1
  Mn3.30+  Mn105  1  0.66704134  0.50075136  0.75166005  1
  Mn3.30+  Mn106  1  0.66840179  0.83351391  0.24661051  1
  Mn3.30+  Mn107  1  0.66706684  0.83033710  0.75183856  1
  Mn3.30+  Mn108  1  0.16645687  -0.00090674  0.24645944  1
  Mn3.30+  Mn109  1  0.16655550  -0.00021694  0.75319993  1
  Mn3.30+  Mn110  1  0.16892054  0.33315289  0.24772982  1
  Mn3.30+  Mn111  1  0.16757202  0.33339733  0.75326973  1
  Mn3.30+  Mn112  1  0.16574368  0.66901249  0.24956520  1
  Mn3.30+  Mn113  1  0.16583117  0.66668698  0.75250941  1
  Mn3.30+  Mn114  1  0.49892075  0.00019992  0.24734437  1
  Mn3.30+  Mn115  1  0.50009135  0.00033015  0.75227620  1
  Mn3.30+  Mn116  1  0.49827290  0.33386606  0.24722409  1
  Mn3.30+  Mn117  1  0.49925218  0.33482211  0.75455341  1
  Mn3.30+  Mn118  1  0.49939525  0.66671064  0.24924019  1
  Mn3.30+  Mn119  1  0.50079331  0.66725459  0.75331899  1
  Mn3.30+  Mn120  1  0.83679365  -0.00113640  0.24789522  1
  Mn3.30+  Mn121  1  0.83401149  -0.00013390  0.75218862  1
  Mn3.30+  Mn122  1  0.83296454  0.33305411  0.24907085  1
  Mn3.30+  Mn123  1  0.83181096  0.33318587  0.75302810  1
  Mn3.30+  Mn124  1  0.83414373  0.66872968  0.24865282  1
  Mn3.30+  Mn125  1  0.83263112  0.66651193  0.74950558  1
  Mn3.30+  Mn126  1  0.00116804  0.16541497  -0.00202776  1
  Mn3.30+  Mn127  1  0.00021638  0.16635856  0.50048948  1
  Mn3.30+  Mn128  1  0.00100755  0.50090910  -0.00301767  1
  Mn3.30+  Mn129  1  -0.00009688  0.50118441  0.50124424  1
  Mn3.30+  Mn130  1  0.00065015  0.83310939  0.00040034  1
  Mn3.30+  Mn131  1  0.00102025  0.83223130  0.50054897  1
  Mn3.30+  Mn132  1  0.33128532  0.16869713  -0.00115597  1
  Mn3.30+  Mn133  1  0.33233018  0.16622041  0.50076082  1
  Mn3.30+  Mn134  1  0.33229092  0.49953118  -0.00402578  1
  Mn3.30+  Mn135  1  0.33277873  0.50012468  0.50158322  1
  Mn3.30+  Mn136  1  0.33207995  0.83373470  -0.00231934  1
  Mn3.30+  Mn137  1  0.33171190  0.83299457  0.49948069  1
  Mn3.30+  Mn138  1  0.66862313  0.16712679  -0.00119755  1
  Mn3.30+  Mn139  1  0.66787622  0.16642249  0.50051551  1
  Mn3.30+  Mn140  1  0.66549120  0.49999531  -0.00244549  1
  Mn3.30+  Mn141  1  0.66769422  0.50066267  0.50173907  1
  Mn3.30+  Mn142  1  0.66847912  0.83156946  0.00122399  1
  Mn3.30+  Mn143  1  0.66721936  0.83253932  0.50039828  1
  O2-  O144  1  0.02636347  0.16201337  0.12270749  1
  O2-  O145  1  0.01800142  0.16284510  0.62672013  1
  O2-  O146  1  0.02414622  0.49482798  0.12284934  1
  O2-  O147  1  0.02407791  0.49257675  0.62522129  1
  O2-  O148  1  0.02618149  0.82951061  0.12438046  1
  O2-  O149  1  0.02220295  0.83049649  0.62682024  1
  O2-  O150  1  0.35725740  0.15770788  0.12479997  1
  O2-  O151  1  0.35866379  0.16064149  0.62803180  1
  O2-  O152  1  0.35477480  0.49631924  0.12451615  1
  O2-  O153  1  0.35911071  0.49389551  0.62465526  1
  O2-  O154  1  0.35746660  0.82481789  0.12521918  1
  O2-  O155  1  0.35995432  0.82823795  0.62584116  1
  O2-  O156  1  0.69336898  0.16208691  0.12345480  1
  O2-  O157  1  0.69358329  0.16077384  0.62909366  1
  O2-  O158  1  0.69147418  0.49337429  0.12417767  1
  O2-  O159  1  0.69328371  0.48978591  0.62776169  1
  O2-  O160  1  0.69717129  0.82558806  0.12468640  1
  O2-  O161  1  0.69182406  0.82828128  0.62707872  1
  O2-  O162  1  0.14157764  0.32867649  0.12308963  1
  O2-  O163  1  0.14215017  0.33009961  0.62642221  1
  O2-  O164  1  0.14826808  0.66121164  0.12335362  1
  O2-  O165  1  0.13914227  0.66091068  0.62624397  1
  O2-  O166  1  0.13810656  0.99426028  0.12354215  1
  O2-  O167  1  0.14248231  0.99226444  0.62814266  1
  O2-  O168  1  0.47146969  0.32942847  0.12442057  1
  O2-  O169  1  0.47519679  0.32762820  0.62782076  1
  O2-  O170  1  0.47297920  0.66203826  0.12583551  1
  O2-  O171  1  0.47618280  0.66587126  0.62465290  1
  O2-  O172  1  0.47130161  0.99432354  0.12528754  1
  O2-  O173  1  0.47553189  0.99492554  0.62626729  1
  O2-  O174  1  0.80866489  0.32628510  0.12279031  1
  O2-  O175  1  0.80776335  0.32659198  0.62863005  1
  O2-  O176  1  0.80929833  0.66000319  0.12468751  1
  O2-  O177  1  0.80499985  0.66571569  0.62501989  1
  O2-  O178  1  0.81007962  0.99361595  0.12493417  1
  O2-  O179  1  0.80905401  0.99250808  0.62692259  1
  O2-  O180  1  0.30670067  0.17296884  0.37138704  1
  O2-  O181  1  0.30634364  0.17613924  0.87622508  1
  O2-  O182  1  0.30683086  0.50580200  0.37733450  1
  O2-  O183  1  0.30713401  0.51076991  0.87376583  1
  O2-  O184  1  0.30414388  0.84037880  0.37419781  1
  O2-  O185  1  0.30454444  0.84385116  0.87525017  1
  O2-  O186  1  0.64116914  0.17133876  0.37160054  1
  O2-  O187  1  0.64233341  0.16867101  0.87601880  1
  O2-  O188  1  0.64040580  0.50508164  0.37377796  1
  O2-  O189  1  0.64886729  0.51037009  0.87455417  1
  O2-  O190  1  0.64144891  0.84105603  0.37125689  1
  O2-  O191  1  0.64840035  0.84146135  0.87702000  1
  O2-  O192  1  0.98339212  0.17151791  0.37375451  1
  O2-  O193  1  0.97233349  0.17288339  0.87590361  1
  O2-  O194  1  0.98322749  0.50549119  0.37761262  1
  O2-  O195  1  0.97308622  0.49968762  0.87403379  1
  O2-  O196  1  0.97612471  0.83752499  0.37331680  1
  O2-  O197  1  0.97345892  0.83934722  0.87551642  1
  O2-  O198  1  0.19123861  0.00689213  0.37180466  1
  O2-  O199  1  0.19091204  0.00858719  0.87597788  1
  O2-  O200  1  0.19196329  0.33834860  0.37429585  1
  O2-  O201  1  0.19289075  0.34577229  0.87520390  1
  O2-  O202  1  0.19050487  0.67290478  0.37704114  1
  O2-  O203  1  0.19356986  0.67508444  0.87362543  1
  O2-  O204  1  0.52794630  0.00556172  0.37205331  1
  O2-  O205  1  0.52632903  0.00770557  0.87655528  1
  O2-  O206  1  0.52670567  0.33849549  0.37306983  1
  O2-  O207  1  0.52789334  0.33186246  0.87552985  1
  O2-  O208  1  0.52706448  0.67135974  0.37455074  1
  O2-  O209  1  0.52718749  0.66785319  0.87539978  1
  O2-  O210  1  0.85932761  -0.00040707  0.37224596  1
  O2-  O211  1  0.85889851  0.00541741  0.87567088  1
  O2-  O212  1  0.85751485  0.33582674  0.37307639  1
  O2-  O213  1  0.86091787  0.34284396  0.87539833  1
  O2-  O214  1  0.85767587  0.67311362  0.37531378  1
  O2-  O215  1  0.85298265  0.66809782  0.87472355  1
  O2-  O216  1  0.23793330  0.09513538  0.01880082  1
  O2-  O217  1  0.24143405  0.09121865  0.51708962  1
  O2-  O218  1  0.23717480  0.42915124  0.01978840  1
  O2-  O219  1  0.23697520  0.42755825  0.52099069  1
  O2-  O220  1  0.24009336  0.76181285  0.02085869  1
  O2-  O221  1  0.23787467  0.75904902  0.52506670  1
  O2-  O222  1  0.57170808  0.09321697  0.02265483  1
  O2-  O223  1  0.57224185  0.09502202  0.52075445  1
  O2-  O224  1  0.57125606  0.42634655  0.02217067  1
  O2-  O225  1  0.57054088  0.42877381  0.52056378  1
  O2-  O226  1  0.57186782  0.75917129  0.02440704  1
  O2-  O227  1  0.56981957  0.76444167  0.51641293  1
  O2-  O228  1  0.90394850  0.09450749  0.01927336  1
  O2-  O229  1  0.90531990  0.09228564  0.52114907  1
  O2-  O230  1  0.90396296  0.42604668  0.02093937  1
  O2-  O231  1  0.90576897  0.42693130  0.52233117  1
  O2-  O232  1  0.90100855  0.76462928  0.01540180  1
  O2-  O233  1  0.90201787  0.76424759  0.51744534  1
  O2-  O234  1  0.26401074  0.26464630  0.22699106  1
  O2-  O235  1  0.26315450  0.26263515  0.73142610  1
  O2-  O236  1  0.26136215  0.59696657  0.23275450  1
  O2-  O237  1  0.25965558  0.59331290  0.72604554  1
  O2-  O238  1  0.26209407  0.93195043  0.22596862  1
  O2-  O239  1  0.26062260  0.92590664  0.72913713  1
  O2-  O240  1  0.59150416  0.26246202  0.22663339  1
  O2-  O241  1  0.59486282  0.25835843  0.72965988  1
  O2-  O242  1  0.59268161  0.59386246  0.22780441  1
  O2-  O243  1  0.59501664  0.59367005  0.72668983  1
  O2-  O244  1  0.59576728  0.92602673  0.22540836  1
  O2-  O245  1  0.59558985  0.92607276  0.73084564  1
  O2-  O246  1  0.92983342  0.25864850  0.22906561  1
  O2-  O247  1  0.92821372  0.26323128  0.73081166  1
  O2-  O248  1  0.92382520  0.59204056  0.23448965  1
  O2-  O249  1  0.92793887  0.59525790  0.72589936  1
  O2-  O250  1  0.93374389  0.93126934  0.23148399  1
  O2-  O251  1  0.92866844  0.92802528  0.73058015  1
  O2-  O252  1  0.09762608  0.23894828  0.26776575  1
  O2-  O253  1  0.09582061  0.24081320  0.77529005  1
  O2-  O254  1  0.09663740  0.57399830  0.26929556  1
  O2-  O255  1  0.09853529  0.56821586  0.76874293  1
  O2-  O256  1  0.09742033  0.90323643  0.27112830  1
  O2-  O257  1  0.09488041  0.90539402  0.77271340  1
  O2-  O258  1  0.42904788  0.23871723  0.27094859  1
  O2-  O259  1  0.43006414  0.23786675  0.76807822  1
  O2-  O260  1  0.42618376  0.57111768  0.27132083  1
  O2-  O261  1  0.42790413  0.57316243  0.76177594  1
  O2-  O262  1  0.42788052  0.90519191  0.27157502  1
  O2-  O263  1  0.42382843  0.90883340  0.76847344  1
  O2-  O264  1  0.75811508  0.24140320  0.26700102  1
  O2-  O265  1  0.76526514  0.23406303  0.77117391  1
  O2-  O266  1  0.75563546  0.57465733  0.26669494  1
  O2-  O267  1  0.76588455  0.56816747  0.76433388  1
  O2-  O268  1  0.76116032  0.90665837  0.27049578  1
  O2-  O269  1  0.76326229  0.90474396  0.77053346  1
  O2-  O270  1  0.07348914  0.06959639  0.48214732  1
  O2-  O271  1  0.07145748  0.07267041  0.97846821  1
  O2-  O272  1  0.07361640  0.40299521  0.47988756  1
  O2-  O273  1  0.06958917  0.40301091  0.98339357  1
  O2-  O274  1  0.07014989  0.73755263  0.48195865  1
  O2-  O275  1  0.07439674  0.74121569  0.98247611  1
  O2-  O276  1  0.40692592  0.07147795  0.47836008  1
  O2-  O277  1  0.40467557  0.07736367  0.97637589  1
  O2-  O278  1  0.40559071  0.40445236  0.47867403  1
  O2-  O279  1  0.40219565  0.40484093  0.97958755  1
  O2-  O280  1  0.40376356  0.74021416  0.47769809  1
  O2-  O281  1  0.40273951  0.73708339  0.98180268  1
  O2-  O282  1  0.73691262  0.06837446  0.48340012  1
  O2-  O283  1  0.73785358  0.06860385  0.98397959  1
  O2-  O284  1  0.73562163  0.40315245  0.48254101  1
  O2-  O285  1  0.73636512  0.40315126  0.97979611  1
  O2-  O286  1  0.73891260  0.74081315  0.47609025  1
  O2-  O287  1  0.73572156  0.73464404  0.97976843  1
  O2-  O288  1  0.09489344  0.24062255  0.47890414  1
  O2-  O289  1  0.09758361  0.23983207  0.97785330  1
  O2-  O290  1  0.09709393  0.57266046  0.48093636  1
  O2-  O291  1  0.09718365  0.56948955  0.98161596  1
  O2-  O292  1  0.09663325  0.90359781  0.47966680  1
  O2-  O293  1  0.09694745  0.90524825  0.97743935  1
  O2-  O294  1  0.42884723  0.23796046  0.47966943  1
  O2-  O295  1  0.42975023  0.23775890  0.98320259  1
  O2-  O296  1  0.42908200  0.57317111  0.48038891  1
  O2-  O297  1  0.42636409  0.57223526  0.98634758  1
  O2-  O298  1  0.42897086  0.90606277  0.47800522  1
  O2-  O299  1  0.42467852  0.90782752  0.98167150  1
  O2-  O300  1  0.75846545  0.23996674  0.48282238  1
  O2-  O301  1  0.76561087  0.23687243  0.97981403  1
  O2-  O302  1  0.76100441  0.57407541  0.48243294  1
  O2-  O303  1  0.76210189  0.56899415  0.98682245  1
  O2-  O304  1  0.76177166  0.90518114  0.47994625  1
  O2-  O305  1  0.76379409  0.90676774  0.98014834  1
  O2-  O306  1  0.07309076  0.07119950  0.27117842  1
  O2-  O307  1  0.07011482  0.07077478  0.76735068  1
  O2-  O308  1  0.07317546  0.40322294  0.26918933  1
  O2-  O309  1  0.06946847  0.40317570  0.76593302  1
  O2-  O310  1  0.07049292  0.73761741  0.26979326  1
  O2-  O311  1  0.07433620  0.74110780  0.76536537  1
  O2-  O312  1  0.40501484  0.07462727  0.27373272  1
  O2-  O313  1  0.40607854  0.07576287  0.77315825  1
  O2-  O314  1  0.40672392  0.40640367  0.27385942  1
  O2-  O315  1  0.40127609  0.40388439  0.76880202  1
  O2-  O316  1  0.40593920  0.73915947  0.27319674  1
  O2-  O317  1  0.40203733  0.73709592  0.76918991  1
  O2-  O318  1  0.73814888  0.06841855  0.26488527  1
  O2-  O319  1  0.73629945  0.06800637  0.76868297  1
  O2-  O320  1  0.73394527  0.40455201  0.26581444  1
  O2-  O321  1  0.73681636  0.40164117  0.77344641  1
  O2-  O322  1  0.73650191  0.73890679  0.27147533  1
  O2-  O323  1  0.73782972  0.73802745  0.77262171  1
  O2-  O324  1  0.23411715  0.09745887  0.23050761  1
  O2-  O325  1  0.24420300  0.08934162  0.73290288  1
  O2-  O326  1  0.23542188  0.43105087  0.23270291  1
  O2-  O327  1  0.23900146  0.42734002  0.72699228  1
  O2-  O328  1  0.23785205  0.76090778  0.22824773  1
  O2-  O329  1  0.24012543  0.75942424  0.72647109  1
  O2-  O330  1  0.57178759  0.09477322  0.22659525  1
  O2-  O331  1  0.57378075  0.09452020  0.72958201  1
  O2-  O332  1  0.56993730  0.42870952  0.22829921  1
  O2-  O333  1  0.57235274  0.42730722  0.72847293  1
  O2-  O334  1  0.57281079  0.76235720  0.22770033  1
  O2-  O335  1  0.57118016  0.76186158  0.73048249  1
  O2-  O336  1  0.90490551  0.09393460  0.22846626  1
  O2-  O337  1  0.90436315  0.09225518  0.72952133  1
  O2-  O338  1  0.90639190  0.42395249  0.22721069  1
  O2-  O339  1  0.90355430  0.42885161  0.72883060  1
  O2-  O340  1  0.90252725  0.76736618  0.23257147  1
  O2-  O341  1  0.90195913  0.76273271  0.73426843  1
  O2-  O342  1  0.26166861  0.26147995  0.02331597  1
  O2-  O343  1  0.26378347  0.26446918  0.51678637  1
  O2-  O344  1  0.26013575  0.59350985  0.01967373  1
  O2-  O345  1  0.26116323  0.59593327  0.52164106  1
  O2-  O346  1  0.26079407  0.93003825  0.02171428  1
  O2-  O347  1  0.26313657  0.92741308  0.52195529  1
  O2-  O348  1  0.59250104  0.25942474  0.02178916  1
  O2-  O349  1  0.59349251  0.26152440  0.52088661  1
  O2-  O350  1  0.59171851  0.59200253  0.02375318  1
  O2-  O351  1  0.59654202  0.59499532  0.52228808  1
  O2-  O352  1  0.59529184  0.92535509  0.02212546  1
  O2-  O353  1  0.59523825  0.92790563  0.52063532  1
  O2-  O354  1  0.93052347  0.26072357  0.02040758  1
  O2-  O355  1  0.92615003  0.26228968  0.51881930  1
  O2-  O356  1  0.92355612  0.59020870  0.01807918  1
  O2-  O357  1  0.92732583  0.59825449  0.52175751  1
  O2-  O358  1  0.93263540  0.93146379  0.01774585  1
  O2-  O359  1  0.92943732  0.92813579  0.51963639  1
