# generated using pymatgen
data_Sr7Ca15Pr50Mn72O216
_symmetry_space_group_name_H-M   'P 1'
_cell_length_a   16.55810177
_cell_length_b   16.60562427
_cell_length_c   15.59481604
_cell_angle_alpha   90.00182843
_cell_angle_beta   89.99867194
_cell_angle_gamma   89.99317412
_symmetry_Int_Tables_number   1
_chemical_formula_structural   Sr7Ca15Pr50Mn72O216
_chemical_formula_sum   'Sr7 Ca15 Pr50 Mn72 O216'
_cell_volume   4287.91341405
_cell_formula_units_Z   1
loop_
 _symmetry_equiv_pos_site_id
 _symmetry_equiv_pos_as_xyz
  1  'x, y, z'
loop_
 _atom_type_symbol
 _atom_type_oxidation_number
  Sr2+  2.0
  Ca2+  2.0
  Pr3+  3.0
  Mn3.30+  3.3
  O2-  -2.0
loop_
 _atom_site_type_symbol
 _atom_site_label
 _atom_site_symmetry_multiplicity
 _atom_site_fract_x
 _atom_site_fract_y
 _atom_site_fract_z
 _atom_site_occupancy
  Sr2+  Sr0  1  0.66555429  0.65794582  0.37675654  1
  Sr2+  Sr1  1  0.50361993  0.17481306  0.12660624  1
  Sr2+  Sr2  1  0.50105764  0.50747980  0.12569553  1
  Sr2+  Sr3  1  0.66421082  0.01045817  0.12558128  1
  Sr2+  Sr4  1  0.33830132  0.32054066  0.37699411  1
  Sr2+  Sr5  1  0.00073376  0.34142608  0.12496841  1
  Sr2+  Sr6  1  0.17028638  0.84881727  0.62494613  1
  Ca2+  Ca7  1  0.17085425  0.18203367  0.12551494  1
  Ca2+  Ca8  1  0.82732713  0.14896595  0.87438650  1
  Ca2+  Ca9  1  0.50158721  0.82172035  0.37485188  1
  Ca2+  Ca10  1  0.66196660  0.01388345  0.62498636  1
  Ca2+  Ca11  1  0.33203506  0.01248350  0.62340771  1
  Ca2+  Ca12  1  -0.00447296  0.68120881  0.12472153  1
  Ca2+  Ca13  1  0.33775110  0.65285468  0.87417059  1
  Ca2+  Ca14  1  -0.00446704  0.01472223  0.62574007  1
  Ca2+  Ca15  1  0.49736074  0.15156442  0.37476667  1
  Ca2+  Ca16  1  0.33073920  0.34652324  0.62504364  1
  Ca2+  Ca17  1  0.66370126  0.34681040  0.62513797  1
  Ca2+  Ca18  1  0.66511344  0.98905664  0.37597205  1
  Ca2+  Ca19  1  0.66206330  0.68150085  0.62361575  1
  Ca2+  Ca20  1  0.82870518  0.48346305  0.87496782  1
  Ca2+  Ca21  1  0.66878946  0.98839293  0.87398768  1
  Pr3+  Pr22  1  1.00364820  0.98690964  0.37735401  1
  Pr3+  Pr23  1  0.99912262  0.32047449  0.87551497  1
  Pr3+  Pr24  1  0.50355314  0.51328844  0.62494769  1
  Pr3+  Pr25  1  0.17055850  0.17665304  0.62486314  1
  Pr3+  Pr26  1  0.50408525  0.84558220  0.12735394  1
  Pr3+  Pr27  1  0.16427102  0.82131425  0.87298262  1
  Pr3+  Pr28  1  0.83393575  0.17906877  0.12348133  1
  Pr3+  Pr29  1  0.83368476  0.17698193  0.62670639  1
  Pr3+  Pr30  1  1.00049821  0.98870064  0.87247668  1
  Pr3+  Pr31  1  1.00392116  0.32045061  0.37536274  1
  Pr3+  Pr32  1  0.49809185  0.48778109  0.37522006  1
  Pr3+  Pr33  1  0.66170364  0.67804633  0.12614776  1
  Pr3+  Pr34  1  1.00054577  0.65381828  0.87609490  1
  Pr3+  Pr35  1  0.49772189  0.48670474  0.87508689  1
  Pr3+  Pr36  1  0.83422924  0.84613765  0.12606619  1
  Pr3+  Pr37  1  0.82819757  0.82408667  0.87459506  1
  Pr3+  Pr38  1  0.33654374  0.98862674  0.87314934  1
  Pr3+  Pr39  1  0.33976644  0.98740861  0.37670306  1
  Pr3+  Pr40  1  0.82900440  0.48752461  0.37504868  1
  Pr3+  Pr41  1  0.83353629  0.84886388  0.62432187  1
  Pr3+  Pr42  1  -0.00494710  0.01353200  0.12477157  1
  Pr3+  Pr43  1  -0.00303501  0.34588492  0.62557255  1
  Pr3+  Pr44  1  0.16450307  0.15486238  0.87564289  1
  Pr3+  Pr45  1  0.16596976  0.15513759  0.37378266  1
  Pr3+  Pr46  1  0.17111253  0.51206334  0.62603393  1
  Pr3+  Pr47  1  0.33043752  0.68114227  0.62688728  1
  Pr3+  Pr48  1  0.33826833  0.31884503  0.87275475  1
  Pr3+  Pr49  1  0.16894797  0.51181158  0.12427209  1
  Pr3+  Pr50  1  0.67201714  0.31822596  0.87302391  1
  Pr3+  Pr51  1  1.00237558  0.65417620  0.37446908  1
  Pr3+  Pr52  1  0.67228513  0.65090799  0.87324980  1
  Pr3+  Pr53  1  0.49992945  0.15136267  0.87476771  1
  Pr3+  Pr54  1  0.33848207  0.65647825  0.37617677  1
  Pr3+  Pr55  1  0.50351343  0.17938039  0.62317713  1
  Pr3+  Pr56  1  0.83863351  0.51294544  0.12291468  1
  Pr3+  Pr57  1  0.66575759  0.32110217  0.37670614  1
  Pr3+  Pr58  1  0.16519087  0.48592544  0.37597298  1
  Pr3+  Pr59  1  -0.00190239  0.67985185  0.62560696  1
  Pr3+  Pr60  1  0.82829764  0.82114438  0.37576052  1
  Pr3+  Pr61  1  0.16595275  0.48699898  0.87435371  1
  Pr3+  Pr62  1  0.16461648  0.82095651  0.37643154  1
  Pr3+  Pr63  1  0.82914919  0.15278608  0.37518570  1
  Pr3+  Pr64  1  0.16823127  0.84621856  0.12465952  1
  Pr3+  Pr65  1  0.49919237  0.82053043  0.87506052  1
  Pr3+  Pr66  1  0.83250896  0.51261556  0.62715489  1
  Pr3+  Pr67  1  0.50455338  0.84720771  0.62251065  1
  Pr3+  Pr68  1  0.66261465  0.34387849  0.12480760  1
  Pr3+  Pr69  1  0.33172431  0.01638571  0.12531443  1
  Pr3+  Pr70  1  0.33094113  0.34382224  0.12534492  1
  Pr3+  Pr71  1  0.33259624  0.67916386  0.12297955  1
  Mn3.30+  Mn72  1  0.16606665  0.00157482  0.00021571  1
  Mn3.30+  Mn73  1  0.16879865  0.00109739  0.50168638  1
  Mn3.30+  Mn74  1  0.16688417  0.33262443  -0.00036530  1
  Mn3.30+  Mn75  1  0.16918179  0.33210734  0.50117290  1
  Mn3.30+  Mn76  1  0.16580237  0.66692162  -0.00046370  1
  Mn3.30+  Mn77  1  0.16793547  0.66733929  0.50039578  1
  Mn3.30+  Mn78  1  0.50240333  -0.00081584  -0.00092206  1
  Mn3.30+  Mn79  1  0.50128022  -0.00005130  0.50004455  1
  Mn3.30+  Mn80  1  0.50174736  0.33138895  -0.00063953  1
  Mn3.30+  Mn81  1  0.49964649  0.33236631  0.50249420  1
  Mn3.30+  Mn82  1  0.49977483  0.66506007  -0.00109910  1
  Mn3.30+  Mn83  1  0.50112354  0.66869004  0.50017926  1
  Mn3.30+  Mn84  1  0.83083207  0.00099440  -0.00106807  1
  Mn3.30+  Mn85  1  0.83102386  0.00125019  0.50129674  1
  Mn3.30+  Mn86  1  0.83303969  0.33268890  -0.00154920  1
  Mn3.30+  Mn87  1  0.83188850  0.33269487  0.50180815  1
  Mn3.30+  Mn88  1  0.83379784  0.66633938  -0.00041277  1
  Mn3.30+  Mn89  1  0.83050832  0.66717539  0.50210026  1
  Mn3.30+  Mn90  1  0.00002486  0.16698846  0.24883065  1
  Mn3.30+  Mn91  1  -0.00191281  0.16539523  0.75067629  1
  Mn3.30+  Mn92  1  -0.00037776  0.50039843  0.24820976  1
  Mn3.30+  Mn93  1  -0.00188766  0.49988175  0.75212131  1
  Mn3.30+  Mn94  1  -0.00011213  0.83235044  0.24990258  1
  Mn3.30+  Mn95  1  -0.00110089  0.83549517  0.74808854  1
  Mn3.30+  Mn96  1  0.33474690  0.16770789  0.25081147  1
  Mn3.30+  Mn97  1  0.33468302  0.16542441  0.74746698  1
  Mn3.30+  Mn98  1  0.33363949  0.50015577  0.24941642  1
  Mn3.30+  Mn99  1  0.33469535  0.49985169  0.75031182  1
  Mn3.30+  Mn100  1  0.33479102  0.83412164  0.24974110  1
  Mn3.30+  Mn101  1  0.33384905  0.83417198  0.75038783  1
  Mn3.30+  Mn102  1  0.66426157  0.16439144  0.25286315  1
  Mn3.30+  Mn103  1  0.66782219  0.16413902  0.74829533  1
  Mn3.30+  Mn104  1  0.66705777  0.49990101  0.25056512  1
  Mn3.30+  Mn105  1  0.66743586  0.49904016  0.74850165  1
  Mn3.30+  Mn106  1  0.66597884  0.83443876  0.25321391  1
  Mn3.30+  Mn107  1  0.66568521  0.83474627  0.74822820  1
  Mn3.30+  Mn108  1  0.16727037  0.00181203  0.24937271  1
  Mn3.30+  Mn109  1  0.16752695  0.00113036  0.74744980  1
  Mn3.30+  Mn110  1  0.16755614  0.33244543  0.24973721  1
  Mn3.30+  Mn111  1  0.16798074  0.33251045  0.74948756  1
  Mn3.30+  Mn112  1  0.16567365  0.66690760  0.24776363  1
  Mn3.30+  Mn113  1  0.16820503  0.66713861  0.75258501  1
  Mn3.30+  Mn114  1  0.50189671  0.00000071  0.25310958  1
  Mn3.30+  Mn115  1  0.50162490  -0.00064550  0.74758873  1
  Mn3.30+  Mn116  1  0.49966368  0.33046277  0.25087741  1
  Mn3.30+  Mn117  1  0.50163489  0.33271091  0.74722036  1
  Mn3.30+  Mn118  1  0.49979623  0.66640611  0.25066597  1
  Mn3.30+  Mn119  1  0.50097105  0.66710384  0.75040214  1
  Mn3.30+  Mn120  1  0.83158245  0.00024468  0.25150538  1
  Mn3.30+  Mn121  1  0.83032044  0.00140738  0.74867563  1
  Mn3.30+  Mn122  1  0.83338293  0.33282380  0.25041274  1
  Mn3.30+  Mn123  1  0.83150187  0.33241064  0.74947350  1
  Mn3.30+  Mn124  1  0.83370239  0.66665970  0.24981192  1
  Mn3.30+  Mn125  1  0.83123795  0.66693357  0.74921183  1
  Mn3.30+  Mn126  1  -0.00130883  0.16698247  -0.00060811  1
  Mn3.30+  Mn127  1  -0.00019202  0.16546041  0.50134131  1
  Mn3.30+  Mn128  1  -0.00148029  0.49964295  -0.00068176  1
  Mn3.30+  Mn129  1  -0.00068471  0.50039753  0.50112002  1
  Mn3.30+  Mn130  1  -0.00090660  0.83277277  -0.00034183  1
  Mn3.30+  Mn131  1  -0.00064885  0.83530671  0.50274136  1
  Mn3.30+  Mn132  1  0.33298455  0.16737584  0.00057298  1
  Mn3.30+  Mn133  1  0.33628072  0.16582118  0.50041610  1
  Mn3.30+  Mn134  1  0.33378505  0.50105835  -0.00126065  1
  Mn3.30+  Mn135  1  0.33455163  0.49877166  0.50153793  1
  Mn3.30+  Mn136  1  0.33349025  0.83330514  -0.00110917  1
  Mn3.30+  Mn137  1  0.33522742  0.83513320  0.50060881  1
  Mn3.30+  Mn138  1  0.66791061  0.16397269  -0.00126862  1
  Mn3.30+  Mn139  1  0.66472757  0.16457231  0.49999519  1
  Mn3.30+  Mn140  1  0.66849891  0.49870501  -0.00105998  1
  Mn3.30+  Mn141  1  0.66605318  0.50048919  0.50174933  1
  Mn3.30+  Mn142  1  0.66588517  0.83406970  -0.00081510  1
  Mn3.30+  Mn143  1  0.66592108  0.83535246  0.49991684  1
  O2-  O144  1  0.02607469  0.16023229  0.12399523  1
  O2-  O145  1  0.02462744  0.16196155  0.62542169  1
  O2-  O146  1  0.02581942  0.49480932  0.12437623  1
  O2-  O147  1  0.02710798  0.49507855  0.62818224  1
  O2-  O148  1  0.02481682  0.82775034  0.12316494  1
  O2-  O149  1  0.02194845  0.82579621  0.62511486  1
  O2-  O150  1  0.35385057  0.16447463  0.12505596  1
  O2-  O151  1  0.35929737  0.15547357  0.62587436  1
  O2-  O152  1  0.35102277  0.49358916  0.12312600  1
  O2-  O153  1  0.35762171  0.49467007  0.62686839  1
  O2-  O154  1  0.35895553  0.82805606  0.12397778  1
  O2-  O155  1  0.35982898  0.82684377  0.62744971  1
  O2-  O156  1  0.69062482  0.16541131  0.12718288  1
  O2-  O157  1  0.69193768  0.15679749  0.62430211  1
  O2-  O158  1  0.69387682  0.49286472  0.12282499  1
  O2-  O159  1  0.69074000  0.49172045  0.62492950  1
  O2-  O160  1  0.68943210  0.82579148  0.12708860  1
  O2-  O161  1  0.69008032  0.82437604  0.62478941  1
  O2-  O162  1  0.15052127  0.32997285  0.12303633  1
  O2-  O163  1  0.14059206  0.32743917  0.62613810  1
  O2-  O164  1  0.13715677  0.66060752  0.12280738  1
  O2-  O165  1  0.14242585  0.65973610  0.62743853  1
  O2-  O166  1  0.13841482  0.99209091  0.12383948  1
  O2-  O167  1  0.13975187  1.00446954  0.62439256  1
  O2-  O168  1  0.47634144  0.32963497  0.12304972  1
  O2-  O169  1  0.47170597  0.32766031  0.62583604  1
  O2-  O170  1  0.47684842  0.66538058  0.12477738  1
  O2-  O171  1  0.47385832  0.66262156  0.62684197  1
  O2-  O172  1  0.47564776  0.99303587  0.12557187  1
  O2-  O173  1  0.47218756  0.99317350  0.62454331  1
  O2-  O174  1  0.80687786  0.32717816  0.12364042  1
  O2-  O175  1  0.80626146  0.32529663  0.62457911  1
  O2-  O176  1  0.80585430  0.66060932  0.12255553  1
  O2-  O177  1  0.80473896  0.65926196  0.62594304  1
  O2-  O178  1  0.81456887  0.99506204  0.12542675  1
  O2-  O179  1  0.80416367  0.99770211  0.62410684  1
  O2-  O180  1  0.30898535  0.16563247  0.37509933  1
  O2-  O181  1  0.30932820  0.17016124  0.87383576  1
  O2-  O182  1  0.30893723  0.50824348  0.37539466  1
  O2-  O183  1  0.30988275  0.50605591  0.87469051  1
  O2-  O184  1  0.30752708  0.83806146  0.37254548  1
  O2-  O185  1  0.30695085  0.84289146  0.87558112  1
  O2-  O186  1  0.63895816  0.17604621  0.37795843  1
  O2-  O187  1  0.64182445  0.17359247  0.87037982  1
  O2-  O188  1  0.64321298  0.50139171  0.37867509  1
  O2-  O189  1  0.64200609  0.50403656  0.87349676  1
  O2-  O190  1  0.64376058  0.84177635  0.37662291  1
  O2-  O191  1  0.64348343  0.84191118  0.87184779  1
  O2-  O192  1  0.97511454  0.17267376  0.37614743  1
  O2-  O193  1  0.97236362  0.17198159  0.87447558  1
  O2-  O194  1  0.97364245  0.50677901  0.37391029  1
  O2-  O195  1  0.97061309  0.50690828  0.87391164  1
  O2-  O196  1  0.97436639  0.83866602  0.37855562  1
  O2-  O197  1  0.97352652  0.83986169  0.87327935  1
  O2-  O198  1  0.19405897  0.00631584  0.37463394  1
  O2-  O199  1  0.19262762  0.00686955  0.87625209  1
  O2-  O200  1  0.18660709  0.33748455  0.37695456  1
  O2-  O201  1  0.19384566  0.33747514  0.87333521  1
  O2-  O202  1  0.19321717  0.67196443  0.37352310  1
  O2-  O203  1  0.19474167  0.67301009  0.87624333  1
  O2-  O204  1  0.52339319  0.00709681  0.37714247  1
  O2-  O205  1  0.52527913  0.00289060  0.87248747  1
  O2-  O206  1  0.52290601  0.34096894  0.37844258  1
  O2-  O207  1  0.52667673  0.33797185  0.87206768  1
  O2-  O208  1  0.51608224  0.67181034  0.37501227  1
  O2-  O209  1  0.52834327  0.67141754  0.87365910  1
  O2-  O210  1  0.86070137  0.00392364  0.37661324  1
  O2-  O211  1  0.85730431  -0.00020202  0.87417556  1
  O2-  O212  1  0.86038065  0.33910023  0.37807483  1
  O2-  O213  1  0.85692805  0.34060773  0.87347008  1
  O2-  O214  1  0.85923121  0.67140276  0.37739193  1
  O2-  O215  1  0.85779335  0.67684880  0.87469995  1
  O2-  O216  1  0.23521582  0.09620493  0.02092655  1
  O2-  O217  1  0.23700685  0.09759235  0.51691213  1
  O2-  O218  1  0.23766590  0.42812938  0.01649124  1
  O2-  O219  1  0.23553086  0.42917441  0.51813257  1
  O2-  O220  1  0.23671476  0.76142499  0.02222828  1
  O2-  O221  1  0.24089497  0.76099876  0.51732998  1
  O2-  O222  1  0.57130472  0.09403521  0.01148147  1
  O2-  O223  1  0.57017763  0.09440290  0.52159323  1
  O2-  O224  1  0.57466326  0.42542528  0.01627042  1
  O2-  O225  1  0.57109165  0.42899737  0.51922237  1
  O2-  O226  1  0.57072922  0.76026115  0.01883062  1
  O2-  O227  1  0.57118485  0.76205415  0.51755123  1
  O2-  O228  1  0.90493331  0.09234646  0.02095626  1
  O2-  O229  1  0.90199550  0.09613139  0.51839110  1
  O2-  O230  1  0.90404212  0.42763717  0.01778918  1
  O2-  O231  1  0.90486264  0.42806166  0.52306323  1
  O2-  O232  1  0.90199239  0.76241076  0.01905795  1
  O2-  O233  1  0.90360138  0.75882856  0.52250783  1
  O2-  O234  1  0.26318274  0.26102685  0.23246648  1
  O2-  O235  1  0.26519127  0.26031158  0.72827890  1
  O2-  O236  1  0.25946330  0.59605853  0.22732001  1
  O2-  O237  1  0.26072736  0.59256766  0.72913344  1
  O2-  O238  1  0.26217704  0.92818929  0.22766045  1
  O2-  O239  1  0.26372719  0.93405431  0.73255141  1
  O2-  O240  1  0.59773168  0.26299911  0.23451279  1
  O2-  O241  1  0.59658727  0.26148872  0.72646523  1
  O2-  O242  1  0.59522844  0.59329062  0.23210548  1
  O2-  O243  1  0.59676239  0.59730084  0.72872777  1
  O2-  O244  1  0.59101140  0.92366598  0.23141041  1
  O2-  O245  1  0.59396530  0.92772450  0.72432261  1
  O2-  O246  1  0.92374001  0.25919014  0.23237564  1
  O2-  O247  1  0.92800308  0.26215357  0.72911218  1
  O2-  O248  1  0.93054161  0.59660923  0.22827312  1
  O2-  O249  1  0.92866709  0.59571468  0.72847531  1
  O2-  O250  1  0.93028098  0.92734988  0.23106834  1
  O2-  O251  1  0.92689003  0.93029221  0.72757750  1
  O2-  O252  1  0.09249508  0.24040937  0.27031962  1
  O2-  O253  1  0.09482804  0.24042011  0.77122036  1
  O2-  O254  1  0.09490363  0.57133346  0.27199426  1
  O2-  O255  1  0.09319843  0.57228090  0.77308133  1
  O2-  O256  1  0.09549664  0.90493274  0.27069542  1
  O2-  O257  1  0.09516801  0.90899840  0.77217362  1
  O2-  O258  1  0.43009816  0.23634660  0.27010313  1
  O2-  O259  1  0.42993220  0.23799060  0.77059568  1
  O2-  O260  1  0.42571724  0.57396352  0.27063694  1
  O2-  O261  1  0.43292146  0.57105702  0.76780636  1
  O2-  O262  1  0.42867328  0.90371134  0.27148508  1
  O2-  O263  1  0.42925017  0.90407176  0.77150442  1
  O2-  O264  1  0.75959367  0.23795781  0.27157027  1
  O2-  O265  1  0.76355872  0.23515666  0.77017789  1
  O2-  O266  1  0.76497501  0.56999064  0.26642706  1
  O2-  O267  1  0.76465662  0.57068000  0.77138231  1
  O2-  O268  1  0.76460919  0.90492382  0.26726469  1
  O2-  O269  1  0.76443546  0.90273694  0.76425971  1
  O2-  O270  1  0.07450852  0.07434072  0.47604892  1
  O2-  O271  1  0.07059985  0.07169947  0.97739953  1
  O2-  O272  1  0.06969655  0.40598834  0.48153951  1
  O2-  O273  1  0.07458674  0.40676119  0.97492016  1
  O2-  O274  1  0.07336707  0.73807864  0.47981449  1
  O2-  O275  1  0.07352845  0.74017536  0.97504621  1
  O2-  O276  1  0.40482111  0.06935863  0.48132709  1
  O2-  O277  1  0.40477181  0.07092100  0.98187978  1
  O2-  O278  1  0.40864133  0.40957383  0.48213876  1
  O2-  O279  1  0.40727728  0.40413776  0.97852153  1
  O2-  O280  1  0.40242733  0.73728141  0.48526481  1
  O2-  O281  1  0.40359655  0.73831901  0.97787169  1
  O2-  O282  1  0.73861391  0.07281248  0.47430313  1
  O2-  O283  1  0.73863744  0.07012044  0.97850138  1
  O2-  O284  1  0.74092882  0.40554740  0.47869912  1
  O2-  O285  1  0.73724651  0.40236937  0.98024756  1
  O2-  O286  1  0.74177410  0.74313418  0.48054252  1
  O2-  O287  1  0.73674652  0.73794307  0.97938114  1
  O2-  O288  1  0.09537209  0.23968119  0.48069191  1
  O2-  O289  1  0.09329234  0.24179356  0.97718038  1
  O2-  O290  1  0.09482246  0.57216274  0.47978710  1
  O2-  O291  1  0.09486033  0.57280217  0.97620806  1
  O2-  O292  1  0.09724725  0.90907844  0.47737761  1
  O2-  O293  1  0.09529744  0.90660061  0.97785109  1
  O2-  O294  1  0.43215625  0.23303658  0.48366701  1
  O2-  O295  1  0.42844395  0.23986956  0.97522747  1
  O2-  O296  1  0.42869726  0.57320284  0.48184067  1
  O2-  O297  1  0.42911222  0.57264477  0.97975851  1
  O2-  O298  1  0.43174779  0.90304793  0.47780377  1
  O2-  O299  1  0.42811827  0.90639395  0.97881602  1
  O2-  O300  1  0.76146382  0.23784030  0.47918057  1
  O2-  O301  1  0.76260797  0.23611235  0.97877576  1
  O2-  O302  1  0.76450819  0.56952744  0.48402946  1
  O2-  O303  1  0.76444017  0.57003293  0.97722631  1
  O2-  O304  1  0.76479359  0.90428008  0.48369800  1
  O2-  O305  1  0.76349507  0.90321400  0.98541293  1
  O2-  O306  1  0.07083533  0.07132677  0.27166154  1
  O2-  O307  1  0.07332178  0.07453363  0.77389127  1
  O2-  O308  1  0.07226943  0.40782228  0.27271735  1
  O2-  O309  1  0.06977691  0.40637664  0.77239899  1
  O2-  O310  1  0.07300801  0.74003861  0.27303117  1
  O2-  O311  1  0.07187130  0.73926455  0.77162387  1
  O2-  O312  1  0.40174486  0.06839759  0.26479050  1
  O2-  O313  1  0.40725907  0.07231337  0.77248284  1
  O2-  O314  1  0.40917382  0.40723945  0.26634111  1
  O2-  O315  1  0.40620835  0.40637750  0.77255201  1
  O2-  O316  1  0.40090746  0.73735449  0.26477577  1
  O2-  O317  1  0.40589362  0.73648058  0.77315364  1
  O2-  O318  1  0.73892316  0.07381499  0.27518587  1
  O2-  O319  1  0.73660507  0.06914095  0.77144857  1
  O2-  O320  1  0.74019163  0.40437166  0.27131822  1
  O2-  O321  1  0.73881592  0.40318667  0.76789139  1
  O2-  O322  1  0.74117461  0.74144535  0.26851649  1
  O2-  O323  1  0.73812466  0.74030996  0.77236903  1
  O2-  O324  1  0.23639575  0.09629484  0.22817808  1
  O2-  O325  1  0.23554464  0.09786790  0.73436133  1
  O2-  O326  1  0.23825892  0.42898486  0.23259796  1
  O2-  O327  1  0.23554241  0.42837769  0.73253012  1
  O2-  O328  1  0.23805123  0.76249673  0.22759157  1
  O2-  O329  1  0.24143967  0.76216075  0.73237263  1
  O2-  O330  1  0.57243712  0.09268797  0.23624438  1
  O2-  O331  1  0.56893263  0.09630820  0.73093933  1
  O2-  O332  1  0.57599715  0.42379062  0.23429002  1
  O2-  O333  1  0.56913591  0.42944879  0.73105199  1
  O2-  O334  1  0.57257669  0.75830462  0.23112643  1
  O2-  O335  1  0.56843683  0.76430261  0.73308919  1
  O2-  O336  1  0.90481097  0.09441076  0.23034779  1
  O2-  O337  1  0.90274821  0.09338114  0.73057408  1
  O2-  O338  1  0.90387413  0.43146921  0.23263699  1
  O2-  O339  1  0.90615651  0.42597713  0.72626267  1
  O2-  O340  1  0.90451694  0.76215583  0.23183704  1
  O2-  O341  1  0.90278632  0.76007470  0.72824592  1
  O2-  O342  1  0.26385147  0.26429977  0.01462434  1
  O2-  O343  1  0.26318511  0.25914970  0.52422111  1
  O2-  O344  1  0.25716224  0.59479789  0.02242753  1
  O2-  O345  1  0.26174987  0.59456392  0.52156226  1
  O2-  O346  1  0.26063587  0.92947082  0.02171622  1
  O2-  O347  1  0.26628013  0.93173304  0.51710487  1
  O2-  O348  1  0.59823183  0.26221989  0.01464551  1
  O2-  O349  1  0.59644798  0.26294977  0.52342060  1
  O2-  O350  1  0.60019254  0.59508699  0.01595666  1
  O2-  O351  1  0.59274111  0.59461832  0.52328486  1
  O2-  O352  1  0.59053988  0.92267823  0.01962230  1
  O2-  O353  1  0.59509534  0.92882062  0.52380295  1
  O2-  O354  1  0.92509146  0.25991703  0.01814612  1
  O2-  O355  1  0.92771580  0.26196769  0.52141901  1
  O2-  O356  1  0.92911209  0.59781225  0.02105218  1
  O2-  O357  1  0.92877988  0.59487501  0.52187227  1
  O2-  O358  1  0.92801953  0.92827004  0.01922025  1
  O2-  O359  1  0.92700197  0.93114184  0.52303127  1
