# generated using pymatgen
data_Sr7Ca15Pr50Mn72O216
_symmetry_space_group_name_H-M   'P 1'
_cell_length_a   16.55764136
_cell_length_b   16.60660456
_cell_length_c   15.59225499
_cell_angle_alpha   90.00027273
_cell_angle_beta   90.00277437
_cell_angle_gamma   89.99584256
_symmetry_Int_Tables_number   1
_chemical_formula_structural   Sr7Ca15Pr50Mn72O216
_chemical_formula_sum   'Sr7 Ca15 Pr50 Mn72 O216'
_cell_volume   4287.34312644
_cell_formula_units_Z   1
loop_
 _symmetry_equiv_pos_site_id
 _symmetry_equiv_pos_as_xyz
  1  'x, y, z'
loop_
 _atom_type_symbol
 _atom_type_oxidation_number
  Sr2+  2.0
  Ca2+  2.0
  Pr3+  3.0
  Mn3.30+  3.3
  O2-  -2.0
loop_
 _atom_site_type_symbol
 _atom_site_label
 _atom_site_symmetry_multiplicity
 _atom_site_fract_x
 _atom_site_fract_y
 _atom_site_fract_z
 _atom_site_occupancy
  Sr2+  Sr0  1  0.49933342  0.82451897  0.87699935  1
  Sr2+  Sr1  1  0.49846612  0.48920317  0.87363834  1
  Sr2+  Sr2  1  0.66951983  0.98895391  0.37699804  1
  Sr2+  Sr3  1  0.83328866  0.17751893  0.62446544  1
  Sr2+  Sr4  1  -0.00240956  0.67711199  0.12373224  1
  Sr2+  Sr5  1  0.66583542  0.34039071  0.62707958  1
  Sr2+  Sr6  1  0.33684155  0.32521923  0.87441479  1
  Ca2+  Ca7  1  0.66958122  0.32049296  0.87313208  1
  Ca2+  Ca8  1  0.83370781  0.84619233  0.62491451  1
  Ca2+  Ca9  1  0.66673304  0.67791777  0.62576808  1
  Ca2+  Ca10  1  1.00025549  0.65331799  0.87444941  1
  Ca2+  Ca11  1  0.83744246  0.18001758  0.12489153  1
  Ca2+  Ca12  1  0.82801910  0.48433344  0.87337607  1
  Ca2+  Ca13  1  0.16234597  0.81911291  0.37526257  1
  Ca2+  Ca14  1  0.16170905  0.81623953  0.87420058  1
  Ca2+  Ca15  1  0.83367742  0.51273452  0.62761197  1
  Ca2+  Ca16  1  0.15993763  0.48589223  0.37506983  1
  Ca2+  Ca17  1  0.33184051  0.01458229  0.62523943  1
  Ca2+  Ca18  1  0.67160838  0.65285316  0.37879106  1
  Ca2+  Ca19  1  0.50568509  0.18037611  0.62620788  1
  Ca2+  Ca20  1  0.50378214  0.84736695  0.12415869  1
  Ca2+  Ca21  1  -0.00572698  0.01555528  0.12450727  1
  Pr3+  Pr22  1  0.49860695  0.16007831  0.87190350  1
  Pr3+  Pr23  1  0.66901398  0.98736593  0.87372064  1
  Pr3+  Pr24  1  0.33687600  0.98866865  0.87421936  1
  Pr3+  Pr25  1  0.67061815  0.32051736  0.37616286  1
  Pr3+  Pr26  1  0.16509884  0.15375523  0.87540489  1
  Pr3+  Pr27  1  1.00249761  0.32146304  0.37497290  1
  Pr3+  Pr28  1  0.50060686  0.48944171  0.37643712  1
  Pr3+  Pr29  1  0.66307568  0.68070056  0.12551658  1
  Pr3+  Pr30  1  1.00365908  0.98420279  0.37481108  1
  Pr3+  Pr31  1  -0.00443525  0.34668287  0.12375882  1
  Pr3+  Pr32  1  0.33441598  0.32093858  0.37587681  1
  Pr3+  Pr33  1  0.83007586  0.81958584  0.87220149  1
  Pr3+  Pr34  1  0.83046075  0.15209773  0.37573305  1
  Pr3+  Pr35  1  1.00084924  0.32098585  0.87512843  1
  Pr3+  Pr36  1  0.66496172  0.01288188  0.62511552  1
  Pr3+  Pr37  1  0.33460504  0.34440970  0.62665963  1
  Pr3+  Pr38  1  0.33729491  0.65566105  0.87392637  1
  Pr3+  Pr39  1  0.82931220  0.15593992  0.87399589  1
  Pr3+  Pr40  1  0.82643258  0.81836228  0.37747060  1
  Pr3+  Pr41  1  0.16334397  0.15268847  0.37479412  1
  Pr3+  Pr42  1  0.82945333  0.49045899  0.37529299  1
  Pr3+  Pr43  1  0.16558715  0.84362788  0.12519533  1
  Pr3+  Pr44  1  0.16351094  0.48930138  0.87432645  1
  Pr3+  Pr45  1  0.17178376  0.84744230  0.62489844  1
  Pr3+  Pr46  1  0.16858199  0.17845307  0.12506380  1
  Pr3+  Pr47  1  -0.00358521  0.01236587  0.62499129  1
  Pr3+  Pr48  1  0.50721848  0.51330537  0.62751039  1
  Pr3+  Pr49  1  0.84054088  0.84726782  0.12436981  1
  Pr3+  Pr50  1  0.33062140  0.34750945  0.12396211  1
  Pr3+  Pr51  1  -0.00669163  0.68134741  0.62632206  1
  Pr3+  Pr52  1  0.50401146  0.17873406  0.12549435  1
  Pr3+  Pr53  1  0.16995945  0.17782660  0.62501860  1
  Pr3+  Pr54  1  0.33354176  0.01001243  0.12438188  1
  Pr3+  Pr55  1  0.33658293  0.98559605  0.37536551  1
  Pr3+  Pr56  1  1.00268243  0.65388212  0.37478329  1
  Pr3+  Pr57  1  0.83608734  0.51498434  0.12273088  1
  Pr3+  Pr58  1  0.50204954  0.51195983  0.12268507  1
  Pr3+  Pr59  1  0.33293015  0.65493046  0.37618011  1
  Pr3+  Pr60  1  -0.00917018  0.34933886  0.62603501  1
  Pr3+  Pr61  1  0.66558110  0.01107279  0.12515598  1
  Pr3+  Pr62  1  0.66621274  0.34593987  0.12360337  1
  Pr3+  Pr63  1  0.16776147  0.51502822  0.12486312  1
  Pr3+  Pr64  1  0.16758038  0.51296790  0.62448114  1
  Pr3+  Pr65  1  0.33054458  0.68002925  0.12349709  1
  Pr3+  Pr66  1  0.33141201  0.67866959  0.62649788  1
  Pr3+  Pr67  1  0.66946549  0.65138101  0.87257701  1
  Pr3+  Pr68  1  1.00510929  0.98548294  0.87486917  1
  Pr3+  Pr69  1  0.50203903  0.84393122  0.62666781  1
  Pr3+  Pr70  1  0.49961625  0.15288255  0.37779717  1
  Pr3+  Pr71  1  0.50162647  0.82008532  0.37407631  1
  Mn3.30+  Mn72  1  0.16481756  -0.00220170  0.00155638  1
  Mn3.30+  Mn73  1  0.16842053  -0.00171639  0.49934980  1
  Mn3.30+  Mn74  1  0.16575918  0.33355124  -0.00098730  1
  Mn3.30+  Mn75  1  0.16537446  0.33425127  0.50121940  1
  Mn3.30+  Mn76  1  0.16421739  0.66862644  -0.00233929  1
  Mn3.30+  Mn77  1  0.16469718  0.66720274  0.49954621  1
  Mn3.30+  Mn78  1  0.50097610  0.00025210  0.00010530  1
  Mn3.30+  Mn79  1  0.49896296  -0.00087749  0.50191973  1
  Mn3.30+  Mn80  1  0.50124700  0.33392567  -0.00115814  1
  Mn3.30+  Mn81  1  0.50124925  0.33267377  0.50032485  1
  Mn3.30+  Mn82  1  0.49997082  0.66867538  0.00034780  1
  Mn3.30+  Mn83  1  0.50340539  0.66670015  0.49925791  1
  Mn3.30+  Mn84  1  0.83606728  0.00089742  -0.00022982  1
  Mn3.30+  Mn85  1  0.83422339  -0.00199691  0.50135080  1
  Mn3.30+  Mn86  1  0.83148869  0.33293780  -0.00104063  1
  Mn3.30+  Mn87  1  0.83324087  0.33565857  0.50161155  1
  Mn3.30+  Mn88  1  0.83431997  0.66596720  -0.00363565  1
  Mn3.30+  Mn89  1  0.83114773  0.66636036  0.50393479  1
  Mn3.30+  Mn90  1  -0.00174983  0.16551070  0.24847311  1
  Mn3.30+  Mn91  1  -0.00064866  0.16674091  0.75031232  1
  Mn3.30+  Mn92  1  -0.00020537  0.50072932  0.24999587  1
  Mn3.30+  Mn93  1  -0.00416565  0.50208411  0.75210403  1
  Mn3.30+  Mn94  1  -0.00010034  0.83304855  0.25010341  1
  Mn3.30+  Mn95  1  0.00061329  0.83213603  0.75019106  1
  Mn3.30+  Mn96  1  0.33350786  0.16588045  0.25030284  1
  Mn3.30+  Mn97  1  0.33483464  0.16667610  0.74777941  1
  Mn3.30+  Mn98  1  0.33112848  0.50062294  0.25312095  1
  Mn3.30+  Mn99  1  0.33438944  0.50037243  0.74826013  1
  Mn3.30+  Mn100  1  0.33341436  0.83271631  0.24978092  1
  Mn3.30+  Mn101  1  0.33210151  0.83496335  0.75147364  1
  Mn3.30+  Mn102  1  0.67012706  0.16574557  0.24871420  1
  Mn3.30+  Mn103  1  0.66499700  0.16833635  0.75016259  1
  Mn3.30+  Mn104  1  0.66663339  0.50181346  0.25030768  1
  Mn3.30+  Mn105  1  0.67011512  0.49795657  0.74963548  1
  Mn3.30+  Mn106  1  0.66723735  0.83310858  0.25016495  1
  Mn3.30+  Mn107  1  0.66776938  0.83118193  0.74784993  1
  Mn3.30+  Mn108  1  0.16475198  -0.00226381  0.24836691  1
  Mn3.30+  Mn109  1  0.16880829  -0.00165427  0.75032830  1
  Mn3.30+  Mn110  1  0.16592149  0.33459121  0.25050481  1
  Mn3.30+  Mn111  1  0.16529686  0.33328543  0.74965765  1
  Mn3.30+  Mn112  1  0.16559312  0.66800707  0.25099638  1
  Mn3.30+  Mn113  1  0.16329974  0.66784042  0.75091556  1
  Mn3.30+  Mn114  1  0.50174350  -0.00216371  0.25049121  1
  Mn3.30+  Mn115  1  0.49850914  0.00122965  0.74777694  1
  Mn3.30+  Mn116  1  0.50046119  0.33359479  0.25074117  1
  Mn3.30+  Mn117  1  0.50191273  0.33322823  0.75034552  1
  Mn3.30+  Mn118  1  0.50094826  0.66743167  0.25083598  1
  Mn3.30+  Mn119  1  0.50199709  0.66818423  0.74998780  1
  Mn3.30+  Mn120  1  0.83518166  0.00005241  0.24894674  1
  Mn3.30+  Mn121  1  0.83492311  -0.00075829  0.74931389  1
  Mn3.30+  Mn122  1  0.83388982  0.33294971  0.24919273  1
  Mn3.30+  Mn123  1  0.83098189  0.33555949  0.75066094  1
  Mn3.30+  Mn124  1  0.83181636  0.66768961  0.25043633  1
  Mn3.30+  Mn125  1  0.83313426  0.66449775  0.74895123  1
  Mn3.30+  Mn126  1  -0.00220152  0.16520791  0.00130619  1
  Mn3.30+  Mn127  1  -0.00015826  0.16692986  0.49969910  1
  Mn3.30+  Mn128  1  -0.00274698  0.50201272  -0.00331007  1
  Mn3.30+  Mn129  1  -0.00141614  0.50140772  0.50069614  1
  Mn3.30+  Mn130  1  0.00102861  0.83211421  -0.00206411  1
  Mn3.30+  Mn131  1  -0.00066227  0.83273706  0.50078334  1
  Mn3.30+  Mn132  1  0.33397596  0.16750836  -0.00026607  1
  Mn3.30+  Mn133  1  0.33454484  0.16511854  0.50217516  1
  Mn3.30+  Mn134  1  0.33397885  0.50129459  0.00005303  1
  Mn3.30+  Mn135  1  0.33223000  0.49986029  0.49907184  1
  Mn3.30+  Mn136  1  0.33264153  0.83401192  -0.00007333  1
  Mn3.30+  Mn137  1  0.33255332  0.83323807  0.49884940  1
  Mn3.30+  Mn138  1  0.66895175  0.16739117  0.00066150  1
  Mn3.30+  Mn139  1  0.66599528  0.16652567  0.50117026  1
  Mn3.30+  Mn140  1  0.66835251  0.49830075  -0.00314513  1
  Mn3.30+  Mn141  1  0.66855573  0.50161919  0.50330969  1
  Mn3.30+  Mn142  1  0.66701884  0.83248956  -0.00042009  1
  Mn3.30+  Mn143  1  0.66778741  0.83125588  0.50244108  1
  O2-  O144  1  0.02581043  0.16171409  0.12505977  1
  O2-  O145  1  0.02557709  0.16153800  0.62455283  1
  O2-  O146  1  0.02377942  0.49526119  0.12263670  1
  O2-  O147  1  0.02455706  0.49610402  0.62544702  1
  O2-  O148  1  0.02225252  0.82860685  0.12175703  1
  O2-  O149  1  0.02818029  0.82860419  0.62653629  1
  O2-  O150  1  0.35935648  0.16003475  0.12605046  1
  O2-  O151  1  0.36158632  0.15983940  0.62306439  1
  O2-  O152  1  0.35716059  0.49694847  0.12939889  1
  O2-  O153  1  0.36031536  0.49560297  0.62242105  1
  O2-  O154  1  0.36125814  0.82710600  0.12588944  1
  O2-  O155  1  0.35780181  0.82507893  0.62365801  1
  O2-  O156  1  0.69549194  0.15958121  0.12504725  1
  O2-  O157  1  0.68444044  0.16200889  0.62530660  1
  O2-  O158  1  0.69222849  0.49463244  0.12204335  1
  O2-  O159  1  0.69294084  0.49297140  0.62610456  1
  O2-  O160  1  0.69544336  0.82782703  0.12378470  1
  O2-  O161  1  0.69211582  0.82555662  0.62588927  1
  O2-  O162  1  0.14054357  0.32816346  0.12356041  1
  O2-  O163  1  0.13686277  0.32603287  0.62513172  1
  O2-  O164  1  0.14695518  0.66285894  0.12398160  1
  O2-  O165  1  0.13880853  0.66090666  0.62477303  1
  O2-  O166  1  0.13568407  0.99133927  0.12438622  1
  O2-  O167  1  0.14002719  0.99471014  0.62336365  1
  O2-  O168  1  0.47527315  0.32781023  0.12751277  1
  O2-  O169  1  0.47781657  0.32779566  0.62141672  1
  O2-  O170  1  0.47394135  0.65865101  0.12606843  1
  O2-  O171  1  0.47528917  0.66319673  0.62265668  1
  O2-  O172  1  0.47770144  0.99643877  0.12637056  1
  O2-  O173  1  0.47166807  0.98993301  0.62370535  1
  O2-  O174  1  0.80954440  0.32594438  0.12491105  1
  O2-  O175  1  0.81585474  0.33030967  0.62521770  1
  O2-  O176  1  0.80831095  0.66312382  0.12195547  1
  O2-  O177  1  0.80708215  0.65572606  0.62612789  1
  O2-  O178  1  0.80892932  0.99255067  0.12317843  1
  O2-  O179  1  0.81140322  0.99434304  0.62625223  1
  O2-  O180  1  0.30667944  0.17214652  0.37470618  1
  O2-  O181  1  0.30865717  0.16956249  0.87607153  1
  O2-  O182  1  0.30260977  0.50581452  0.37612511  1
  O2-  O183  1  0.30903913  0.50585495  0.87259161  1
  O2-  O184  1  0.30467390  0.83864654  0.37505536  1
  O2-  O185  1  0.30440424  0.84149300  0.87541719  1
  O2-  O186  1  0.64430945  0.17016018  0.37391964  1
  O2-  O187  1  0.64275656  0.16877104  0.87643500  1
  O2-  O188  1  0.64341095  0.50730334  0.37675269  1
  O2-  O189  1  0.64510964  0.50616952  0.87514265  1
  O2-  O190  1  0.64464563  0.83730419  0.37663186  1
  O2-  O191  1  0.64883611  0.83874087  0.87340855  1
  O2-  O192  1  0.97534806  0.17300880  0.37360284  1
  O2-  O193  1  0.97481464  0.17087600  0.87661959  1
  O2-  O194  1  0.97385541  0.50469336  0.37644821  1
  O2-  O195  1  0.97198409  0.50671463  0.87471124  1
  O2-  O196  1  0.97172964  0.83768251  0.37670579  1
  O2-  O197  1  0.97341527  0.84098257  0.87372180  1
  O2-  O198  1  0.19343170  0.00684157  0.37432050  1
  O2-  O199  1  0.19333603  0.00794584  0.87756360  1
  O2-  O200  1  0.19050114  0.33901648  0.37653537  1
  O2-  O201  1  0.18648869  0.33971573  0.87533326  1
  O2-  O202  1  0.19001299  0.67552755  0.37629516  1
  O2-  O203  1  0.19352567  0.66962385  0.87393547  1
  O2-  O204  1  0.52031959  0.00382212  0.37567899  1
  O2-  O205  1  0.52495667  0.00902029  0.87457128  1
  O2-  O206  1  0.52538133  0.34031849  0.37418683  1
  O2-  O207  1  0.52452730  0.33166838  0.87796086  1
  O2-  O208  1  0.52949421  0.67172071  0.37506345  1
  O2-  O209  1  0.52404599  0.67009745  0.87666455  1
  O2-  O210  1  0.85852627  0.00366490  0.37540328  1
  O2-  O211  1  0.85958307  0.00668493  0.87485535  1
  O2-  O212  1  0.85882941  0.34246830  0.37418453  1
  O2-  O213  1  0.85844288  0.33730978  0.87589564  1
  O2-  O214  1  0.85804463  0.67152761  0.37820062  1
  O2-  O215  1  0.85954142  0.67532721  0.87311894  1
  O2-  O216  1  0.23827621  0.09179598  0.02305575  1
  O2-  O217  1  0.23688558  0.09629154  0.51831010  1
  O2-  O218  1  0.23863582  0.42901932  0.02087908  1
  O2-  O219  1  0.23894207  0.42390106  0.52532225  1
  O2-  O220  1  0.23870691  0.76097867  0.02137884  1
  O2-  O221  1  0.23965693  0.75957415  0.52284312  1
  O2-  O222  1  0.57518956  0.09456692  0.02274309  1
  O2-  O223  1  0.56931487  0.09230672  0.51967220  1
  O2-  O224  1  0.57347493  0.42613383  0.02348711  1
  O2-  O225  1  0.56985734  0.43152504  0.51557795  1
  O2-  O226  1  0.57140956  0.75961403  0.02450600  1
  O2-  O227  1  0.56855287  0.76445118  0.51735271  1
  O2-  O228  1  0.90255714  0.09794146  0.01988442  1
  O2-  O229  1  0.90994001  0.09335155  0.51633951  1
  O2-  O230  1  0.90410256  0.42561556  0.02186577  1
  O2-  O231  1  0.90356367  0.43207772  0.52090236  1
  O2-  O232  1  0.90180665  0.76578186  0.01409733  1
  O2-  O233  1  0.90108789  0.76152324  0.52399000  1
  O2-  O234  1  0.26158337  0.26086650  0.22964330  1
  O2-  O235  1  0.26152630  0.25730411  0.72545847  1
  O2-  O236  1  0.26153890  0.59503800  0.23063823  1
  O2-  O237  1  0.25843034  0.59444202  0.72814183  1
  O2-  O238  1  0.26219721  0.92706620  0.22688830  1
  O2-  O239  1  0.26310901  0.92970161  0.72674682  1
  O2-  O240  1  0.59812741  0.25928999  0.22948333  1
  O2-  O241  1  0.59136149  0.25795694  0.73586852  1
  O2-  O242  1  0.59199860  0.59245271  0.22597896  1
  O2-  O243  1  0.59823677  0.59274187  0.73008027  1
  O2-  O244  1  0.59689406  0.92695909  0.22959017  1
  O2-  O245  1  0.59405382  0.92778226  0.72956322  1
  O2-  O246  1  0.93230154  0.26343502  0.23227587  1
  O2-  O247  1  0.92959999  0.26541317  0.73628897  1
  O2-  O248  1  0.92481543  0.59342130  0.23421253  1
  O2-  O249  1  0.92878284  0.59656049  0.72942118  1
  O2-  O250  1  0.93150549  0.93092910  0.22974776  1
  O2-  O251  1  0.93366252  0.92852495  0.73254728  1
  O2-  O252  1  0.09534927  0.23748534  0.26911997  1
  O2-  O253  1  0.09397285  0.23727635  0.77153826  1
  O2-  O254  1  0.09445919  0.57101394  0.27007608  1
  O2-  O255  1  0.09592116  0.56991390  0.76827596  1
  O2-  O256  1  0.09585146  0.90326775  0.27275515  1
  O2-  O257  1  0.09883177  0.90357523  0.77116585  1
  O2-  O258  1  0.42954723  0.23881407  0.27194817  1
  O2-  O259  1  0.42763856  0.23923835  0.76604761  1
  O2-  O260  1  0.42530487  0.57189072  0.27425234  1
  O2-  O261  1  0.42528529  0.57742907  0.76540537  1
  O2-  O262  1  0.42503535  0.90468237  0.27229389  1
  O2-  O263  1  0.42634639  0.90931660  0.76987200  1
  O2-  O264  1  0.76173640  0.24028810  0.27380940  1
  O2-  O265  1  0.76104361  0.23978104  0.76955383  1
  O2-  O266  1  0.76209971  0.57120367  0.26576878  1
  O2-  O267  1  0.76254999  0.57103452  0.77436199  1
  O2-  O268  1  0.76488375  0.90085816  0.26586877  1
  O2-  O269  1  0.76026086  0.90724978  0.76930267  1
  O2-  O270  1  0.07439237  0.07022829  0.47860958  1
  O2-  O271  1  0.07354595  0.07257808  0.97809245  1
  O2-  O272  1  0.06798048  0.40536122  0.48263463  1
  O2-  O273  1  0.06964492  0.40788182  0.97892134  1
  O2-  O274  1  0.06713090  0.73737610  0.48215459  1
  O2-  O275  1  0.07110438  0.73695981  0.97671619  1
  O2-  O276  1  0.40446724  0.07297917  0.47607915  1
  O2-  O277  1  0.40643504  0.07472097  0.98037247  1
  O2-  O278  1  0.40522210  0.40538836  0.47827572  1
  O2-  O279  1  0.40612481  0.40663389  0.98970681  1
  O2-  O280  1  0.40541275  0.73842348  0.47780808  1
  O2-  O281  1  0.40116101  0.73831239  0.98179761  1
  O2-  O282  1  0.74276614  0.07447599  0.48557221  1
  O2-  O283  1  0.73906593  0.07069171  0.97796461  1
  O2-  O284  1  0.73952888  0.40764196  0.47603569  1
  O2-  O285  1  0.73585989  0.40030471  0.98282651  1
  O2-  O286  1  0.73774188  0.73702561  0.47892744  1
  O2-  O287  1  0.73769500  0.73615806  0.97884132  1
  O2-  O288  1  0.09547897  0.23790628  0.47848736  1
  O2-  O289  1  0.09338714  0.23725953  0.98031758  1
  O2-  O290  1  0.09520194  0.57036483  0.47844164  1
  O2-  O291  1  0.09713566  0.57098254  0.98164332  1
  O2-  O292  1  0.09806048  0.90405674  0.47854275  1
  O2-  O293  1  0.09628794  0.90258599  0.97586874  1
  O2-  O294  1  0.42501192  0.24007190  0.47533156  1
  O2-  O295  1  0.43217100  0.23786043  0.98505640  1
  O2-  O296  1  0.42889470  0.57422431  0.47746391  1
  O2-  O297  1  0.42583858  0.57615658  0.98320036  1
  O2-  O298  1  0.42832738  0.90361919  0.47747949  1
  O2-  O299  1  0.42166090  0.91130701  0.98187172  1
  O2-  O300  1  0.76159122  0.24256368  0.47755099  1
  O2-  O301  1  0.76216785  0.23749072  0.97951692  1
  O2-  O302  1  0.76301596  0.57199672  0.47991221  1
  O2-  O303  1  0.76214745  0.57023414  0.97867426  1
  O2-  O304  1  0.76262331  0.90273429  0.48503947  1
  O2-  O305  1  0.76490713  0.90646386  0.97922713  1
  O2-  O306  1  0.07152755  0.07343339  0.27274969  1
  O2-  O307  1  0.07495757  0.07041023  0.77004989  1
  O2-  O308  1  0.07009514  0.40435973  0.26751546  1
  O2-  O309  1  0.06788316  0.40846453  0.77027112  1
  O2-  O310  1  0.07078045  0.73950794  0.26936018  1
  O2-  O311  1  0.06757395  0.73516344  0.76972810  1
  O2-  O312  1  0.40539753  0.07241336  0.27030770  1
  O2-  O313  1  0.40562633  0.07513218  0.77274790  1
  O2-  O314  1  0.40210728  0.40719851  0.27216956  1
  O2-  O315  1  0.40718707  0.40528826  0.76113164  1
  O2-  O316  1  0.40515512  0.73815275  0.27340464  1
  O2-  O317  1  0.40089280  0.74108461  0.76716372  1
  O2-  O318  1  0.74165129  0.07267074  0.26832662  1
  O2-  O319  1  0.73792943  0.07375377  0.76884198  1
  O2-  O320  1  0.73722413  0.40621250  0.26866394  1
  O2-  O321  1  0.73788189  0.40371117  0.77369909  1
  O2-  O322  1  0.73521292  0.73590633  0.27058830  1
  O2-  O323  1  0.74042388  0.73646242  0.77127688  1
  O2-  O324  1  0.23755734  0.09236582  0.22750610  1
  O2-  O325  1  0.23796454  0.09543847  0.73141760  1
  O2-  O326  1  0.23931155  0.42743405  0.22672619  1
  O2-  O327  1  0.23854895  0.42713675  0.72813851  1
  O2-  O328  1  0.24161617  0.76088229  0.22734875  1
  O2-  O329  1  0.23686699  0.76022459  0.72840469  1
  O2-  O330  1  0.57471070  0.09487767  0.23066118  1
  O2-  O331  1  0.57069601  0.09229668  0.72797825  1
  O2-  O332  1  0.57163765  0.42871580  0.23037985  1
  O2-  O333  1  0.57205267  0.42863753  0.73134453  1
  O2-  O334  1  0.57165357  0.76414981  0.22753241  1
  O2-  O335  1  0.57239029  0.76070349  0.73045221  1
  O2-  O336  1  0.90367349  0.09949614  0.23176752  1
  O2-  O337  1  0.90912436  0.09357968  0.73182096  1
  O2-  O338  1  0.90456566  0.42833153  0.22772794  1
  O2-  O339  1  0.90459779  0.42986376  0.72965439  1
  O2-  O340  1  0.90132622  0.76433522  0.23455610  1
  O2-  O341  1  0.90215762  0.76245469  0.72719679  1
  O2-  O342  1  0.26055383  0.25845516  0.02373812  1
  O2-  O343  1  0.26241574  0.25937584  0.52174789  1
  O2-  O344  1  0.26021363  0.59519351  0.01891555  1
  O2-  O345  1  0.26104064  0.59434375  0.52180303  1
  O2-  O346  1  0.25929025  0.92664241  0.02546056  1
  O2-  O347  1  0.26346735  0.93032326  0.52205996  1
  O2-  O348  1  0.59465896  0.25882446  0.02528117  1
  O2-  O349  1  0.59238575  0.26069873  0.51064516  1
  O2-  O350  1  0.59451268  0.59392348  0.02041880  1
  O2-  O351  1  0.59526849  0.59405456  0.52499493  1
  O2-  O352  1  0.59742105  0.92880090  0.01628655  1
  O2-  O353  1  0.59435875  0.92552143  0.52463748  1
  O2-  O354  1  0.93007065  0.26353213  0.01699106  1
  O2-  O355  1  0.93018179  0.26652520  0.51424295  1
  O2-  O356  1  0.92430996  0.59237166  0.01959339  1
  O2-  O357  1  0.93087789  0.59861763  0.51668583  1
  O2-  O358  1  0.93131169  0.93166143  0.01884816  1
  O2-  O359  1  0.93277548  0.92915232  0.51816019  1
