# generated using pymatgen
data_Sr7Ca15Pr50Mn72O216
_symmetry_space_group_name_H-M   'P 1'
_cell_length_a   16.55794440
_cell_length_b   16.60395892
_cell_length_c   15.59474570
_cell_angle_alpha   89.99445870
_cell_angle_beta   90.00203623
_cell_angle_gamma   89.98196643
_symmetry_Int_Tables_number   1
_chemical_formula_structural   Sr7Ca15Pr50Mn72O216
_chemical_formula_sum   'Sr7 Ca15 Pr50 Mn72 O216'
_cell_volume   4287.42310063
_cell_formula_units_Z   1
loop_
 _symmetry_equiv_pos_site_id
 _symmetry_equiv_pos_as_xyz
  1  'x, y, z'
loop_
 _atom_type_symbol
 _atom_type_oxidation_number
  Sr2+  2.0
  Ca2+  2.0
  Pr3+  3.0
  Mn3.30+  3.3
  O2-  -2.0
loop_
 _atom_site_type_symbol
 _atom_site_label
 _atom_site_symmetry_multiplicity
 _atom_site_fract_x
 _atom_site_fract_y
 _atom_site_fract_z
 _atom_site_occupancy
  Sr2+  Sr0  1  0.17012598  0.84645665  0.12467605  1
  Sr2+  Sr1  1  0.83251179  0.17416111  0.62556628  1
  Sr2+  Sr2  1  -0.00349296  0.01329033  0.62549265  1
  Sr2+  Sr3  1  0.99953822  0.32451857  0.37439062  1
  Sr2+  Sr4  1  0.50019155  0.82529408  0.87500557  1
  Sr2+  Sr5  1  0.50398299  0.17774525  0.62467484  1
  Sr2+  Sr6  1  0.82946197  0.48491789  0.37490655  1
  Ca2+  Ca7  1  0.66642749  0.98779113  0.87223336  1
  Ca2+  Ca8  1  0.33139519  0.01702399  0.62649174  1
  Ca2+  Ca9  1  0.33227698  0.35068313  0.12485086  1
  Ca2+  Ca10  1  0.49605474  0.48495610  0.87657899  1
  Ca2+  Ca11  1  0.82885543  0.81884460  0.37634459  1
  Ca2+  Ca12  1  0.33965030  0.64754776  0.37333556  1
  Ca2+  Ca13  1  0.16476733  0.48700431  0.87628836  1
  Ca2+  Ca14  1  0.66137109  0.01383162  0.12350565  1
  Ca2+  Ca15  1  0.66271796  0.01573632  0.62658983  1
  Ca2+  Ca16  1  0.66922151  0.32145323  0.37878158  1
  Ca2+  Ca17  1  0.16554384  0.15163452  0.87552451  1
  Ca2+  Ca18  1  0.50094523  0.51317416  0.12451844  1
  Ca2+  Ca19  1  0.32956249  0.01255968  0.12286572  1
  Ca2+  Ca20  1  0.66218768  0.34425703  0.62183271  1
  Ca2+  Ca21  1  0.49793059  0.48378377  0.37370667  1
  Pr3+  Pr22  1  0.66587947  0.65360743  0.87486906  1
  Pr3+  Pr23  1  0.83545834  0.84587639  0.12728064  1
  Pr3+  Pr24  1  0.82802066  0.82215763  0.87328342  1
  Pr3+  Pr25  1  0.33429766  0.34510806  0.62487516  1
  Pr3+  Pr26  1  0.33176013  0.67867834  0.62298916  1
  Pr3+  Pr27  1  0.33755316  0.98926369  0.37456812  1
  Pr3+  Pr28  1  0.66259231  0.67855221  0.62375340  1
  Pr3+  Pr29  1  0.16548710  0.82168247  0.37474012  1
  Pr3+  Pr30  1  0.66253912  0.67778879  0.12615386  1
  Pr3+  Pr31  1  1.00635048  0.31848247  0.87589882  1
  Pr3+  Pr32  1  -0.00333918  0.67769860  0.62410253  1
  Pr3+  Pr33  1  0.83189170  0.50516893  0.62326014  1
  Pr3+  Pr34  1  0.17186946  0.51217130  0.12512152  1
  Pr3+  Pr35  1  0.33909161  0.65264514  0.87588293  1
  Pr3+  Pr36  1  -0.00124880  0.01223570  0.12443671  1
  Pr3+  Pr37  1  0.50443413  0.85056478  0.62548502  1
  Pr3+  Pr38  1  0.83462832  0.84803004  0.62214608  1
  Pr3+  Pr39  1  0.66127053  0.34764161  0.12572709  1
  Pr3+  Pr40  1  0.49946183  0.17744659  0.12480722  1
  Pr3+  Pr41  1  0.17107032  0.51147530  0.62495128  1
  Pr3+  Pr42  1  0.16565604  0.82329444  0.87494724  1
  Pr3+  Pr43  1  1.00153785  0.98892524  0.87260888  1
  Pr3+  Pr44  1  0.16340198  0.15580504  0.37471263  1
  Pr3+  Pr45  1  0.66962689  0.65111653  0.37513141  1
  Pr3+  Pr46  1  -0.00208499  0.34643600  0.12588497  1
  Pr3+  Pr47  1  0.82825033  0.14965307  0.87447488  1
  Pr3+  Pr48  1  0.33695453  0.98741633  0.87498851  1
  Pr3+  Pr49  1  0.33804836  0.32239546  0.37341337  1
  Pr3+  Pr50  1  0.83517929  0.51317293  0.12729024  1
  Pr3+  Pr51  1  0.50077126  0.15670138  0.37560523  1
  Pr3+  Pr52  1  -0.00126194  0.68002904  0.12631494  1
  Pr3+  Pr53  1  0.83015032  0.48635913  0.87582039  1
  Pr3+  Pr54  1  0.83411476  0.17842416  0.12396991  1
  Pr3+  Pr55  1  0.66637962  0.32064893  0.87413191  1
  Pr3+  Pr56  1  0.50318059  0.84819663  0.12487603  1
  Pr3+  Pr57  1  0.17039402  0.17863605  0.62736133  1
  Pr3+  Pr58  1  -0.00355450  0.34075090  0.62429953  1
  Pr3+  Pr59  1  1.00583122  0.65217296  0.87488198  1
  Pr3+  Pr60  1  0.50408710  0.50858689  0.62552921  1
  Pr3+  Pr61  1  1.00014713  0.65444814  0.37499699  1
  Pr3+  Pr62  1  0.16498436  0.48736650  0.37425808  1
  Pr3+  Pr63  1  0.33663569  0.32147719  0.87651831  1
  Pr3+  Pr64  1  0.17405071  0.18081317  0.12297039  1
  Pr3+  Pr65  1  0.49459772  0.81757440  0.37495374  1
  Pr3+  Pr66  1  0.67056030  0.98801369  0.37593161  1
  Pr3+  Pr67  1  0.83015321  0.16006843  0.37649356  1
  Pr3+  Pr68  1  0.33286926  0.67868395  0.12649410  1
  Pr3+  Pr69  1  0.49825351  0.15321714  0.87449882  1
  Pr3+  Pr70  1  1.00052978  0.98992786  0.37691965  1
  Pr3+  Pr71  1  0.17052292  0.85150450  0.62472194  1
  Mn3.30+  Mn72  1  0.16810041  0.00114418  -0.00060211  1
  Mn3.30+  Mn73  1  0.16878599  0.00236870  0.50116366  1
  Mn3.30+  Mn74  1  0.16969623  0.33441485  -0.00077162  1
  Mn3.30+  Mn75  1  0.16693144  0.33341793  0.50041998  1
  Mn3.30+  Mn76  1  0.16859207  0.66682769  -0.00034338  1
  Mn3.30+  Mn77  1  0.16855211  0.66720907  0.49847118  1
  Mn3.30+  Mn78  1  0.50002565  0.00006869  0.00091402  1
  Mn3.30+  Mn79  1  0.50145601  0.00165075  0.50097168  1
  Mn3.30+  Mn80  1  0.49805636  0.33505995  0.00228173  1
  Mn3.30+  Mn81  1  0.50324628  0.33360177  0.49795816  1
  Mn3.30+  Mn82  1  0.49968920  0.66560879  -0.00008730  1
  Mn3.30+  Mn83  1  0.49810836  0.66393841  0.49852837  1
  Mn3.30+  Mn84  1  0.82923108  -0.00132157  0.00165909  1
  Mn3.30+  Mn85  1  0.83239831  0.00085153  0.49916627  1
  Mn3.30+  Mn86  1  0.83335317  0.33296619  0.00006548  1
  Mn3.30+  Mn87  1  0.82958037  0.33153534  0.50107620  1
  Mn3.30+  Mn88  1  0.83331955  0.66694869  -0.00059115  1
  Mn3.30+  Mn89  1  0.83118492  0.66527641  0.50027237  1
  Mn3.30+  Mn90  1  0.00087768  0.16728956  0.24873869  1
  Mn3.30+  Mn91  1  0.00091043  0.16621376  0.75168998  1
  Mn3.30+  Mn92  1  0.00079483  0.49981836  0.25099763  1
  Mn3.30+  Mn93  1  0.00156449  0.49822318  0.75031976  1
  Mn3.30+  Mn94  1  -0.00115068  0.83439677  0.25217713  1
  Mn3.30+  Mn95  1  -0.00110734  0.83325070  0.74864816  1
  Mn3.30+  Mn96  1  0.33366521  0.16730610  0.24883583  1
  Mn3.30+  Mn97  1  0.33315646  0.16716698  0.75068097  1
  Mn3.30+  Mn98  1  0.33748705  0.49978911  0.24899941  1
  Mn3.30+  Mn99  1  0.33409827  0.49933975  0.75258840  1
  Mn3.30+  Mn100  1  0.33338656  0.83348617  0.25051592  1
  Mn3.30+  Mn101  1  0.33448143  0.83447308  0.74781421  1
  Mn3.30+  Mn102  1  0.66596487  0.16701156  0.24846006  1
  Mn3.30+  Mn103  1  0.66575038  0.16570735  0.74891563  1
  Mn3.30+  Mn104  1  0.66326698  0.49824701  0.25086102  1
  Mn3.30+  Mn105  1  0.66478869  0.49753367  0.75151491  1
  Mn3.30+  Mn106  1  0.66664085  0.83432081  0.25097409  1
  Mn3.30+  Mn107  1  0.66581354  0.83540165  0.74956906  1
  Mn3.30+  Mn108  1  0.16893202  0.00081190  0.24903284  1
  Mn3.30+  Mn109  1  0.16832624  0.00252288  0.74997284  1
  Mn3.30+  Mn110  1  0.16947886  0.33364585  0.24810060  1
  Mn3.30+  Mn111  1  0.16745411  0.33406947  0.75252469  1
  Mn3.30+  Mn112  1  0.17007760  0.66748577  0.25238468  1
  Mn3.30+  Mn113  1  0.16765093  0.66643893  0.74967815  1
  Mn3.30+  Mn114  1  0.50064892  0.00078295  0.24857394  1
  Mn3.30+  Mn115  1  0.50076751  0.00139954  0.74939511  1
  Mn3.30+  Mn116  1  0.50028711  0.33537110  0.24859044  1
  Mn3.30+  Mn117  1  0.50168521  0.33335773  0.75057102  1
  Mn3.30+  Mn118  1  0.49868838  0.66315860  0.25115780  1
  Mn3.30+  Mn119  1  0.49908387  0.66619476  0.75056465  1
  Mn3.30+  Mn120  1  0.83095626  0.00016606  0.24941582  1
  Mn3.30+  Mn121  1  0.83052389  -0.00026083  0.74866286  1
  Mn3.30+  Mn122  1  0.83006083  0.33263285  0.25041876  1
  Mn3.30+  Mn123  1  0.83234563  0.33119674  0.75006242  1
  Mn3.30+  Mn124  1  0.83151727  0.66724290  0.25186484  1
  Mn3.30+  Mn125  1  0.83295044  0.66493835  0.74922890  1
  Mn3.30+  Mn126  1  0.00258115  0.16599636  -0.00026007  1
  Mn3.30+  Mn127  1  -0.00086188  0.16742745  0.50014811  1
  Mn3.30+  Mn128  1  0.00194624  0.49998051  -0.00005822  1
  Mn3.30+  Mn129  1  0.00041128  0.49836565  0.49995664  1
  Mn3.30+  Mn130  1  -0.00048608  0.83411930  0.00041239  1
  Mn3.30+  Mn131  1  -0.00164035  0.83376119  0.49869441  1
  Mn3.30+  Mn132  1  0.33239156  0.16691460  -0.00064598  1
  Mn3.30+  Mn133  1  0.33441129  0.16714847  0.50101570  1
  Mn3.30+  Mn134  1  0.33495551  0.49912380  0.00024501  1
  Mn3.30+  Mn135  1  0.33653819  0.50023099  0.49795888  1
  Mn3.30+  Mn136  1  0.33380925  0.83417174  0.00089038  1
  Mn3.30+  Mn137  1  0.33401902  0.83389591  0.50011897  1
  Mn3.30+  Mn138  1  0.66562143  0.16418400  0.00041661  1
  Mn3.30+  Mn139  1  0.66579293  0.16807559  0.50119769  1
  Mn3.30+  Mn140  1  0.66298175  0.49988590  -0.00016927  1
  Mn3.30+  Mn141  1  0.66513467  0.49627984  0.49850109  1
  Mn3.30+  Mn142  1  0.66622006  0.83526309  0.00015265  1
  Mn3.30+  Mn143  1  0.66629741  0.83434958  0.49916218  1
  O2-  O144  1  0.02831193  0.16034155  0.12390295  1
  O2-  O145  1  0.02498834  0.16985561  0.62885665  1
  O2-  O146  1  0.02563790  0.49703019  0.12526581  1
  O2-  O147  1  0.02677176  0.49211741  0.62478205  1
  O2-  O148  1  0.02034328  0.82837717  0.12715687  1
  O2-  O149  1  0.02623559  0.82580302  0.62368950  1
  O2-  O150  1  0.35645228  0.15574203  0.12437704  1
  O2-  O151  1  0.35298368  0.16448005  0.62554103  1
  O2-  O152  1  0.35985875  0.49642101  0.12487669  1
  O2-  O153  1  0.35957606  0.49460696  0.62487252  1
  O2-  O154  1  0.35877683  0.82580930  0.12825228  1
  O2-  O155  1  0.36001240  0.82493304  0.62299004  1
  O2-  O156  1  0.69053865  0.15865580  0.12263232  1
  O2-  O157  1  0.68407741  0.15821890  0.62736964  1
  O2-  O158  1  0.69204939  0.49712311  0.12389077  1
  O2-  O159  1  0.68820310  0.49359119  0.62730216  1
  O2-  O160  1  0.69302001  0.82330591  0.12619695  1
  O2-  O161  1  0.69156353  0.82457226  0.62309043  1
  O2-  O162  1  0.14166460  0.32863107  0.12391823  1
  O2-  O163  1  0.14129887  0.32752822  0.62867772  1
  O2-  O164  1  0.14284570  0.66066172  0.12611044  1
  O2-  O165  1  0.14116594  0.65964031  0.62469473  1
  O2-  O166  1  0.14224231  1.00068204  0.12363283  1
  O2-  O167  1  0.14544161  0.99886079  0.62540039  1
  O2-  O168  1  0.47184796  0.32355635  0.12483956  1
  O2-  O169  1  0.47757954  0.33487611  0.62567646  1
  O2-  O170  1  0.47642693  0.65996078  0.12603729  1
  O2-  O171  1  0.47473431  0.65721935  0.62365005  1
  O2-  O172  1  0.47237481  0.99656736  0.12569260  1
  O2-  O173  1  0.47428983  0.99748595  0.62273219  1
  O2-  O174  1  0.80713850  0.32836975  0.12320753  1
  O2-  O175  1  0.80719167  0.33444926  0.62821450  1
  O2-  O176  1  0.80829129  0.66171048  0.12549046  1
  O2-  O177  1  0.80664726  0.65578310  0.62541467  1
  O2-  O178  1  0.80321791  0.99264758  0.12658710  1
  O2-  O179  1  0.80647926  0.99502725  0.62317040  1
  O2-  O180  1  0.30752533  0.17497495  0.37425625  1
  O2-  O181  1  0.30685615  0.17508932  0.87524949  1
  O2-  O182  1  0.30778503  0.50219095  0.37474320  1
  O2-  O183  1  0.30508429  0.50664962  0.87536825  1
  O2-  O184  1  0.30928277  0.84298895  0.37635069  1
  O2-  O185  1  0.30979713  0.83871538  0.87163979  1
  O2-  O186  1  0.64472838  0.17490887  0.37209448  1
  O2-  O187  1  0.64212656  0.17405078  0.87701428  1
  O2-  O188  1  0.63938523  0.50577228  0.37322494  1
  O2-  O189  1  0.63943215  0.50572864  0.87628274  1
  O2-  O190  1  0.63770021  0.84069621  0.37571193  1
  O2-  O191  1  0.64942220  0.84061007  0.87555258  1
  O2-  O192  1  0.97649109  0.16835097  0.36984136  1
  O2-  O193  1  0.97387457  0.17082866  0.87715421  1
  O2-  O194  1  0.98031957  0.50571011  0.37492783  1
  O2-  O195  1  0.97387955  0.50513733  0.87596546  1
  O2-  O196  1  0.97150655  0.84106616  0.37522368  1
  O2-  O197  1  0.97358680  0.83876060  0.87394019  1
  O2-  O198  1  0.19310721  0.00664734  0.37626441  1
  O2-  O199  1  0.19247306  0.00209603  0.87410022  1
  O2-  O200  1  0.19306626  0.33804661  0.37228461  1
  O2-  O201  1  0.19374605  0.34506042  0.87541392  1
  O2-  O202  1  0.19667497  0.67415980  0.37629995  1
  O2-  O203  1  0.19362073  0.67636379  0.87307411  1
  O2-  O204  1  0.52558837  0.00463507  0.37418835  1
  O2-  O205  1  0.52370824  0.00365161  0.87707116  1
  O2-  O206  1  0.52602771  0.33760033  0.37130030  1
  O2-  O207  1  0.52291926  0.33817938  0.87748501  1
  O2-  O208  1  0.52714593  0.67319816  0.37542096  1
  O2-  O209  1  0.52337953  0.67273122  0.87509275  1
  O2-  O210  1  0.85762497  0.00985786  0.37218691  1
  O2-  O211  1  0.85702915  -0.00039007  0.87741972  1
  O2-  O212  1  0.84967366  0.32749620  0.37239322  1
  O2-  O213  1  0.86079868  0.33895228  0.87740770  1
  O2-  O214  1  0.85620448  0.67170144  0.37677208  1
  O2-  O215  1  0.86117271  0.67287237  0.87302284  1
  O2-  O216  1  0.23710202  0.09698667  0.01574383  1
  O2-  O217  1  0.23678322  0.09783475  0.51687815  1
  O2-  O218  1  0.23818969  0.42973287  0.02145114  1
  O2-  O219  1  0.24037925  0.42794022  0.52005527  1
  O2-  O220  1  0.24130465  0.76076641  0.01685632  1
  O2-  O221  1  0.23625186  0.76338186  0.52170329  1
  O2-  O222  1  0.56758717  0.09578456  0.01863501  1
  O2-  O223  1  0.57297388  0.09569197  0.51076509  1
  O2-  O224  1  0.57005916  0.42653817  0.02427285  1
  O2-  O225  1  0.57017060  0.42912316  0.51810119  1
  O2-  O226  1  0.57376683  0.76080993  0.02253263  1
  O2-  O227  1  0.56823395  0.76131199  0.52046802  1
  O2-  O228  1  0.90156112  0.09124133  0.02080310  1
  O2-  O229  1  0.90651364  0.09348599  0.51279616  1
  O2-  O230  1  0.90431793  0.42846613  0.02213010  1
  O2-  O231  1  0.90589701  0.42290520  0.52046058  1
  O2-  O232  1  0.90448051  0.76053921  0.02107505  1
  O2-  O233  1  0.90539290  0.75665423  0.52309164  1
  O2-  O234  1  0.26461233  0.26354784  0.22624438  1
  O2-  O235  1  0.26188538  0.26253839  0.72980742  1
  O2-  O236  1  0.26397773  0.59154786  0.22887731  1
  O2-  O237  1  0.26353179  0.59471686  0.72815929  1
  O2-  O238  1  0.26397428  0.93352180  0.23292417  1
  O2-  O239  1  0.26243352  0.92900266  0.72815050  1
  O2-  O240  1  0.59206302  0.25975754  0.22471168  1
  O2-  O241  1  0.59868446  0.26531499  0.73537631  1
  O2-  O242  1  0.59639269  0.59701293  0.23240036  1
  O2-  O243  1  0.59460214  0.59563551  0.73018999  1
  O2-  O244  1  0.59726810  0.92832503  0.22740955  1
  O2-  O245  1  0.59518421  0.92722669  0.72684494  1
  O2-  O246  1  0.92770691  0.25807883  0.22491709  1
  O2-  O247  1  0.93070950  0.26325317  0.73572328  1
  O2-  O248  1  0.92789542  0.59464125  0.23050370  1
  O2-  O249  1  0.92981818  0.59210656  0.72906680  1
  O2-  O250  1  0.92708236  0.92860883  0.22890526  1
  O2-  O251  1  0.92479044  0.92432754  0.73060055  1
  O2-  O252  1  0.09822390  0.23799432  0.26494526  1
  O2-  O253  1  0.09809587  0.23968136  0.77497012  1
  O2-  O254  1  0.09685392  0.57607037  0.27205328  1
  O2-  O255  1  0.09644753  0.57136096  0.77145803  1
  O2-  O256  1  0.09210278  0.90754398  0.27369528  1
  O2-  O257  1  0.09551828  0.90663637  0.76866531  1
  O2-  O258  1  0.42851350  0.23880964  0.27065357  1
  O2-  O259  1  0.42761662  0.24107825  0.77185287  1
  O2-  O260  1  0.43005025  0.56905279  0.27215829  1
  O2-  O261  1  0.42768773  0.56933580  0.77238428  1
  O2-  O262  1  0.42941118  0.90407298  0.27038125  1
  O2-  O263  1  0.42649553  0.90692978  0.76529972  1
  O2-  O264  1  0.76268315  0.23475126  0.26118344  1
  O2-  O265  1  0.76143308  0.23840054  0.77420168  1
  O2-  O266  1  0.75880461  0.57155385  0.26667841  1
  O2-  O267  1  0.76075009  0.57117772  0.77179191  1
  O2-  O268  1  0.76201378  0.90307430  0.27384175  1
  O2-  O269  1  0.76351674  0.90190021  0.76436930  1
  O2-  O270  1  0.07430429  0.07401614  0.47850023  1
  O2-  O271  1  0.07011549  0.06894772  0.98011458  1
  O2-  O272  1  0.07689097  0.40802860  0.48212907  1
  O2-  O273  1  0.07031845  0.40312320  0.98368101  1
  O2-  O274  1  0.07080894  0.74021949  0.47677472  1
  O2-  O275  1  0.07202967  0.73898719  0.98005863  1
  O2-  O276  1  0.40761576  0.07429029  0.47693871  1
  O2-  O277  1  0.40504859  0.07431933  0.97639488  1
  O2-  O278  1  0.40402387  0.40302338  0.48201342  1
  O2-  O279  1  0.40298936  0.40548053  0.97944021  1
  O2-  O280  1  0.40348173  0.73426303  0.47814441  1
  O2-  O281  1  0.40480174  0.73509567  0.98525647  1
  O2-  O282  1  0.73973466  0.07413396  0.47745628  1
  O2-  O283  1  0.73786264  0.06945392  0.97607246  1
  O2-  O284  1  0.73631896  0.40379549  0.48304800  1
  O2-  O285  1  0.73707643  0.40601268  0.97945294  1
  O2-  O286  1  0.73398521  0.73802579  0.48193513  1
  O2-  O287  1  0.73865090  0.73755525  0.97810076  1
  O2-  O288  1  0.09608690  0.23859820  0.48318425  1
  O2-  O289  1  0.10079314  0.24046963  0.97798288  1
  O2-  O290  1  0.09612577  0.57506641  0.47908593  1
  O2-  O291  1  0.09664388  0.57267195  0.97830669  1
  O2-  O292  1  0.09660560  0.90739205  0.48021191  1
  O2-  O293  1  0.09302416  0.90739513  0.97685918  1
  O2-  O294  1  0.42800062  0.24228833  0.47800196  1
  O2-  O295  1  0.42835448  0.23816198  0.97958339  1
  O2-  O296  1  0.43100577  0.56743946  0.47906159  1
  O2-  O297  1  0.42733624  0.57116043  0.97707774  1
  O2-  O298  1  0.43072473  0.90500616  0.47976208  1
  O2-  O299  1  0.42628769  0.90676501  0.98364048  1
  O2-  O300  1  0.76084755  0.23681225  0.48412127  1
  O2-  O301  1  0.76246004  0.23790382  0.98047322  1
  O2-  O302  1  0.75720447  0.57127170  0.48266616  1
  O2-  O303  1  0.76288533  0.57239684  0.97938702  1
  O2-  O304  1  0.76245305  0.90478420  0.47711679  1
  O2-  O305  1  0.76550165  0.90037299  0.98536457  1
  O2-  O306  1  0.07150802  0.07188424  0.27006492  1
  O2-  O307  1  0.07274800  0.07311428  0.77131325  1
  O2-  O308  1  0.07639625  0.40806505  0.26562197  1
  O2-  O309  1  0.07046126  0.40343753  0.76978003  1
  O2-  O310  1  0.07094197  0.74106032  0.27312555  1
  O2-  O311  1  0.07101030  0.73894970  0.77049145  1
  O2-  O312  1  0.40634561  0.07539751  0.27352638  1
  O2-  O313  1  0.40489695  0.07503281  0.77278921  1
  O2-  O314  1  0.40461005  0.40427715  0.26974180  1
  O2-  O315  1  0.40266031  0.40392437  0.76847794  1
  O2-  O316  1  0.40602388  0.73503170  0.27159843  1
  O2-  O317  1  0.40177045  0.73521703  0.76501812  1
  O2-  O318  1  0.73909920  0.07361992  0.27215492  1
  O2-  O319  1  0.73835515  0.07126114  0.77310837  1
  O2-  O320  1  0.73184994  0.40191258  0.26515033  1
  O2-  O321  1  0.74188956  0.40623603  0.77616836  1
  O2-  O322  1  0.73532265  0.73799007  0.27049691  1
  O2-  O323  1  0.73723937  0.73829123  0.76973488  1
  O2-  O324  1  0.23686773  0.09991673  0.23435392  1
  O2-  O325  1  0.23877162  0.09585807  0.73243467  1
  O2-  O326  1  0.23885700  0.43007712  0.23126577  1
  O2-  O327  1  0.24021112  0.42730280  0.72641146  1
  O2-  O328  1  0.24011635  0.76108242  0.23277122  1
  O2-  O329  1  0.23762477  0.76379479  0.72722853  1
  O2-  O330  1  0.57094255  0.09708781  0.23255448  1
  O2-  O331  1  0.57095894  0.09584033  0.73824595  1
  O2-  O332  1  0.56976972  0.42845254  0.22279382  1
  O2-  O333  1  0.57103091  0.42835934  0.73419575  1
  O2-  O334  1  0.57049146  0.76222858  0.23043713  1
  O2-  O335  1  0.57326417  0.76136733  0.72733577  1
  O2-  O336  1  0.90634556  0.09287290  0.22441829  1
  O2-  O337  1  0.90403204  0.09181346  0.73976378  1
  O2-  O338  1  0.90472291  0.42431224  0.22850734  1
  O2-  O339  1  0.90479975  0.42687550  0.73044815  1
  O2-  O340  1  0.90696264  0.75936100  0.23049359  1
  O2-  O341  1  0.90379271  0.75859063  0.72568659  1
  O2-  O342  1  0.26461551  0.26414498  0.02235918  1
  O2-  O343  1  0.26051513  0.26291025  0.52072607  1
  O2-  O344  1  0.26384162  0.59447273  0.02143189  1
  O2-  O345  1  0.26219744  0.59178126  0.52163445  1
  O2-  O346  1  0.26246349  0.93196762  0.01567960  1
  O2-  O347  1  0.26269494  0.93154452  0.52178753  1
  O2-  O348  1  0.59382332  0.26120826  0.02014939  1
  O2-  O349  1  0.59611697  0.26396784  0.51682610  1
  O2-  O350  1  0.59633986  0.59797310  0.01729003  1
  O2-  O351  1  0.59454834  0.59445027  0.52036988  1
  O2-  O352  1  0.59411624  0.92667973  0.02476362  1
  O2-  O353  1  0.59648229  0.92946430  0.52238633  1
  O2-  O354  1  0.93002720  0.26062702  0.02196066  1
  O2-  O355  1  0.92654336  0.26072070  0.51758661  1
  O2-  O356  1  0.92901983  0.59565633  0.02098712  1
  O2-  O357  1  0.92803345  0.59083481  0.52107592  1
  O2-  O358  1  0.92655597  0.92838692  0.02192196  1
  O2-  O359  1  0.92563680  0.92544091  0.51852361  1
