# generated using pymatgen
data_Sr7Ca15Pr50Mn72O216
_symmetry_space_group_name_H-M   'P 1'
_cell_length_a   16.55701470
_cell_length_b   16.60564255
_cell_length_c   15.59527680
_cell_angle_alpha   90.00070696
_cell_angle_beta   89.99848631
_cell_angle_gamma   90.00647794
_symmetry_Int_Tables_number   1
_chemical_formula_structural   Sr7Ca15Pr50Mn72O216
_chemical_formula_sum   'Sr7 Ca15 Pr50 Mn72 O216'
_cell_volume   4287.76331095
_cell_formula_units_Z   1
loop_
 _symmetry_equiv_pos_site_id
 _symmetry_equiv_pos_as_xyz
  1  'x, y, z'
loop_
 _atom_type_symbol
 _atom_type_oxidation_number
  Sr2+  2.0
  Ca2+  2.0
  Pr3+  3.0
  Mn3.30+  3.3
  O2-  -2.0
loop_
 _atom_site_type_symbol
 _atom_site_label
 _atom_site_symmetry_multiplicity
 _atom_site_fract_x
 _atom_site_fract_y
 _atom_site_fract_z
 _atom_site_occupancy
  Sr2+  Sr0  1  0.83092934  0.84097069  0.12470609  1
  Sr2+  Sr1  1  0.66970917  0.65849449  0.87549657  1
  Sr2+  Sr2  1  -0.00188348  0.67625197  0.62314857  1
  Sr2+  Sr3  1  0.49972356  0.15797961  0.37313243  1
  Sr2+  Sr4  1  0.49857785  0.15666676  0.87668940  1
  Sr2+  Sr5  1  0.83127602  0.82146982  0.37440654  1
  Sr2+  Sr6  1  -0.00244691  0.34311461  0.62553766  1
  Ca2+  Ca7  1  0.16240901  0.15220783  0.37571119  1
  Ca2+  Ca8  1  0.83416040  0.49041814  0.37680475  1
  Ca2+  Ca9  1  0.99881927  0.65363548  0.37611308  1
  Ca2+  Ca10  1  0.66486987  0.01440733  0.62380917  1
  Ca2+  Ca11  1  0.66495882  0.68057460  0.62021550  1
  Ca2+  Ca12  1  0.50124423  0.81939222  0.37530061  1
  Ca2+  Ca13  1  0.82983295  0.15255309  0.87453357  1
  Ca2+  Ca14  1  1.00111620  0.31690521  0.87486541  1
  Ca2+  Ca15  1  0.82685093  0.15123954  0.37459183  1
  Ca2+  Ca16  1  0.66642924  0.68217643  0.12960648  1
  Ca2+  Ca17  1  0.67316101  0.65216197  0.37473265  1
  Ca2+  Ca18  1  0.33040622  0.01631650  0.62347290  1
  Ca2+  Ca19  1  0.83726429  0.17990864  0.12604622  1
  Ca2+  Ca20  1  0.50516658  0.18006890  0.12542360  1
  Ca2+  Ca21  1  0.99925734  0.98727280  0.87575672  1
  Pr3+  Pr22  1  -0.00368740  0.01081859  0.62596013  1
  Pr3+  Pr23  1  0.33301697  0.68164178  0.12678070  1
  Pr3+  Pr24  1  0.50807059  0.51641656  0.12653034  1
  Pr3+  Pr25  1  0.83629803  0.51371550  0.62314860  1
  Pr3+  Pr26  1  0.66913053  0.98970829  0.87303184  1
  Pr3+  Pr27  1  0.33519230  0.31891845  0.37468751  1
  Pr3+  Pr28  1  0.16769331  0.17835638  0.62383994  1
  Pr3+  Pr29  1  -0.00432759  0.68092896  0.12667320  1
  Pr3+  Pr30  1  0.50093314  0.17635505  0.62471716  1
  Pr3+  Pr31  1  0.16860160  0.51247414  0.12562040  1
  Pr3+  Pr32  1  0.16136608  0.48426698  0.87497342  1
  Pr3+  Pr33  1  0.83409226  0.51347862  0.12665455  1
  Pr3+  Pr34  1  0.99999340  0.65603332  0.87458059  1
  Pr3+  Pr35  1  0.50067149  0.48780814  0.37466247  1
  Pr3+  Pr36  1  0.50538728  0.51519795  0.62329450  1
  Pr3+  Pr37  1  0.67125558  0.31682249  0.87463478  1
  Pr3+  Pr38  1  0.33963552  0.65412337  0.87520925  1
  Pr3+  Pr39  1  0.49942728  0.82103238  0.87424870  1
  Pr3+  Pr40  1  0.67301076  0.31830664  0.37507703  1
  Pr3+  Pr41  1  0.33614137  0.31873566  0.87553580  1
  Pr3+  Pr42  1  0.66988404  0.98802774  0.37689193  1
  Pr3+  Pr43  1  0.16582818  0.17862450  0.12665224  1
  Pr3+  Pr44  1  0.16036856  0.81967971  0.37531857  1
  Pr3+  Pr45  1  0.16010525  0.15182448  0.87542484  1
  Pr3+  Pr46  1  0.33426168  0.34254334  0.12524917  1
  Pr3+  Pr47  1  0.49933691  0.48800225  0.87511523  1
  Pr3+  Pr48  1  0.66528714  0.34463127  0.62464459  1
  Pr3+  Pr49  1  0.83379147  0.84303106  0.62462231  1
  Pr3+  Pr50  1  -0.00723156  0.34456293  0.12461568  1
  Pr3+  Pr51  1  0.83601166  0.17879176  0.62339334  1
  Pr3+  Pr52  1  0.99846457  0.99001023  0.37499681  1
  Pr3+  Pr53  1  0.16722489  0.51317658  0.62503656  1
  Pr3+  Pr54  1  0.17098392  0.85044167  0.62337706  1
  Pr3+  Pr55  1  0.50766811  0.84488443  0.12717773  1
  Pr3+  Pr56  1  0.50575806  0.84980021  0.62274534  1
  Pr3+  Pr57  1  0.33874102  0.98912311  0.87340724  1
  Pr3+  Pr58  1  0.83067892  0.48704611  0.87381757  1
  Pr3+  Pr59  1  0.16070425  0.48921047  0.37561841  1
  Pr3+  Pr60  1  -0.00844006  0.01370293  0.12417092  1
  Pr3+  Pr61  1  0.33349954  0.01395566  0.12576598  1
  Pr3+  Pr62  1  0.32937236  0.34391310  0.62473215  1
  Pr3+  Pr63  1  0.66600744  0.34318718  0.12521155  1
  Pr3+  Pr64  1  0.33850195  0.98760664  0.37591732  1
  Pr3+  Pr65  1  0.99930524  0.31817346  0.37620190  1
  Pr3+  Pr66  1  0.33827789  0.65454574  0.37527757  1
  Pr3+  Pr67  1  0.32993616  0.68144262  0.62337271  1
  Pr3+  Pr68  1  0.16395643  0.82318500  0.87458332  1
  Pr3+  Pr69  1  0.66613532  0.01401445  0.12596306  1
  Pr3+  Pr70  1  0.83259876  0.82207809  0.87492161  1
  Pr3+  Pr71  1  0.16912381  0.84791281  0.12648756  1
  Mn3.30+  Mn72  1  0.16471966  0.00033701  0.00049095  1
  Mn3.30+  Mn73  1  0.16810976  0.00221417  0.49858528  1
  Mn3.30+  Mn74  1  0.16358546  0.33190061  0.00054178  1
  Mn3.30+  Mn75  1  0.16479358  0.33272359  0.49918944  1
  Mn3.30+  Mn76  1  0.16791344  0.66718635  0.00003255  1
  Mn3.30+  Mn77  1  0.16526291  0.66730840  0.49974806  1
  Mn3.30+  Mn78  1  0.50132935  0.00168256  0.00076385  1
  Mn3.30+  Mn79  1  0.50072072  0.00095728  0.49973933  1
  Mn3.30+  Mn80  1  0.50131933  0.33243056  0.00070236  1
  Mn3.30+  Mn81  1  0.49993837  0.33271865  0.49951428  1
  Mn3.30+  Mn82  1  0.50320638  0.66737964  0.00067915  1
  Mn3.30+  Mn83  1  0.50357503  0.66859249  0.49809163  1
  Mn3.30+  Mn84  1  0.83405179  0.00178279  -0.00160651  1
  Mn3.30+  Mn85  1  0.83100996  -0.00043559  0.50151565  1
  Mn3.30+  Mn86  1  0.83408293  0.32973181  -0.00190332  1
  Mn3.30+  Mn87  1  0.83342786  0.33392036  0.49895849  1
  Mn3.30+  Mn88  1  0.83223405  0.66711112  0.00182236  1
  Mn3.30+  Mn89  1  0.83128081  0.66635262  0.49749592  1
  Mn3.30+  Mn90  1  -0.00296070  0.16586202  0.25195020  1
  Mn3.30+  Mn91  1  -0.00288174  0.16537807  0.75282459  1
  Mn3.30+  Mn92  1  -0.00189849  0.50043082  0.25149104  1
  Mn3.30+  Mn93  1  -0.00133332  0.49825040  0.75028262  1
  Mn3.30+  Mn94  1  -0.00175535  0.83288203  0.25150619  1
  Mn3.30+  Mn95  1  0.00084100  0.83390726  0.74897304  1
  Mn3.30+  Mn96  1  0.33324949  0.16649303  0.25003286  1
  Mn3.30+  Mn97  1  0.33224464  0.16529193  0.74982447  1
  Mn3.30+  Mn98  1  0.33403194  0.49977467  0.24962591  1
  Mn3.30+  Mn99  1  0.33337615  0.50013663  0.75005447  1
  Mn3.30+  Mn100  1  0.33598781  0.83428514  0.25241050  1
  Mn3.30+  Mn101  1  0.33428193  0.83634020  0.74773356  1
  Mn3.30+  Mn102  1  0.66863618  0.16642309  0.24885029  1
  Mn3.30+  Mn103  1  0.66784900  0.16464877  0.74978938  1
  Mn3.30+  Mn104  1  0.66990379  0.50149130  0.25159711  1
  Mn3.30+  Mn105  1  0.66723182  0.50178216  0.74944483  1
  Mn3.30+  Mn106  1  0.66699878  0.83161336  0.25284117  1
  Mn3.30+  Mn107  1  0.66720621  0.83365668  0.74749464  1
  Mn3.30+  Mn108  1  0.16612158  0.00173567  0.25111347  1
  Mn3.30+  Mn109  1  0.16649042  0.00089507  0.75015537  1
  Mn3.30+  Mn110  1  0.16428027  0.33236221  0.25043507  1
  Mn3.30+  Mn111  1  0.16392506  0.33198019  0.75097270  1
  Mn3.30+  Mn112  1  0.16574219  0.66664514  0.25069408  1
  Mn3.30+  Mn113  1  0.16777553  0.66767716  0.75034352  1
  Mn3.30+  Mn114  1  0.50136364  0.00100263  0.25138759  1
  Mn3.30+  Mn115  1  0.50064893  0.00172465  0.74727853  1
  Mn3.30+  Mn116  1  0.50128539  0.33258818  0.24962210  1
  Mn3.30+  Mn117  1  0.49960405  0.33291945  0.74982229  1
  Mn3.30+  Mn118  1  0.50481015  0.66828879  0.25339900  1
  Mn3.30+  Mn119  1  0.50221869  0.66768033  0.74779631  1
  Mn3.30+  Mn120  1  0.83200767  0.00038085  0.24917075  1
  Mn3.30+  Mn121  1  0.83306089  0.00074955  0.75044566  1
  Mn3.30+  Mn122  1  0.83249807  0.33234616  0.25085971  1
  Mn3.30+  Mn123  1  0.83525421  0.33118321  0.75147959  1
  Mn3.30+  Mn124  1  0.83197071  0.66618505  0.25307299  1
  Mn3.30+  Mn125  1  0.83169278  0.66690290  0.74780526  1
  Mn3.30+  Mn126  1  -0.00419286  0.16620447  -0.00235332  1
  Mn3.30+  Mn127  1  -0.00127021  0.16524628  0.49832672  1
  Mn3.30+  Mn128  1  -0.00068783  0.49861482  -0.00012383  1
  Mn3.30+  Mn129  1  -0.00253685  0.50049951  0.49892523  1
  Mn3.30+  Mn130  1  0.00014215  0.83522254  -0.00036549  1
  Mn3.30+  Mn131  1  -0.00086122  0.83164922  0.49984633  1
  Mn3.30+  Mn132  1  0.33361547  0.16659944  0.00219701  1
  Mn3.30+  Mn133  1  0.33228868  0.16490009  0.49801413  1
  Mn3.30+  Mn134  1  0.33400808  0.49990947  0.00121307  1
  Mn3.30+  Mn135  1  0.33360750  0.49983432  0.49936378  1
  Mn3.30+  Mn136  1  0.33472873  0.83470385  0.00097079  1
  Mn3.30+  Mn137  1  0.33583039  0.83547190  0.49853829  1
  Mn3.30+  Mn138  1  0.66895301  0.16586768  0.00058179  1
  Mn3.30+  Mn139  1  0.66743056  0.16494892  0.50019738  1
  Mn3.30+  Mn140  1  0.66774358  0.50115808  -0.00025634  1
  Mn3.30+  Mn141  1  0.66905830  0.50185315  0.49896329  1
  Mn3.30+  Mn142  1  0.66789446  0.83371128  0.00080153  1
  Mn3.30+  Mn143  1  0.66655377  0.83158787  0.49894192  1
  O2-  O144  1  0.02343255  0.16188296  0.12572189  1
  O2-  O145  1  0.02450202  0.15945056  0.62500807  1
  O2-  O146  1  0.02555375  0.49243140  0.12502072  1
  O2-  O147  1  0.02410865  0.49685436  0.62728926  1
  O2-  O148  1  0.02548113  0.82887357  0.12702549  1
  O2-  O149  1  0.02607605  0.83267905  0.62455476  1
  O2-  O150  1  0.36008096  0.16245776  0.12509908  1
  O2-  O151  1  0.35545191  0.16337653  0.62262450  1
  O2-  O152  1  0.36199172  0.49237537  0.12417957  1
  O2-  O153  1  0.35977715  0.49251402  0.62324239  1
  O2-  O154  1  0.36180151  0.82835612  0.12872614  1
  O2-  O155  1  0.36084920  0.82675370  0.62396791  1
  O2-  O156  1  0.69587626  0.16358406  0.12436347  1
  O2-  O157  1  0.69189994  0.16397098  0.62565266  1
  O2-  O158  1  0.69072344  0.49056539  0.12552928  1
  O2-  O159  1  0.69167888  0.49146699  0.62433028  1
  O2-  O160  1  0.68071827  0.82867213  0.12664189  1
  O2-  O161  1  0.69054020  0.82455492  0.62414504  1
  O2-  O162  1  0.13626685  0.32663162  0.12693735  1
  O2-  O163  1  0.14699344  0.32687058  0.62563685  1
  O2-  O164  1  0.14089342  0.66183787  0.12479467  1
  O2-  O165  1  0.14864608  0.66218375  0.62533324  1
  O2-  O166  1  0.13826197  0.99570171  0.12487156  1
  O2-  O167  1  0.14096404  0.99842365  0.62370289  1
  O2-  O168  1  0.47888071  0.32939130  0.12596427  1
  O2-  O169  1  0.47462514  0.32766206  0.62529625  1
  O2-  O170  1  0.47580408  0.66435889  0.12595358  1
  O2-  O171  1  0.47251699  0.66169491  0.62334357  1
  O2-  O172  1  0.47556615  0.98992443  0.12597733  1
  O2-  O173  1  0.47176992  0.99616442  0.62236763  1
  O2-  O174  1  0.80988685  0.32591372  0.12414324  1
  O2-  O175  1  0.80899705  0.32726206  0.62569993  1
  O2-  O176  1  0.80910859  0.66092949  0.12668239  1
  O2-  O177  1  0.80722386  0.66084585  0.62356499  1
  O2-  O178  1  0.81053898  0.99433945  0.12349805  1
  O2-  O179  1  0.80736365  0.99188712  0.62653832  1
  O2-  O180  1  0.30544110  0.17186045  0.37303158  1
  O2-  O181  1  0.30643467  0.17044917  0.87891185  1
  O2-  O182  1  0.30644873  0.50679853  0.37541071  1
  O2-  O183  1  0.30688454  0.50741974  0.87740956  1
  O2-  O184  1  0.30481928  0.83973276  0.37436428  1
  O2-  O185  1  0.30878534  0.84087887  0.87280717  1
  O2-  O186  1  0.64778415  0.17003210  0.37502768  1
  O2-  O187  1  0.64610320  0.16854087  0.87448838  1
  O2-  O188  1  0.64249312  0.50499340  0.37553984  1
  O2-  O189  1  0.64233075  0.50323414  0.87428426  1
  O2-  O190  1  0.64082429  0.84295722  0.37707841  1
  O2-  O191  1  0.64245009  0.84085989  0.87240986  1
  O2-  O192  1  0.96992002  0.16898580  0.37454450  1
  O2-  O193  1  0.97152192  0.17412643  0.87530709  1
  O2-  O194  1  0.97684424  0.50756994  0.37255644  1
  O2-  O195  1  0.97477930  0.50907275  0.87539697  1
  O2-  O196  1  0.98165866  0.84291872  0.37528774  1
  O2-  O197  1  0.97830236  0.83844645  0.87276715  1
  O2-  O198  1  0.19357634  0.00586228  0.37451937  1
  O2-  O199  1  0.19415217  0.00361270  0.87687020  1
  O2-  O200  1  0.19254948  0.34291453  0.37307024  1
  O2-  O201  1  0.19312619  0.33676577  0.87564589  1
  O2-  O202  1  0.19393895  0.66982495  0.37465537  1
  O2-  O203  1  0.19623763  0.67378888  0.87558686  1
  O2-  O204  1  0.52611238  0.00644402  0.37572270  1
  O2-  O205  1  0.52345930  0.00135771  0.87533344  1
  O2-  O206  1  0.52615365  0.33847468  0.37388315  1
  O2-  O207  1  0.52526416  0.33973642  0.87441223  1
  O2-  O208  1  0.52925286  0.67091956  0.37732553  1
  O2-  O209  1  0.51859611  0.67121596  0.87394011  1
  O2-  O210  1  0.85428684  0.00648093  0.37560600  1
  O2-  O211  1  0.85871406  0.00759669  0.87386595  1
  O2-  O212  1  0.85610841  0.34429087  0.37493820  1
  O2-  O213  1  0.86069314  0.34208755  0.87458974  1
  O2-  O214  1  0.85912195  0.66864266  0.37418004  1
  O2-  O215  1  0.85596807  0.67089565  0.87560894  1
  O2-  O216  1  0.23581448  0.09435320  0.02216812  1
  O2-  O217  1  0.23619919  0.09663339  0.51900237  1
  O2-  O218  1  0.23740750  0.42648796  0.02187051  1
  O2-  O219  1  0.23740185  0.42755084  0.52109317  1
  O2-  O220  1  0.24059643  0.76255480  0.02244493  1
  O2-  O221  1  0.23939521  0.76331671  0.51887661  1
  O2-  O222  1  0.57214520  0.09377023  0.02405132  1
  O2-  O223  1  0.57104799  0.09519747  0.52129226  1
  O2-  O224  1  0.57257155  0.42975236  0.01936786  1
  O2-  O225  1  0.57237496  0.42943698  0.51918849  1
  O2-  O226  1  0.56831307  0.76387104  0.01332742  1
  O2-  O227  1  0.56966081  0.76351906  0.52053841  1
  O2-  O228  1  0.90366902  0.09556205  0.02357120  1
  O2-  O229  1  0.90565328  0.09048099  0.52318542  1
  O2-  O230  1  0.90318407  0.42744141  0.02119861  1
  O2-  O231  1  0.90374125  0.42819482  0.51788309  1
  O2-  O232  1  0.91114590  0.75850984  0.01587526  1
  O2-  O233  1  0.90174684  0.76023153  0.51936370  1
  O2-  O234  1  0.25857840  0.26160085  0.22723637  1
  O2-  O235  1  0.26083307  0.26124694  0.73153823  1
  O2-  O236  1  0.26357279  0.59369384  0.22777715  1
  O2-  O237  1  0.26295790  0.59513234  0.72997060  1
  O2-  O238  1  0.26265461  0.92707524  0.22818610  1
  O2-  O239  1  0.26469823  0.93036593  0.72689698  1
  O2-  O240  1  0.59855964  0.26111442  0.23222353  1
  O2-  O241  1  0.59471090  0.25986979  0.73026555  1
  O2-  O242  1  0.59792210  0.59451753  0.22771915  1
  O2-  O243  1  0.59254589  0.59649855  0.72527904  1
  O2-  O244  1  0.59387355  0.92977877  0.23076413  1
  O2-  O245  1  0.59638939  0.92883154  0.72674937  1
  O2-  O246  1  0.93128642  0.26406396  0.23476900  1
  O2-  O247  1  0.92436195  0.25643349  0.72896231  1
  O2-  O248  1  0.92892108  0.59265466  0.22601221  1
  O2-  O249  1  0.92563992  0.59322722  0.73375725  1
  O2-  O250  1  0.92938850  0.93056295  0.23483194  1
  O2-  O251  1  0.92546230  0.92616786  0.72884606  1
  O2-  O252  1  0.09431429  0.23705993  0.27352170  1
  O2-  O253  1  0.09391851  0.23485861  0.76911591  1
  O2-  O254  1  0.09812784  0.56942407  0.26567774  1
  O2-  O255  1  0.09431999  0.57118989  0.77104878  1
  O2-  O256  1  0.09665173  0.90569997  0.26922030  1
  O2-  O257  1  0.09977211  0.90449019  0.76577765  1
  O2-  O258  1  0.42159784  0.24332863  0.26794317  1
  O2-  O259  1  0.42408816  0.24127470  0.76787436  1
  O2-  O260  1  0.43319673  0.57487149  0.27092641  1
  O2-  O261  1  0.42839972  0.57161997  0.76952870  1
  O2-  O262  1  0.42887842  0.90402357  0.27384748  1
  O2-  O263  1  0.42948746  0.90537056  0.76976846  1
  O2-  O264  1  0.76339014  0.23883144  0.27312165  1
  O2-  O265  1  0.76137137  0.23827734  0.77035270  1
  O2-  O266  1  0.76636368  0.56590366  0.26827991  1
  O2-  O267  1  0.76294892  0.56972257  0.76685409  1
  O2-  O268  1  0.75619996  0.90792826  0.26834127  1
  O2-  O269  1  0.76274661  0.90687657  0.77166760  1
  O2-  O270  1  0.07075682  0.07031553  0.47993287  1
  O2-  O271  1  0.06773451  0.07220428  0.97797703  1
  O2-  O272  1  0.07138996  0.40719109  0.47732966  1
  O2-  O273  1  0.07087142  0.40385426  0.97780138  1
  O2-  O274  1  0.07338139  0.73879461  0.47680681  1
  O2-  O275  1  0.07493925  0.73888846  0.97910101  1
  O2-  O276  1  0.40292676  0.07155135  0.48050889  1
  O2-  O277  1  0.40260578  0.06833383  0.98443121  1
  O2-  O278  1  0.40443921  0.40618459  0.47772410  1
  O2-  O279  1  0.40463893  0.40715409  0.97841728  1
  O2-  O280  1  0.40442835  0.73580936  0.48037829  1
  O2-  O281  1  0.40446185  0.73843281  0.98122977  1
  O2-  O282  1  0.73771420  0.07156987  0.48363607  1
  O2-  O283  1  0.73572489  0.06962637  0.98225371  1
  O2-  O284  1  0.73471962  0.40131724  0.48472979  1
  O2-  O285  1  0.73964062  0.40218562  0.97931057  1
  O2-  O286  1  0.73473302  0.73477538  0.48023955  1
  O2-  O287  1  0.74375515  0.74488855  0.98270480  1
  O2-  O288  1  0.09420357  0.23887531  0.47769522  1
  O2-  O289  1  0.09446239  0.23485049  0.98214408  1
  O2-  O290  1  0.09583776  0.57001937  0.48439951  1
  O2-  O291  1  0.09608227  0.57161989  0.97929261  1
  O2-  O292  1  0.09814120  0.90741262  0.48135650  1
  O2-  O293  1  0.09870922  0.90359556  0.98320011  1
  O2-  O294  1  0.42305396  0.24021195  0.48177242  1
  O2-  O295  1  0.42255825  0.24371138  0.98225887  1
  O2-  O296  1  0.43028298  0.57255525  0.47857200  1
  O2-  O297  1  0.43057794  0.57322007  0.98110181  1
  O2-  O298  1  0.43001242  0.90436491  0.47657178  1
  O2-  O299  1  0.42890469  0.90525422  0.97949750  1
  O2-  O300  1  0.76202086  0.23822993  0.48059728  1
  O2-  O301  1  0.76298576  0.23895759  0.97467517  1
  O2-  O302  1  0.76396958  0.56751344  0.48117746  1
  O2-  O303  1  0.76380747  0.56799587  0.98368710  1
  O2-  O304  1  0.75897059  0.90553443  0.48336904  1
  O2-  O305  1  0.76133505  0.90965630  0.97609427  1
  O2-  O306  1  0.06798163  0.07202061  0.26912824  1
  O2-  O307  1  0.06802124  0.07063244  0.77330780  1
  O2-  O308  1  0.06999807  0.40488833  0.27220194  1
  O2-  O309  1  0.07274245  0.40479867  0.77450794  1
  O2-  O310  1  0.07162017  0.73809391  0.27159162  1
  O2-  O311  1  0.07539020  0.73963706  0.77354669  1
  O2-  O312  1  0.40326930  0.06804498  0.26648386  1
  O2-  O313  1  0.40208572  0.07237526  0.76694625  1
  O2-  O314  1  0.40457072  0.40727572  0.27151535  1
  O2-  O315  1  0.40391069  0.40645398  0.77191417  1
  O2-  O316  1  0.40281633  0.73732959  0.26992013  1
  O2-  O317  1  0.40429443  0.73880654  0.76913387  1
  O2-  O318  1  0.73587316  0.06999701  0.26664230  1
  O2-  O319  1  0.73880219  0.07143911  0.76830553  1
  O2-  O320  1  0.73484725  0.40100931  0.26561599  1
  O2-  O321  1  0.73911814  0.40269922  0.76962621  1
  O2-  O322  1  0.73552011  0.73544941  0.26845526  1
  O2-  O323  1  0.74288902  0.74405178  0.76877486  1
  O2-  O324  1  0.23932936  0.09345438  0.22616766  1
  O2-  O325  1  0.23318466  0.09753149  0.73349651  1
  O2-  O326  1  0.23597934  0.42488340  0.22656788  1
  O2-  O327  1  0.23864499  0.42910650  0.73080782  1
  O2-  O328  1  0.23886977  0.76139969  0.22992513  1
  O2-  O329  1  0.24070408  0.76509284  0.72855849  1
  O2-  O330  1  0.57340487  0.09522796  0.22551524  1
  O2-  O331  1  0.57110033  0.09471342  0.72890833  1
  O2-  O332  1  0.57230369  0.43013477  0.23181912  1
  O2-  O333  1  0.57165825  0.42875226  0.72944414  1
  O2-  O334  1  0.56931197  0.76343053  0.23479622  1
  O2-  O335  1  0.56804652  0.76457945  0.73262836  1
  O2-  O336  1  0.90454369  0.09461693  0.22756749  1
  O2-  O337  1  0.90529760  0.09199103  0.72523324  1
  O2-  O338  1  0.90464955  0.42585916  0.22712036  1
  O2-  O339  1  0.90224375  0.42976577  0.73232170  1
  O2-  O340  1  0.90840680  0.75773855  0.23044479  1
  O2-  O341  1  0.90452266  0.76136104  0.73346266  1
  O2-  O342  1  0.25868591  0.26119546  0.02330516  1
  O2-  O343  1  0.26136038  0.26165000  0.51824456  1
  O2-  O344  1  0.26281115  0.59500711  0.02332723  1
  O2-  O345  1  0.26222589  0.59433827  0.52027056  1
  O2-  O346  1  0.26284443  0.92763216  0.02297016  1
  O2-  O347  1  0.26230050  0.93125532  0.52141735  1
  O2-  O348  1  0.59897421  0.26084556  0.01637387  1
  O2-  O349  1  0.59486229  0.25955827  0.52032613  1
  O2-  O350  1  0.59450782  0.59717678  0.02374237  1
  O2-  O351  1  0.59439552  0.59395639  0.52326557  1
  O2-  O352  1  0.59501241  0.92916999  0.01933883  1
  O2-  O353  1  0.59506453  0.92968196  0.52259468  1
  O2-  O354  1  0.92933184  0.26181086  0.01967436  1
  O2-  O355  1  0.92575112  0.25944743  0.51615118  1
  O2-  O356  1  0.92934535  0.59448966  0.02084358  1
  O2-  O357  1  0.92522068  0.59093538  0.51881665  1
  O2-  O358  1  0.92915365  0.93004069  0.01514613  1
  O2-  O359  1  0.92673189  0.92719936  0.51965898  1
