# generated using pymatgen
data_Sr7Ca15Pr50Mn72O216
_symmetry_space_group_name_H-M   'P 1'
_cell_length_a   16.55874545
_cell_length_b   16.60445024
_cell_length_c   15.59457704
_cell_angle_alpha   90.00196227
_cell_angle_beta   89.99976147
_cell_angle_gamma   90.00069989
_symmetry_Int_Tables_number   1
_chemical_formula_structural   Sr7Ca15Pr50Mn72O216
_chemical_formula_sum   'Sr7 Ca15 Pr50 Mn72 O216'
_cell_volume   4287.71125315
_cell_formula_units_Z   1
loop_
 _symmetry_equiv_pos_site_id
 _symmetry_equiv_pos_as_xyz
  1  'x, y, z'
loop_
 _atom_type_symbol
 _atom_type_oxidation_number
  Sr2+  2.0
  Ca2+  2.0
  Pr3+  3.0
  Mn3.30+  3.3
  O2-  -2.0
loop_
 _atom_site_type_symbol
 _atom_site_label
 _atom_site_symmetry_multiplicity
 _atom_site_fract_x
 _atom_site_fract_y
 _atom_site_fract_z
 _atom_site_occupancy
  Sr2+  Sr0  1  0.83110101  0.15707143  0.87511116  1
  Sr2+  Sr1  1  0.16220589  0.15656927  0.87484127  1
  Sr2+  Sr2  1  1.00469681  0.65518039  0.87392244  1
  Sr2+  Sr3  1  0.66910370  0.99081446  0.37470877  1
  Sr2+  Sr4  1  0.50069669  0.84301657  0.12544970  1
  Sr2+  Sr5  1  0.50034970  0.49322371  0.37480104  1
  Sr2+  Sr6  1  0.49889439  0.15548649  0.87524788  1
  Ca2+  Ca7  1  0.16371767  0.48714973  0.87641532  1
  Ca2+  Ca8  1  0.33186137  0.67966354  0.12717641  1
  Ca2+  Ca9  1  0.66830371  0.65422213  0.37422260  1
  Ca2+  Ca10  1  -0.00249345  0.68202747  0.62384472  1
  Ca2+  Ca11  1  0.32932598  0.34897694  0.12428926  1
  Ca2+  Ca12  1  0.16649182  0.84593746  0.62482119  1
  Ca2+  Ca13  1  0.82781651  0.15003999  0.37425235  1
  Ca2+  Ca14  1  0.66522550  0.01380200  0.12656162  1
  Ca2+  Ca15  1  0.33742443  0.65157958  0.37254701  1
  Ca2+  Ca16  1  0.83426410  0.17795128  0.62303828  1
  Ca2+  Ca17  1  0.33414619  0.65434308  0.87731778  1
  Ca2+  Ca18  1  0.83414215  0.17739904  0.12674928  1
  Ca2+  Ca19  1  0.66668069  0.01618043  0.62272980  1
  Ca2+  Ca20  1  0.99987187  0.98531083  0.37644740  1
  Ca2+  Ca21  1  1.00445350  0.65264288  0.37684285  1
  Pr3+  Pr22  1  0.32972204  0.01244360  0.62429801  1
  Pr3+  Pr23  1  0.49956323  0.15317541  0.37408347  1
  Pr3+  Pr24  1  0.49735055  0.81826480  0.37378169  1
  Pr3+  Pr25  1  0.33062379  0.34668774  0.62650925  1
  Pr3+  Pr26  1  -0.00459108  0.01323594  0.12722361  1
  Pr3+  Pr27  1  0.16771602  0.17985279  0.62511540  1
  Pr3+  Pr28  1  0.17324530  0.51641474  0.12382426  1
  Pr3+  Pr29  1  0.17096255  0.84329980  0.12520079  1
  Pr3+  Pr30  1  0.66996929  0.98961880  0.87548954  1
  Pr3+  Pr31  1  0.32929721  0.68083368  0.62394993  1
  Pr3+  Pr32  1  0.33672185  0.98930141  0.87499480  1
  Pr3+  Pr33  1  1.00315179  0.31904056  0.87604553  1
  Pr3+  Pr34  1  0.83184098  0.48663981  0.87530009  1
  Pr3+  Pr35  1  0.17073269  0.18266032  0.12460581  1
  Pr3+  Pr36  1  0.16776148  0.51336633  0.62661705  1
  Pr3+  Pr37  1  0.49851672  0.51254191  0.12606902  1
  Pr3+  Pr38  1  0.16469455  0.82145160  0.87312785  1
  Pr3+  Pr39  1  0.66908160  0.31743076  0.87558829  1
  Pr3+  Pr40  1  0.67054791  0.65537833  0.87573070  1
  Pr3+  Pr41  1  -0.00039560  0.68030091  0.12591334  1
  Pr3+  Pr42  1  0.66621369  0.34274272  0.62590355  1
  Pr3+  Pr43  1  0.66462918  0.34250978  0.12384625  1
  Pr3+  Pr44  1  0.50195221  0.51316518  0.62453999  1
  Pr3+  Pr45  1  0.67087022  0.31974112  0.37428704  1
  Pr3+  Pr46  1  0.50379129  0.17792101  0.62463024  1
  Pr3+  Pr47  1  0.33862145  0.32370321  0.37310926  1
  Pr3+  Pr48  1  0.82992750  0.49057669  0.37490643  1
  Pr3+  Pr49  1  0.33107140  0.01131293  0.12548062  1
  Pr3+  Pr50  1  0.33304156  0.32022976  0.87683567  1
  Pr3+  Pr51  1  0.49553670  0.48839517  0.87546417  1
  Pr3+  Pr52  1  1.00208595  0.98956479  0.87394100  1
  Pr3+  Pr53  1  0.83264962  0.82229103  0.87419926  1
  Pr3+  Pr54  1  0.16616536  0.49013078  0.37485513  1
  Pr3+  Pr55  1  -0.00336642  0.01327263  0.62289361  1
  Pr3+  Pr56  1  -0.00427900  0.34375354  0.62616722  1
  Pr3+  Pr57  1  0.16038105  0.15005390  0.37482545  1
  Pr3+  Pr58  1  0.66256139  0.67964773  0.12733595  1
  Pr3+  Pr59  1  0.83592569  0.84640664  0.62362088  1
  Pr3+  Pr60  1  0.50245621  0.17645370  0.12483843  1
  Pr3+  Pr61  1  -0.00305151  0.34537046  0.12428460  1
  Pr3+  Pr62  1  0.83964682  0.51518801  0.62468016  1
  Pr3+  Pr63  1  0.33781095  0.98589414  0.37500557  1
  Pr3+  Pr64  1  0.50580949  0.84890938  0.62386712  1
  Pr3+  Pr65  1  0.83497582  0.84669984  0.12647558  1
  Pr3+  Pr66  1  0.49515982  0.82036084  0.87568530  1
  Pr3+  Pr67  1  0.16296827  0.81781905  0.37718524  1
  Pr3+  Pr68  1  1.00093943  0.32002149  0.37453967  1
  Pr3+  Pr69  1  0.83715877  0.51345136  0.12532689  1
  Pr3+  Pr70  1  0.66369113  0.67921662  0.62250112  1
  Pr3+  Pr71  1  0.83108053  0.81945376  0.37549688  1
  Mn3.30+  Mn72  1  0.16623106  0.00040736  0.00027410  1
  Mn3.30+  Mn73  1  0.16478184  -0.00271163  0.49979303  1
  Mn3.30+  Mn74  1  0.16678771  0.33575428  0.00089303  1
  Mn3.30+  Mn75  1  0.16638704  0.33386721  0.49863240  1
  Mn3.30+  Mn76  1  0.16952574  0.66643952  -0.00259845  1
  Mn3.30+  Mn77  1  0.16498569  0.66736713  0.50144359  1
  Mn3.30+  Mn78  1  0.50224822  -0.00077682  0.00143823  1
  Mn3.30+  Mn79  1  0.50234212  -0.00024423  0.49965681  1
  Mn3.30+  Mn80  1  0.49692334  0.33283322  0.00156647  1
  Mn3.30+  Mn81  1  0.50088348  0.33424943  0.49891621  1
  Mn3.30+  Mn82  1  0.49787305  0.66694503  0.00038760  1
  Mn3.30+  Mn83  1  0.49845337  0.66650385  0.49826148  1
  Mn3.30+  Mn84  1  0.83243146  0.00185375  0.00196380  1
  Mn3.30+  Mn85  1  0.83295445  0.00157511  0.49893374  1
  Mn3.30+  Mn86  1  0.83308620  0.33124334  0.00193513  1
  Mn3.30+  Mn87  1  0.83358834  0.33121867  0.49906815  1
  Mn3.30+  Mn88  1  0.83432386  0.66742061  -0.00033608  1
  Mn3.30+  Mn89  1  0.83540051  0.66702834  0.49893051  1
  Mn3.30+  Mn90  1  -0.00352126  0.16464424  0.25170225  1
  Mn3.30+  Mn91  1  -0.00210467  0.16595287  0.74892426  1
  Mn3.30+  Mn92  1  0.00120128  0.50138946  0.25068598  1
  Mn3.30+  Mn93  1  0.00226400  0.50149001  0.75112853  1
  Mn3.30+  Mn94  1  0.00074348  0.83331576  0.25325447  1
  Mn3.30+  Mn95  1  0.00145510  0.83256029  0.74697239  1
  Mn3.30+  Mn96  1  0.33222823  0.16785214  0.24987488  1
  Mn3.30+  Mn97  1  0.33322495  0.16617575  0.75058389  1
  Mn3.30+  Mn98  1  0.33379841  0.50160338  0.24884208  1
  Mn3.30+  Mn99  1  0.33123902  0.50252911  0.75306444  1
  Mn3.30+  Mn100  1  0.33314614  0.83037335  0.25023062  1
  Mn3.30+  Mn101  1  0.33238192  0.83273791  0.74850548  1
  Mn3.30+  Mn102  1  0.66985123  0.16486378  0.24862837  1
  Mn3.30+  Mn103  1  0.66825513  0.16454714  0.74845111  1
  Mn3.30+  Mn104  1  0.66704480  0.50009785  0.25015383  1
  Mn3.30+  Mn105  1  0.66715650  0.49998955  0.74978871  1
  Mn3.30+  Mn106  1  0.66648189  0.83451760  0.25146148  1
  Mn3.30+  Mn107  1  0.66626364  0.83507902  0.74910987  1
  Mn3.30+  Mn108  1  0.16445281  -0.00187101  0.25150278  1
  Mn3.30+  Mn109  1  0.16651446  -0.00052218  0.74848679  1
  Mn3.30+  Mn110  1  0.16796344  0.33452141  0.25031974  1
  Mn3.30+  Mn111  1  0.16488845  0.33499126  0.75083896  1
  Mn3.30+  Mn112  1  0.16851186  0.66657633  0.25278512  1
  Mn3.30+  Mn113  1  0.16621479  0.66717062  0.74910229  1
  Mn3.30+  Mn114  1  0.50240256  -0.00171452  0.24887262  1
  Mn3.30+  Mn115  1  0.50225529  0.00039813  0.74929950  1
  Mn3.30+  Mn116  1  0.49903219  0.33413530  0.24865358  1
  Mn3.30+  Mn117  1  0.49879386  0.33309779  0.75057893  1
  Mn3.30+  Mn118  1  0.49859555  0.66615155  0.25046089  1
  Mn3.30+  Mn119  1  0.49800460  0.66731957  0.75080461  1
  Mn3.30+  Mn120  1  0.83258576  0.00138992  0.25114417  1
  Mn3.30+  Mn121  1  0.83243631  0.00207187  0.74744558  1
  Mn3.30+  Mn122  1  0.83372452  0.33107052  0.24969918  1
  Mn3.30+  Mn123  1  0.83292406  0.33165742  0.74944935  1
  Mn3.30+  Mn124  1  0.83415456  0.66705299  0.25194189  1
  Mn3.30+  Mn125  1  0.83578511  0.66746539  0.74977295  1
  Mn3.30+  Mn126  1  -0.00114837  0.16576720  0.00218284  1
  Mn3.30+  Mn127  1  -0.00417908  0.16481334  0.49732855  1
  Mn3.30+  Mn128  1  0.00295958  0.50084292  -0.00065371  1
  Mn3.30+  Mn129  1  0.00012421  0.50219933  0.49964696  1
  Mn3.30+  Mn130  1  0.00122595  0.83361426  0.00006168  1
  Mn3.30+  Mn131  1  0.00081899  0.83237940  0.50012800  1
  Mn3.30+  Mn132  1  0.33335656  0.16687591  0.00030552  1
  Mn3.30+  Mn133  1  0.33244738  0.16752365  0.49891894  1
  Mn3.30+  Mn134  1  0.33126110  0.50204340  -0.00151327  1
  Mn3.30+  Mn135  1  0.33382922  0.50195774  0.50019600  1
  Mn3.30+  Mn136  1  0.33347233  0.83096563  0.00018423  1
  Mn3.30+  Mn137  1  0.33209887  0.83209055  0.50049443  1
  Mn3.30+  Mn138  1  0.66809797  0.16429786  0.00200077  1
  Mn3.30+  Mn139  1  0.67008148  0.16549550  0.50025838  1
  Mn3.30+  Mn140  1  0.66603223  0.49954830  0.00051426  1
  Mn3.30+  Mn141  1  0.66786558  0.50031341  0.49936419  1
  Mn3.30+  Mn142  1  0.66545036  0.83526048  0.00101786  1
  Mn3.30+  Mn143  1  0.66771905  0.83448000  0.49824695  1
  O2-  O144  1  0.02721480  0.16140808  0.12824047  1
  O2-  O145  1  0.02503806  0.16349998  0.62112460  1
  O2-  O146  1  0.02724778  0.49395169  0.12605681  1
  O2-  O147  1  0.02448352  0.48964166  0.62586130  1
  O2-  O148  1  0.02551302  0.82814781  0.12876210  1
  O2-  O149  1  0.02436109  0.82734038  0.62373287  1
  O2-  O150  1  0.35748608  0.15896356  0.12571456  1
  O2-  O151  1  0.35820191  0.16237969  0.62373487  1
  O2-  O152  1  0.35570151  0.49206146  0.12282069  1
  O2-  O153  1  0.35822645  0.49412158  0.62808749  1
  O2-  O154  1  0.35017565  0.82593821  0.12518831  1
  O2-  O155  1  0.36217548  0.82731426  0.62462274  1
  O2-  O156  1  0.69192441  0.16300183  0.12600800  1
  O2-  O157  1  0.69127954  0.16556042  0.62367052  1
  O2-  O158  1  0.69334465  0.49260804  0.12401096  1
  O2-  O159  1  0.69368994  0.49309437  0.62623668  1
  O2-  O160  1  0.69202977  0.82427097  0.12732535  1
  O2-  O161  1  0.69170711  0.82365448  0.62367340  1
  O2-  O162  1  0.14101535  0.33074979  0.12661527  1
  O2-  O163  1  0.14072633  0.32924292  0.62170687  1
  O2-  O164  1  0.14268143  0.66487399  0.12608273  1
  O2-  O165  1  0.13788166  0.65865723  0.62516448  1
  O2-  O166  1  0.14081511  0.99175019  0.12785431  1
  O2-  O167  1  0.14196852  0.99468893  0.62325966  1
  O2-  O168  1  0.47196568  0.32507831  0.12524640  1
  O2-  O169  1  0.47470211  0.32672979  0.62541910  1
  O2-  O170  1  0.47519203  0.66161442  0.12378649  1
  O2-  O171  1  0.47497751  0.66305487  0.62527654  1
  O2-  O172  1  0.47434060  0.99960506  0.12633799  1
  O2-  O173  1  0.47362035  0.99662979  0.62312202  1
  O2-  O174  1  0.80884703  0.32710377  0.12534337  1
  O2-  O175  1  0.81032818  0.32749797  0.62235067  1
  O2-  O176  1  0.80766900  0.66288584  0.12435524  1
  O2-  O177  1  0.80726031  0.66317405  0.62535117  1
  O2-  O178  1  0.80740873  0.99094144  0.12593203  1
  O2-  O179  1  0.80716817  0.99110327  0.62378080  1
  O2-  O180  1  0.30547673  0.17525450  0.37453804  1
  O2-  O181  1  0.31203195  0.16950692  0.87572703  1
  O2-  O182  1  0.31022291  0.50518085  0.37481420  1
  O2-  O183  1  0.30557683  0.50982395  0.87463589  1
  O2-  O184  1  0.30746072  0.84089180  0.37636539  1
  O2-  O185  1  0.30871930  0.84338568  0.87279527  1
  O2-  O186  1  0.64224961  0.17294765  0.37438825  1
  O2-  O187  1  0.64813761  0.16882523  0.87527317  1
  O2-  O188  1  0.65072368  0.50556372  0.37443194  1
  O2-  O189  1  0.64078744  0.50679266  0.87527164  1
  O2-  O190  1  0.64124717  0.83824365  0.37538099  1
  O2-  O191  1  0.64007362  0.84129104  0.87352043  1
  O2-  O192  1  0.96998086  0.17432982  0.37434951  1
  O2-  O193  1  0.98139840  0.16968241  0.87669812  1
  O2-  O194  1  0.97420237  0.50666046  0.37353475  1
  O2-  O195  1  0.97461375  0.50130488  0.87488629  1
  O2-  O196  1  0.97434342  0.84084187  0.37570082  1
  O2-  O197  1  0.97653356  0.84106098  0.87208221  1
  O2-  O198  1  0.19304718  0.00392749  0.37514100  1
  O2-  O199  1  0.19108871  0.00227115  0.87348726  1
  O2-  O200  1  0.19412820  0.33978909  0.37545363  1
  O2-  O201  1  0.18883070  0.33820524  0.87685381  1
  O2-  O202  1  0.19533457  0.67001106  0.37769352  1
  O2-  O203  1  0.19396305  0.67600856  0.87203203  1
  O2-  O204  1  0.51864989  0.00488216  0.37473614  1
  O2-  O205  1  0.52514653  -0.00050755  0.87500251  1
  O2-  O206  1  0.52588805  0.33637198  0.37397146  1
  O2-  O207  1  0.52491288  0.34010727  0.87556839  1
  O2-  O208  1  0.52550972  0.67040353  0.37639299  1
  O2-  O209  1  0.52656846  0.67039551  0.87481626  1
  O2-  O210  1  0.85898841  0.00602066  0.37560769  1
  O2-  O211  1  0.85815912  0.00185771  0.87431245  1
  O2-  O212  1  0.85853631  0.34435653  0.37443605  1
  O2-  O213  1  0.85771362  0.33868273  0.87792569  1
  O2-  O214  1  0.86266344  0.67035640  0.37499709  1
  O2-  O215  1  0.85420924  0.67362933  0.87531187  1
  O2-  O216  1  0.23883677  0.09327929  0.02344415  1
  O2-  O217  1  0.23550601  0.09457520  0.51897424  1
  O2-  O218  1  0.23711604  0.43060548  0.01792035  1
  O2-  O219  1  0.24024542  0.42926958  0.52051841  1
  O2-  O220  1  0.23582129  0.76430193  0.01417913  1
  O2-  O221  1  0.23591560  0.76269496  0.52366385  1
  O2-  O222  1  0.57264018  0.09431669  0.02080027  1
  O2-  O223  1  0.57020632  0.09769629  0.51634340  1
  O2-  O224  1  0.56966782  0.42554265  0.02188494  1
  O2-  O225  1  0.57301106  0.42436473  0.52359536  1
  O2-  O226  1  0.57486571  0.75935380  0.01649021  1
  O2-  O227  1  0.57020658  0.76129443  0.51946270  1
  O2-  O228  1  0.90531214  0.09420377  0.02508200  1
  O2-  O229  1  0.90483556  0.09425530  0.52486638  1
  O2-  O230  1  0.90314812  0.42651655  0.02100860  1
  O2-  O231  1  0.90554589  0.42810204  0.51995852  1
  O2-  O232  1  0.90632665  0.76147254  0.02047901  1
  O2-  O233  1  0.90287048  0.76324533  0.51804615  1
  O2-  O234  1  0.26179409  0.26354327  0.22751185  1
  O2-  O235  1  0.25806647  0.26174273  0.73044612  1
  O2-  O236  1  0.26255861  0.59607726  0.22780793  1
  O2-  O237  1  0.26086072  0.59561702  0.72530455  1
  O2-  O238  1  0.26272465  0.92702645  0.23067726  1
  O2-  O239  1  0.26456547  0.92842344  0.72976780  1
  O2-  O240  1  0.59485392  0.25972768  0.22872271  1
  O2-  O241  1  0.59397627  0.25881555  0.73075207  1
  O2-  O242  1  0.59392652  0.59130719  0.22779824  1
  O2-  O243  1  0.59617659  0.59438915  0.72888799  1
  O2-  O244  1  0.59618218  0.92913791  0.22995725  1
  O2-  O245  1  0.59680829  0.92927747  0.72568625  1
  O2-  O246  1  0.93103791  0.26346265  0.23182780  1
  O2-  O247  1  0.92886565  0.26172772  0.73395197  1
  O2-  O248  1  0.92823693  0.59402269  0.22582894  1
  O2-  O249  1  0.93040581  0.59304990  0.72700347  1
  O2-  O250  1  0.92702496  0.92698873  0.22956176  1
  O2-  O251  1  0.92727714  0.92875933  0.72834420  1
  O2-  O252  1  0.09432135  0.23707019  0.27129220  1
  O2-  O253  1  0.09112853  0.24027421  0.76426425  1
  O2-  O254  1  0.09952284  0.57188428  0.26821557  1
  O2-  O255  1  0.09980240  0.56731402  0.76876139  1
  O2-  O256  1  0.09654494  0.90171357  0.27044841  1
  O2-  O257  1  0.09297717  0.90762222  0.76991101  1
  O2-  O258  1  0.42894442  0.23913402  0.27195528  1
  O2-  O259  1  0.42369691  0.24227594  0.76761848  1
  O2-  O260  1  0.42788345  0.57102884  0.26330904  1
  O2-  O261  1  0.43015234  0.56993444  0.76750059  1
  O2-  O262  1  0.42639461  0.90549706  0.27071978  1
  O2-  O263  1  0.43045836  0.90461535  0.76803782  1
  O2-  O264  1  0.76187975  0.24105220  0.27332820  1
  O2-  O265  1  0.75643547  0.24294708  0.76762671  1
  O2-  O266  1  0.76635912  0.57158749  0.26501107  1
  O2-  O267  1  0.76319970  0.57277915  0.77055224  1
  O2-  O268  1  0.76533489  0.90191504  0.26807076  1
  O2-  O269  1  0.76202934  0.90485463  0.77054611  1
  O2-  O270  1  0.06800299  0.07156882  0.47783827  1
  O2-  O271  1  0.06873122  0.06908364  0.98534168  1
  O2-  O272  1  0.07271344  0.40590020  0.47746451  1
  O2-  O273  1  0.06916624  0.40355686  0.98233279  1
  O2-  O274  1  0.07170652  0.73779980  0.47577951  1
  O2-  O275  1  0.07551906  0.73959659  0.98346016  1
  O2-  O276  1  0.40311302  0.07343853  0.47953647  1
  O2-  O277  1  0.40550998  0.06851076  0.98426820  1
  O2-  O278  1  0.40467940  0.40217811  0.48439131  1
  O2-  O279  1  0.40264971  0.40883582  0.97572088  1
  O2-  O280  1  0.40297225  0.73723370  0.47771209  1
  O2-  O281  1  0.40521328  0.74035439  0.97526119  1
  O2-  O282  1  0.73957554  0.07348233  0.48374696  1
  O2-  O283  1  0.73805974  0.06964740  0.98242390  1
  O2-  O284  1  0.74033226  0.40343551  0.48065579  1
  O2-  O285  1  0.73711319  0.40638735  0.97883245  1
  O2-  O286  1  0.73780855  0.73644293  0.47805067  1
  O2-  O287  1  0.73758529  0.74141964  0.97954781  1
  O2-  O288  1  0.09336289  0.23707070  0.47730272  1
  O2-  O289  1  0.09257324  0.24078595  0.98679486  1
  O2-  O290  1  0.09719868  0.57036080  0.48120714  1
  O2-  O291  1  0.10239074  0.57087959  0.98319320  1
  O2-  O292  1  0.09531219  0.90342393  0.48089476  1
  O2-  O293  1  0.09492013  0.90606389  0.97964001  1
  O2-  O294  1  0.42971940  0.23997192  0.47839702  1
  O2-  O295  1  0.42498741  0.24164858  0.98126560  1
  O2-  O296  1  0.42703053  0.57205530  0.48737473  1
  O2-  O297  1  0.43017873  0.56901202  0.98218835  1
  O2-  O298  1  0.42973071  0.90358610  0.48051092  1
  O2-  O299  1  0.42636911  0.90558289  0.97976058  1
  O2-  O300  1  0.76141328  0.24005150  0.47574607  1
  O2-  O301  1  0.75705724  0.24349973  0.98242067  1
  O2-  O302  1  0.76722816  0.57190733  0.48468189  1
  O2-  O303  1  0.76240318  0.57307005  0.97969807  1
  O2-  O304  1  0.76610639  0.90231615  0.48178140  1
  O2-  O305  1  0.76240135  0.90445514  0.97943299  1
  O2-  O306  1  0.06779760  0.07062186  0.27331652  1
  O2-  O307  1  0.06770922  0.07086234  0.76383037  1
  O2-  O308  1  0.07226856  0.40547498  0.27242449  1
  O2-  O309  1  0.06907075  0.40346629  0.76864138  1
  O2-  O310  1  0.07059104  0.73624197  0.27273296  1
  O2-  O311  1  0.07655599  0.74188909  0.76963711  1
  O2-  O312  1  0.40394599  0.07263631  0.26992361  1
  O2-  O313  1  0.40505439  0.06854410  0.76584822  1
  O2-  O314  1  0.40424285  0.40540731  0.26704527  1
  O2-  O315  1  0.40272892  0.40719532  0.77271520  1
  O2-  O316  1  0.40465642  0.73994216  0.27332787  1
  O2-  O317  1  0.40253837  0.73845479  0.77253014  1
  O2-  O318  1  0.74067088  0.07356888  0.26741360  1
  O2-  O319  1  0.73699352  0.06977621  0.76630382  1
  O2-  O320  1  0.73936709  0.40489508  0.26853194  1
  O2-  O321  1  0.73800434  0.40592902  0.77194045  1
  O2-  O322  1  0.73982993  0.73685549  0.27234717  1
  O2-  O323  1  0.73610983  0.74061457  0.77058146  1
  O2-  O324  1  0.23576985  0.09479195  0.23081235  1
  O2-  O325  1  0.23927874  0.09356001  0.72621886  1
  O2-  O326  1  0.23756720  0.43250872  0.23333293  1
  O2-  O327  1  0.23973468  0.42732065  0.72895284  1
  O2-  O328  1  0.23403609  0.76344417  0.23536781  1
  O2-  O329  1  0.23815622  0.76287507  0.72531060  1
  O2-  O330  1  0.56954825  0.09642164  0.23377926  1
  O2-  O331  1  0.57199642  0.09451224  0.72827680  1
  O2-  O332  1  0.57281217  0.42365273  0.22505420  1
  O2-  O333  1  0.57151921  0.42681611  0.72919861  1
  O2-  O334  1  0.57398357  0.75870640  0.23374681  1
  O2-  O335  1  0.57103225  0.76236960  0.73023407  1
  O2-  O336  1  0.90488115  0.09419264  0.22496549  1
  O2-  O337  1  0.90484748  0.09457070  0.72533718  1
  O2-  O338  1  0.90526818  0.42672977  0.22807769  1
  O2-  O339  1  0.90434618  0.42799583  0.73133314  1
  O2-  O340  1  0.90522794  0.76114318  0.22931176  1
  O2-  O341  1  0.90381995  0.76336276  0.73200585  1
  O2-  O342  1  0.25968279  0.26389937  0.02085676  1
  O2-  O343  1  0.26082251  0.26147350  0.52199402  1
  O2-  O344  1  0.26437029  0.59781911  0.02388418  1
  O2-  O345  1  0.25807224  0.59517140  0.52404332  1
  O2-  O346  1  0.26114739  0.92778350  0.01990000  1
  O2-  O347  1  0.26582096  0.92872829  0.51796778  1
  O2-  O348  1  0.59364645  0.25845810  0.01979082  1
  O2-  O349  1  0.59494816  0.26160466  0.52006889  1
  O2-  O350  1  0.59597295  0.59303661  0.02140979  1
  O2-  O351  1  0.59209952  0.59350160  0.52242621  1
  O2-  O352  1  0.59847136  0.93064078  0.01925458  1
  O2-  O353  1  0.59637870  0.92707469  0.52391737  1
  O2-  O354  1  0.92939478  0.26160928  0.01863840  1
  O2-  O355  1  0.93044539  0.26421691  0.51651883  1
  O2-  O356  1  0.92954294  0.59240088  0.02293583  1
  O2-  O357  1  0.92904772  0.59545432  0.52417375  1
  O2-  O358  1  0.92695551  0.92890733  0.02019591  1
  O2-  O359  1  0.92812368  0.92696219  0.52134620  1
