# generated using pymatgen
data_Sr7Ca15Pr50Mn72O216
_symmetry_space_group_name_H-M   'P 1'
_cell_length_a   16.56035867
_cell_length_b   16.60376730
_cell_length_c   15.59318775
_cell_angle_alpha   89.99950517
_cell_angle_beta   90.00610397
_cell_angle_gamma   90.00937771
_symmetry_Int_Tables_number   1
_chemical_formula_structural   Sr7Ca15Pr50Mn72O216
_chemical_formula_sum   'Sr7 Ca15 Pr50 Mn72 O216'
_cell_volume   4287.57052416
_cell_formula_units_Z   1
loop_
 _symmetry_equiv_pos_site_id
 _symmetry_equiv_pos_as_xyz
  1  'x, y, z'
loop_
 _atom_type_symbol
 _atom_type_oxidation_number
  Sr2+  2.0
  Ca2+  2.0
  Pr3+  3.0
  Mn3.30+  3.3
  O2-  -2.0
loop_
 _atom_site_type_symbol
 _atom_site_label
 _atom_site_symmetry_multiplicity
 _atom_site_fract_x
 _atom_site_fract_y
 _atom_site_fract_z
 _atom_site_occupancy
  Sr2+  Sr0  1  0.33853929  0.65464198  0.87507852  1
  Sr2+  Sr1  1  0.33249338  0.01098086  0.12472726  1
  Sr2+  Sr2  1  0.83193605  0.82228274  0.37380156  1
  Sr2+  Sr3  1  0.83071075  0.15666928  0.87549648  1
  Sr2+  Sr4  1  0.83384410  0.84219053  0.12413560  1
  Sr2+  Sr5  1  0.67127033  0.65886926  0.37351326  1
  Sr2+  Sr6  1  0.33345800  0.34073940  0.62376294  1
  Ca2+  Ca7  1  0.17043147  0.51531584  0.12429254  1
  Ca2+  Ca8  1  -0.00285832  0.68353384  0.12308460  1
  Ca2+  Ca9  1  0.99869373  0.98596631  0.87639787  1
  Ca2+  Ca10  1  0.49989423  0.18299848  0.62232536  1
  Ca2+  Ca11  1  0.16235829  0.81927282  0.37230929  1
  Ca2+  Ca12  1  0.17241068  0.18359937  0.62242083  1
  Ca2+  Ca13  1  0.82970583  0.48479079  0.87658894  1
  Ca2+  Ca14  1  0.16736751  0.15393982  0.37637051  1
  Ca2+  Ca15  1  0.49384000  0.15334324  0.37468550  1
  Ca2+  Ca16  1  0.49550123  0.81857842  0.87670139  1
  Ca2+  Ca17  1  0.83232325  0.82237269  0.87691870  1
  Ca2+  Ca18  1  0.33800125  0.31382924  0.37546271  1
  Ca2+  Ca19  1  0.50123425  0.17859553  0.12744353  1
  Ca2+  Ca20  1  0.66142503  0.01556629  0.12526306  1
  Ca2+  Ca21  1  0.49539030  0.48569491  0.87558948  1
  Pr3+  Pr22  1  0.83311742  0.17483696  0.12421132  1
  Pr3+  Pr23  1  -0.00128761  0.67879929  0.62678540  1
  Pr3+  Pr24  1  1.00085956  0.32139324  0.87584206  1
  Pr3+  Pr25  1  0.83620659  0.51195110  0.62757103  1
  Pr3+  Pr26  1  0.33806094  0.98533775  0.87599947  1
  Pr3+  Pr27  1  0.16697973  0.48684069  0.87768391  1
  Pr3+  Pr28  1  0.66536967  0.68016616  0.62474023  1
  Pr3+  Pr29  1  0.32863074  0.01752384  0.62539500  1
  Pr3+  Pr30  1  0.33135393  0.67906944  0.12319935  1
  Pr3+  Pr31  1  0.82968742  0.15293237  0.37532800  1
  Pr3+  Pr32  1  -0.00186484  0.34388578  0.12540462  1
  Pr3+  Pr33  1  0.50385086  0.51331561  0.12284450  1
  Pr3+  Pr34  1  0.83734525  0.51489263  0.12181583  1
  Pr3+  Pr35  1  0.17115008  0.17570947  0.12769059  1
  Pr3+  Pr36  1  0.17196130  0.51071945  0.62589119  1
  Pr3+  Pr37  1  0.16451983  0.82131416  0.87713476  1
  Pr3+  Pr38  1  0.50167948  0.51083414  0.62653032  1
  Pr3+  Pr39  1  0.66552260  0.68238184  0.12503225  1
  Pr3+  Pr40  1  0.33333010  0.99027588  0.37387013  1
  Pr3+  Pr41  1  0.33462652  0.65511759  0.37376183  1
  Pr3+  Pr42  1  0.33075178  0.34522059  0.12681243  1
  Pr3+  Pr43  1  0.83088578  0.49141665  0.37308064  1
  Pr3+  Pr44  1  0.33593619  0.32329834  0.87442947  1
  Pr3+  Pr45  1  0.67038060  0.65412013  0.87644916  1
  Pr3+  Pr46  1  0.66280015  0.34388646  0.12386740  1
  Pr3+  Pr47  1  1.00559096  0.31706779  0.37467214  1
  Pr3+  Pr48  1  0.50605167  0.84968844  0.12369541  1
  Pr3+  Pr49  1  0.16164425  0.15354994  0.87329565  1
  Pr3+  Pr50  1  0.16437666  0.48678764  0.37335269  1
  Pr3+  Pr51  1  0.66188977  0.01586339  0.62452873  1
  Pr3+  Pr52  1  0.66741410  0.32071841  0.37387219  1
  Pr3+  Pr53  1  -0.00470950  0.00822510  0.12399738  1
  Pr3+  Pr54  1  0.83474573  0.18068907  0.62564853  1
  Pr3+  Pr55  1  0.83626438  0.84517169  0.62559095  1
  Pr3+  Pr56  1  0.33160839  0.67825743  0.62623463  1
  Pr3+  Pr57  1  1.00130466  0.65453206  0.87891388  1
  Pr3+  Pr58  1  -0.00181755  0.01355729  0.62598268  1
  Pr3+  Pr59  1  0.16794294  0.84636656  0.12525706  1
  Pr3+  Pr60  1  0.00007568  0.34449325  0.62496946  1
  Pr3+  Pr61  1  0.17177306  0.84639070  0.62529127  1
  Pr3+  Pr62  1  0.66716614  0.98886285  0.37433789  1
  Pr3+  Pr63  1  0.66153268  0.34525624  0.62599069  1
  Pr3+  Pr64  1  0.49625208  0.48558527  0.37360978  1
  Pr3+  Pr65  1  0.50254024  0.84568731  0.62628064  1
  Pr3+  Pr66  1  1.00362053  0.65790603  0.37038330  1
  Pr3+  Pr67  1  0.49843710  0.82182687  0.37402098  1
  Pr3+  Pr68  1  0.49607230  0.15650767  0.87410456  1
  Pr3+  Pr69  1  0.67066215  0.98698909  0.87596394  1
  Pr3+  Pr70  1  0.66783508  0.32068345  0.87605461  1
  Pr3+  Pr71  1  1.00411497  0.98328916  0.37457391  1
  Mn3.30+  Mn72  1  0.16529943  0.00013170  -0.00154483  1
  Mn3.30+  Mn73  1  0.16646457  0.00183181  0.50018140  1
  Mn3.30+  Mn74  1  0.16703353  0.33333913  0.00268506  1
  Mn3.30+  Mn75  1  0.16973221  0.33090916  0.49721446  1
  Mn3.30+  Mn76  1  0.16620358  0.66537810  0.00198076  1
  Mn3.30+  Mn77  1  0.16726442  0.66705987  0.49892981  1
  Mn3.30+  Mn78  1  0.50189582  0.00249103  0.00039072  1
  Mn3.30+  Mn79  1  0.49793890  0.00326464  0.50054064  1
  Mn3.30+  Mn80  1  0.49889063  0.33285013  0.00123006  1
  Mn3.30+  Mn81  1  0.49782174  0.33109813  0.49854017  1
  Mn3.30+  Mn82  1  0.50024511  0.66758548  -0.00178616  1
  Mn3.30+  Mn83  1  0.50050211  0.66571966  0.49872619  1
  Mn3.30+  Mn84  1  0.83132407  -0.00122498  -0.00091812  1
  Mn3.30+  Mn85  1  0.83277289  -0.00001278  0.50106025  1
  Mn3.30+  Mn86  1  0.83227638  0.33301249  0.00007825  1
  Mn3.30+  Mn87  1  0.83364014  0.33441209  0.49907506  1
  Mn3.30+  Mn88  1  0.83509105  0.66833119  -0.00161541  1
  Mn3.30+  Mn89  1  0.83432470  0.66680230  0.50023660  1
  Mn3.30+  Mn90  1  0.00148409  0.16390525  0.25112380  1
  Mn3.30+  Mn91  1  0.00068592  0.16578232  0.74939201  1
  Mn3.30+  Mn92  1  0.00181553  0.50124047  0.24615506  1
  Mn3.30+  Mn93  1  0.00009589  0.49920154  0.75322552  1
  Mn3.30+  Mn94  1  0.00063992  0.83187042  0.24896180  1
  Mn3.30+  Mn95  1  -0.00015517  0.83451579  0.75216445  1
  Mn3.30+  Mn96  1  0.33516546  0.16640147  0.25119023  1
  Mn3.30+  Mn97  1  0.33086696  0.16814205  0.74888961  1
  Mn3.30+  Mn98  1  0.33161332  0.49847947  0.24936649  1
  Mn3.30+  Mn99  1  0.33586168  0.49918352  0.75077881  1
  Mn3.30+  Mn100  1  0.33199518  0.83454074  0.25027957  1
  Mn3.30+  Mn101  1  0.33631647  0.83326032  0.75089877  1
  Mn3.30+  Mn102  1  0.66255556  0.16571443  0.25045751  1
  Mn3.30+  Mn103  1  0.66378518  0.16710946  0.74907340  1
  Mn3.30+  Mn104  1  0.66675832  0.50068469  0.24902158  1
  Mn3.30+  Mn105  1  0.66703996  0.50026926  0.75319531  1
  Mn3.30+  Mn106  1  0.66795015  0.83634449  0.24866943  1
  Mn3.30+  Mn107  1  0.66660424  0.83356722  0.75287355  1
  Mn3.30+  Mn108  1  0.16646542  0.00038395  0.25133773  1
  Mn3.30+  Mn109  1  0.16530504  0.00076102  0.75054295  1
  Mn3.30+  Mn110  1  0.16854981  0.33218688  0.25162717  1
  Mn3.30+  Mn111  1  0.16749357  0.33232726  0.74930057  1
  Mn3.30+  Mn112  1  0.16663010  0.66653665  0.24657406  1
  Mn3.30+  Mn113  1  0.16731436  0.66583990  0.75323727  1
  Mn3.30+  Mn114  1  0.50028386  0.00389677  0.24961451  1
  Mn3.30+  Mn115  1  0.49947735  0.00138471  0.74971275  1
  Mn3.30+  Mn116  1  0.49757089  0.33012077  0.25040692  1
  Mn3.30+  Mn117  1  0.49958593  0.33417841  0.74968481  1
  Mn3.30+  Mn118  1  0.50024940  0.66677570  0.25041750  1
  Mn3.30+  Mn119  1  0.50093038  0.66641946  0.75147691  1
  Mn3.30+  Mn120  1  0.83101091  -0.00104704  0.24814083  1
  Mn3.30+  Mn121  1  0.83311867  -0.00027412  0.75230337  1
  Mn3.30+  Mn122  1  0.83368157  0.33294356  0.24973625  1
  Mn3.30+  Mn123  1  0.83224451  0.33410053  0.75108212  1
  Mn3.30+  Mn124  1  0.83606544  0.66779536  0.24769903  1
  Mn3.30+  Mn125  1  0.83329631  0.66687915  0.75326577  1
  Mn3.30+  Mn126  1  -0.00007647  0.16410413  -0.00091033  1
  Mn3.30+  Mn127  1  0.00301680  0.16567469  0.50089869  1
  Mn3.30+  Mn128  1  0.00081898  0.50020358  0.00177285  1
  Mn3.30+  Mn129  1  0.00085608  0.50023049  0.49921434  1
  Mn3.30+  Mn130  1  -0.00247396  0.83407755  -0.00198892  1
  Mn3.30+  Mn131  1  0.00334372  0.83205666  0.50035820  1
  Mn3.30+  Mn132  1  0.33358849  0.16653700  0.00147723  1
  Mn3.30+  Mn133  1  0.33271240  0.16793686  0.49880278  1
  Mn3.30+  Mn134  1  0.33458607  0.50017122  0.00123386  1
  Mn3.30+  Mn135  1  0.33322552  0.49703233  0.49852839  1
  Mn3.30+  Mn136  1  0.33566929  0.83348540  0.00059526  1
  Mn3.30+  Mn137  1  0.33218566  0.83421194  0.49819943  1
  Mn3.30+  Mn138  1  0.66379156  0.16510661  0.00178377  1
  Mn3.30+  Mn139  1  0.66204583  0.16783589  0.49851926  1
  Mn3.30+  Mn140  1  0.66691823  0.50018951  -0.00203759  1
  Mn3.30+  Mn141  1  0.66684434  0.50066622  0.49944274  1
  Mn3.30+  Mn142  1  0.66619422  0.83533952  -0.00228389  1
  Mn3.30+  Mn143  1  0.66781154  0.83469516  0.50091351  1
  O2-  O144  1  0.02642011  0.15785795  0.12490875  1
  O2-  O145  1  0.02930971  0.16213290  0.62479394  1
  O2-  O146  1  0.03041939  0.48862389  0.12459449  1
  O2-  O147  1  0.02756770  0.49346978  0.62846299  1
  O2-  O148  1  0.02379085  0.83466289  0.12344545  1
  O2-  O149  1  0.02894354  0.82635533  0.62591329  1
  O2-  O150  1  0.35833935  0.16553217  0.12462847  1
  O2-  O151  1  0.35843834  0.16311069  0.62437325  1
  O2-  O152  1  0.36060311  0.49436005  0.12579718  1
  O2-  O153  1  0.35680949  0.49823639  0.62222894  1
  O2-  O154  1  0.36032597  0.82918987  0.12483673  1
  O2-  O155  1  0.35820531  0.82849929  0.62243174  1
  O2-  O156  1  0.69020278  0.16340342  0.12794867  1
  O2-  O157  1  0.69083924  0.16542163  0.62284894  1
  O2-  O158  1  0.69189770  0.49333622  0.12326786  1
  O2-  O159  1  0.69244096  0.49351860  0.62783716  1
  O2-  O160  1  0.68375657  0.82986073  0.12304907  1
  O2-  O161  1  0.69167098  0.82965535  0.62816807  1
  O2-  O162  1  0.14107688  0.32212392  0.12714647  1
  O2-  O163  1  0.14289495  0.33034895  0.62131376  1
  O2-  O164  1  0.13953008  0.65995479  0.12365150  1
  O2-  O165  1  0.14292125  0.65927669  0.62933595  1
  O2-  O166  1  0.14067369  0.99641541  0.12245804  1
  O2-  O167  1  0.14139796  0.99110701  0.62504240  1
  O2-  O168  1  0.47465602  0.32570422  0.12679094  1
  O2-  O169  1  0.48296583  0.33077986  0.62208920  1
  O2-  O170  1  0.47649600  0.66183329  0.12637318  1
  O2-  O171  1  0.47593344  0.65999065  0.62268864  1
  O2-  O172  1  0.47959458  0.99356057  0.12461031  1
  O2-  O173  1  0.47212878  0.99070087  0.62539237  1
  O2-  O174  1  0.80848880  0.32598746  0.12607215  1
  O2-  O175  1  0.80749543  0.33036495  0.62359166  1
  O2-  O176  1  0.80915178  0.66163663  0.12159297  1
  O2-  O177  1  0.80952940  0.65911722  0.63023418  1
  O2-  O178  1  0.80668034  0.99990225  0.12531574  1
  O2-  O179  1  0.80738795  0.99381543  0.62679591  1
  O2-  O180  1  0.30824711  0.16758008  0.37575674  1
  O2-  O181  1  0.30649291  0.17362722  0.87548193  1
  O2-  O182  1  0.30722890  0.50900362  0.37370837  1
  O2-  O183  1  0.31079597  0.49747025  0.87839155  1
  O2-  O184  1  0.30520651  0.83949131  0.37569113  1
  O2-  O185  1  0.30957634  0.83732445  0.87701477  1
  O2-  O186  1  0.63746467  0.17276606  0.37523501  1
  O2-  O187  1  0.64054986  0.17172796  0.87423451  1
  O2-  O188  1  0.64212462  0.50326607  0.37250467  1
  O2-  O189  1  0.63695676  0.50667108  0.87587772  1
  O2-  O190  1  0.64260396  0.83947131  0.37489897  1
  O2-  O191  1  0.63597793  0.84012601  0.87398530  1
  O2-  O192  1  0.97319741  0.16976653  0.37646297  1
  O2-  O193  1  0.97981115  0.17540979  0.87407164  1
  O2-  O194  1  0.97438462  0.50875148  0.37033551  1
  O2-  O195  1  0.97226674  0.50450099  0.87675689  1
  O2-  O196  1  0.98158270  0.83396968  0.37619269  1
  O2-  O197  1  0.97416053  0.84030155  0.87339045  1
  O2-  O198  1  0.18984712  0.00839693  0.37851843  1
  O2-  O199  1  0.19365920  0.00575666  0.87418834  1
  O2-  O200  1  0.19494087  0.34206615  0.37321847  1
  O2-  O201  1  0.19144484  0.33864512  0.87910292  1
  O2-  O202  1  0.19158172  0.67327561  0.37106861  1
  O2-  O203  1  0.18900437  0.67237551  0.87638391  1
  O2-  O204  1  0.52366143  0.00740463  0.37663986  1
  O2-  O205  1  0.52643207  0.01124634  0.87355222  1
  O2-  O206  1  0.52558819  0.34090131  0.37383137  1
  O2-  O207  1  0.52331939  0.33855653  0.87679551  1
  O2-  O208  1  0.52090564  0.67193021  0.37520004  1
  O2-  O209  1  0.52666880  0.67544544  0.87475942  1
  O2-  O210  1  0.85829284  0.00644107  0.37645473  1
  O2-  O211  1  0.85725552  0.00606662  0.87222421  1
  O2-  O212  1  0.86082155  0.34108682  0.37412955  1
  O2-  O213  1  0.85690895  0.33758923  0.87621428  1
  O2-  O214  1  0.85843813  0.66279402  0.37281211  1
  O2-  O215  1  0.85825576  0.67614091  0.87459614  1
  O2-  O216  1  0.23532079  0.09716312  0.01587148  1
  O2-  O217  1  0.23722236  0.09496494  0.52391369  1
  O2-  O218  1  0.23673559  0.42750864  0.02335140  1
  O2-  O219  1  0.23550927  0.43124544  0.51606118  1
  O2-  O220  1  0.23854124  0.75924923  0.02244200  1
  O2-  O221  1  0.24137622  0.76015017  0.52281960  1
  O2-  O222  1  0.56727824  0.09962670  0.01884130  1
  O2-  O223  1  0.56902606  0.09503857  0.52512712  1
  O2-  O224  1  0.57177559  0.42567081  0.02298150  1
  O2-  O225  1  0.57230050  0.42893321  0.51831881  1
  O2-  O226  1  0.57242995  0.76170445  0.02100736  1
  O2-  O227  1  0.57372762  0.76291517  0.51971836  1
  O2-  O228  1  0.90517723  0.09194638  0.02254613  1
  O2-  O229  1  0.90300278  0.09452495  0.52263299  1
  O2-  O230  1  0.90890146  0.42603704  0.02303380  1
  O2-  O231  1  0.90643092  0.42844578  0.52071088  1
  O2-  O232  1  0.90855768  0.75960234  0.01595859  1
  O2-  O233  1  0.90917274  0.75928989  0.52373584  1
  O2-  O234  1  0.26282666  0.25910322  0.22926687  1
  O2-  O235  1  0.25985007  0.26120491  0.73522253  1
  O2-  O236  1  0.26315798  0.59643210  0.23058231  1
  O2-  O237  1  0.26243805  0.59160682  0.73041093  1
  O2-  O238  1  0.25818350  0.92556523  0.23107448  1
  O2-  O239  1  0.26314443  0.92903596  0.73110699  1
  O2-  O240  1  0.59783554  0.26432855  0.23257207  1
  O2-  O241  1  0.59503103  0.26346447  0.73445290  1
  O2-  O242  1  0.59421924  0.59350651  0.22665160  1
  O2-  O243  1  0.59726087  0.59540880  0.72887697  1
  O2-  O244  1  0.59388130  0.93147466  0.23281008  1
  O2-  O245  1  0.59621732  0.92899214  0.72806823  1
  O2-  O246  1  0.92884363  0.25871960  0.23034131  1
  O2-  O247  1  0.92796306  0.25983914  0.72783167  1
  O2-  O248  1  0.93117736  0.59397036  0.22312619  1
  O2-  O249  1  0.93041203  0.59279271  0.73111986  1
  O2-  O250  1  0.92942988  0.92869869  0.23556821  1
  O2-  O251  1  0.92900043  0.92477341  0.72501830  1
  O2-  O252  1  0.09612408  0.23727617  0.27274285  1
  O2-  O253  1  0.09250383  0.24144724  0.77055154  1
  O2-  O254  1  0.09511763  0.57352480  0.27229557  1
  O2-  O255  1  0.09364979  0.57027912  0.77409568  1
  O2-  O256  1  0.09507476  0.90455063  0.26929166  1
  O2-  O257  1  0.09786799  0.90219670  0.76872513  1
  O2-  O258  1  0.42934731  0.23699921  0.27245225  1
  O2-  O259  1  0.42477638  0.24052571  0.77033907  1
  O2-  O260  1  0.42646442  0.57028273  0.26939506  1
  O2-  O261  1  0.43415723  0.56931269  0.76650972  1
  O2-  O262  1  0.42863005  0.90745253  0.27125194  1
  O2-  O263  1  0.42983410  0.90478338  0.77249813  1
  O2-  O264  1  0.76013610  0.23803297  0.27202376  1
  O2-  O265  1  0.75729416  0.24043778  0.76587624  1
  O2-  O266  1  0.76638347  0.57066266  0.26279741  1
  O2-  O267  1  0.76158650  0.56978796  0.77437330  1
  O2-  O268  1  0.75727277  0.91051674  0.27138355  1
  O2-  O269  1  0.76096972  0.90247349  0.77259672  1
  O2-  O270  1  0.06756651  0.06699565  0.48309720  1
  O2-  O271  1  0.07035125  0.07095537  0.97664379  1
  O2-  O272  1  0.07173243  0.40441151  0.47808238  1
  O2-  O273  1  0.07140343  0.40437634  0.97897574  1
  O2-  O274  1  0.07139662  0.73443037  0.48349703  1
  O2-  O275  1  0.07274435  0.74210056  0.97878587  1
  O2-  O276  1  0.39979458  0.06883198  0.48350450  1
  O2-  O277  1  0.40525160  0.07355746  0.97611156  1
  O2-  O278  1  0.40633126  0.40473477  0.47530106  1
  O2-  O279  1  0.40304858  0.40265850  0.98566792  1
  O2-  O280  1  0.40493785  0.73994541  0.47943320  1
  O2-  O281  1  0.40762639  0.73772440  0.98576173  1
  O2-  O282  1  0.73430580  0.07551618  0.48026423  1
  O2-  O283  1  0.73610784  0.07099800  0.98285831  1
  O2-  O284  1  0.73798759  0.40673608  0.47832213  1
  O2-  O285  1  0.73577797  0.40666315  0.98074514  1
  O2-  O286  1  0.74275750  0.73815461  0.48905514  1
  O2-  O287  1  0.73481363  0.73867851  0.98249926  1
  O2-  O288  1  0.09565894  0.23979277  0.47543671  1
  O2-  O289  1  0.09517816  0.23884946  0.98098269  1
  O2-  O290  1  0.09503905  0.57093802  0.47931934  1
  O2-  O291  1  0.09382787  0.57195821  0.97674358  1
  O2-  O292  1  0.09767552  0.90232625  0.47941365  1
  O2-  O293  1  0.09460802  0.90474190  0.98064710  1
  O2-  O294  1  0.43007127  0.23645958  0.47973699  1
  O2-  O295  1  0.42522011  0.24071501  0.97652529  1
  O2-  O296  1  0.42629083  0.56990349  0.47849607  1
  O2-  O297  1  0.43406586  0.56890523  0.98387376  1
  O2-  O298  1  0.42699946  0.90535307  0.47742803  1
  O2-  O299  1  0.43118301  0.90766346  0.97896206  1
  O2-  O300  1  0.76240788  0.23991729  0.47808934  1
  O2-  O301  1  0.75543693  0.23974405  0.98407131  1
  O2-  O302  1  0.76426546  0.56854965  0.48520562  1
  O2-  O303  1  0.76427897  0.57188591  0.97832931  1
  O2-  O304  1  0.75832850  0.90930297  0.48315877  1
  O2-  O305  1  0.76025981  0.90544327  0.97431727  1
  O2-  O306  1  0.06876118  0.06853780  0.26871996  1
  O2-  O307  1  0.06881149  0.06993049  0.77171370  1
  O2-  O308  1  0.07081913  0.40443977  0.27198911  1
  O2-  O309  1  0.07159553  0.40515124  0.77222773  1
  O2-  O310  1  0.07469390  0.73873774  0.26596449  1
  O2-  O311  1  0.07065587  0.73890370  0.77237709  1
  O2-  O312  1  0.40388724  0.07161157  0.27084473  1
  O2-  O313  1  0.40085902  0.07252236  0.77024981  1
  O2-  O314  1  0.40291033  0.40334455  0.27075150  1
  O2-  O315  1  0.40605215  0.40573636  0.76834746  1
  O2-  O316  1  0.40467689  0.74035260  0.27050784  1
  O2-  O317  1  0.40799702  0.73765003  0.76209792  1
  O2-  O318  1  0.73797501  0.07543816  0.27405719  1
  O2-  O319  1  0.73179388  0.07135191  0.76414921  1
  O2-  O320  1  0.73927328  0.40593983  0.26969121  1
  O2-  O321  1  0.73611036  0.40626982  0.77125174  1
  O2-  O322  1  0.74049096  0.74025039  0.26049480  1
  O2-  O323  1  0.73491359  0.73774436  0.76882344  1
  O2-  O324  1  0.23786169  0.09466220  0.23346860  1
  O2-  O325  1  0.23526810  0.09702443  0.72852629  1
  O2-  O326  1  0.23723481  0.42987307  0.22646013  1
  O2-  O327  1  0.23569730  0.42917161  0.73510411  1
  O2-  O328  1  0.23951634  0.75800390  0.22407009  1
  O2-  O329  1  0.24065503  0.76160872  0.73066292  1
  O2-  O330  1  0.57009873  0.09708361  0.22971636  1
  O2-  O331  1  0.56809228  0.09788914  0.72574481  1
  O2-  O332  1  0.57005654  0.42660049  0.22898105  1
  O2-  O333  1  0.57431434  0.42846591  0.72900740  1
  O2-  O334  1  0.57241165  0.76451742  0.23223284  1
  O2-  O335  1  0.57384947  0.75995211  0.72572991  1
  O2-  O336  1  0.90299522  0.09305621  0.23016275  1
  O2-  O337  1  0.90697130  0.09496784  0.72475228  1
  O2-  O338  1  0.90676818  0.42830903  0.22679242  1
  O2-  O339  1  0.90858316  0.42605610  0.72854526  1
  O2-  O340  1  0.91018378  0.75781489  0.23253675  1
  O2-  O341  1  0.90828374  0.76033083  0.72695833  1
  O2-  O342  1  0.26136377  0.26136366  0.02165614  1
  O2-  O343  1  0.26149689  0.26026638  0.51539076  1
  O2-  O344  1  0.26332023  0.59244530  0.02068660  1
  O2-  O345  1  0.26100258  0.59540464  0.51897131  1
  O2-  O346  1  0.25720162  0.92554895  0.01622656  1
  O2-  O347  1  0.26176409  0.92936680  0.52192190  1
  O2-  O348  1  0.59401824  0.26303802  0.01734002  1
  O2-  O349  1  0.59810369  0.26543038  0.51577041  1
  O2-  O350  1  0.59762282  0.59617306  0.02082526  1
  O2-  O351  1  0.59484860  0.59215444  0.52274717  1
  O2-  O352  1  0.59687362  0.93235777  0.01875459  1
  O2-  O353  1  0.59125556  0.93001210  0.52011507  1
  O2-  O354  1  0.92892841  0.25728154  0.02124704  1
  O2-  O355  1  0.92928011  0.26072168  0.52102822  1
  O2-  O356  1  0.93219569  0.59367897  0.02177671  1
  O2-  O357  1  0.92886099  0.59377559  0.52259977  1
  O2-  O358  1  0.92736432  0.92914028  0.01708916  1
  O2-  O359  1  0.93111593  0.92503383  0.52094901  1
