# generated using pymatgen
data_Sr7Ca15Pr50Mn72O216
_symmetry_space_group_name_H-M   'P 1'
_cell_length_a   16.55796854
_cell_length_b   16.60489404
_cell_length_c   15.59497838
_cell_angle_alpha   89.99665392
_cell_angle_beta   90.00223791
_cell_angle_gamma   89.98991369
_symmetry_Int_Tables_number   1
_chemical_formula_structural   Sr7Ca15Pr50Mn72O216
_chemical_formula_sum   'Sr7 Ca15 Pr50 Mn72 O216'
_cell_volume   4287.73494708
_cell_formula_units_Z   1
loop_
 _symmetry_equiv_pos_site_id
 _symmetry_equiv_pos_as_xyz
  1  'x, y, z'
loop_
 _atom_type_symbol
 _atom_type_oxidation_number
  Sr2+  2.0
  Ca2+  2.0
  Pr3+  3.0
  Mn3.30+  3.3
  O2-  -2.0
loop_
 _atom_site_type_symbol
 _atom_site_label
 _atom_site_symmetry_multiplicity
 _atom_site_fract_x
 _atom_site_fract_y
 _atom_site_fract_z
 _atom_site_occupancy
  Sr2+  Sr0  1  0.66510604  0.34271504  0.12235730  1
  Sr2+  Sr1  1  0.33587338  0.65764125  0.87378388  1
  Sr2+  Sr2  1  0.83029008  0.15815289  0.87157706  1
  Sr2+  Sr3  1  0.50471630  0.84266190  0.62662837  1
  Sr2+  Sr4  1  0.83367569  0.51134181  0.62409094  1
  Sr2+  Sr5  1  0.33125876  0.32543899  0.87327658  1
  Sr2+  Sr6  1  0.50146784  0.84160780  0.12389728  1
  Ca2+  Ca7  1  0.32923225  0.34724706  0.62586647  1
  Ca2+  Ca8  1  0.67074296  0.31833613  0.87318204  1
  Ca2+  Ca9  1  -0.00371517  0.01375035  0.12621050  1
  Ca2+  Ca10  1  -0.00601926  0.01504546  0.62302419  1
  Ca2+  Ca11  1  0.83346936  0.84859301  0.62362593  1
  Ca2+  Ca12  1  1.00170663  0.98663330  0.37844051  1
  Ca2+  Ca13  1  0.66412908  0.68143270  0.62324028  1
  Ca2+  Ca14  1  0.50077167  0.81860350  0.37816934  1
  Ca2+  Ca15  1  0.66633271  0.01339192  0.62598894  1
  Ca2+  Ca16  1  0.49901074  0.81978744  0.87204039  1
  Ca2+  Ca17  1  0.83480875  0.17851320  0.62561888  1
  Ca2+  Ca18  1  1.00180118  0.65306139  0.37743343  1
  Ca2+  Ca19  1  0.66778647  0.65524284  0.37775676  1
  Ca2+  Ca20  1  0.33813833  0.31841869  0.37691727  1
  Ca2+  Ca21  1  0.16535184  0.48408658  0.87363702  1
  Pr3+  Pr22  1  -0.00395636  0.68118179  0.12766107  1
  Pr3+  Pr23  1  0.33257732  0.67979293  0.62551939  1
  Pr3+  Pr24  1  0.66335179  0.01219441  0.12531076  1
  Pr3+  Pr25  1  0.49719322  0.48635727  0.37572981  1
  Pr3+  Pr26  1  0.16175343  0.15482830  0.87363657  1
  Pr3+  Pr27  1  0.17032225  0.51022879  0.62662003  1
  Pr3+  Pr28  1  0.83123799  0.81961447  0.37763095  1
  Pr3+  Pr29  1  0.33834687  0.65505488  0.37599820  1
  Pr3+  Pr30  1  0.16062324  0.81738048  0.37640633  1
  Pr3+  Pr31  1  0.33766437  0.98774365  0.87358078  1
  Pr3+  Pr32  1  -0.00465570  0.34592338  0.62494556  1
  Pr3+  Pr33  1  0.83482059  0.51406433  0.12544071  1
  Pr3+  Pr34  1  0.49669578  0.48720089  0.87448628  1
  Pr3+  Pr35  1  0.49718174  0.15431873  0.37582361  1
  Pr3+  Pr36  1  0.16735343  0.17779318  0.12549520  1
  Pr3+  Pr37  1  1.00076801  0.98876736  0.87299729  1
  Pr3+  Pr38  1  0.16992437  0.18082207  0.62462609  1
  Pr3+  Pr39  1  0.50159631  0.17836977  0.62533334  1
  Pr3+  Pr40  1  1.00199013  0.32047470  0.37722653  1
  Pr3+  Pr41  1  0.33219189  0.68085257  0.12443008  1
  Pr3+  Pr42  1  0.33180446  0.01151898  0.62407948  1
  Pr3+  Pr43  1  0.83638596  0.84962724  0.12576816  1
  Pr3+  Pr44  1  0.67127325  0.98780043  0.87156826  1
  Pr3+  Pr45  1  0.66410730  0.67942752  0.12609707  1
  Pr3+  Pr46  1  0.16981040  0.84641795  0.62445387  1
  Pr3+  Pr47  1  0.33805257  0.98442213  0.37624236  1
  Pr3+  Pr48  1  -0.00759012  0.68144886  0.62199346  1
  Pr3+  Pr49  1  0.16971287  0.51255705  0.12339148  1
  Pr3+  Pr50  1  0.50279517  0.17953707  0.12514442  1
  Pr3+  Pr51  1  0.83067277  0.49133466  0.37680702  1
  Pr3+  Pr52  1  0.83128542  0.82311786  0.87294830  1
  Pr3+  Pr53  1  0.16349719  0.15206739  0.37655178  1
  Pr3+  Pr54  1  -0.00493697  0.34631687  0.12529264  1
  Pr3+  Pr55  1  0.83574489  0.17873812  0.12450612  1
  Pr3+  Pr56  1  0.50394996  0.51322958  0.62620571  1
  Pr3+  Pr57  1  0.66923337  0.98564705  0.37836455  1
  Pr3+  Pr58  1  0.66654891  0.34349844  0.62735204  1
  Pr3+  Pr59  1  0.33140243  0.34495904  0.12426436  1
  Pr3+  Pr60  1  0.66933963  0.32167372  0.37616949  1
  Pr3+  Pr61  1  0.49993943  0.15761381  0.87480572  1
  Pr3+  Pr62  1  0.83093565  0.15200991  0.37803366  1
  Pr3+  Pr63  1  0.16334047  0.82004569  0.87375510  1
  Pr3+  Pr64  1  1.00374012  0.31896195  0.87281239  1
  Pr3+  Pr65  1  0.50368570  0.51139794  0.12364642  1
  Pr3+  Pr66  1  0.82832666  0.48639940  0.87290384  1
  Pr3+  Pr67  1  0.16505350  0.48712081  0.37549335  1
  Pr3+  Pr68  1  1.00553349  0.65157164  0.87357345  1
  Pr3+  Pr69  1  0.17018735  0.84712451  0.12599637  1
  Pr3+  Pr70  1  0.33160438  0.01165614  0.12563988  1
  Pr3+  Pr71  1  0.66602966  0.65923096  0.87284817  1
  Mn3.30+  Mn72  1  0.16557159  0.00004417  0.00050579  1
  Mn3.30+  Mn73  1  0.16358640  -0.00042085  0.50036846  1
  Mn3.30+  Mn74  1  0.16531612  0.33337584  -0.00015817  1
  Mn3.30+  Mn75  1  0.16983971  0.33288548  0.49889402  1
  Mn3.30+  Mn76  1  0.16616033  0.66535990  -0.00101215  1
  Mn3.30+  Mn77  1  0.16476344  0.66529488  0.50051663  1
  Mn3.30+  Mn78  1  0.50074960  -0.00184162  -0.00137245  1
  Mn3.30+  Mn79  1  0.50291194  -0.00224324  0.50189306  1
  Mn3.30+  Mn80  1  0.50075372  0.33317332  -0.00260150  1
  Mn3.30+  Mn81  1  0.49729905  0.33341796  0.50198523  1
  Mn3.30+  Mn82  1  0.49978997  0.66770410  -0.00090733  1
  Mn3.30+  Mn83  1  0.50372904  0.66787051  0.49952375  1
  Mn3.30+  Mn84  1  0.83442915  0.00197628  -0.00057922  1
  Mn3.30+  Mn85  1  0.83515038  -0.00103520  0.50302120  1
  Mn3.30+  Mn86  1  0.83153265  0.33347461  -0.00072103  1
  Mn3.30+  Mn87  1  0.83383233  0.33279218  0.50050758  1
  Mn3.30+  Mn88  1  0.83407788  0.66811865  -0.00134928  1
  Mn3.30+  Mn89  1  0.83109023  0.66824006  0.50074707  1
  Mn3.30+  Mn90  1  -0.00011248  0.16350335  0.25168133  1
  Mn3.30+  Mn91  1  -0.00260369  0.16430209  0.74665657  1
  Mn3.30+  Mn92  1  0.00053150  0.50170313  0.25130647  1
  Mn3.30+  Mn93  1  -0.00003707  0.49980894  0.74994181  1
  Mn3.30+  Mn94  1  -0.00012533  0.83562451  0.25212830  1
  Mn3.30+  Mn95  1  -0.00259773  0.83550430  0.74669444  1
  Mn3.30+  Mn96  1  0.33277267  0.16688724  0.25122692  1
  Mn3.30+  Mn97  1  0.33307500  0.16808899  0.75016194  1
  Mn3.30+  Mn98  1  0.33386148  0.49877960  0.25030012  1
  Mn3.30+  Mn99  1  0.33375226  0.49941726  0.75036808  1
  Mn3.30+  Mn100  1  0.33461413  0.83311964  0.25144814  1
  Mn3.30+  Mn101  1  0.33587018  0.83373150  0.74988578  1
  Mn3.30+  Mn102  1  0.66640795  0.16636423  0.25163137  1
  Mn3.30+  Mn103  1  0.66815635  0.16634497  0.74750766  1
  Mn3.30+  Mn104  1  0.66619844  0.50075647  0.25122912  1
  Mn3.30+  Mn105  1  0.66667310  0.50149202  0.74926633  1
  Mn3.30+  Mn106  1  0.66572161  0.83193236  0.25298015  1
  Mn3.30+  Mn107  1  0.66748488  0.83379131  0.74670265  1
  Mn3.30+  Mn108  1  0.16383137  -0.00053474  0.25134381  1
  Mn3.30+  Mn109  1  0.16530097  0.00016091  0.74787387  1
  Mn3.30+  Mn110  1  0.16764059  0.33222941  0.25159800  1
  Mn3.30+  Mn111  1  0.16727829  0.33379678  0.74925848  1
  Mn3.30+  Mn112  1  0.16517384  0.66598736  0.25082595  1
  Mn3.30+  Mn113  1  0.16558203  0.66465857  0.75001495  1
  Mn3.30+  Mn114  1  0.50038699  -0.00313406  0.25096703  1
  Mn3.30+  Mn115  1  0.50317390  -0.00089827  0.74905900  1
  Mn3.30+  Mn116  1  0.49925365  0.33320836  0.25117677  1
  Mn3.30+  Mn117  1  0.49855610  0.33344477  0.74939593  1
  Mn3.30+  Mn118  1  0.50203110  0.66692320  0.25237613  1
  Mn3.30+  Mn119  1  0.50157340  0.66844171  0.74908393  1
  Mn3.30+  Mn120  1  0.83596106  -0.00029990  0.25248275  1
  Mn3.30+  Mn121  1  0.83412195  0.00100367  0.74500873  1
  Mn3.30+  Mn122  1  0.83309653  0.33421230  0.25063057  1
  Mn3.30+  Mn123  1  0.83226147  0.33227541  0.74955105  1
  Mn3.30+  Mn124  1  0.83279022  0.66781894  0.25323512  1
  Mn3.30+  Mn125  1  0.83292454  0.66880376  0.74710855  1
  Mn3.30+  Mn126  1  -0.00107475  0.16428965  0.00052853  1
  Mn3.30+  Mn127  1  -0.00161134  0.16378513  0.50150288  1
  Mn3.30+  Mn128  1  0.00067745  0.49960478  -0.00084772  1
  Mn3.30+  Mn129  1  -0.00004305  0.50176224  0.49926812  1
  Mn3.30+  Mn130  1  -0.00017523  0.83512909  0.00089462  1
  Mn3.30+  Mn131  1  -0.00223123  0.83592411  0.50038468  1
  Mn3.30+  Mn132  1  0.33275202  0.16694638  -0.00121441  1
  Mn3.30+  Mn133  1  0.33304871  0.16812876  0.49990211  1
  Mn3.30+  Mn134  1  0.33315960  0.50043849  -0.00222282  1
  Mn3.30+  Mn135  1  0.33425965  0.49762913  0.50073241  1
  Mn3.30+  Mn136  1  0.33515574  0.83377013  -0.00106199  1
  Mn3.30+  Mn137  1  0.33522362  0.83275997  0.49990336  1
  Mn3.30+  Mn138  1  0.66720118  0.16735865  -0.00167354  1
  Mn3.30+  Mn139  1  0.66721943  0.16522496  0.50260868  1
  Mn3.30+  Mn140  1  0.66686952  0.49941121  -0.00165538  1
  Mn3.30+  Mn141  1  0.66614317  0.50276997  0.50086137  1
  Mn3.30+  Mn142  1  0.66592566  0.83402564  -0.00124472  1
  Mn3.30+  Mn143  1  0.66718472  0.83203020  0.50188688  1
  O2-  O144  1  0.02422945  0.15939384  0.12915284  1
  O2-  O145  1  0.02666057  0.16122460  0.62292568  1
  O2-  O146  1  0.02494944  0.49471409  0.12616516  1
  O2-  O147  1  0.02511186  0.49501877  0.62384345  1
  O2-  O148  1  0.02695667  0.82593628  0.12800180  1
  O2-  O149  1  0.02759333  0.82548017  0.62390744  1
  O2-  O150  1  0.35796069  0.15969384  0.12565174  1
  O2-  O151  1  0.35733253  0.15783687  0.62501097  1
  O2-  O152  1  0.35911280  0.49270162  0.12480174  1
  O2-  O153  1  0.35893417  0.49228163  0.62350152  1
  O2-  O154  1  0.35047945  0.83148302  0.12627953  1
  O2-  O155  1  0.35213979  0.83054013  0.62363111  1
  O2-  O156  1  0.69093990  0.16008191  0.12737580  1
  O2-  O157  1  0.69230256  0.16245770  0.62324157  1
  O2-  O158  1  0.69153816  0.49782815  0.12273562  1
  O2-  O159  1  0.68574968  0.49018940  0.62484586  1
  O2-  O160  1  0.69254841  0.82813614  0.12734542  1
  O2-  O161  1  0.69344870  0.82339665  0.62403575  1
  O2-  O162  1  0.13862475  0.32690417  0.12761591  1
  O2-  O163  1  0.13997690  0.33043555  0.62301090  1
  O2-  O164  1  0.13967544  0.66094830  0.12432022  1
  O2-  O165  1  0.13797937  0.65882770  0.62590336  1
  O2-  O166  1  0.13939699  0.99408136  0.12771510  1
  O2-  O167  1  0.13883892  0.99324936  0.62431865  1
  O2-  O168  1  0.47579376  0.32899547  0.12561231  1
  O2-  O169  1  0.47056574  0.32715553  0.62507142  1
  O2-  O170  1  0.47643230  0.65941191  0.12604680  1
  O2-  O171  1  0.47589096  0.66150434  0.62396597  1
  O2-  O172  1  0.47500234  0.99665046  0.12355664  1
  O2-  O173  1  0.47478061  0.99858091  0.62485202  1
  O2-  O174  1  0.81546830  0.32869650  0.12698057  1
  O2-  O175  1  0.81157080  0.32855098  0.62322125  1
  O2-  O176  1  0.80876952  0.66293149  0.12602001  1
  O2-  O177  1  0.80737332  0.66328109  0.62515302  1
  O2-  O178  1  0.80749115  0.99693393  0.12759063  1
  O2-  O179  1  0.80604562  0.99106648  0.62355989  1
  O2-  O180  1  0.30793453  0.17268264  0.37484513  1
  O2-  O181  1  0.30578661  0.16748715  0.87429310  1
  O2-  O182  1  0.30788143  0.50931188  0.37540122  1
  O2-  O183  1  0.30790162  0.50362577  0.87675368  1
  O2-  O184  1  0.30610088  0.83514384  0.37599162  1
  O2-  O185  1  0.30707738  0.83883626  0.87396407  1
  O2-  O186  1  0.64135813  0.17212304  0.37721360  1
  O2-  O187  1  0.64382839  0.17116841  0.87231014  1
  O2-  O188  1  0.64058123  0.50665697  0.37804865  1
  O2-  O189  1  0.64032399  0.51162258  0.87395680  1
  O2-  O190  1  0.64133249  0.84143051  0.37565878  1
  O2-  O191  1  0.64294491  0.84025279  0.87319069  1
  O2-  O192  1  0.97486323  0.17421561  0.37632895  1
  O2-  O193  1  0.98142760  0.17044487  0.87199226  1
  O2-  O194  1  0.97613725  0.50535132  0.37402983  1
  O2-  O195  1  0.97312631  0.50466332  0.87527442  1
  O2-  O196  1  0.97459404  0.84389462  0.37527938  1
  O2-  O197  1  0.97537248  0.84090816  0.87273217  1
  O2-  O198  1  0.19346584  0.00444308  0.37568197  1
  O2-  O199  1  0.19180972  0.00614168  0.87273862  1
  O2-  O200  1  0.19629029  0.33897991  0.37429870  1
  O2-  O201  1  0.18126379  0.33411088  0.87496962  1
  O2-  O202  1  0.19352647  0.66989119  0.37590549  1
  O2-  O203  1  0.18501609  0.67405154  0.87403756  1
  O2-  O204  1  0.52527363  0.00869954  0.37727659  1
  O2-  O205  1  0.52735506  0.01079012  0.87441101  1
  O2-  O206  1  0.52552630  0.33726402  0.37654157  1
  O2-  O207  1  0.52710527  0.33750129  0.87267034  1
  O2-  O208  1  0.52427857  0.67030175  0.37552122  1
  O2-  O209  1  0.52161515  0.67034518  0.87442206  1
  O2-  O210  1  0.86057605  0.00538367  0.37646909  1
  O2-  O211  1  0.85757241  0.00172562  0.87212367  1
  O2-  O212  1  0.85760601  0.34024827  0.37478669  1
  O2-  O213  1  0.85933273  0.33731246  0.87521227  1
  O2-  O214  1  0.86141402  0.67200551  0.37479491  1
  O2-  O215  1  0.86218340  0.67524192  0.87352636  1
  O2-  O216  1  0.23855468  0.09373118  0.02163267  1
  O2-  O217  1  0.23642429  0.09398041  0.51965736  1
  O2-  O218  1  0.23959047  0.42540055  0.02181693  1
  O2-  O219  1  0.23684609  0.42973027  0.51839225  1
  O2-  O220  1  0.23694919  0.76071905  0.01927947  1
  O2-  O221  1  0.23626498  0.75893122  0.52086738  1
  O2-  O222  1  0.57180503  0.09364656  0.02072372  1
  O2-  O223  1  0.57003852  0.09688121  0.51830314  1
  O2-  O224  1  0.57092250  0.43081748  0.01582773  1
  O2-  O225  1  0.56969889  0.42647970  0.51973345  1
  O2-  O226  1  0.57728848  0.75615547  0.01742924  1
  O2-  O227  1  0.57381350  0.76108292  0.51596990  1
  O2-  O228  1  0.90508120  0.09502540  0.02025950  1
  O2-  O229  1  0.90039344  0.09761646  0.51960260  1
  O2-  O230  1  0.90437993  0.42964566  0.02009947  1
  O2-  O231  1  0.91016140  0.42592759  0.51585803  1
  O2-  O232  1  0.90575571  0.76408595  0.02175243  1
  O2-  O233  1  0.90275195  0.76526921  0.52046325  1
  O2-  O234  1  0.25916666  0.25947157  0.22589804  1
  O2-  O235  1  0.25930263  0.26047812  0.72657682  1
  O2-  O236  1  0.26276226  0.59347101  0.22787934  1
  O2-  O237  1  0.26158758  0.59191916  0.72535972  1
  O2-  O238  1  0.26070968  0.92967344  0.23154220  1
  O2-  O239  1  0.26046036  0.92863287  0.72956540  1
  O2-  O240  1  0.59194385  0.25974183  0.23327217  1
  O2-  O241  1  0.59116648  0.25940064  0.72591335  1
  O2-  O242  1  0.59426519  0.59253497  0.22792054  1
  O2-  O243  1  0.59586511  0.59500791  0.72849410  1
  O2-  O244  1  0.59865072  0.92936212  0.23338650  1
  O2-  O245  1  0.60039786  0.93165178  0.73131240  1
  O2-  O246  1  0.93030292  0.26015967  0.23172174  1
  O2-  O247  1  0.93073647  0.26110156  0.73165072  1
  O2-  O248  1  0.92584315  0.59544931  0.22802387  1
  O2-  O249  1  0.93083070  0.59913057  0.73320956  1
  O2-  O250  1  0.92865595  0.92886781  0.22566319  1
  O2-  O251  1  0.93295692  0.93296137  0.73044776  1
  O2-  O252  1  0.09579342  0.23793132  0.27268897  1
  O2-  O253  1  0.09486376  0.23700028  0.76521024  1
  O2-  O254  1  0.09786865  0.57012268  0.26769657  1
  O2-  O255  1  0.09615315  0.56920876  0.77219663  1
  O2-  O256  1  0.09879066  0.90172971  0.26953759  1
  O2-  O257  1  0.09633256  0.90491398  0.77028800  1
  O2-  O258  1  0.42987193  0.23742364  0.26735857  1
  O2-  O259  1  0.42948002  0.23709433  0.76873537  1
  O2-  O260  1  0.42963330  0.57166227  0.27066497  1
  O2-  O261  1  0.43060948  0.57128194  0.76497436  1
  O2-  O262  1  0.42848854  0.90544097  0.27479704  1
  O2-  O263  1  0.42944548  0.90914591  0.77321985  1
  O2-  O264  1  0.76130083  0.23951682  0.27163319  1
  O2-  O265  1  0.75655091  0.24298343  0.76445017  1
  O2-  O266  1  0.76408971  0.57189788  0.26776346  1
  O2-  O267  1  0.76145554  0.57598267  0.77361987  1
  O2-  O268  1  0.76428365  0.90477593  0.27096242  1
  O2-  O269  1  0.76297578  0.90642339  0.77022119  1
  O2-  O270  1  0.07150551  0.07203211  0.47663352  1
  O2-  O271  1  0.07327910  0.07182288  0.97879811  1
  O2-  O272  1  0.07551819  0.40421782  0.47788223  1
  O2-  O273  1  0.06791002  0.40196668  0.98393204  1
  O2-  O274  1  0.06836826  0.73858270  0.47850501  1
  O2-  O275  1  0.06913482  0.73927501  0.98048325  1
  O2-  O276  1  0.40402741  0.07167392  0.48017436  1
  O2-  O277  1  0.40619904  0.07160894  0.97941217  1
  O2-  O278  1  0.40493945  0.40572702  0.47488487  1
  O2-  O279  1  0.40715586  0.40744901  0.98202362  1
  O2-  O280  1  0.40409440  0.73571241  0.48335299  1
  O2-  O281  1  0.40580693  0.73979290  0.98806474  1
  O2-  O282  1  0.74060407  0.07217317  0.47754363  1
  O2-  O283  1  0.73620168  0.07087226  0.98319761  1
  O2-  O284  1  0.73801208  0.40787345  0.48024880  1
  O2-  O285  1  0.73826924  0.40806505  0.97448966  1
  O2-  O286  1  0.73926566  0.73915996  0.47441420  1
  O2-  O287  1  0.74052299  0.74000360  0.97886658  1
  O2-  O288  1  0.09683593  0.23866351  0.47948005  1
  O2-  O289  1  0.09341305  0.23587419  0.98302031  1
  O2-  O290  1  0.09696729  0.57031953  0.48079655  1
  O2-  O291  1  0.09592061  0.56861765  0.97887568  1
  O2-  O292  1  0.09815280  0.90184131  0.48212966  1
  O2-  O293  1  0.09566072  0.90403864  0.97909822  1
  O2-  O294  1  0.43059679  0.23713149  0.48093022  1
  O2-  O295  1  0.42667552  0.23705120  0.98327639  1
  O2-  O296  1  0.42864579  0.57145888  0.48074780  1
  O2-  O297  1  0.43058803  0.57068041  0.98361329  1
  O2-  O298  1  0.42862153  0.90649151  0.47720844  1
  O2-  O299  1  0.42902671  0.90793023  0.97438169  1
  O2-  O300  1  0.75864302  0.24095504  0.47753062  1
  O2-  O301  1  0.75956430  0.23966482  0.98727118  1
  O2-  O302  1  0.76153758  0.57366373  0.47881804  1
  O2-  O303  1  0.76219131  0.57311299  0.97931641  1
  O2-  O304  1  0.76268625  0.90531764  0.47758417  1
  O2-  O305  1  0.76365063  0.90605762  0.98150244  1
  O2-  O306  1  0.07195816  0.07115241  0.27606285  1
  O2-  O307  1  0.07302613  0.07258537  0.77083525  1
  O2-  O308  1  0.07332347  0.40360805  0.27187709  1
  O2-  O309  1  0.07028194  0.40251256  0.76612582  1
  O2-  O310  1  0.06858577  0.73758732  0.27300529  1
  O2-  O311  1  0.06906869  0.73950656  0.76902150  1
  O2-  O312  1  0.40420653  0.07065661  0.27051782  1
  O2-  O313  1  0.40561438  0.07285211  0.76973480  1
  O2-  O314  1  0.40316258  0.40299658  0.27169407  1
  O2-  O315  1  0.40904375  0.40953831  0.77064944  1
  O2-  O316  1  0.40375842  0.73525131  0.26631047  1
  O2-  O317  1  0.40673867  0.74024068  0.76249562  1
  O2-  O318  1  0.73937625  0.07105610  0.27287566  1
  O2-  O319  1  0.73783318  0.07085177  0.76634539  1
  O2-  O320  1  0.73829054  0.40907629  0.27353101  1
  O2-  O321  1  0.73734067  0.40814462  0.77077538  1
  O2-  O322  1  0.73830104  0.73802076  0.27304210  1
  O2-  O323  1  0.74198068  0.74183170  0.77494061  1
  O2-  O324  1  0.23638591  0.09327460  0.23016692  1
  O2-  O325  1  0.23746599  0.09318297  0.72760163  1
  O2-  O326  1  0.23716898  0.42683625  0.22766281  1
  O2-  O327  1  0.23814560  0.42680699  0.73229264  1
  O2-  O328  1  0.23626611  0.75982378  0.23029362  1
  O2-  O329  1  0.23673848  0.75893762  0.72989612  1
  O2-  O330  1  0.57095589  0.09305341  0.23035086  1
  O2-  O331  1  0.57049347  0.09669188  0.73136567  1
  O2-  O332  1  0.56761540  0.42907106  0.23510633  1
  O2-  O333  1  0.57116380  0.42639692  0.72946486  1
  O2-  O334  1  0.57492164  0.75692083  0.23013182  1
  O2-  O335  1  0.57683824  0.75918152  0.73582788  1
  O2-  O336  1  0.90141423  0.09740164  0.23364208  1
  O2-  O337  1  0.90367276  0.09546606  0.72596360  1
  O2-  O338  1  0.90612750  0.42902147  0.23016302  1
  O2-  O339  1  0.90718014  0.42662384  0.73286027  1
  O2-  O340  1  0.90396361  0.76368374  0.22974276  1
  O2-  O341  1  0.90362613  0.76524634  0.72651872  1
  O2-  O342  1  0.25777449  0.25963677  0.02312922  1
  O2-  O343  1  0.26106386  0.26121531  0.52387641  1
  O2-  O344  1  0.26140982  0.59270723  0.02487725  1
  O2-  O345  1  0.26310247  0.59276546  0.52232890  1
  O2-  O346  1  0.26070514  0.92929227  0.01922629  1
  O2-  O347  1  0.26049076  0.92917942  0.51914152  1
  O2-  O348  1  0.58982425  0.25539899  0.01798354  1
  O2-  O349  1  0.59392155  0.26250929  0.52170666  1
  O2-  O350  1  0.59578662  0.59435483  0.01993075  1
  O2-  O351  1  0.59379940  0.59366012  0.52425160  1
  O2-  O352  1  0.59766602  0.93024365  0.01758106  1
  O2-  O353  1  0.60090128  0.93153202  0.51891013  1
  O2-  O354  1  0.92912985  0.26019249  0.01978907  1
  O2-  O355  1  0.93174809  0.26130915  0.51693072  1
  O2-  O356  1  0.92903946  0.59625606  0.02036646  1
  O2-  O357  1  0.92695034  0.59811578  0.51685936  1
  O2-  O358  1  0.93035785  0.92944435  0.02095802  1
  O2-  O359  1  0.93110937  0.93111678  0.52133488  1
