# generated using pymatgen
data_Sr7Ca15Pr50Mn72O216
_symmetry_space_group_name_H-M   'P 1'
_cell_length_a   16.55940831
_cell_length_b   16.60552943
_cell_length_c   15.59092679
_cell_angle_alpha   90.00162829
_cell_angle_beta   89.99773488
_cell_angle_gamma   90.00336418
_symmetry_Int_Tables_number   1
_chemical_formula_structural   Sr7Ca15Pr50Mn72O216
_chemical_formula_sum   'Sr7 Ca15 Pr50 Mn72 O216'
_cell_volume   4287.15783221
_cell_formula_units_Z   1
loop_
 _symmetry_equiv_pos_site_id
 _symmetry_equiv_pos_as_xyz
  1  'x, y, z'
loop_
 _atom_type_symbol
 _atom_type_oxidation_number
  Sr2+  2.0
  Ca2+  2.0
  Pr3+  3.0
  Mn3.30+  3.3
  O2-  -2.0
loop_
 _atom_site_type_symbol
 _atom_site_label
 _atom_site_symmetry_multiplicity
 _atom_site_fract_x
 _atom_site_fract_y
 _atom_site_fract_z
 _atom_site_occupancy
  Sr2+  Sr0  1  0.66716500  0.34146465  0.12443573  1
  Sr2+  Sr1  1  0.66833553  0.32503087  0.87498235  1
  Sr2+  Sr2  1  0.67075471  0.98885557  0.37346498  1
  Sr2+  Sr3  1  0.16503478  0.48952755  0.87503679  1
  Sr2+  Sr4  1  0.83672387  0.17632493  0.12590329  1
  Sr2+  Sr5  1  0.16504830  0.49052884  0.37521514  1
  Sr2+  Sr6  1  0.50000153  0.15797601  0.37467232  1
  Ca2+  Ca7  1  -0.00116877  0.34841163  0.62383498  1
  Ca2+  Ca8  1  0.33536429  0.31842121  0.37365246  1
  Ca2+  Ca9  1  1.00233745  0.65250620  0.37438670  1
  Ca2+  Ca10  1  0.16333310  0.15316578  0.87587971  1
  Ca2+  Ca11  1  0.67003547  0.65031704  0.87230955  1
  Ca2+  Ca12  1  0.32762879  0.34959211  0.12763702  1
  Ca2+  Ca13  1  0.50718981  0.51795875  0.62497006  1
  Ca2+  Ca14  1  0.66303053  0.68013895  0.62491472  1
  Ca2+  Ca15  1  0.15968885  0.81564026  0.37329354  1
  Ca2+  Ca16  1  0.16878364  0.51109633  0.12723679  1
  Ca2+  Ca17  1  0.82904226  0.81874681  0.37279312  1
  Ca2+  Ca18  1  -0.00433846  0.01707045  0.12651402  1
  Ca2+  Ca19  1  0.16632101  0.15425581  0.37396793  1
  Ca2+  Ca20  1  0.66079856  0.35120888  0.62588437  1
  Ca2+  Ca21  1  0.83990239  0.85005287  0.12815057  1
  Pr3+  Pr22  1  0.50408603  0.84464643  0.62379905  1
  Pr3+  Pr23  1  0.66540103  0.67815375  0.12462442  1
  Pr3+  Pr24  1  0.33499330  0.98940110  0.37437188  1
  Pr3+  Pr25  1  0.33471298  0.98843854  0.87639532  1
  Pr3+  Pr26  1  1.00352032  0.98915330  0.87805766  1
  Pr3+  Pr27  1  0.33196754  0.34652775  0.62245059  1
  Pr3+  Pr28  1  0.49787759  0.48726838  0.87335554  1
  Pr3+  Pr29  1  0.50234101  0.50941410  0.12521651  1
  Pr3+  Pr30  1  0.49902303  0.81824675  0.87570797  1
  Pr3+  Pr31  1  0.33466701  0.32159222  0.87542832  1
  Pr3+  Pr32  1  0.33086967  0.01321298  0.62413732  1
  Pr3+  Pr33  1  0.66875831  0.32227465  0.37598532  1
  Pr3+  Pr34  1  0.83028829  0.15351359  0.37307189  1
  Pr3+  Pr35  1  0.33192613  0.67702184  0.62388295  1
  Pr3+  Pr36  1  0.83848887  0.18334677  0.62422971  1
  Pr3+  Pr37  1  0.50332843  0.18130426  0.12703358  1
  Pr3+  Pr38  1  0.49988668  0.15708457  0.87560234  1
  Pr3+  Pr39  1  0.66755692  0.01303188  0.12679240  1
  Pr3+  Pr40  1  0.50241389  0.84610746  0.12562022  1
  Pr3+  Pr41  1  0.49938686  0.82344536  0.37422479  1
  Pr3+  Pr42  1  0.50433485  0.18189825  0.62326339  1
  Pr3+  Pr43  1  -0.00324814  0.67667198  0.62232706  1
  Pr3+  Pr44  1  0.49240734  0.48551230  0.37651224  1
  Pr3+  Pr45  1  0.33046624  0.01452456  0.12656966  1
  Pr3+  Pr46  1  1.00164268  0.65245160  0.87408232  1
  Pr3+  Pr47  1  0.16974563  0.18103951  0.12632892  1
  Pr3+  Pr48  1  0.16641251  0.84723698  0.12788911  1
  Pr3+  Pr49  1  0.16651236  0.51141918  0.62373526  1
  Pr3+  Pr50  1  0.33423377  0.65402270  0.37431990  1
  Pr3+  Pr51  1  1.00652511  0.31949530  0.37653829  1
  Pr3+  Pr52  1  0.17059739  0.17980849  0.62404598  1
  Pr3+  Pr53  1  1.00620165  0.31930046  0.87349179  1
  Pr3+  Pr54  1  -0.00419452  0.67673213  0.12723410  1
  Pr3+  Pr55  1  0.16891629  0.84510486  0.62272677  1
  Pr3+  Pr56  1  0.82962833  0.48736213  0.87441463  1
  Pr3+  Pr57  1  0.83305915  0.48972894  0.37572993  1
  Pr3+  Pr58  1  0.83138408  0.15527161  0.87696327  1
  Pr3+  Pr59  1  0.16195273  0.82023739  0.87668568  1
  Pr3+  Pr60  1  0.67201463  0.98877645  0.87588405  1
  Pr3+  Pr61  1  0.33533394  0.65078968  0.87505296  1
  Pr3+  Pr62  1  0.32722903  0.67552178  0.12553895  1
  Pr3+  Pr63  1  0.83359889  0.84335412  0.62237825  1
  Pr3+  Pr64  1  0.83244722  0.51184769  0.62515836  1
  Pr3+  Pr65  1  0.66933741  0.65537166  0.37655968  1
  Pr3+  Pr66  1  0.82823111  0.81763709  0.87702356  1
  Pr3+  Pr67  1  0.66508381  0.01290774  0.62317333  1
  Pr3+  Pr68  1  1.00391504  0.98568973  0.37218051  1
  Pr3+  Pr69  1  0.83399383  0.50790965  0.12512648  1
  Pr3+  Pr70  1  -0.00204022  0.34545835  0.12580453  1
  Pr3+  Pr71  1  -0.00199798  0.01239646  0.62357217  1
  Mn3.30+  Mn72  1  0.16520356  0.00182564  0.00221250  1
  Mn3.30+  Mn73  1  0.16616972  -0.00020281  0.49723870  1
  Mn3.30+  Mn74  1  0.16805415  0.33410795  0.00064359  1
  Mn3.30+  Mn75  1  0.16730477  0.33266089  0.49860375  1
  Mn3.30+  Mn76  1  0.16433161  0.66466809  0.00169150  1
  Mn3.30+  Mn77  1  0.16394946  0.66699974  0.49775505  1
  Mn3.30+  Mn78  1  0.50104296  0.00042629  0.00015781  1
  Mn3.30+  Mn79  1  0.50020931  0.00065387  0.49837993  1
  Mn3.30+  Mn80  1  0.49814936  0.33381315  0.00096924  1
  Mn3.30+  Mn81  1  0.49955777  0.33501284  0.50080686  1
  Mn3.30+  Mn82  1  0.50035954  0.66511612  -0.00075239  1
  Mn3.30+  Mn83  1  0.50178520  0.66682432  0.50066430  1
  Mn3.30+  Mn84  1  0.83733092  -0.00093420  0.00219951  1
  Mn3.30+  Mn85  1  0.83388439  -0.00165533  0.49873413  1
  Mn3.30+  Mn86  1  0.83483466  0.33300328  -0.00003192  1
  Mn3.30+  Mn87  1  0.83400436  0.33503764  0.50183314  1
  Mn3.30+  Mn88  1  0.83116604  0.66650854  0.00079621  1
  Mn3.30+  Mn89  1  0.83239133  0.66745290  0.49868963  1
  Mn3.30+  Mn90  1  0.00227956  0.16578310  0.25136208  1
  Mn3.30+  Mn91  1  0.00209519  0.16788264  0.74870627  1
  Mn3.30+  Mn92  1  0.00250536  0.50063938  0.25075174  1
  Mn3.30+  Mn93  1  -0.00086202  0.49812418  0.74865032  1
  Mn3.30+  Mn94  1  -0.00211477  0.83171152  0.25150478  1
  Mn3.30+  Mn95  1  -0.00153557  0.83333500  0.74971370  1
  Mn3.30+  Mn96  1  0.33265804  0.16995735  0.25121953  1
  Mn3.30+  Mn97  1  0.33257754  0.16684895  0.75158091  1
  Mn3.30+  Mn98  1  0.33058120  0.49721591  0.25019811  1
  Mn3.30+  Mn99  1  0.33503820  0.49914929  0.74734733  1
  Mn3.30+  Mn100  1  0.33014747  0.83272198  0.25105215  1
  Mn3.30+  Mn101  1  0.33376220  0.83269894  0.75042963  1
  Mn3.30+  Mn102  1  0.66726818  0.16740220  0.25039878  1
  Mn3.30+  Mn103  1  0.66841425  0.16934616  0.74919668  1
  Mn3.30+  Mn104  1  0.66535936  0.49969730  0.25125988  1
  Mn3.30+  Mn105  1  0.66492298  0.50148682  0.74825657  1
  Mn3.30+  Mn106  1  0.67123716  0.83369057  0.24863154  1
  Mn3.30+  Mn107  1  0.66668660  0.83132104  0.75075359  1
  Mn3.30+  Mn108  1  0.16489649  0.00106091  0.25063300  1
  Mn3.30+  Mn109  1  0.16659823  0.00075816  0.75094673  1
  Mn3.30+  Mn110  1  0.16923799  0.33386019  0.25210902  1
  Mn3.30+  Mn111  1  0.16605986  0.33285487  0.74882263  1
  Mn3.30+  Mn112  1  0.16289099  0.66540243  0.25103180  1
  Mn3.30+  Mn113  1  0.16588070  0.66672025  0.74928619  1
  Mn3.30+  Mn114  1  0.49977909  0.00057378  0.25087302  1
  Mn3.30+  Mn115  1  0.50108031  0.00020761  0.75052741  1
  Mn3.30+  Mn116  1  0.49636114  0.33348626  0.24999347  1
  Mn3.30+  Mn117  1  0.50167872  0.33522638  0.74873308  1
  Mn3.30+  Mn118  1  0.49925475  0.66656288  0.24937001  1
  Mn3.30+  Mn119  1  0.50326695  0.66570106  0.74982440  1
  Mn3.30+  Mn120  1  0.83695283  -0.00217918  0.24951007  1
  Mn3.30+  Mn121  1  0.83462061  -0.00047521  0.74946758  1
  Mn3.30+  Mn122  1  0.83567101  0.33345244  0.25097960  1
  Mn3.30+  Mn123  1  0.83320184  0.33453235  0.74771875  1
  Mn3.30+  Mn124  1  0.83424226  0.66829230  0.25125029  1
  Mn3.30+  Mn125  1  0.82935182  0.66646082  0.74844821  1
  Mn3.30+  Mn126  1  0.00226495  0.16653356  0.00037983  1
  Mn3.30+  Mn127  1  0.00234189  0.16723111  0.49994412  1
  Mn3.30+  Mn128  1  0.00187668  0.49948681  0.00094887  1
  Mn3.30+  Mn129  1  -0.00013787  0.49928831  0.49994917  1
  Mn3.30+  Mn130  1  -0.00336811  0.83386324  0.00275859  1
  Mn3.30+  Mn131  1  -0.00033427  0.83105857  0.49583181  1
  Mn3.30+  Mn132  1  0.33158712  0.16868419  0.00013951  1
  Mn3.30+  Mn133  1  0.33376275  0.16796614  0.49795156  1
  Mn3.30+  Mn134  1  0.33099484  0.49733848  0.00130410  1
  Mn3.30+  Mn135  1  0.33426294  0.49912233  0.50057555  1
  Mn3.30+  Mn136  1  0.33210849  0.83260402  0.00101399  1
  Mn3.30+  Mn137  1  0.33158253  0.83265059  0.49773004  1
  Mn3.30+  Mn138  1  0.66745113  0.16806323  0.00004842  1
  Mn3.30+  Mn139  1  0.66883694  0.16880756  0.50121828  1
  Mn3.30+  Mn140  1  0.66643536  0.50027751  -0.00055126  1
  Mn3.30+  Mn141  1  0.66318867  0.50064967  0.50092421  1
  Mn3.30+  Mn142  1  0.66884682  0.83250698  0.00181109  1
  Mn3.30+  Mn143  1  0.66866882  0.83273342  0.49822564  1
  O2-  O144  1  0.02535756  0.16384517  0.12685072  1
  O2-  O145  1  0.02788076  0.15823947  0.62464755  1
  O2-  O146  1  0.02568092  0.49410076  0.12475685  1
  O2-  O147  1  0.02223706  0.49653817  0.62446853  1
  O2-  O148  1  0.02539148  0.82288873  0.12600149  1
  O2-  O149  1  0.02592191  0.82623168  0.62083758  1
  O2-  O150  1  0.36019140  0.15983022  0.12351989  1
  O2-  O151  1  0.35941426  0.16035434  0.62616008  1
  O2-  O152  1  0.35894537  0.49713513  0.12556717  1
  O2-  O153  1  0.36317204  0.49577997  0.62379011  1
  O2-  O154  1  0.35759159  0.82553269  0.12399978  1
  O2-  O155  1  0.35940053  0.82686781  0.62314220  1
  O2-  O156  1  0.68500111  0.16273156  0.12320924  1
  O2-  O157  1  0.69395313  0.15990382  0.62568492  1
  O2-  O158  1  0.68905796  0.49859972  0.12739130  1
  O2-  O159  1  0.68997508  0.49342815  0.62359055  1
  O2-  O160  1  0.69649627  0.82494735  0.12396479  1
  O2-  O161  1  0.68947120  0.82665358  0.62418014  1
  O2-  O162  1  0.14004329  0.32565070  0.12549702  1
  O2-  O163  1  0.14031420  0.32527634  0.62433198  1
  O2-  O164  1  0.14140211  0.65947516  0.12653699  1
  O2-  O165  1  0.14266860  0.66455857  0.62414841  1
  O2-  O166  1  0.13818515  0.99490588  0.12579393  1
  O2-  O167  1  0.14197600  0.99219060  0.62258115  1
  O2-  O168  1  0.47242146  0.33027340  0.12415343  1
  O2-  O169  1  0.47481241  0.32718191  0.62533907  1
  O2-  O170  1  0.47186796  0.65996100  0.12393679  1
  O2-  O171  1  0.47524069  0.66687260  0.62493911  1
  O2-  O172  1  0.47470926  0.99425568  0.12535114  1
  O2-  O173  1  0.47534456  0.99337442  0.62577600  1
  O2-  O174  1  0.81853136  0.33582110  0.12701181  1
  O2-  O175  1  0.80458027  0.32970253  0.62448860  1
  O2-  O176  1  0.80730743  0.65578717  0.12500978  1
  O2-  O177  1  0.80425679  0.66165905  0.62497788  1
  O2-  O178  1  0.81071103  0.99467794  0.12490319  1
  O2-  O179  1  0.80907601  0.99207507  0.62411417  1
  O2-  O180  1  0.30810381  0.17247935  0.37507354  1
  O2-  O181  1  0.30490299  0.17351428  0.87614433  1
  O2-  O182  1  0.31446189  0.50806600  0.37654058  1
  O2-  O183  1  0.31474210  0.50321334  0.87326778  1
  O2-  O184  1  0.30378204  0.84001229  0.37490382  1
  O2-  O185  1  0.30632396  0.83945982  0.87815227  1
  O2-  O186  1  0.65095074  0.17330872  0.37789051  1
  O2-  O187  1  0.64481433  0.16635339  0.87392461  1
  O2-  O188  1  0.63739380  0.50744893  0.37607658  1
  O2-  O189  1  0.64193875  0.50633674  0.87294515  1
  O2-  O190  1  0.64255309  0.83368767  0.37268964  1
  O2-  O191  1  0.64128840  0.84347859  0.87809318  1
  O2-  O192  1  0.97414576  0.17230168  0.37748836  1
  O2-  O193  1  0.97498926  0.17175694  0.87124291  1
  O2-  O194  1  0.97682517  0.50436348  0.37714641  1
  O2-  O195  1  0.97506689  0.50432623  0.87389879  1
  O2-  O196  1  0.96923262  0.84085873  0.37392844  1
  O2-  O197  1  0.97235397  0.84137831  0.87896810  1
  O2-  O198  1  0.19239523  0.00829132  0.37525869  1
  O2-  O199  1  0.19175311  0.00548291  0.87764342  1
  O2-  O200  1  0.19421593  0.33837023  0.37500826  1
  O2-  O201  1  0.19188099  0.33808623  0.87500462  1
  O2-  O202  1  0.19081141  0.67152957  0.37530616  1
  O2-  O203  1  0.19003507  0.67256606  0.87430775  1
  O2-  O204  1  0.51919786  -0.00255648  0.37344584  1
  O2-  O205  1  0.52770236  0.00724316  0.87509366  1
  O2-  O206  1  0.52462345  0.33889440  0.37758697  1
  O2-  O207  1  0.51849553  0.33807979  0.87289281  1
  O2-  O208  1  0.52460961  0.67381295  0.37494606  1
  O2-  O209  1  0.52765221  0.67123664  0.87537912  1
  O2-  O210  1  0.85940681  0.00699120  0.37587962  1
  O2-  O211  1  0.85929443  0.00577288  0.87465119  1
  O2-  O212  1  0.86093043  0.34013747  0.37680171  1
  O2-  O213  1  0.86035983  0.33844281  0.87229124  1
  O2-  O214  1  0.85963441  0.67185050  0.37415625  1
  O2-  O215  1  0.85873039  0.67067586  0.87555108  1
  O2-  O216  1  0.24021301  0.09432533  0.02406950  1
  O2-  O217  1  0.24099741  0.09367866  0.52241635  1
  O2-  O218  1  0.23686039  0.42928255  0.02189015  1
  O2-  O219  1  0.23888112  0.42611559  0.52504305  1
  O2-  O220  1  0.23436386  0.75896484  0.02165955  1
  O2-  O221  1  0.24018539  0.75981730  0.52192943  1
  O2-  O222  1  0.57183214  0.09270084  0.02033520  1
  O2-  O223  1  0.57620281  0.09584684  0.52211029  1
  O2-  O224  1  0.56954287  0.42929671  0.01504108  1
  O2-  O225  1  0.56593006  0.43379778  0.51821874  1
  O2-  O226  1  0.56991488  0.76130741  0.02205220  1
  O2-  O227  1  0.56925297  0.76456536  0.51537722  1
  O2-  O228  1  0.90750473  0.09467044  0.01341203  1
  O2-  O229  1  0.90680519  0.09471694  0.52141671  1
  O2-  O230  1  0.90834533  0.42943158  0.01878686  1
  O2-  O231  1  0.90194033  0.42946413  0.51885221  1
  O2-  O232  1  0.90053567  0.76189920  0.02133186  1
  O2-  O233  1  0.90610673  0.75909183  0.52422080  1
  O2-  O234  1  0.26114179  0.26209795  0.22575590  1
  O2-  O235  1  0.26188133  0.26178975  0.72801124  1
  O2-  O236  1  0.26258702  0.59546330  0.23404170  1
  O2-  O237  1  0.26313564  0.59199094  0.72865851  1
  O2-  O238  1  0.25989798  0.92912467  0.22823021  1
  O2-  O239  1  0.26217308  0.92754234  0.73034843  1
  O2-  O240  1  0.58979781  0.26055213  0.23473572  1
  O2-  O241  1  0.59343686  0.26272317  0.72729086  1
  O2-  O242  1  0.59325327  0.59519248  0.22933613  1
  O2-  O243  1  0.59657977  0.59830705  0.72774062  1
  O2-  O244  1  0.59573328  0.92401089  0.22589947  1
  O2-  O245  1  0.59659736  0.92828195  0.72977800  1
  O2-  O246  1  0.93297297  0.26270743  0.23639105  1
  O2-  O247  1  0.93101210  0.26264387  0.72593223  1
  O2-  O248  1  0.92365747  0.59200505  0.22822348  1
  O2-  O249  1  0.92436873  0.59580690  0.72943201  1
  O2-  O250  1  0.93389620  0.93057112  0.23020421  1
  O2-  O251  1  0.92837632  0.92726452  0.72857116  1
  O2-  O252  1  0.09789140  0.23704219  0.27207250  1
  O2-  O253  1  0.09751341  0.23582194  0.77157950  1
  O2-  O254  1  0.09155421  0.57382357  0.26773396  1
  O2-  O255  1  0.09009021  0.57473421  0.76474897  1
  O2-  O256  1  0.09484683  0.90044331  0.27161886  1
  O2-  O257  1  0.09660646  0.90637751  0.77096217  1
  O2-  O258  1  0.42730863  0.23851387  0.26550669  1
  O2-  O259  1  0.42809673  0.23803106  0.76997908  1
  O2-  O260  1  0.42712119  0.57195429  0.26944951  1
  O2-  O261  1  0.42933197  0.57514138  0.77060334  1
  O2-  O262  1  0.42600557  0.90514294  0.26787256  1
  O2-  O263  1  0.42785003  0.90469726  0.77254342  1
  O2-  O264  1  0.76245897  0.24425709  0.27134181  1
  O2-  O265  1  0.76690820  0.23680460  0.76722563  1
  O2-  O266  1  0.76066202  0.57418627  0.27251366  1
  O2-  O267  1  0.76249869  0.57061773  0.76832838  1
  O2-  O268  1  0.76595850  0.90309097  0.26753898  1
  O2-  O269  1  0.76170150  0.90359009  0.77026644  1
  O2-  O270  1  0.06929477  0.06843082  0.48235807  1
  O2-  O271  1  0.07313382  0.07259549  0.97970348  1
  O2-  O272  1  0.07201788  0.40284692  0.48372507  1
  O2-  O273  1  0.07003391  0.40131095  0.98241153  1
  O2-  O274  1  0.06726408  0.73626621  0.47867480  1
  O2-  O275  1  0.06760372  0.74021696  0.97917920  1
  O2-  O276  1  0.40222819  0.07044341  0.48318823  1
  O2-  O277  1  0.40418226  0.07427802  0.97812264  1
  O2-  O278  1  0.40248609  0.40288212  0.47846138  1
  O2-  O279  1  0.40479370  0.40635282  0.97897884  1
  O2-  O280  1  0.40441531  0.73957658  0.47812037  1
  O2-  O281  1  0.40691814  0.73633830  0.97744742  1
  O2-  O282  1  0.74337960  0.07251455  0.48367503  1
  O2-  O283  1  0.74173083  0.07070292  0.98193140  1
  O2-  O284  1  0.73682314  0.40901737  0.47683932  1
  O2-  O285  1  0.74400442  0.41049713  0.98191484  1
  O2-  O286  1  0.73886829  0.73840699  0.47936318  1
  O2-  O287  1  0.73516625  0.73654440  0.97697909  1
  O2-  O288  1  0.09803308  0.23560442  0.47771985  1
  O2-  O289  1  0.09777245  0.23726556  0.97898996  1
  O2-  O290  1  0.09292786  0.57253567  0.48848302  1
  O2-  O291  1  0.08936540  0.57575885  0.97963606  1
  O2-  O292  1  0.09446681  0.90155781  0.47652131  1
  O2-  O293  1  0.09573534  0.90496958  0.98030720  1
  O2-  O294  1  0.42897499  0.23835072  0.48721482  1
  O2-  O295  1  0.42609008  0.23854132  0.97764226  1
  O2-  O296  1  0.42805735  0.57623627  0.47977674  1
  O2-  O297  1  0.42806187  0.57143609  0.97926819  1
  O2-  O298  1  0.42445162  0.90316134  0.47910534  1
  O2-  O299  1  0.43003510  0.90749327  0.97924200  1
  O2-  O300  1  0.76523259  0.24010218  0.48063900  1
  O2-  O301  1  0.76239697  0.23937740  0.98176514  1
  O2-  O302  1  0.76035155  0.57250010  0.47789749  1
  O2-  O303  1  0.76189881  0.57196558  0.98103833  1
  O2-  O304  1  0.76443285  0.90095259  0.48295908  1
  O2-  O305  1  0.76332386  0.90690468  0.97801195  1
  O2-  O306  1  0.07313586  0.07195027  0.27153908  1
  O2-  O307  1  0.06963526  0.06958268  0.76738988  1
  O2-  O308  1  0.07109138  0.40046189  0.26777502  1
  O2-  O309  1  0.07248006  0.40268030  0.76609066  1
  O2-  O310  1  0.06616537  0.73586368  0.26927662  1
  O2-  O311  1  0.06903988  0.74148304  0.77143591  1
  O2-  O312  1  0.40116185  0.07137891  0.26648619  1
  O2-  O313  1  0.40547966  0.07206343  0.77275283  1
  O2-  O314  1  0.40361955  0.40540618  0.27298684  1
  O2-  O315  1  0.40397431  0.40424036  0.76841702  1
  O2-  O316  1  0.40473542  0.73934808  0.27101958  1
  O2-  O317  1  0.40514872  0.73763421  0.77172369  1
  O2-  O318  1  0.74423522  0.07301419  0.26434559  1
  O2-  O319  1  0.74093937  0.07028522  0.76923013  1
  O2-  O320  1  0.74114094  0.40900604  0.27390784  1
  O2-  O321  1  0.74101347  0.41007736  0.76848911  1
  O2-  O322  1  0.73588904  0.73557477  0.26738895  1
  O2-  O323  1  0.73760404  0.73866475  0.77423583  1
  O2-  O324  1  0.24082029  0.09567149  0.22789979  1
  O2-  O325  1  0.23935314  0.09209966  0.72790576  1
  O2-  O326  1  0.23695581  0.42933516  0.22787253  1
  O2-  O327  1  0.23957869  0.42546175  0.72481215  1
  O2-  O328  1  0.23680482  0.75889259  0.22828536  1
  O2-  O329  1  0.23940779  0.76151651  0.72971730  1
  O2-  O330  1  0.57260821  0.09079973  0.22939058  1
  O2-  O331  1  0.57314512  0.09551318  0.72880533  1
  O2-  O332  1  0.56711137  0.42864371  0.23471452  1
  O2-  O333  1  0.56871948  0.43310336  0.73172416  1
  O2-  O334  1  0.57178516  0.76110858  0.22749167  1
  O2-  O335  1  0.56741544  0.76545189  0.73430802  1
  O2-  O336  1  0.90831521  0.09404750  0.23648576  1
  O2-  O337  1  0.90653677  0.09576777  0.72793807  1
  O2-  O338  1  0.90727356  0.42907644  0.23254372  1
  O2-  O339  1  0.90288373  0.42929344  0.73025295  1
  O2-  O340  1  0.90403462  0.76041596  0.22480850  1
  O2-  O341  1  0.90183155  0.75952962  0.72972102  1
  O2-  O342  1  0.26282120  0.26387131  0.02319604  1
  O2-  O343  1  0.26121782  0.25961046  0.52348067  1
  O2-  O344  1  0.26437739  0.59444851  0.01587686  1
  O2-  O345  1  0.26099166  0.59325818  0.52086553  1
  O2-  O346  1  0.25873780  0.92982264  0.02253004  1
  O2-  O347  1  0.26169404  0.92720663  0.52171368  1
  O2-  O348  1  0.58663815  0.25807765  0.01732173  1
  O2-  O349  1  0.59646217  0.26585345  0.52087793  1
  O2-  O350  1  0.59162039  0.59353629  0.02289448  1
  O2-  O351  1  0.59755407  0.59978395  0.51929685  1
  O2-  O352  1  0.59776792  0.92643772  0.02318268  1
  O2-  O353  1  0.59468525  0.92593157  0.52115201  1
  O2-  O354  1  0.93331162  0.26243389  0.01414429  1
  O2-  O355  1  0.93162990  0.26134091  0.52289140  1
  O2-  O356  1  0.92647824  0.59392218  0.01952361  1
  O2-  O357  1  0.92229244  0.59331814  0.52252854  1
  O2-  O358  1  0.93251190  0.93127441  0.02153069  1
  O2-  O359  1  0.92930396  0.92696332  0.52090212  1
