# generated using pymatgen
data_Sr7Ca15Pr50Mn72O216
_symmetry_space_group_name_H-M   'P 1'
_cell_length_a   16.55934290
_cell_length_b   16.60508449
_cell_length_c   15.59273932
_cell_angle_alpha   90.00598280
_cell_angle_beta   90.00161027
_cell_angle_gamma   89.99989660
_symmetry_Int_Tables_number   1
_chemical_formula_structural   Sr7Ca15Pr50Mn72O216
_chemical_formula_sum   'Sr7 Ca15 Pr50 Mn72 O216'
_cell_volume   4287.52440274
_cell_formula_units_Z   1
loop_
 _symmetry_equiv_pos_site_id
 _symmetry_equiv_pos_as_xyz
  1  'x, y, z'
loop_
 _atom_type_symbol
 _atom_type_oxidation_number
  Sr2+  2.0
  Ca2+  2.0
  Pr3+  3.0
  Mn3.30+  3.3
  O2-  -2.0
loop_
 _atom_site_type_symbol
 _atom_site_label
 _atom_site_symmetry_multiplicity
 _atom_site_fract_x
 _atom_site_fract_y
 _atom_site_fract_z
 _atom_site_occupancy
  Sr2+  Sr0  1  0.49777369  0.15524756  0.87633019  1
  Sr2+  Sr1  1  1.00437407  0.32103781  0.87551215  1
  Sr2+  Sr2  1  0.49759900  0.15961502  0.37311569  1
  Sr2+  Sr3  1  0.16949485  0.17965304  0.12464530  1
  Sr2+  Sr4  1  0.66518132  0.32287593  0.37468164  1
  Sr2+  Sr5  1  0.00078037  0.34198982  0.12449276  1
  Sr2+  Sr6  1  0.66733211  0.67758402  0.62342205  1
  Ca2+  Ca7  1  0.32887642  0.34453504  0.13035044  1
  Ca2+  Ca8  1  0.33765740  0.31872674  0.37149622  1
  Ca2+  Ca9  1  0.50074322  0.18261975  0.12679097  1
  Ca2+  Ca10  1  -0.00227863  0.67941311  0.12841115  1
  Ca2+  Ca11  1  0.49389459  0.48120785  0.37411250  1
  Ca2+  Ca12  1  1.00678934  0.64998222  0.37298710  1
  Ca2+  Ca13  1  0.16893931  0.17971353  0.62647254  1
  Ca2+  Ca14  1  0.84013276  0.85055871  0.62621289  1
  Ca2+  Ca15  1  0.50252266  0.84723659  0.12624745  1
  Ca2+  Ca16  1  0.16420380  0.48347492  0.37382615  1
  Ca2+  Ca17  1  0.83184183  0.81917526  0.87178859  1
  Ca2+  Ca18  1  0.15996707  0.81715939  0.37522563  1
  Ca2+  Ca19  1  0.16912270  0.84901654  0.62311870  1
  Ca2+  Ca20  1  0.00036599  0.01405406  0.62533628  1
  Ca2+  Ca21  1  0.16127986  0.15346812  0.87427462  1
  Pr3+  Pr22  1  0.66262756  0.34385722  0.12626927  1
  Pr3+  Pr23  1  0.16777243  0.15767540  0.37474655  1
  Pr3+  Pr24  1  0.32749695  0.01511872  0.62575699  1
  Pr3+  Pr25  1  1.00583011  0.98653265  0.37580733  1
  Pr3+  Pr26  1  0.32942152  0.67864205  0.12648678  1
  Pr3+  Pr27  1  0.83816654  0.84413720  0.12422054  1
  Pr3+  Pr28  1  0.83276631  0.15367371  0.87574947  1
  Pr3+  Pr29  1  0.84095075  0.51425566  0.12672602  1
  Pr3+  Pr30  1  0.66770627  0.65363558  0.37600733  1
  Pr3+  Pr31  1  0.83236167  0.48762517  0.37575319  1
  Pr3+  Pr32  1  0.83209218  0.82060451  0.37751003  1
  Pr3+  Pr33  1  0.83797218  0.18037658  0.12471502  1
  Pr3+  Pr34  1  0.50134467  0.17940949  0.62494201  1
  Pr3+  Pr35  1  0.66292211  0.68189408  0.12716169  1
  Pr3+  Pr36  1  0.33005727  0.34322868  0.62247497  1
  Pr3+  Pr37  1  0.67094107  0.65582498  0.87464454  1
  Pr3+  Pr38  1  0.16946172  0.51265037  0.62244287  1
  Pr3+  Pr39  1  0.66247618  0.34546680  0.62323959  1
  Pr3+  Pr40  1  0.33513749  0.98997577  0.37431501  1
  Pr3+  Pr41  1  0.49964387  0.50821476  0.12863774  1
  Pr3+  Pr42  1  0.50235746  0.84562263  0.62414452  1
  Pr3+  Pr43  1  0.33333620  0.99027408  0.87629616  1
  Pr3+  Pr44  1  0.50277572  0.51281878  0.62152456  1
  Pr3+  Pr45  1  0.66662572  0.00994974  0.62484696  1
  Pr3+  Pr46  1  0.49763959  0.48836404  0.87502874  1
  Pr3+  Pr47  1  0.33535958  0.65419895  0.87503509  1
  Pr3+  Pr48  1  0.83158417  0.48725323  0.87471952  1
  Pr3+  Pr49  1  0.33396339  0.01327663  0.12502557  1
  Pr3+  Pr50  1  0.00086851  0.34537714  0.62493988  1
  Pr3+  Pr51  1  0.49645278  0.82273517  0.37402088  1
  Pr3+  Pr52  1  1.00386321  0.98861177  0.87379808  1
  Pr3+  Pr53  1  0.33332939  0.65187132  0.37491028  1
  Pr3+  Pr54  1  1.00415909  0.32225219  0.37446339  1
  Pr3+  Pr55  1  0.83815943  0.17765686  0.62510666  1
  Pr3+  Pr56  1  0.16324336  0.48634039  0.87471869  1
  Pr3+  Pr57  1  0.16613328  0.84524160  0.12685881  1
  Pr3+  Pr58  1  0.66797886  0.99102736  0.37635045  1
  Pr3+  Pr59  1  -0.00187937  0.01412746  0.12511168  1
  Pr3+  Pr60  1  0.82919115  0.15504434  0.37492116  1
  Pr3+  Pr61  1  -0.00462935  0.68206242  0.62219059  1
  Pr3+  Pr62  1  0.16808437  0.50780070  0.12733670  1
  Pr3+  Pr63  1  0.16312611  0.82201228  0.87415765  1
  Pr3+  Pr64  1  0.66108952  0.01316534  0.12509556  1
  Pr3+  Pr65  1  1.00046828  0.65594153  0.87616789  1
  Pr3+  Pr66  1  0.67184586  0.98350189  0.87397178  1
  Pr3+  Pr67  1  0.33433180  0.31892404  0.87696256  1
  Pr3+  Pr68  1  0.32689669  0.68250275  0.62339998  1
  Pr3+  Pr69  1  0.66968597  0.31861749  0.87536751  1
  Pr3+  Pr70  1  0.49752897  0.82163719  0.87571524  1
  Pr3+  Pr71  1  0.83594116  0.51231441  0.62314821  1
  Mn3.30+  Mn72  1  0.16714826  0.00184100  0.00037768  1
  Mn3.30+  Mn73  1  0.16570203  -0.00059252  0.50155468  1
  Mn3.30+  Mn74  1  0.16838846  0.33215769  0.00164497  1
  Mn3.30+  Mn75  1  0.16855682  0.33259907  0.49821810  1
  Mn3.30+  Mn76  1  0.16510137  0.66644967  0.00218587  1
  Mn3.30+  Mn77  1  0.16347086  0.66804911  0.49740372  1
  Mn3.30+  Mn78  1  0.50096305  -0.00001450  -0.00007017  1
  Mn3.30+  Mn79  1  0.49837750  0.00091013  0.49995319  1
  Mn3.30+  Mn80  1  0.49771334  0.33240149  0.00216615  1
  Mn3.30+  Mn81  1  0.49648658  0.33314571  0.49697379  1
  Mn3.30+  Mn82  1  0.50021010  0.66750418  0.00245334  1
  Mn3.30+  Mn83  1  0.49832084  0.66610014  0.49820903  1
  Mn3.30+  Mn84  1  0.83313092  -0.00283517  -0.00085098  1
  Mn3.30+  Mn85  1  0.83765126  -0.00103350  0.50163627  1
  Mn3.30+  Mn86  1  0.83366708  0.33345954  -0.00060563  1
  Mn3.30+  Mn87  1  0.83351146  0.33319846  0.50046102  1
  Mn3.30+  Mn88  1  0.83424022  0.66807959  0.00071691  1
  Mn3.30+  Mn89  1  0.83588178  0.66863000  0.49900068  1
  Mn3.30+  Mn90  1  0.00007277  0.16774960  0.25070831  1
  Mn3.30+  Mn91  1  0.00343211  0.16570817  0.74857357  1
  Mn3.30+  Mn92  1  0.00271671  0.50091351  0.25125111  1
  Mn3.30+  Mn93  1  0.00081030  0.50085746  0.74939022  1
  Mn3.30+  Mn94  1  0.00112080  0.83019011  0.25209483  1
  Mn3.30+  Mn95  1  -0.00052666  0.83567884  0.74727296  1
  Mn3.30+  Mn96  1  0.33464997  0.16890919  0.24762234  1
  Mn3.30+  Mn97  1  0.32986850  0.16646622  0.75212673  1
  Mn3.30+  Mn98  1  0.33282992  0.49732363  0.25311921  1
  Mn3.30+  Mn99  1  0.33312831  0.50007889  0.74849576  1
  Mn3.30+  Mn100  1  0.33136848  0.83318420  0.25035577  1
  Mn3.30+  Mn101  1  0.33116726  0.83471077  0.74946443  1
  Mn3.30+  Mn102  1  0.66469046  0.16696087  0.24952154  1
  Mn3.30+  Mn103  1  0.66725605  0.16467570  0.75030543  1
  Mn3.30+  Mn104  1  0.66682625  0.49929578  0.25112610  1
  Mn3.30+  Mn105  1  0.66591830  0.50070177  0.74951312  1
  Mn3.30+  Mn106  1  0.66578963  0.83432139  0.25098499  1
  Mn3.30+  Mn107  1  0.67011571  0.83218242  0.74734837  1
  Mn3.30+  Mn108  1  0.16773722  -0.00019529  0.25074016  1
  Mn3.30+  Mn109  1  0.16495330  0.00130920  0.74745640  1
  Mn3.30+  Mn110  1  0.17005704  0.33425697  0.25135852  1
  Mn3.30+  Mn111  1  0.16654031  0.33031956  0.74960755  1
  Mn3.30+  Mn112  1  0.16345332  0.66560272  0.25112506  1
  Mn3.30+  Mn113  1  0.16534455  0.66867459  0.74873608  1
  Mn3.30+  Mn114  1  0.50004215  0.00086310  0.24917357  1
  Mn3.30+  Mn115  1  0.49951243  0.00007574  0.75090111  1
  Mn3.30+  Mn116  1  0.49594210  0.33260141  0.24934006  1
  Mn3.30+  Mn117  1  0.49884468  0.33328807  0.75087263  1
  Mn3.30+  Mn118  1  0.49857445  0.66592579  0.25080824  1
  Mn3.30+  Mn119  1  0.50022363  0.66735390  0.74878321  1
  Mn3.30+  Mn120  1  0.83346535  -0.00129994  0.25020344  1
  Mn3.30+  Mn121  1  0.83705477  -0.00216555  0.74893519  1
  Mn3.30+  Mn122  1  0.83325064  0.33389344  0.25049525  1
  Mn3.30+  Mn123  1  0.83409270  0.33272177  0.74979380  1
  Mn3.30+  Mn124  1  0.83642723  0.66707095  0.25252094  1
  Mn3.30+  Mn125  1  0.83419997  0.66988753  0.74782123  1
  Mn3.30+  Mn126  1  0.00189388  0.16756717  -0.00111396  1
  Mn3.30+  Mn127  1  0.00210701  0.16558061  0.50172116  1
  Mn3.30+  Mn128  1  0.00058677  0.50064677  0.00164109  1
  Mn3.30+  Mn129  1  0.00350638  0.50141698  0.49777952  1
  Mn3.30+  Mn130  1  -0.00156937  0.83224920  -0.00104867  1
  Mn3.30+  Mn131  1  0.00216308  0.83433167  0.50105949  1
  Mn3.30+  Mn132  1  0.33313142  0.16784217  0.00108245  1
  Mn3.30+  Mn133  1  0.33197267  0.16756635  0.50012029  1
  Mn3.30+  Mn134  1  0.33301179  0.49844475  0.00146628  1
  Mn3.30+  Mn135  1  0.33302067  0.49825050  0.49657403  1
  Mn3.30+  Mn136  1  0.33379727  0.83341551  0.00247753  1
  Mn3.30+  Mn137  1  0.32828524  0.83415598  0.49788932  1
  Mn3.30+  Mn138  1  0.66464588  0.16518328  0.00043310  1
  Mn3.30+  Mn139  1  0.66687741  0.16654709  0.49978561  1
  Mn3.30+  Mn140  1  0.66722415  0.50047274  0.00209867  1
  Mn3.30+  Mn141  1  0.66503439  0.49981382  0.49733321  1
  Mn3.30+  Mn142  1  0.66732981  0.83276109  0.00009537  1
  Mn3.30+  Mn143  1  0.66807642  0.83365226  0.50169703  1
  O2-  O144  1  0.01736725  0.16191532  0.12476536  1
  O2-  O145  1  0.02701824  0.16079818  0.62369756  1
  O2-  O146  1  0.02347442  0.49635933  0.12630950  1
  O2-  O147  1  0.02517615  0.49525088  0.62230423  1
  O2-  O148  1  0.02228656  0.82660031  0.12694984  1
  O2-  O149  1  0.02982949  0.82566850  0.62375068  1
  O2-  O150  1  0.35995385  0.15944724  0.12311229  1
  O2-  O151  1  0.35754537  0.16292777  0.62721979  1
  O2-  O152  1  0.35646828  0.49458549  0.12565511  1
  O2-  O153  1  0.35958509  0.49329432  0.62260535  1
  O2-  O154  1  0.36051876  0.82593523  0.12544270  1
  O2-  O155  1  0.35849053  0.82927870  0.62323778  1
  O2-  O156  1  0.69400876  0.16158648  0.12446497  1
  O2-  O157  1  0.69297191  0.16114327  0.62677091  1
  O2-  O158  1  0.69495676  0.49327541  0.12643853  1
  O2-  O159  1  0.69063301  0.49377595  0.62215787  1
  O2-  O160  1  0.69408274  0.82981019  0.12731056  1
  O2-  O161  1  0.69547567  0.83348416  0.62342930  1
  O2-  O162  1  0.14912222  0.33764053  0.12546051  1
  O2-  O163  1  0.14367284  0.32711527  0.62375598  1
  O2-  O164  1  0.13899482  0.65769785  0.12543637  1
  O2-  O165  1  0.13975104  0.65830475  0.62154339  1
  O2-  O166  1  0.14137257  0.99309172  0.12491638  1
  O2-  O167  1  0.14059440  0.99060857  0.62302540  1
  O2-  O168  1  0.47308335  0.33363909  0.12343123  1
  O2-  O169  1  0.47536937  0.33018483  0.62525384  1
  O2-  O170  1  0.47333703  0.65652835  0.12729915  1
  O2-  O171  1  0.47154971  0.66085801  0.62138251  1
  O2-  O172  1  0.47801918  0.98921254  0.12421566  1
  O2-  O173  1  0.47320355  0.99301062  0.62557289  1
  O2-  O174  1  0.80817367  0.32897916  0.12401344  1
  O2-  O175  1  0.80749845  0.32823363  0.62565481  1
  O2-  O176  1  0.80730656  0.66215657  0.12922931  1
  O2-  O177  1  0.81551272  0.65844573  0.62322934  1
  O2-  O178  1  0.80647645  0.99087826  0.12416826  1
  O2-  O179  1  0.80974818  0.99612400  0.62540330  1
  O2-  O180  1  0.31187346  0.16924867  0.37500986  1
  O2-  O181  1  0.30475686  0.17095916  0.87598177  1
  O2-  O182  1  0.30349280  0.50764113  0.37630529  1
  O2-  O183  1  0.30755268  0.50782833  0.87464119  1
  O2-  O184  1  0.30303401  0.84209969  0.37438786  1
  O2-  O185  1  0.30734056  0.83882567  0.87719433  1
  O2-  O186  1  0.64899778  0.16224326  0.37429525  1
  O2-  O187  1  0.64681704  0.17019186  0.87419165  1
  O2-  O188  1  0.63906724  0.50622833  0.37405671  1
  O2-  O189  1  0.64185760  0.50761184  0.87749039  1
  O2-  O190  1  0.64100331  0.84088189  0.37663641  1
  O2-  O191  1  0.64144268  0.83474829  0.87258752  1
  O2-  O192  1  0.97350834  0.17253574  0.37665446  1
  O2-  O193  1  0.97661558  0.16499765  0.87398078  1
  O2-  O194  1  0.97534059  0.50343092  0.37569341  1
  O2-  O195  1  0.97548704  0.50731374  0.87590131  1
  O2-  O196  1  0.97398638  0.84176891  0.37626308  1
  O2-  O197  1  0.97345045  0.84045375  0.87175930  1
  O2-  O198  1  0.19169920  0.00916092  0.37652199  1
  O2-  O199  1  0.18933283  0.00497800  0.87622531  1
  O2-  O200  1  0.19407996  0.33681556  0.37654482  1
  O2-  O201  1  0.19118133  0.34101653  0.87462269  1
  O2-  O202  1  0.19185880  0.67601224  0.37528503  1
  O2-  O203  1  0.19252742  0.67396537  0.87666502  1
  O2-  O204  1  0.52362877  0.00222604  0.37564346  1
  O2-  O205  1  0.52669853  0.00016957  0.87469923  1
  O2-  O206  1  0.51765582  0.33552920  0.37490663  1
  O2-  O207  1  0.52666919  0.34092864  0.87580566  1
  O2-  O208  1  0.52417349  0.67616539  0.37418423  1
  O2-  O209  1  0.52589007  0.67271418  0.87740793  1
  O2-  O210  1  0.86049353  0.00685175  0.37613810  1
  O2-  O211  1  0.85984100  0.00669088  0.87421027  1
  O2-  O212  1  0.85898105  0.33781053  0.37718565  1
  O2-  O213  1  0.85299525  0.33904390  0.87321711  1
  O2-  O214  1  0.86304564  0.67338143  0.37624863  1
  O2-  O215  1  0.85657058  0.67195792  0.87186675  1
  O2-  O216  1  0.24317274  0.09037035  0.02054440  1
  O2-  O217  1  0.23684875  0.09563819  0.52154603  1
  O2-  O218  1  0.23871970  0.43148690  0.01475122  1
  O2-  O219  1  0.23953439  0.42695633  0.52379133  1
  O2-  O220  1  0.23653524  0.75923571  0.02337581  1
  O2-  O221  1  0.23658400  0.76154877  0.52306434  1
  O2-  O222  1  0.57233073  0.09401060  0.02380811  1
  O2-  O223  1  0.57467576  0.09169447  0.52415046  1
  O2-  O224  1  0.57154188  0.42842480  0.02197411  1
  O2-  O225  1  0.57162505  0.42455989  0.52050674  1
  O2-  O226  1  0.56973271  0.76275518  0.02346039  1
  O2-  O227  1  0.56961393  0.76370428  0.51717155  1
  O2-  O228  1  0.90326684  0.09181463  0.01968337  1
  O2-  O229  1  0.90483226  0.09647063  0.51877887  1
  O2-  O230  1  0.90250078  0.43194129  0.01581129  1
  O2-  O231  1  0.90696944  0.42746253  0.52051570  1
  O2-  O232  1  0.90305054  0.76146521  0.01763391  1
  O2-  O233  1  0.90459501  0.76675375  0.52211490  1
  O2-  O234  1  0.26308860  0.26229123  0.23310543  1
  O2-  O235  1  0.26396043  0.26395410  0.73295884  1
  O2-  O236  1  0.26219376  0.59496946  0.23017353  1
  O2-  O237  1  0.26131302  0.59531182  0.72829702  1
  O2-  O238  1  0.26237805  0.92599090  0.22687537  1
  O2-  O239  1  0.26165018  0.93108666  0.73377672  1
  O2-  O240  1  0.59300934  0.26068920  0.22916526  1
  O2-  O241  1  0.59382664  0.26155981  0.72965540  1
  O2-  O242  1  0.59748342  0.59252866  0.22910102  1
  O2-  O243  1  0.59161213  0.59245174  0.73133301  1
  O2-  O244  1  0.59689744  0.93042580  0.23402699  1
  O2-  O245  1  0.59754359  0.92500427  0.72915235  1
  O2-  O246  1  0.92407732  0.25973486  0.23391183  1
  O2-  O247  1  0.92945618  0.25869591  0.72697462  1
  O2-  O248  1  0.92913199  0.59484785  0.22901905  1
  O2-  O249  1  0.92709601  0.59624749  0.73056361  1
  O2-  O250  1  0.92841452  0.92827014  0.22990422  1
  O2-  O251  1  0.93315051  0.93211182  0.72821131  1
  O2-  O252  1  0.09535640  0.24298665  0.27190090  1
  O2-  O253  1  0.09735552  0.23606302  0.76801316  1
  O2-  O254  1  0.09896426  0.56807892  0.27063851  1
  O2-  O255  1  0.09463399  0.57389200  0.77044740  1
  O2-  O256  1  0.09407505  0.90245350  0.26999811  1
  O2-  O257  1  0.09473299  0.90629893  0.77276904  1
  O2-  O258  1  0.42720946  0.23921192  0.26374862  1
  O2-  O259  1  0.42620703  0.24144165  0.76800897  1
  O2-  O260  1  0.42657713  0.56898982  0.27247675  1
  O2-  O261  1  0.42769091  0.57294910  0.77005751  1
  O2-  O262  1  0.42621915  0.90692109  0.27157791  1
  O2-  O263  1  0.42738442  0.90467492  0.77073508  1
  O2-  O264  1  0.76098124  0.23650164  0.26590412  1
  O2-  O265  1  0.76196665  0.23823353  0.77007046  1
  O2-  O266  1  0.76342776  0.57434392  0.27362132  1
  O2-  O267  1  0.76084307  0.57175121  0.76882925  1
  O2-  O268  1  0.76306697  0.90600275  0.27307422  1
  O2-  O269  1  0.76335894  0.90553427  0.77240738  1
  O2-  O270  1  0.07390731  0.07368419  0.47593307  1
  O2-  O271  1  0.07070413  0.07004971  0.98440232  1
  O2-  O272  1  0.07114595  0.40311850  0.48295297  1
  O2-  O273  1  0.07614071  0.41066509  0.98152788  1
  O2-  O274  1  0.06556567  0.73387495  0.47987236  1
  O2-  O275  1  0.07243010  0.74109602  0.97734062  1
  O2-  O276  1  0.40134630  0.07026598  0.48516300  1
  O2-  O277  1  0.40411789  0.06979118  0.98248688  1
  O2-  O278  1  0.40108990  0.40248645  0.48011834  1
  O2-  O279  1  0.40790562  0.40914027  0.97485484  1
  O2-  O280  1  0.40136970  0.73970940  0.47828339  1
  O2-  O281  1  0.40423087  0.73806525  0.97900480  1
  O2-  O282  1  0.74217582  0.07133640  0.48255956  1
  O2-  O283  1  0.73969296  0.06819886  0.97963559  1
  O2-  O284  1  0.74077716  0.40942709  0.48163119  1
  O2-  O285  1  0.73698242  0.40527129  0.97891571  1
  O2-  O286  1  0.73904214  0.74075903  0.47551232  1
  O2-  O287  1  0.73371788  0.73530482  0.98520163  1
  O2-  O288  1  0.09326919  0.24055795  0.47618360  1
  O2-  O289  1  0.09805278  0.23904455  0.98219914  1
  O2-  O290  1  0.09944730  0.56789144  0.47931104  1
  O2-  O291  1  0.09510755  0.57424264  0.97708952  1
  O2-  O292  1  0.09565079  0.90436187  0.47476207  1
  O2-  O293  1  0.09422348  0.90534477  0.98064869  1
  O2-  O294  1  0.42753475  0.23731826  0.48928118  1
  O2-  O295  1  0.42510700  0.24196114  0.97835730  1
  O2-  O296  1  0.42705007  0.56886057  0.47668536  1
  O2-  O297  1  0.42734563  0.57231145  0.98017813  1
  O2-  O298  1  0.42636072  0.90462427  0.47863997  1
  O2-  O299  1  0.42799300  0.90762795  0.97786425  1
  O2-  O300  1  0.76345181  0.23745050  0.48389865  1
  O2-  O301  1  0.75914931  0.23749552  0.98065838  1
  O2-  O302  1  0.76099105  0.57443592  0.47840977  1
  O2-  O303  1  0.76406176  0.57244470  0.98013734  1
  O2-  O304  1  0.76125358  0.90910360  0.47751751  1
  O2-  O305  1  0.76441288  0.90197337  0.97630597  1
  O2-  O306  1  0.07204216  0.07348167  0.26925320  1
  O2-  O307  1  0.07071155  0.07011498  0.76863559  1
  O2-  O308  1  0.07275944  0.40571150  0.27121487  1
  O2-  O309  1  0.07578337  0.40628323  0.76496199  1
  O2-  O310  1  0.06908594  0.73518490  0.26998414  1
  O2-  O311  1  0.06957207  0.73997088  0.77136980  1
  O2-  O312  1  0.40472884  0.06916108  0.26509793  1
  O2-  O313  1  0.39939542  0.07209200  0.76854521  1
  O2-  O314  1  0.40301284  0.40565616  0.27047053  1
  O2-  O315  1  0.40564913  0.40699376  0.77199515  1
  O2-  O316  1  0.40033518  0.74007281  0.27253451  1
  O2-  O317  1  0.40411961  0.73872955  0.77006617  1
  O2-  O318  1  0.73967763  0.06959152  0.26860570  1
  O2-  O319  1  0.74159788  0.06947650  0.76984352  1
  O2-  O320  1  0.74136715  0.40828938  0.26970311  1
  O2-  O321  1  0.73634312  0.40600645  0.76943628  1
  O2-  O322  1  0.73719664  0.73880993  0.27256043  1
  O2-  O323  1  0.73817886  0.73748939  0.76908238  1
  O2-  O324  1  0.24387191  0.09369259  0.23284863  1
  O2-  O325  1  0.23582862  0.09395156  0.72641460  1
  O2-  O326  1  0.23815173  0.42993625  0.23236499  1
  O2-  O327  1  0.23945002  0.42798003  0.72888641  1
  O2-  O328  1  0.23687375  0.75866464  0.22588187  1
  O2-  O329  1  0.23695722  0.76328591  0.72880461  1
  O2-  O330  1  0.57331063  0.09377426  0.22567011  1
  O2-  O331  1  0.57400439  0.09167798  0.72684250  1
  O2-  O332  1  0.57217525  0.42441520  0.22882463  1
  O2-  O333  1  0.57132453  0.42816377  0.72919663  1
  O2-  O334  1  0.57127138  0.76286430  0.22897429  1
  O2-  O335  1  0.56876580  0.76257277  0.73058249  1
  O2-  O336  1  0.90263282  0.09184439  0.22961661  1
  O2-  O337  1  0.90416307  0.09661224  0.73244545  1
  O2-  O338  1  0.90511384  0.43143373  0.23508408  1
  O2-  O339  1  0.90510908  0.42819158  0.72911173  1
  O2-  O340  1  0.90143117  0.76470401  0.23386470  1
  O2-  O341  1  0.90706689  0.76370403  0.72579333  1
  O2-  O342  1  0.26611196  0.26671415  0.01804333  1
  O2-  O343  1  0.26052917  0.25981950  0.51951806  1
  O2-  O344  1  0.26129696  0.59447379  0.02077825  1
  O2-  O345  1  0.26273061  0.59577052  0.52026930  1
  O2-  O346  1  0.26015063  0.92634194  0.02167449  1
  O2-  O347  1  0.26317740  0.93102438  0.51926749  1
  O2-  O348  1  0.59438130  0.26414297  0.01831971  1
  O2-  O349  1  0.59218089  0.25929953  0.52176047  1
  O2-  O350  1  0.59539601  0.59476378  0.02340096  1
  O2-  O351  1  0.59257995  0.59215672  0.51760844  1
  O2-  O352  1  0.59989300  0.92915163  0.01538643  1
  O2-  O353  1  0.59418949  0.92722904  0.52095277  1
  O2-  O354  1  0.92292559  0.25711434  0.01595499  1
  O2-  O355  1  0.92986758  0.26036360  0.52246261  1
  O2-  O356  1  0.92976317  0.59675413  0.02091800  1
  O2-  O357  1  0.92888782  0.59200764  0.51990681  1
  O2-  O358  1  0.92875318  0.92828198  0.02199696  1
  O2-  O359  1  0.93346083  0.93193422  0.51923838  1
