# generated using pymatgen
data_Sr7Ca15Pr50Mn72O216
_symmetry_space_group_name_H-M   'P 1'
_cell_length_a   16.55906087
_cell_length_b   16.60498465
_cell_length_c   15.59271272
_cell_angle_alpha   90.00082607
_cell_angle_beta   89.99487816
_cell_angle_gamma   89.99002877
_symmetry_Int_Tables_number   1
_chemical_formula_structural   Sr7Ca15Pr50Mn72O216
_chemical_formula_sum   'Sr7 Ca15 Pr50 Mn72 O216'
_cell_volume   4287.41823005
_cell_formula_units_Z   1
loop_
 _symmetry_equiv_pos_site_id
 _symmetry_equiv_pos_as_xyz
  1  'x, y, z'
loop_
 _atom_type_symbol
 _atom_type_oxidation_number
  Sr2+  2.0
  Ca2+  2.0
  Pr3+  3.0
  Mn3.30+  3.3
  O2-  -2.0
loop_
 _atom_site_type_symbol
 _atom_site_label
 _atom_site_symmetry_multiplicity
 _atom_site_fract_x
 _atom_site_fract_y
 _atom_site_fract_z
 _atom_site_occupancy
  Sr2+  Sr0  1  0.83673624  0.17660821  0.12656961  1
  Sr2+  Sr1  1  1.00252073  0.65718388  0.87634163  1
  Sr2+  Sr2  1  0.00221524  0.67462977  0.12500234  1
  Sr2+  Sr3  1  0.16784445  0.17820443  0.62222682  1
  Sr2+  Sr4  1  0.16230578  0.48830997  0.37190669  1
  Sr2+  Sr5  1  0.49995436  0.82133939  0.87456560  1
  Sr2+  Sr6  1  0.50160771  0.17745282  0.62318234  1
  Ca2+  Ca7  1  0.67213039  0.98638552  0.37558311  1
  Ca2+  Ca8  1  0.16950429  0.51824548  0.12690797  1
  Ca2+  Ca9  1  0.16732386  0.84280203  0.12362465  1
  Ca2+  Ca10  1  0.49481718  0.48407803  0.37470953  1
  Ca2+  Ca11  1  0.15979822  0.15117322  0.37364874  1
  Ca2+  Ca12  1  0.66990492  0.31967294  0.37410451  1
  Ca2+  Ca13  1  1.00565279  0.31707321  0.37514605  1
  Ca2+  Ca14  1  1.00456295  0.98800536  0.37430572  1
  Ca2+  Ca15  1  0.32497295  0.68438393  0.12501231  1
  Ca2+  Ca16  1  0.83192111  0.48178368  0.37312708  1
  Ca2+  Ca17  1  0.16229177  0.81687725  0.87838381  1
  Ca2+  Ca18  1  0.83765775  0.84898085  0.62435111  1
  Ca2+  Ca19  1  -0.00157845  0.34758383  0.61912573  1
  Ca2+  Ca20  1  0.16848099  0.18057062  0.13023859  1
  Ca2+  Ca21  1  0.67059868  0.65093777  0.87589226  1
  Pr3+  Pr22  1  0.49652953  0.15403184  0.87426900  1
  Pr3+  Pr23  1  0.83239685  0.15357566  0.87607704  1
  Pr3+  Pr24  1  0.33041224  0.01457598  0.62465330  1
  Pr3+  Pr25  1  1.00416950  0.98475435  0.87546171  1
  Pr3+  Pr26  1  1.00296698  0.32273841  0.87464901  1
  Pr3+  Pr27  1  0.66512619  0.01183625  0.12747631  1
  Pr3+  Pr28  1  0.33623510  0.98544866  0.87412530  1
  Pr3+  Pr29  1  0.83206000  0.82346922  0.37603112  1
  Pr3+  Pr30  1  0.33611537  0.65205545  0.37310260  1
  Pr3+  Pr31  1  0.32599280  0.34896763  0.12655185  1
  Pr3+  Pr32  1  0.50265669  0.17965297  0.12645605  1
  Pr3+  Pr33  1  0.66530764  0.34562570  0.12847168  1
  Pr3+  Pr34  1  0.16088572  0.49071444  0.87805437  1
  Pr3+  Pr35  1  0.66430519  0.34416187  0.62129013  1
  Pr3+  Pr36  1  0.16419431  0.50876488  0.62235413  1
  Pr3+  Pr37  1  0.50374220  0.51087635  0.62247297  1
  Pr3+  Pr38  1  0.50060006  0.51445907  0.12833486  1
  Pr3+  Pr39  1  0.49853805  0.49125580  0.87585084  1
  Pr3+  Pr40  1  0.33327136  0.32149766  0.37470184  1
  Pr3+  Pr41  1  0.32602815  0.01360850  0.12581664  1
  Pr3+  Pr42  1  1.00216761  0.65353266  0.37348980  1
  Pr3+  Pr43  1  0.50266213  0.84568287  0.62584382  1
  Pr3+  Pr44  1  -0.00545819  0.68148226  0.62448665  1
  Pr3+  Pr45  1  0.83908327  0.84405762  0.12495765  1
  Pr3+  Pr46  1  0.00091809  0.01170954  0.12727090  1
  Pr3+  Pr47  1  0.66425066  0.67849202  0.62564836  1
  Pr3+  Pr48  1  0.84067826  0.18393115  0.62275456  1
  Pr3+  Pr49  1  0.16760332  0.84581849  0.62684548  1
  Pr3+  Pr50  1  0.66347475  0.67894754  0.12466219  1
  Pr3+  Pr51  1  0.83642341  0.51187554  0.12820671  1
  Pr3+  Pr52  1  0.16374162  0.15478698  0.87643239  1
  Pr3+  Pr53  1  0.16131291  0.82270939  0.37372280  1
  Pr3+  Pr54  1  0.33381670  0.65723311  0.87730561  1
  Pr3+  Pr55  1  0.33047841  0.34573021  0.62297688  1
  Pr3+  Pr56  1  0.66646058  0.01283525  0.62242978  1
  Pr3+  Pr57  1  0.33222584  0.99089730  0.37662020  1
  Pr3+  Pr58  1  -0.00334808  0.01391829  0.62244669  1
  Pr3+  Pr59  1  0.83302336  0.49042969  0.87775784  1
  Pr3+  Pr60  1  0.33051181  0.67780158  0.62458060  1
  Pr3+  Pr61  1  0.33496255  0.32256800  0.87511807  1
  Pr3+  Pr62  1  0.49930004  0.84414439  0.12442713  1
  Pr3+  Pr63  1  0.66988691  0.65083243  0.37462657  1
  Pr3+  Pr64  1  0.49833843  0.82264118  0.37572319  1
  Pr3+  Pr65  1  -0.00044043  0.34446783  0.12867877  1
  Pr3+  Pr66  1  0.83286791  0.15300442  0.37337049  1
  Pr3+  Pr67  1  0.66967375  0.98712458  0.87448158  1
  Pr3+  Pr68  1  0.82826902  0.81614221  0.87403087  1
  Pr3+  Pr69  1  0.50042436  0.15521355  0.37602262  1
  Pr3+  Pr70  1  0.83749285  0.50997177  0.62204023  1
  Pr3+  Pr71  1  0.67029563  0.32109177  0.87540022  1
  Mn3.30+  Mn72  1  0.16702523  -0.00175392  0.00035751  1
  Mn3.30+  Mn73  1  0.16404811  0.00137385  0.49914216  1
  Mn3.30+  Mn74  1  0.16682938  0.33424924  0.00229980  1
  Mn3.30+  Mn75  1  0.16341117  0.33265510  0.49790407  1
  Mn3.30+  Mn76  1  0.16815100  0.66887295  0.00234453  1
  Mn3.30+  Mn77  1  0.16477065  0.66596180  0.49927324  1
  Mn3.30+  Mn78  1  0.49838104  -0.00091631  0.00110006  1
  Mn3.30+  Mn79  1  0.50274816  0.00049996  0.49823348  1
  Mn3.30+  Mn80  1  0.49882906  0.33452729  0.00147780  1
  Mn3.30+  Mn81  1  0.50140020  0.33353604  0.49705019  1
  Mn3.30+  Mn82  1  0.49803434  0.66745285  0.00072147  1
  Mn3.30+  Mn83  1  0.50060533  0.66514209  0.49878631  1
  Mn3.30+  Mn84  1  0.83532593  -0.00083234  0.00051950  1
  Mn3.30+  Mn85  1  0.83421863  -0.00057104  0.49817618  1
  Mn3.30+  Mn86  1  0.83454250  0.33269200  0.00227432  1
  Mn3.30+  Mn87  1  0.83518850  0.33396825  0.49489274  1
  Mn3.30+  Mn88  1  0.83257553  0.66567037  0.00014189  1
  Mn3.30+  Mn89  1  0.83272892  0.66595482  0.49918337  1
  Mn3.30+  Mn90  1  0.00307891  0.16633801  0.25116373  1
  Mn3.30+  Mn91  1  0.00058979  0.16899742  0.74846753  1
  Mn3.30+  Mn92  1  0.00032352  0.49832132  0.25128668  1
  Mn3.30+  Mn93  1  -0.00062645  0.50001897  0.74928924  1
  Mn3.30+  Mn94  1  0.00118218  0.83398450  0.24882569  1
  Mn3.30+  Mn95  1  -0.00050041  0.83316325  0.75058106  1
  Mn3.30+  Mn96  1  0.33021624  0.16719449  0.25169624  1
  Mn3.30+  Mn97  1  0.33205284  0.16841323  0.74882260  1
  Mn3.30+  Mn98  1  0.33181727  0.50110430  0.25014026  1
  Mn3.30+  Mn99  1  0.33213721  0.50099793  0.75006187  1
  Mn3.30+  Mn100  1  0.33056965  0.83388418  0.25025827  1
  Mn3.30+  Mn101  1  0.33241480  0.83239410  0.75071914  1
  Mn3.30+  Mn102  1  0.66809428  0.16683061  0.25145922  1
  Mn3.30+  Mn103  1  0.66812569  0.16688348  0.74903196  1
  Mn3.30+  Mn104  1  0.66622709  0.49753197  0.25384038  1
  Mn3.30+  Mn105  1  0.66780298  0.49954299  0.74989487  1
  Mn3.30+  Mn106  1  0.66685595  0.83391336  0.25100904  1
  Mn3.30+  Mn107  1  0.66887017  0.83151226  0.74894378  1
  Mn3.30+  Mn108  1  0.16501961  0.00033481  0.24987102  1
  Mn3.30+  Mn109  1  0.16659254  -0.00065587  0.75132703  1
  Mn3.30+  Mn110  1  0.16435488  0.33230715  0.25153041  1
  Mn3.30+  Mn111  1  0.16575550  0.33452848  0.74780402  1
  Mn3.30+  Mn112  1  0.16809885  0.66757035  0.24846440  1
  Mn3.30+  Mn113  1  0.16482769  0.66679098  0.74971076  1
  Mn3.30+  Mn114  1  0.49976421  -0.00039714  0.25165094  1
  Mn3.30+  Mn115  1  0.50114627  0.00018921  0.74884338  1
  Mn3.30+  Mn116  1  0.49958429  0.33437622  0.25228451  1
  Mn3.30+  Mn117  1  0.50069195  0.33377480  0.74944534  1
  Mn3.30+  Mn118  1  0.49791523  0.66645649  0.24988906  1
  Mn3.30+  Mn119  1  0.50082288  0.66607209  0.75191757  1
  Mn3.30+  Mn120  1  0.83501347  -0.00069631  0.25194872  1
  Mn3.30+  Mn121  1  0.83471434  -0.00071088  0.74875766  1
  Mn3.30+  Mn122  1  0.83458395  0.33199457  0.25274018  1
  Mn3.30+  Mn123  1  0.83531181  0.33507188  0.74913796  1
  Mn3.30+  Mn124  1  0.83367803  0.66563536  0.25127240  1
  Mn3.30+  Mn125  1  0.83167341  0.66564500  0.74938723  1
  Mn3.30+  Mn126  1  0.00153684  0.16685680  0.00172015  1
  Mn3.30+  Mn127  1  0.00205789  0.16884519  0.49781082  1
  Mn3.30+  Mn128  1  0.00136774  0.50097499  0.00345746  1
  Mn3.30+  Mn129  1  -0.00152999  0.49714621  0.49624316  1
  Mn3.30+  Mn130  1  0.00329355  0.83114039  0.00070914  1
  Mn3.30+  Mn131  1  -0.00228745  0.83564136  0.49980928  1
  Mn3.30+  Mn132  1  0.33100726  0.16772050  0.00147423  1
  Mn3.30+  Mn133  1  0.33090155  0.16787015  0.49819289  1
  Mn3.30+  Mn134  1  0.33017936  0.50346216  0.00222751  1
  Mn3.30+  Mn135  1  0.33404595  0.49938217  0.49795995  1
  Mn3.30+  Mn136  1  0.33086981  0.83291002  0.00003824  1
  Mn3.30+  Mn137  1  0.33222683  0.83326818  0.49997799  1
  Mn3.30+  Mn138  1  0.66668617  0.16654273  0.00150901  1
  Mn3.30+  Mn139  1  0.66935702  0.16707668  0.49773243  1
  Mn3.30+  Mn140  1  0.66578192  0.50074843  0.00176623  1
  Mn3.30+  Mn141  1  0.66855191  0.49664042  0.49512207  1
  Mn3.30+  Mn142  1  0.66709766  0.83183554  -0.00033468  1
  Mn3.30+  Mn143  1  0.66888446  0.83347727  0.50063145  1
  O2-  O144  1  0.02682448  0.15949420  0.12628659  1
  O2-  O145  1  0.01877912  0.15989530  0.62470248  1
  O2-  O146  1  0.02545151  0.49232130  0.12704034  1
  O2-  O147  1  0.02002284  0.49382249  0.62163059  1
  O2-  O148  1  0.02448253  0.83158327  0.12420286  1
  O2-  O149  1  0.02376768  0.83001729  0.62539468  1
  O2-  O150  1  0.35930777  0.16183803  0.12554975  1
  O2-  O151  1  0.35238435  0.16377011  0.62267558  1
  O2-  O152  1  0.35865217  0.49421964  0.12615171  1
  O2-  O153  1  0.35973246  0.49511926  0.62260780  1
  O2-  O154  1  0.35661647  0.83094904  0.12836423  1
  O2-  O155  1  0.35892271  0.82661111  0.62423485  1
  O2-  O156  1  0.68670563  0.15961930  0.12663544  1
  O2-  O157  1  0.69563388  0.16160447  0.62268944  1
  O2-  O158  1  0.69173982  0.49428956  0.12799528  1
  O2-  O159  1  0.69340985  0.49179533  0.62025915  1
  O2-  O160  1  0.69390872  0.82693408  0.12657619  1
  O2-  O161  1  0.69563027  0.82508851  0.62631577  1
  O2-  O162  1  0.14333016  0.32335174  0.12678403  1
  O2-  O163  1  0.14173981  0.33516821  0.62383486  1
  O2-  O164  1  0.15009286  0.66300289  0.12664741  1
  O2-  O165  1  0.14010778  0.65924595  0.62232682  1
  O2-  O166  1  0.14409115  0.98912459  0.12353925  1
  O2-  O167  1  0.14069712  0.99359092  0.62562232  1
  O2-  O168  1  0.47161544  0.32723528  0.12558253  1
  O2-  O169  1  0.47578607  0.33297834  0.62236582  1
  O2-  O170  1  0.46983421  0.66254291  0.12701859  1
  O2-  O171  1  0.47494862  0.65928327  0.62380443  1
  O2-  O172  1  0.47160107  0.99420855  0.12773005  1
  O2-  O173  1  0.47587569  0.99519392  0.62382751  1
  O2-  O174  1  0.80857585  0.33162189  0.12613869  1
  O2-  O175  1  0.80793419  0.33161896  0.62172267  1
  O2-  O176  1  0.80698809  0.66244225  0.12770456  1
  O2-  O177  1  0.80649542  0.65625010  0.62365637  1
  O2-  O178  1  0.80892746  0.99294524  0.12621826  1
  O2-  O179  1  0.80998089  0.99558898  0.62442036  1
  O2-  O180  1  0.30405724  0.17107540  0.37557140  1
  O2-  O181  1  0.30818222  0.17381760  0.87623571  1
  O2-  O182  1  0.31160275  0.50465026  0.37395193  1
  O2-  O183  1  0.30512800  0.50786010  0.87735914  1
  O2-  O184  1  0.30633607  0.84123468  0.37672014  1
  O2-  O185  1  0.30602248  0.83811620  0.87146502  1
  O2-  O186  1  0.64340543  0.17412518  0.37391458  1
  O2-  O187  1  0.64154874  0.17189383  0.87664211  1
  O2-  O188  1  0.63507031  0.50695940  0.37391866  1
  O2-  O189  1  0.64211518  0.50374839  0.87782433  1
  O2-  O190  1  0.64185088  0.83969848  0.37396619  1
  O2-  O191  1  0.64853268  0.84175973  0.87284841  1
  O2-  O192  1  0.97526282  0.17281070  0.37513227  1
  O2-  O193  1  0.97569756  0.17365980  0.87281460  1
  O2-  O194  1  0.97374180  0.50815196  0.37375831  1
  O2-  O195  1  0.97836666  0.50032823  0.87794799  1
  O2-  O196  1  0.97578175  0.84056210  0.37555952  1
  O2-  O197  1  0.97288773  0.83735633  0.87418703  1
  O2-  O198  1  0.18927155  0.00295824  0.37550058  1
  O2-  O199  1  0.19377654  0.00939342  0.87635752  1
  O2-  O200  1  0.19124584  0.33800250  0.37430335  1
  O2-  O201  1  0.19141065  0.34288433  0.87521884  1
  O2-  O202  1  0.19092393  0.67409861  0.37571947  1
  O2-  O203  1  0.18986679  0.66904874  0.87528000  1
  O2-  O204  1  0.52883275  0.00458874  0.37422573  1
  O2-  O205  1  0.52456667  0.00576054  0.87407138  1
  O2-  O206  1  0.52676744  0.33935023  0.37400068  1
  O2-  O207  1  0.52577420  0.34128069  0.87750339  1
  O2-  O208  1  0.52626488  0.67624946  0.37480236  1
  O2-  O209  1  0.52654494  0.66436895  0.87554104  1
  O2-  O210  1  0.86202516  0.00310669  0.37503002  1
  O2-  O211  1  0.85885332  0.00600212  0.87393326  1
  O2-  O212  1  0.86283708  0.33687908  0.37393507  1
  O2-  O213  1  0.85831713  0.34052403  0.87747010  1
  O2-  O214  1  0.85844712  0.67637166  0.37512833  1
  O2-  O215  1  0.85272722  0.66768489  0.87307618  1
  O2-  O216  1  0.23740761  0.09918377  0.02240858  1
  O2-  O217  1  0.24203619  0.08807978  0.51808749  1
  O2-  O218  1  0.23711112  0.43270880  0.02298341  1
  O2-  O219  1  0.24045653  0.42679596  0.52076151  1
  O2-  O220  1  0.23764284  0.76502121  0.01812723  1
  O2-  O221  1  0.23746583  0.76059137  0.52174246  1
  O2-  O222  1  0.56915761  0.09262208  0.02053494  1
  O2-  O223  1  0.57777707  0.09243543  0.51762183  1
  O2-  O224  1  0.57142376  0.42796665  0.02320329  1
  O2-  O225  1  0.57383108  0.42692960  0.52176724  1
  O2-  O226  1  0.57093677  0.75935524  0.02397588  1
  O2-  O227  1  0.57144435  0.75999393  0.52125809  1
  O2-  O228  1  0.90831005  0.09200778  0.01605236  1
  O2-  O229  1  0.90387307  0.09632118  0.51828710  1
  O2-  O230  1  0.90541832  0.42659944  0.02233517  1
  O2-  O231  1  0.90200918  0.42960638  0.51599274  1
  O2-  O232  1  0.90226578  0.76167014  0.01509251  1
  O2-  O233  1  0.90447893  0.76395348  0.52164715  1
  O2-  O234  1  0.26426707  0.26459115  0.23293876  1
  O2-  O235  1  0.26333463  0.26598270  0.73395618  1
  O2-  O236  1  0.26665536  0.59982141  0.23457127  1
  O2-  O237  1  0.26075188  0.59373239  0.72806338  1
  O2-  O238  1  0.26455803  0.93287149  0.23598532  1
  O2-  O239  1  0.26164827  0.92776801  0.72736803  1
  O2-  O240  1  0.59095110  0.26059097  0.22767368  1
  O2-  O241  1  0.59934298  0.26278781  0.73339301  1
  O2-  O242  1  0.59511311  0.59523780  0.22875475  1
  O2-  O243  1  0.59438552  0.59024403  0.72651134  1
  O2-  O244  1  0.59173432  0.92591894  0.22560532  1
  O2-  O245  1  0.59698626  0.92597365  0.72760034  1
  O2-  O246  1  0.93089015  0.26023423  0.23091223  1
  O2-  O247  1  0.92864912  0.26659051  0.72847044  1
  O2-  O248  1  0.92355319  0.59271005  0.23175038  1
  O2-  O249  1  0.92624213  0.59493628  0.72739184  1
  O2-  O250  1  0.92755960  0.92571766  0.22649306  1
  O2-  O251  1  0.93132316  0.93196894  0.73233859  1
  O2-  O252  1  0.09803559  0.23386917  0.26955403  1
  O2-  O253  1  0.09626930  0.24160000  0.77286647  1
  O2-  O254  1  0.09045815  0.57687187  0.26716967  1
  O2-  O255  1  0.09584104  0.56861531  0.76455559  1
  O2-  O256  1  0.09519892  0.90566666  0.26902069  1
  O2-  O257  1  0.09769840  0.90517961  0.77283093  1
  O2-  O258  1  0.42931357  0.23897193  0.27251468  1
  O2-  O259  1  0.42858245  0.24245561  0.77234957  1
  O2-  O260  1  0.43145556  0.57096683  0.27215452  1
  O2-  O261  1  0.42664856  0.57290286  0.77066671  1
  O2-  O262  1  0.42758179  0.90624872  0.27309464  1
  O2-  O263  1  0.42510314  0.90736675  0.76616246  1
  O2-  O264  1  0.76389653  0.23929359  0.27036409  1
  O2-  O265  1  0.76390165  0.23860456  0.77025503  1
  O2-  O266  1  0.75966553  0.56948573  0.27282560  1
  O2-  O267  1  0.76216262  0.56859049  0.76838072  1
  O2-  O268  1  0.76395730  0.90441115  0.26904135  1
  O2-  O269  1  0.76351778  0.90672541  0.77043314  1
  O2-  O270  1  0.06836247  0.06955287  0.48249725  1
  O2-  O271  1  0.07334999  0.07085099  0.97910270  1
  O2-  O272  1  0.06884936  0.40263927  0.48085734  1
  O2-  O273  1  0.07197180  0.40476778  0.98164616  1
  O2-  O274  1  0.06828998  0.74037271  0.48042865  1
  O2-  O275  1  0.07469579  0.74039348  0.98240752  1
  O2-  O276  1  0.40772482  0.07551673  0.47892424  1
  O2-  O277  1  0.40261381  0.07410851  0.97837178  1
  O2-  O278  1  0.40438931  0.40511785  0.48034304  1
  O2-  O279  1  0.40328967  0.40835783  0.97948871  1
  O2-  O280  1  0.40372455  0.73982452  0.47920438  1
  O2-  O281  1  0.40464870  0.73837547  0.98118423  1
  O2-  O282  1  0.74012543  0.07055740  0.47729205  1
  O2-  O283  1  0.73840328  0.07178547  0.98041831  1
  O2-  O284  1  0.73577228  0.40053903  0.47678551  1
  O2-  O285  1  0.73977300  0.40522606  0.98124007  1
  O2-  O286  1  0.73720753  0.73709009  0.47871265  1
  O2-  O287  1  0.73603804  0.73758247  0.98012546  1
  O2-  O288  1  0.09700087  0.23521022  0.47879462  1
  O2-  O289  1  0.09389401  0.24029816  0.97746688  1
  O2-  O290  1  0.09047304  0.57267359  0.48162436  1
  O2-  O291  1  0.09720987  0.57229380  0.98639594  1
  O2-  O292  1  0.09642845  0.90347120  0.48419445  1
  O2-  O293  1  0.09427524  0.90615263  0.97483483  1
  O2-  O294  1  0.42717718  0.24135185  0.47545265  1
  O2-  O295  1  0.42822992  0.23838008  0.97934866  1
  O2-  O296  1  0.42968739  0.57195044  0.47825567  1
  O2-  O297  1  0.42763648  0.57197711  0.97957132  1
  O2-  O298  1  0.42770138  0.90667124  0.47975699  1
  O2-  O299  1  0.42666660  0.90685790  0.98205999  1
  O2-  O300  1  0.76695589  0.23597285  0.48142033  1
  O2-  O301  1  0.76172921  0.24086332  0.97765801  1
  O2-  O302  1  0.76056572  0.56775175  0.47477598  1
  O2-  O303  1  0.75958780  0.57119372  0.98400306  1
  O2-  O304  1  0.76253007  0.90585572  0.48101132  1
  O2-  O305  1  0.76383690  0.90515905  0.98017259  1
  O2-  O306  1  0.06952431  0.06731840  0.26799656  1
  O2-  O307  1  0.07296593  0.07164299  0.77119632  1
  O2-  O308  1  0.06815397  0.39865588  0.26779738  1
  O2-  O309  1  0.07392739  0.40687954  0.77072963  1
  O2-  O310  1  0.07206288  0.74131022  0.27320953  1
  O2-  O311  1  0.07191437  0.73856312  0.76212477  1
  O2-  O312  1  0.40551642  0.07302155  0.27331158  1
  O2-  O313  1  0.40611430  0.07520539  0.76958265  1
  O2-  O314  1  0.40329920  0.40393019  0.26775661  1
  O2-  O315  1  0.40489730  0.40898375  0.77152026  1
  O2-  O316  1  0.40531980  0.74208067  0.27483625  1
  O2-  O317  1  0.40268695  0.73743419  0.76686184  1
  O2-  O318  1  0.73998924  0.06928101  0.27103238  1
  O2-  O319  1  0.74003959  0.07138084  0.77088635  1
  O2-  O320  1  0.73540683  0.40226074  0.26958330  1
  O2-  O321  1  0.73824511  0.40452099  0.77058810  1
  O2-  O322  1  0.73801029  0.73728642  0.27131021  1
  O2-  O323  1  0.73597271  0.73465946  0.77121285  1
  O2-  O324  1  0.23701079  0.09308330  0.22753860  1
  O2-  O325  1  0.24008867  0.09155271  0.73254080  1
  O2-  O326  1  0.23728318  0.42910261  0.22742256  1
  O2-  O327  1  0.23859704  0.42850549  0.72843138  1
  O2-  O328  1  0.23590407  0.76754711  0.23371173  1
  O2-  O329  1  0.24040472  0.75877451  0.72614467  1
  O2-  O330  1  0.56991588  0.09292262  0.23000722  1
  O2-  O331  1  0.57676025  0.09236591  0.73159454  1
  O2-  O332  1  0.57149033  0.42678298  0.22624908  1
  O2-  O333  1  0.57271470  0.42768583  0.72987043  1
  O2-  O334  1  0.57041161  0.76033861  0.22856838  1
  O2-  O335  1  0.57211391  0.75914471  0.72650703  1
  O2-  O336  1  0.90838428  0.09179576  0.23268326  1
  O2-  O337  1  0.90315044  0.09590873  0.73078936  1
  O2-  O338  1  0.90457967  0.42605678  0.22867321  1
  O2-  O339  1  0.90246061  0.43208796  0.73471333  1
  O2-  O340  1  0.90422893  0.76349684  0.23399570  1
  O2-  O341  1  0.90096919  0.76163583  0.72880500  1
  O2-  O342  1  0.26468816  0.26606178  0.01581995  1
  O2-  O343  1  0.26360707  0.26509379  0.51667815  1
  O2-  O344  1  0.26590318  0.60072461  0.01817547  1
  O2-  O345  1  0.26229506  0.59295314  0.51907506  1
  O2-  O346  1  0.26466484  0.93336738  0.01555314  1
  O2-  O347  1  0.26138783  0.92685026  0.52210061  1
  O2-  O348  1  0.59513188  0.26087325  0.02149490  1
  O2-  O349  1  0.59674469  0.26038375  0.51707438  1
  O2-  O350  1  0.59002320  0.59334479  0.02556825  1
  O2-  O351  1  0.59767237  0.59321640  0.52039238  1
  O2-  O352  1  0.59660471  0.92637208  0.02111600  1
  O2-  O353  1  0.59514119  0.92366646  0.52400889  1
  O2-  O354  1  0.93043997  0.26331662  0.01732709  1
  O2-  O355  1  0.92885783  0.26228315  0.52139093  1
  O2-  O356  1  0.92303174  0.58859318  0.02012454  1
  O2-  O357  1  0.92695742  0.59600805  0.51907535  1
  O2-  O358  1  0.93061061  0.92673418  0.01994768  1
  O2-  O359  1  0.92851166  0.92937409  0.52048218  1
