# generated using pymatgen
data_Sr7Ca15Pr50Mn72O216
_symmetry_space_group_name_H-M   'P 1'
_cell_length_a   16.55876132
_cell_length_b   16.60529498
_cell_length_c   15.59197936
_cell_angle_alpha   90.00297231
_cell_angle_beta   90.00524798
_cell_angle_gamma   89.98123362
_symmetry_Int_Tables_number   1
_chemical_formula_structural   Sr7Ca15Pr50Mn72O216
_chemical_formula_sum   'Sr7 Ca15 Pr50 Mn72 O216'
_cell_volume   4287.21897933
_cell_formula_units_Z   1
loop_
 _symmetry_equiv_pos_site_id
 _symmetry_equiv_pos_as_xyz
  1  'x, y, z'
loop_
 _atom_type_symbol
 _atom_type_oxidation_number
  Sr2+  2.0
  Ca2+  2.0
  Pr3+  3.0
  Mn3.30+  3.3
  O2-  -2.0
loop_
 _atom_site_type_symbol
 _atom_site_label
 _atom_site_symmetry_multiplicity
 _atom_site_fract_x
 _atom_site_fract_y
 _atom_site_fract_z
 _atom_site_occupancy
  Sr2+  Sr0  1  0.50256663  0.50638336  0.62529852  1
  Sr2+  Sr1  1  0.67002750  0.98892574  0.37544671  1
  Sr2+  Sr2  1  0.66874634  0.34330917  0.62463173  1
  Sr2+  Sr3  1  0.49619893  0.48910762  0.87280432  1
  Sr2+  Sr4  1  0.16524140  0.15587139  0.87550999  1
  Sr2+  Sr5  1  0.33384105  0.99453691  0.87399099  1
  Sr2+  Sr6  1  0.16413296  0.82308329  0.37261829  1
  Ca2+  Ca7  1  0.83763483  0.84816983  0.62486791  1
  Ca2+  Ca8  1  0.16737894  0.84806565  0.12406285  1
  Ca2+  Ca9  1  -0.00682071  0.34895504  0.62769194  1
  Ca2+  Ca10  1  0.33769174  0.31821530  0.87310082  1
  Ca2+  Ca11  1  0.49343201  0.15586405  0.87221478  1
  Ca2+  Ca12  1  0.83678990  0.51217202  0.62683465  1
  Ca2+  Ca13  1  0.84066858  0.18526576  0.62427398  1
  Ca2+  Ca14  1  0.16109633  0.15257727  0.37516286  1
  Ca2+  Ca15  1  1.00678536  0.98759693  0.87468171  1
  Ca2+  Ca16  1  0.33457343  0.65244194  0.87457452  1
  Ca2+  Ca17  1  1.00510320  0.31685589  0.37778832  1
  Ca2+  Ca18  1  1.00441575  0.31836625  0.87202626  1
  Ca2+  Ca19  1  -0.00070207  0.68280009  0.12352648  1
  Ca2+  Ca20  1  1.00499784  0.65191056  0.87547854  1
  Ca2+  Ca21  1  0.49814140  0.48553305  0.37821324  1
  Pr3+  Pr22  1  0.66774116  0.98961727  0.87393341  1
  Pr3+  Pr23  1  0.50248694  0.84751876  0.12358849  1
  Pr3+  Pr24  1  0.33026703  0.34752533  0.62750717  1
  Pr3+  Pr25  1  0.66397999  0.34533054  0.12507615  1
  Pr3+  Pr26  1  0.16747588  0.18093563  0.62615401  1
  Pr3+  Pr27  1  0.66345275  0.68025974  0.12301509  1
  Pr3+  Pr28  1  0.83682045  0.84670523  0.12352909  1
  Pr3+  Pr29  1  0.50126629  0.51167326  0.12483208  1
  Pr3+  Pr30  1  0.83445521  0.15696286  0.87173101  1
  Pr3+  Pr31  1  0.49940422  0.15398497  0.37819170  1
  Pr3+  Pr32  1  0.16833211  0.51420417  0.12403602  1
  Pr3+  Pr33  1  0.50283608  0.84310231  0.62685876  1
  Pr3+  Pr34  1  0.16201859  0.82271459  0.87615906  1
  Pr3+  Pr35  1  -0.00568367  0.68001645  0.62673271  1
  Pr3+  Pr36  1  0.16733619  0.51168767  0.62567366  1
  Pr3+  Pr37  1  0.16346121  0.48557315  0.87446229  1
  Pr3+  Pr38  1  0.33543300  0.65262963  0.37485824  1
  Pr3+  Pr39  1  0.83257338  0.48733296  0.37676314  1
  Pr3+  Pr40  1  0.83672294  0.17881456  0.12553199  1
  Pr3+  Pr41  1  0.33474426  0.32147424  0.37653672  1
  Pr3+  Pr42  1  0.82992519  0.82195156  0.37675557  1
  Pr3+  Pr43  1  0.66850954  0.65204747  0.87510264  1
  Pr3+  Pr44  1  0.50119722  0.17792905  0.12349840  1
  Pr3+  Pr45  1  0.32938970  0.01394993  0.62634472  1
  Pr3+  Pr46  1  0.49736327  0.82076069  0.37591226  1
  Pr3+  Pr47  1  0.00184315  0.01139885  0.12400881  1
  Pr3+  Pr48  1  0.66888000  0.01158217  0.62437352  1
  Pr3+  Pr49  1  0.83540234  0.82157210  0.87262568  1
  Pr3+  Pr50  1  0.16793619  0.84604770  0.62449913  1
  Pr3+  Pr51  1  0.49229580  0.81893668  0.87476532  1
  Pr3+  Pr52  1  0.66652009  0.67364374  0.62721380  1
  Pr3+  Pr53  1  1.00350575  0.65460241  0.37413689  1
  Pr3+  Pr54  1  0.66681428  0.32219992  0.87155177  1
  Pr3+  Pr55  1  1.00293883  0.98710515  0.37507202  1
  Pr3+  Pr56  1  0.66434561  0.01381926  0.12492793  1
  Pr3+  Pr57  1  0.50259455  0.17921150  0.62725128  1
  Pr3+  Pr58  1  -0.00089615  0.34403083  0.12244124  1
  Pr3+  Pr59  1  0.83875711  0.51636939  0.12384663  1
  Pr3+  Pr60  1  0.16053109  0.48528248  0.37498220  1
  Pr3+  Pr61  1  0.66846547  0.32311641  0.37830545  1
  Pr3+  Pr62  1  0.17021912  0.17849631  0.12405073  1
  Pr3+  Pr63  1  0.83245247  0.48650112  0.87305639  1
  Pr3+  Pr64  1  0.66932138  0.65372241  0.37504638  1
  Pr3+  Pr65  1  0.83145350  0.15494798  0.37786417  1
  Pr3+  Pr66  1  0.32869809  0.01246434  0.12408183  1
  Pr3+  Pr67  1  0.32727833  0.68211680  0.12182813  1
  Pr3+  Pr68  1  -0.00585689  0.01538023  0.62620994  1
  Pr3+  Pr69  1  0.33077245  0.67588766  0.62846683  1
  Pr3+  Pr70  1  0.32856080  0.34683061  0.12243178  1
  Pr3+  Pr71  1  0.33363610  0.98680641  0.37623919  1
  Mn3.30+  Mn72  1  0.16611426  -0.00096067  -0.00135797  1
  Mn3.30+  Mn73  1  0.16426451  0.00142990  0.49992821  1
  Mn3.30+  Mn74  1  0.16622413  0.33256237  -0.00336994  1
  Mn3.30+  Mn75  1  0.16196037  0.33246215  0.50094411  1
  Mn3.30+  Mn76  1  0.16472171  0.66844813  -0.00066684  1
  Mn3.30+  Mn77  1  0.16530716  0.66664881  0.49980428  1
  Mn3.30+  Mn78  1  0.49894880  0.00193212  -0.00160852  1
  Mn3.30+  Mn79  1  0.50055899  -0.00145489  0.50126781  1
  Mn3.30+  Mn80  1  0.49695618  0.33246963  -0.00158517  1
  Mn3.30+  Mn81  1  0.50076580  0.33427988  0.50018285  1
  Mn3.30+  Mn82  1  0.49619372  0.66551187  -0.00024156  1
  Mn3.30+  Mn83  1  0.50045116  0.66368622  0.50029469  1
  Mn3.30+  Mn84  1  0.83622062  0.00090391  -0.00336035  1
  Mn3.30+  Mn85  1  0.83424095  0.00074696  0.50219474  1
  Mn3.30+  Mn86  1  0.83445570  0.33303743  -0.00171122  1
  Mn3.30+  Mn87  1  0.83863364  0.33456992  0.50133765  1
  Mn3.30+  Mn88  1  0.83768590  0.66740426  -0.00212870  1
  Mn3.30+  Mn89  1  0.83414598  0.66626810  0.50183964  1
  Mn3.30+  Mn90  1  0.00191392  0.16786576  0.25143949  1
  Mn3.30+  Mn91  1  -0.00002827  0.16877983  0.74976998  1
  Mn3.30+  Mn92  1  -0.00005615  0.49918610  0.24883505  1
  Mn3.30+  Mn93  1  -0.00104377  0.49947450  0.75116267  1
  Mn3.30+  Mn94  1  0.00097506  0.83220162  0.24736289  1
  Mn3.30+  Mn95  1  -0.00091937  0.83384224  0.75101437  1
  Mn3.30+  Mn96  1  0.33164739  0.16687733  0.25300720  1
  Mn3.30+  Mn97  1  0.33406066  0.16859884  0.75081838  1
  Mn3.30+  Mn98  1  0.33346746  0.49958392  0.25104879  1
  Mn3.30+  Mn99  1  0.33268415  0.50011139  0.75178014  1
  Mn3.30+  Mn100  1  0.33148564  0.83288553  0.24952244  1
  Mn3.30+  Mn101  1  0.33185643  0.83344813  0.75128506  1
  Mn3.30+  Mn102  1  0.66769498  0.16758067  0.25053323  1
  Mn3.30+  Mn103  1  0.66771074  0.16704972  0.74923310  1
  Mn3.30+  Mn104  1  0.66657419  0.49996226  0.25057676  1
  Mn3.30+  Mn105  1  0.66764855  0.49823830  0.74876850  1
  Mn3.30+  Mn106  1  0.66691777  0.83364506  0.25014032  1
  Mn3.30+  Mn107  1  0.66835709  0.83246195  0.74983955  1
  Mn3.30+  Mn108  1  0.16647326  0.00042423  0.25071164  1
  Mn3.30+  Mn109  1  0.16364799  0.00056595  0.75116793  1
  Mn3.30+  Mn110  1  0.16477943  0.33174347  0.25153423  1
  Mn3.30+  Mn111  1  0.16341053  0.33286116  0.75073767  1
  Mn3.30+  Mn112  1  0.16530638  0.66834786  0.24763667  1
  Mn3.30+  Mn113  1  0.16444158  0.66653703  0.75278555  1
  Mn3.30+  Mn114  1  0.49949495  -0.00022133  0.25185451  1
  Mn3.30+  Mn115  1  0.49997879  0.00088655  0.74949220  1
  Mn3.30+  Mn116  1  0.49854616  0.33348840  0.25090160  1
  Mn3.30+  Mn117  1  0.49976105  0.33321758  0.75107111  1
  Mn3.30+  Mn118  1  0.49916281  0.66521493  0.25030599  1
  Mn3.30+  Mn119  1  0.49786433  0.66423507  0.75029043  1
  Mn3.30+  Mn120  1  0.83379460  0.00060358  0.24894209  1
  Mn3.30+  Mn121  1  0.83617938  0.00079455  0.75120634  1
  Mn3.30+  Mn122  1  0.83599226  0.33399308  0.25193211  1
  Mn3.30+  Mn123  1  0.83732812  0.33381973  0.74860818  1
  Mn3.30+  Mn124  1  0.83569261  0.66810760  0.24821605  1
  Mn3.30+  Mn125  1  0.83560579  0.66579085  0.75101221  1
  Mn3.30+  Mn126  1  0.00178317  0.16624758  -0.00203554  1
  Mn3.30+  Mn127  1  0.00026493  0.16986433  0.50000518  1
  Mn3.30+  Mn128  1  0.00074521  0.50134717  -0.00150419  1
  Mn3.30+  Mn129  1  -0.00179411  0.49804694  0.50162571  1
  Mn3.30+  Mn130  1  0.00164278  0.83261001  0.00025254  1
  Mn3.30+  Mn131  1  -0.00138736  0.83347105  0.50057423  1
  Mn3.30+  Mn132  1  0.33534097  0.16764935  -0.00186030  1
  Mn3.30+  Mn133  1  0.33021456  0.16750079  0.49928760  1
  Mn3.30+  Mn134  1  0.33293078  0.50050832  -0.00204374  1
  Mn3.30+  Mn135  1  0.33300290  0.49970626  0.50008439  1
  Mn3.30+  Mn136  1  0.33047188  0.83447113  -0.00124873  1
  Mn3.30+  Mn137  1  0.33281197  0.83153917  0.50073369  1
  Mn3.30+  Mn138  1  0.66549894  0.16755964  -0.00344358  1
  Mn3.30+  Mn139  1  0.66971079  0.16699345  0.50322577  1
  Mn3.30+  Mn140  1  0.66705446  0.49878117  -0.00023089  1
  Mn3.30+  Mn141  1  0.66720323  0.49943371  0.50067993  1
  Mn3.30+  Mn142  1  0.66663368  0.83371537  -0.00303392  1
  Mn3.30+  Mn143  1  0.66860014  0.83200900  0.50272063  1
  O2-  O144  1  0.02539611  0.16066313  0.12555030  1
  O2-  O145  1  0.02513416  0.16012712  0.62430351  1
  O2-  O146  1  0.02565734  0.48987320  0.12351935  1
  O2-  O147  1  0.02476770  0.49409789  0.62628889  1
  O2-  O148  1  0.02486198  0.82733111  0.12449259  1
  O2-  O149  1  0.02435503  0.82680058  0.62703715  1
  O2-  O150  1  0.35782415  0.16174622  0.12854207  1
  O2-  O151  1  0.35733243  0.16318316  0.62317729  1
  O2-  O152  1  0.35712266  0.49397224  0.12608560  1
  O2-  O153  1  0.35096952  0.49610118  0.62534613  1
  O2-  O154  1  0.35993998  0.82933122  0.12530281  1
  O2-  O155  1  0.35813951  0.82508542  0.62620645  1
  O2-  O156  1  0.69219924  0.16344134  0.12330426  1
  O2-  O157  1  0.69657252  0.15998644  0.62608573  1
  O2-  O158  1  0.69378756  0.49389795  0.12494838  1
  O2-  O159  1  0.69257759  0.50331925  0.62567326  1
  O2-  O160  1  0.69161505  0.82817584  0.12035204  1
  O2-  O161  1  0.69550882  0.82255250  0.62769455  1
  O2-  O162  1  0.14350550  0.32829678  0.12550353  1
  O2-  O163  1  0.13714322  0.32940876  0.62466452  1
  O2-  O164  1  0.13985493  0.65937458  0.12380812  1
  O2-  O165  1  0.13915409  0.66059551  0.62715696  1
  O2-  O166  1  0.14634638  0.99905260  0.12566089  1
  O2-  O167  1  0.13987950  0.99559924  0.62490514  1
  O2-  O168  1  0.47264988  0.32504444  0.12615911  1
  O2-  O169  1  0.47531566  0.32826384  0.62393369  1
  O2-  O170  1  0.47276817  0.66023862  0.12594039  1
  O2-  O171  1  0.47567156  0.66444082  0.62433183  1
  O2-  O172  1  0.47425599  0.99594846  0.12848646  1
  O2-  O173  1  0.47373247  0.99214626  0.62444027  1
  O2-  O174  1  0.80809030  0.32732447  0.12441166  1
  O2-  O175  1  0.81603467  0.32787532  0.62498563  1
  O2-  O176  1  0.80684584  0.66482334  0.12367341  1
  O2-  O177  1  0.80985032  0.65779785  0.62791071  1
  O2-  O178  1  0.80766014  0.99603894  0.12101726  1
  O2-  O179  1  0.81149199  0.99254676  0.62859531  1
  O2-  O180  1  0.30281104  0.17442341  0.37627476  1
  O2-  O181  1  0.31517114  0.17173387  0.87270855  1
  O2-  O182  1  0.30509249  0.50443428  0.37474728  1
  O2-  O183  1  0.30732407  0.50841382  0.87473521  1
  O2-  O184  1  0.31410084  0.83714178  0.37500536  1
  O2-  O185  1  0.30713780  0.83980063  0.87377361  1
  O2-  O186  1  0.64420161  0.17294823  0.37698256  1
  O2-  O187  1  0.63746533  0.17228596  0.87406620  1
  O2-  O188  1  0.64075965  0.50643830  0.37254490  1
  O2-  O189  1  0.64771762  0.50345140  0.87656274  1
  O2-  O190  1  0.64188525  0.83386655  0.37750526  1
  O2-  O191  1  0.63788523  0.83987483  0.87442516  1
  O2-  O192  1  0.97410687  0.17250271  0.37526504  1
  O2-  O193  1  0.97678023  0.17480894  0.87482280  1
  O2-  O194  1  0.97537376  0.50911903  0.37328823  1
  O2-  O195  1  0.97455122  0.51002385  0.87666844  1
  O2-  O196  1  0.97377984  0.83842882  0.37301470  1
  O2-  O197  1  0.97752903  0.84415161  0.87510411  1
  O2-  O198  1  0.18964938  0.00573072  0.37592603  1
  O2-  O199  1  0.18391646  -0.00315512  0.87357116  1
  O2-  O200  1  0.19207761  0.33989976  0.37539124  1
  O2-  O201  1  0.19431004  0.33833767  0.87416381  1
  O2-  O202  1  0.19017083  0.66749052  0.37263367  1
  O2-  O203  1  0.19341700  0.67467142  0.87601112  1
  O2-  O204  1  0.52062955  0.00442009  0.37643196  1
  O2-  O205  1  0.52428120  0.00756385  0.87139083  1
  O2-  O206  1  0.52327152  0.33668993  0.37434885  1
  O2-  O207  1  0.52347867  0.33551126  0.87654121  1
  O2-  O208  1  0.52580780  0.67526101  0.37454424  1
  O2-  O209  1  0.52369697  0.67184766  0.87565518  1
  O2-  O210  1  0.85837794  0.00538262  0.37529052  1
  O2-  O211  1  0.86436834  0.00935470  0.87448018  1
  O2-  O212  1  0.86357174  0.34077003  0.37533015  1
  O2-  O213  1  0.86168772  0.33824904  0.87560171  1
  O2-  O214  1  0.85945032  0.67430009  0.37270276  1
  O2-  O215  1  0.86346567  0.67397135  0.87475286  1
  O2-  O216  1  0.24245259  0.09424024  0.01920395  1
  O2-  O217  1  0.23918934  0.09389334  0.52348847  1
  O2-  O218  1  0.23756635  0.42985520  0.01990221  1
  O2-  O219  1  0.23502486  0.42640113  0.51974176  1
  O2-  O220  1  0.23525767  0.76384770  0.02276438  1
  O2-  O221  1  0.24014054  0.75806396  0.52254970  1
  O2-  O222  1  0.57586628  0.09356520  0.02384040  1
  O2-  O223  1  0.57263645  0.09144340  0.52185219  1
  O2-  O224  1  0.56963452  0.42345107  0.02423226  1
  O2-  O225  1  0.57637274  0.42599607  0.51273534  1
  O2-  O226  1  0.56820432  0.75872610  0.02019102  1
  O2-  O227  1  0.57323227  0.75922612  0.52177643  1
  O2-  O228  1  0.90493124  0.09551833  0.02103952  1
  O2-  O229  1  0.90526632  0.09963997  0.51982164  1
  O2-  O230  1  0.90510922  0.42947832  0.02051529  1
  O2-  O231  1  0.90160765  0.43452934  0.51847800  1
  O2-  O232  1  0.90290010  0.76504847  0.01667937  1
  O2-  O233  1  0.90348631  0.76321018  0.52069427  1
  O2-  O234  1  0.26224709  0.26240122  0.22927860  1
  O2-  O235  1  0.25915347  0.26081433  0.72678407  1
  O2-  O236  1  0.26210597  0.59601661  0.22916277  1
  O2-  O237  1  0.25717958  0.59346764  0.72912343  1
  O2-  O238  1  0.26499957  0.92958196  0.23507977  1
  O2-  O239  1  0.25942203  0.92613050  0.72509057  1
  O2-  O240  1  0.59395646  0.26066328  0.23029804  1
  O2-  O241  1  0.59404901  0.25638275  0.72987133  1
  O2-  O242  1  0.59628081  0.59469384  0.22690123  1
  O2-  O243  1  0.59645741  0.59534394  0.73582588  1
  O2-  O244  1  0.59516063  0.92583398  0.22722641  1
  O2-  O245  1  0.59632931  0.92623293  0.72756432  1
  O2-  O246  1  0.92924034  0.25946254  0.22669156  1
  O2-  O247  1  0.93037132  0.26385190  0.73163921  1
  O2-  O248  1  0.92812591  0.59773069  0.22667418  1
  O2-  O249  1  0.92964543  0.59523510  0.73073010  1
  O2-  O250  1  0.92739395  0.92817583  0.22757423  1
  O2-  O251  1  0.92903157  0.92843406  0.73076566  1
  O2-  O252  1  0.09891236  0.23433180  0.26775612  1
  O2-  O253  1  0.09598533  0.23721786  0.76523541  1
  O2-  O254  1  0.09454086  0.56879708  0.26825027  1
  O2-  O255  1  0.09592870  0.56941025  0.76912941  1
  O2-  O256  1  0.08935761  0.90884236  0.26666697  1
  O2-  O257  1  0.09676343  0.90126490  0.76413125  1
  O2-  O258  1  0.42736009  0.23635747  0.27375904  1
  O2-  O259  1  0.42960781  0.23724423  0.76510781  1
  O2-  O260  1  0.42983803  0.57013560  0.27293142  1
  O2-  O261  1  0.42385762  0.57540411  0.76559523  1
  O2-  O262  1  0.42891242  0.90417931  0.27015528  1
  O2-  O263  1  0.43182981  0.90371822  0.76632226  1
  O2-  O264  1  0.76320657  0.24187490  0.27221638  1
  O2-  O265  1  0.76039414  0.24199645  0.77304181  1
  O2-  O266  1  0.76387797  0.57386478  0.26927212  1
  O2-  O267  1  0.76099813  0.57495968  0.77422555  1
  O2-  O268  1  0.76344720  0.90343924  0.26595483  1
  O2-  O269  1  0.76074402  0.90904161  0.77507448  1
  O2-  O270  1  0.06750378  0.07169080  0.48135768  1
  O2-  O271  1  0.06859252  0.06903540  0.98450340  1
  O2-  O272  1  0.07056683  0.40539300  0.47585745  1
  O2-  O273  1  0.07043997  0.40464289  0.97782837  1
  O2-  O274  1  0.06931890  0.73595258  0.48326398  1
  O2-  O275  1  0.07058487  0.73816941  0.97552574  1
  O2-  O276  1  0.40211634  0.07441038  0.47974621  1
  O2-  O277  1  0.40727361  0.07221994  0.98734114  1
  O2-  O278  1  0.40233155  0.40484724  0.48264944  1
  O2-  O279  1  0.40123295  0.39888342  0.98326913  1
  O2-  O280  1  0.40705545  0.73733244  0.47981634  1
  O2-  O281  1  0.40019826  0.73832939  0.97963616  1
  O2-  O282  1  0.74187144  0.07341539  0.48295864  1
  O2-  O283  1  0.73840746  0.07431755  0.97704462  1
  O2-  O284  1  0.74184243  0.40754631  0.47664784  1
  O2-  O285  1  0.73963077  0.40321222  0.97940354  1
  O2-  O286  1  0.73860050  0.73761503  0.47952539  1
  O2-  O287  1  0.73970635  0.73856683  0.97681734  1
  O2-  O288  1  0.09921902  0.23411443  0.48065301  1
  O2-  O289  1  0.09348582  0.23796423  0.98718065  1
  O2-  O290  1  0.09414144  0.57007474  0.48107858  1
  O2-  O291  1  0.09807109  0.56956066  0.98117493  1
  O2-  O292  1  0.09149237  0.90591785  0.48268084  1
  O2-  O293  1  0.09472959  0.90209960  0.98568190  1
  O2-  O294  1  0.42542868  0.23827965  0.47900422  1
  O2-  O295  1  0.43257794  0.23417094  0.98403939  1
  O2-  O296  1  0.42792138  0.57353063  0.47588414  1
  O2-  O297  1  0.42732110  0.57043070  0.98658608  1
  O2-  O298  1  0.42791140  0.90441230  0.48140759  1
  O2-  O299  1  0.43038860  0.90215254  0.98337792  1
  O2-  O300  1  0.76355224  0.24389806  0.47809080  1
  O2-  O301  1  0.75969288  0.23853125  0.97679575  1
  O2-  O302  1  0.76071878  0.57430660  0.47568755  1
  O2-  O303  1  0.76649610  0.57475433  0.98016247  1
  O2-  O304  1  0.76185169  0.90349190  0.48405370  1
  O2-  O305  1  0.76422563  0.90934677  0.97501986  1
  O2-  O306  1  0.06880733  0.07190652  0.26846529  1
  O2-  O307  1  0.06710681  0.06908528  0.76569634  1
  O2-  O308  1  0.07085648  0.40074452  0.27079318  1
  O2-  O309  1  0.07095417  0.40617043  0.77488456  1
  O2-  O310  1  0.06898519  0.73700300  0.26796225  1
  O2-  O311  1  0.06968610  0.73750670  0.77204505  1
  O2-  O312  1  0.40337664  0.07357116  0.27439468  1
  O2-  O313  1  0.40759639  0.07324739  0.76019481  1
  O2-  O314  1  0.40236159  0.40249190  0.26843747  1
  O2-  O315  1  0.39940407  0.40369868  0.76618381  1
  O2-  O316  1  0.40410553  0.73806540  0.26987739  1
  O2-  O317  1  0.40367281  0.73890492  0.77129252  1
  O2-  O318  1  0.74210736  0.07524466  0.26584046  1
  O2-  O319  1  0.73948930  0.07309511  0.77300302  1
  O2-  O320  1  0.73833927  0.40624972  0.27204613  1
  O2-  O321  1  0.74270428  0.40600477  0.77187149  1
  O2-  O322  1  0.73805433  0.73856251  0.26870790  1
  O2-  O323  1  0.73880919  0.73850095  0.77448925  1
  O2-  O324  1  0.24088439  0.09434572  0.22923197  1
  O2-  O325  1  0.23998307  0.09284729  0.72913852  1
  O2-  O326  1  0.23615320  0.42801329  0.23019444  1
  O2-  O327  1  0.23466470  0.42756972  0.72993048  1
  O2-  O328  1  0.23975753  0.76276756  0.22563966  1
  O2-  O329  1  0.23574790  0.75997292  0.72846416  1
  O2-  O330  1  0.57161199  0.09368957  0.23134579  1
  O2-  O331  1  0.57633162  0.08985199  0.72378174  1
  O2-  O332  1  0.57267725  0.42551575  0.22685682  1
  O2-  O333  1  0.57612133  0.42404716  0.73582993  1
  O2-  O334  1  0.57156828  0.76072928  0.22803225  1
  O2-  O335  1  0.57168342  0.75885690  0.73106627  1
  O2-  O336  1  0.90679868  0.09535125  0.22995882  1
  O2-  O337  1  0.90357777  0.09932394  0.72865171  1
  O2-  O338  1  0.90440983  0.42930491  0.22773960  1
  O2-  O339  1  0.90282394  0.43312544  0.73345342  1
  O2-  O340  1  0.90220548  0.76469142  0.23041974  1
  O2-  O341  1  0.90285181  0.76376217  0.72966471  1
  O2-  O342  1  0.26146376  0.25906958  0.02125347  1
  O2-  O343  1  0.26056578  0.26293298  0.52281216  1
  O2-  O344  1  0.25867425  0.59609119  0.02188129  1
  O2-  O345  1  0.26082858  0.59462152  0.51964120  1
  O2-  O346  1  0.26249022  0.92792684  0.02066709  1
  O2-  O347  1  0.26076544  0.92746613  0.51985332  1
  O2-  O348  1  0.59516606  0.26174244  0.02146702  1
  O2-  O349  1  0.59169439  0.25564755  0.51817133  1
  O2-  O350  1  0.59464265  0.59381609  0.02077190  1
  O2-  O351  1  0.59796515  0.59694808  0.51643098  1
  O2-  O352  1  0.59387676  0.93003720  0.01964275  1
  O2-  O353  1  0.59647145  0.92189807  0.52590320  1
  O2-  O354  1  0.92531054  0.25893075  0.02289127  1
  O2-  O355  1  0.93378734  0.26565664  0.51891734  1
  O2-  O356  1  0.92940859  0.59587688  0.02537257  1
  O2-  O357  1  0.93089684  0.59763780  0.51680864  1
  O2-  O358  1  0.92857923  0.92613558  0.02355226  1
  O2-  O359  1  0.92883411  0.93142758  0.51729624  1
