# generated using pymatgen
data_Sr7Ca15Pr50Mn72O216
_symmetry_space_group_name_H-M   'P 1'
_cell_length_a   16.55916867
_cell_length_b   16.60465832
_cell_length_c   15.59350576
_cell_angle_alpha   90.00426528
_cell_angle_beta   90.00229325
_cell_angle_gamma   89.99984377
_symmetry_Int_Tables_number   1
_chemical_formula_structural   Sr7Ca15Pr50Mn72O216
_chemical_formula_sum   'Sr7 Ca15 Pr50 Mn72 O216'
_cell_volume   4287.58000188
_cell_formula_units_Z   1
loop_
 _symmetry_equiv_pos_site_id
 _symmetry_equiv_pos_as_xyz
  1  'x, y, z'
loop_
 _atom_type_symbol
 _atom_type_oxidation_number
  Sr2+  2.0
  Ca2+  2.0
  Pr3+  3.0
  Mn3.30+  3.3
  O2-  -2.0
loop_
 _atom_site_type_symbol
 _atom_site_label
 _atom_site_symmetry_multiplicity
 _atom_site_fract_x
 _atom_site_fract_y
 _atom_site_fract_z
 _atom_site_occupancy
  Sr2+  Sr0  1  1.00170902  0.65430937  0.87759984  1
  Sr2+  Sr1  1  1.00105482  0.99040895  0.87336057  1
  Sr2+  Sr2  1  1.00201118  0.98841025  0.37696352  1
  Sr2+  Sr3  1  0.66361197  0.67762605  0.62679220  1
  Sr2+  Sr4  1  0.00170328  0.67498831  0.12294243  1
  Sr2+  Sr5  1  0.66663754  0.32765930  0.87481867  1
  Sr2+  Sr6  1  0.49890580  0.17869759  0.12471877  1
  Ca2+  Ca7  1  0.17141212  0.51572294  0.12128518  1
  Ca2+  Ca8  1  0.32653157  0.35120505  0.12294534  1
  Ca2+  Ca9  1  0.16077557  0.48368766  0.87982093  1
  Ca2+  Ca10  1  0.83079071  0.48662628  0.87636234  1
  Ca2+  Ca11  1  1.00231418  0.32281740  0.87630433  1
  Ca2+  Ca12  1  0.67281394  0.64912274  0.87538783  1
  Ca2+  Ca13  1  0.50489270  0.84659174  0.62514540  1
  Ca2+  Ca14  1  0.17368934  0.18426613  0.12406730  1
  Ca2+  Ca15  1  0.66384640  0.67864401  0.12183867  1
  Ca2+  Ca16  1  -0.00550575  0.01495797  0.62616548  1
  Ca2+  Ca17  1  0.16388957  0.48685635  0.36961624  1
  Ca2+  Ca18  1  0.49900514  0.48590686  0.87628036  1
  Ca2+  Ca19  1  0.66468396  0.34909318  0.62921876  1
  Ca2+  Ca20  1  0.32630997  0.68331653  0.12352285  1
  Ca2+  Ca21  1  0.16618639  0.84330661  0.12244580  1
  Pr3+  Pr22  1  0.49571843  0.81880027  0.37574669  1
  Pr3+  Pr23  1  -0.00479881  0.67676732  0.62752080  1
  Pr3+  Pr24  1  0.00134388  0.34590888  0.12191122  1
  Pr3+  Pr25  1  0.66260437  0.01115472  0.62536176  1
  Pr3+  Pr26  1  0.83741829  0.17863873  0.12401247  1
  Pr3+  Pr27  1  0.33713126  0.65019162  0.87823597  1
  Pr3+  Pr28  1  0.16914488  0.51231133  0.62741320  1
  Pr3+  Pr29  1  0.83219985  0.48838204  0.37329724  1
  Pr3+  Pr30  1  0.16220465  0.82016873  0.87756827  1
  Pr3+  Pr31  1  0.83687529  0.18022473  0.62628980  1
  Pr3+  Pr32  1  0.83640928  0.84197935  0.12408166  1
  Pr3+  Pr33  1  0.83676174  0.51248964  0.12109906  1
  Pr3+  Pr34  1  0.49821946  0.81898484  0.87336346  1
  Pr3+  Pr35  1  0.33298818  0.01208127  0.62529867  1
  Pr3+  Pr36  1  0.67065817  0.98905225  0.87610902  1
  Pr3+  Pr37  1  0.66314698  0.34592064  0.12213778  1
  Pr3+  Pr38  1  0.16193033  0.15687542  0.87739522  1
  Pr3+  Pr39  1  0.16216443  0.82062525  0.37265300  1
  Pr3+  Pr40  1  0.00331398  0.00825746  0.12444601  1
  Pr3+  Pr41  1  0.83648120  0.84657591  0.62625250  1
  Pr3+  Pr42  1  1.00527914  0.32198313  0.37412518  1
  Pr3+  Pr43  1  0.49787410  0.15645635  0.87673081  1
  Pr3+  Pr44  1  0.83327462  0.15683950  0.87569127  1
  Pr3+  Pr45  1  0.66951989  0.32124887  0.37463926  1
  Pr3+  Pr46  1  0.66784066  0.65356524  0.37397239  1
  Pr3+  Pr47  1  0.50637390  0.18348021  0.62535268  1
  Pr3+  Pr48  1  0.66998299  0.98575316  0.37356107  1
  Pr3+  Pr49  1  0.33665365  0.32361968  0.87762758  1
  Pr3+  Pr50  1  0.33065652  0.34763841  0.62628195  1
  Pr3+  Pr51  1  0.33317355  0.67875149  0.62662755  1
  Pr3+  Pr52  1  0.83189556  0.81938380  0.37437397  1
  Pr3+  Pr53  1  -0.00261171  0.34668327  0.62759152  1
  Pr3+  Pr54  1  0.16599401  0.17861560  0.62554018  1
  Pr3+  Pr55  1  0.49657422  0.48891052  0.37433254  1
  Pr3+  Pr56  1  0.50052398  0.84326608  0.12380624  1
  Pr3+  Pr57  1  0.66239448  0.01352858  0.12441195  1
  Pr3+  Pr58  1  0.83298754  0.15241610  0.37440313  1
  Pr3+  Pr59  1  0.50503380  0.51076609  0.62872459  1
  Pr3+  Pr60  1  1.00511838  0.65106743  0.37269783  1
  Pr3+  Pr61  1  0.16309598  0.15274227  0.37372256  1
  Pr3+  Pr62  1  0.83278941  0.51052416  0.62924636  1
  Pr3+  Pr63  1  0.33561988  0.98739506  0.87504379  1
  Pr3+  Pr64  1  0.49648381  0.15381223  0.37354004  1
  Pr3+  Pr65  1  0.82969711  0.81844299  0.87559716  1
  Pr3+  Pr66  1  0.33481368  0.98657196  0.37517622  1
  Pr3+  Pr67  1  0.16540380  0.84528376  0.62737881  1
  Pr3+  Pr68  1  0.32574118  0.01342532  0.12454137  1
  Pr3+  Pr69  1  0.33458719  0.32299924  0.37285260  1
  Pr3+  Pr70  1  0.49979992  0.51298629  0.12115105  1
  Pr3+  Pr71  1  0.33487996  0.65297204  0.37167788  1
  Mn3.30+  Mn72  1  0.16655259  0.00009588  -0.00069821  1
  Mn3.30+  Mn73  1  0.16453576  -0.00043401  0.50305394  1
  Mn3.30+  Mn74  1  0.16739599  0.33541228  0.00068940  1
  Mn3.30+  Mn75  1  0.16721313  0.33531779  0.49942233  1
  Mn3.30+  Mn76  1  0.16861607  0.66505627  0.00100608  1
  Mn3.30+  Mn77  1  0.16645177  0.66483475  0.50001876  1
  Mn3.30+  Mn78  1  0.49924537  -0.00026863  0.00025774  1
  Mn3.30+  Mn79  1  0.50045806  -0.00087638  0.50016049  1
  Mn3.30+  Mn80  1  0.49735775  0.33477951  0.00125218  1
  Mn3.30+  Mn81  1  0.50179309  0.33481227  0.49981092  1
  Mn3.30+  Mn82  1  0.50147479  0.66487307  -0.00092778  1
  Mn3.30+  Mn83  1  0.49994733  0.66694727  0.50117936  1
  Mn3.30+  Mn84  1  0.83414635  -0.00048592  0.00081942  1
  Mn3.30+  Mn85  1  0.83372004  -0.00077582  0.50018362  1
  Mn3.30+  Mn86  1  0.83421461  0.33460619  -0.00226800  1
  Mn3.30+  Mn87  1  0.83287271  0.33401263  0.50104507  1
  Mn3.30+  Mn88  1  0.83143827  0.66450838  -0.00098124  1
  Mn3.30+  Mn89  1  0.83309585  0.66567988  0.50058544  1
  Mn3.30+  Mn90  1  0.00394579  0.16624339  0.24717231  1
  Mn3.30+  Mn91  1  0.00027059  0.16788055  0.75109425  1
  Mn3.30+  Mn92  1  0.00361150  0.49958209  0.24675174  1
  Mn3.30+  Mn93  1  0.00097853  0.49893771  0.75531828  1
  Mn3.30+  Mn94  1  0.00111598  0.83210607  0.24840520  1
  Mn3.30+  Mn95  1  -0.00050873  0.83356012  0.75146707  1
  Mn3.30+  Mn96  1  0.33090172  0.16920987  0.24837194  1
  Mn3.30+  Mn97  1  0.33355482  0.16774546  0.74945910  1
  Mn3.30+  Mn98  1  0.32953310  0.50083348  0.24723517  1
  Mn3.30+  Mn99  1  0.33355398  0.49977947  0.75377793  1
  Mn3.30+  Mn100  1  0.33036989  0.83260298  0.24837176  1
  Mn3.30+  Mn101  1  0.33433475  0.83232521  0.74897799  1
  Mn3.30+  Mn102  1  0.66592397  0.16763052  0.24937053  1
  Mn3.30+  Mn103  1  0.66771575  0.16914490  0.75021090  1
  Mn3.30+  Mn104  1  0.66569948  0.50137982  0.24713723  1
  Mn3.30+  Mn105  1  0.66723939  0.49986827  0.75381751  1
  Mn3.30+  Mn106  1  0.66572265  0.83051907  0.24812545  1
  Mn3.30+  Mn107  1  0.66482058  0.83135928  0.75015877  1
  Mn3.30+  Mn108  1  0.16645004  -0.00079883  0.24947800  1
  Mn3.30+  Mn109  1  0.16511550  0.00102998  0.74872026  1
  Mn3.30+  Mn110  1  0.16917641  0.33599161  0.24754857  1
  Mn3.30+  Mn111  1  0.16525762  0.33488987  0.75269484  1
  Mn3.30+  Mn112  1  0.16909441  0.66590096  0.24664532  1
  Mn3.30+  Mn113  1  0.16608145  0.66417541  0.75266171  1
  Mn3.30+  Mn114  1  0.49865747  -0.00079403  0.24924371  1
  Mn3.30+  Mn115  1  0.50075267  -0.00041180  0.74995948  1
  Mn3.30+  Mn116  1  0.49772389  0.33453734  0.24715102  1
  Mn3.30+  Mn117  1  0.50124442  0.33515385  0.75221896  1
  Mn3.30+  Mn118  1  0.49870750  0.66634504  0.24523897  1
  Mn3.30+  Mn119  1  0.50279391  0.66494311  0.75349888  1
  Mn3.30+  Mn120  1  0.83408029  -0.00125828  0.24890785  1
  Mn3.30+  Mn121  1  0.83406319  0.00002703  0.75031745  1
  Mn3.30+  Mn122  1  0.83474638  0.33316359  0.24875586  1
  Mn3.30+  Mn123  1  0.83262550  0.33503251  0.75214580  1
  Mn3.30+  Mn124  1  0.83320365  0.66574940  0.24748485  1
  Mn3.30+  Mn125  1  0.83105743  0.66468783  0.75246673  1
  Mn3.30+  Mn126  1  0.00335414  0.16760976  0.00156002  1
  Mn3.30+  Mn127  1  0.00010320  0.16623907  0.50038295  1
  Mn3.30+  Mn128  1  0.00252864  0.49946197  -0.00196327  1
  Mn3.30+  Mn129  1  0.00188331  0.49938284  0.50007565  1
  Mn3.30+  Mn130  1  0.00088131  0.83237684  0.00049714  1
  Mn3.30+  Mn131  1  -0.00035840  0.83311667  0.50039341  1
  Mn3.30+  Mn132  1  0.33060694  0.16919326  0.00141345  1
  Mn3.30+  Mn133  1  0.33387965  0.16759736  0.50041149  1
  Mn3.30+  Mn134  1  0.33073399  0.50002555  0.00041285  1
  Mn3.30+  Mn135  1  0.33191462  0.50077734  0.49877338  1
  Mn3.30+  Mn136  1  0.33177973  0.83206710  -0.00013853  1
  Mn3.30+  Mn137  1  0.33317108  0.83261550  0.50250557  1
  Mn3.30+  Mn138  1  0.66622293  0.16884446  -0.00032353  1
  Mn3.30+  Mn139  1  0.66738491  0.16776509  0.50026852  1
  Mn3.30+  Mn140  1  0.66715526  0.50194794  -0.00184157  1
  Mn3.30+  Mn141  1  0.66607148  0.49929298  0.50042257  1
  Mn3.30+  Mn142  1  0.66605429  0.82972771  0.00009341  1
  Mn3.30+  Mn143  1  0.66483351  0.83197452  0.50089354  1
  O2-  O144  1  0.03051896  0.15846922  0.12568816  1
  O2-  O145  1  0.02175225  0.16335414  0.62601950  1
  O2-  O146  1  0.02774047  0.49333288  0.12394623  1
  O2-  O147  1  0.02597286  0.49529636  0.62764978  1
  O2-  O148  1  0.02292757  0.83348722  0.12498214  1
  O2-  O149  1  0.02209612  0.82338908  0.62559825  1
  O2-  O150  1  0.35220216  0.15861853  0.12610630  1
  O2-  O151  1  0.36216389  0.16167481  0.62398214  1
  O2-  O152  1  0.35743643  0.49382805  0.12433933  1
  O2-  O153  1  0.35931544  0.49662865  0.62670908  1
  O2-  O154  1  0.35730022  0.83134368  0.12381990  1
  O2-  O155  1  0.36273855  0.82673295  0.62590222  1
  O2-  O156  1  0.69229297  0.16237005  0.12635720  1
  O2-  O157  1  0.69323008  0.15791126  0.62495222  1
  O2-  O158  1  0.69275128  0.49257049  0.12524686  1
  O2-  O159  1  0.68839758  0.49454456  0.62647911  1
  O2-  O160  1  0.69232433  0.82449667  0.12518341  1
  O2-  O161  1  0.69175430  0.83331904  0.62647818  1
  O2-  O162  1  0.14305463  0.32510008  0.12484982  1
  O2-  O163  1  0.14200885  0.32792753  0.62688655  1
  O2-  O164  1  0.14917496  0.65928706  0.12487119  1
  O2-  O165  1  0.13987072  0.65850801  0.62647691  1
  O2-  O166  1  0.14700626  0.99024012  0.12364305  1
  O2-  O167  1  0.13720832  0.99438685  0.62527949  1
  O2-  O168  1  0.47223824  0.33376236  0.12643020  1
  O2-  O169  1  0.47496550  0.33103818  0.62513342  1
  O2-  O170  1  0.46980151  0.66209198  0.12356554  1
  O2-  O171  1  0.47578704  0.65668864  0.62862238  1
  O2-  O172  1  0.47185151  0.99244086  0.12479096  1
  O2-  O173  1  0.47696780  0.99392241  0.62475228  1
  O2-  O174  1  0.80769145  0.32613742  0.12580135  1
  O2-  O175  1  0.80675350  0.32750043  0.62503177  1
  O2-  O176  1  0.80625105  0.66130627  0.12414775  1
  O2-  O177  1  0.81389899  0.65937651  0.62570556  1
  O2-  O178  1  0.80597113  0.99339153  0.12457165  1
  O2-  O179  1  0.80565690  0.99577750  0.62343330  1
  O2-  O180  1  0.30696888  0.17320134  0.37573234  1
  O2-  O181  1  0.30696633  0.17338696  0.87406101  1
  O2-  O182  1  0.30570151  0.50643337  0.37268732  1
  O2-  O183  1  0.30362432  0.50357821  0.87604234  1
  O2-  O184  1  0.30666510  0.83831694  0.37752273  1
  O2-  O185  1  0.30713968  0.83881234  0.87256135  1
  O2-  O186  1  0.64085228  0.17318572  0.37439057  1
  O2-  O187  1  0.64251888  0.16795117  0.87361869  1
  O2-  O188  1  0.64097311  0.50554295  0.37126336  1
  O2-  O189  1  0.64050057  0.50510489  0.87720856  1
  O2-  O190  1  0.63981610  0.83822256  0.37258600  1
  O2-  O191  1  0.64093803  0.84380934  0.87561289  1
  O2-  O192  1  0.97698783  0.17333163  0.37273946  1
  O2-  O193  1  0.97743005  0.17364963  0.87588146  1
  O2-  O194  1  0.97600827  0.50180156  0.37307837  1
  O2-  O195  1  0.97305820  0.50096865  0.87568871  1
  O2-  O196  1  0.97669275  0.83329126  0.37541358  1
  O2-  O197  1  0.97593189  0.83591541  0.87476666  1
  O2-  O198  1  0.19088828  0.00383998  0.37930025  1
  O2-  O199  1  0.19259006  0.00831067  0.87226431  1
  O2-  O200  1  0.19114004  0.34186768  0.37328699  1
  O2-  O201  1  0.19296652  0.33692663  0.87488354  1
  O2-  O202  1  0.19247266  0.67523369  0.37402896  1
  O2-  O203  1  0.19387642  0.67498084  0.87516333  1
  O2-  O204  1  0.52541168  0.00519694  0.37443041  1
  O2-  O205  1  0.52550171  0.00705517  0.87552708  1
  O2-  O206  1  0.52548738  0.34005156  0.37355283  1
  O2-  O207  1  0.51636179  0.33649653  0.87558490  1
  O2-  O208  1  0.52334796  0.67072481  0.37136041  1
  O2-  O209  1  0.53013279  0.67427048  0.87588892  1
  O2-  O210  1  0.85252349  0.00344241  0.37444610  1
  O2-  O211  1  0.85178646  0.00670187  0.87808497  1
  O2-  O212  1  0.86072391  0.33982691  0.37305769  1
  O2-  O213  1  0.85982887  0.33699861  0.87594770  1
  O2-  O214  1  0.85876936  0.66987996  0.37479634  1
  O2-  O215  1  0.85300265  0.67326572  0.87520404  1
  O2-  O216  1  0.23726636  0.09765070  0.01927991  1
  O2-  O217  1  0.23958716  0.09299718  0.52278628  1
  O2-  O218  1  0.23448676  0.43096137  0.01981148  1
  O2-  O219  1  0.24000962  0.42671333  0.52336428  1
  O2-  O220  1  0.23806485  0.76575198  0.01784155  1
  O2-  O221  1  0.23691672  0.75968061  0.52399015  1
  O2-  O222  1  0.57400976  0.09090461  0.01861519  1
  O2-  O223  1  0.57081920  0.09597689  0.51995848  1
  O2-  O224  1  0.57394093  0.42758586  0.02109267  1
  O2-  O225  1  0.56970338  0.42969426  0.51696591  1
  O2-  O226  1  0.56835220  0.76262203  0.01923675  1
  O2-  O227  1  0.56710590  0.76466247  0.51654756  1
  O2-  O228  1  0.90840468  0.09307076  0.02217653  1
  O2-  O229  1  0.90077041  0.09559722  0.51610554  1
  O2-  O230  1  0.90745228  0.42410897  0.02427457  1
  O2-  O231  1  0.90412828  0.42825072  0.52166502  1
  O2-  O232  1  0.90103918  0.76090881  0.01610197  1
  O2-  O233  1  0.90412690  0.76106543  0.51975327  1
  O2-  O234  1  0.26492231  0.26836108  0.23283665  1
  O2-  O235  1  0.26112167  0.26083402  0.72807983  1
  O2-  O236  1  0.26754508  0.60135203  0.23208219  1
  O2-  O237  1  0.26326966  0.59507067  0.72976596  1
  O2-  O238  1  0.26489560  0.93288592  0.23635856  1
  O2-  O239  1  0.26042257  0.92903882  0.72755544  1
  O2-  O240  1  0.59751094  0.26399185  0.23292257  1
  O2-  O241  1  0.59588325  0.25997472  0.72696053  1
  O2-  O242  1  0.59503206  0.59628057  0.22681522  1
  O2-  O243  1  0.59240670  0.59104302  0.73138359  1
  O2-  O244  1  0.59531359  0.92546423  0.22747011  1
  O2-  O245  1  0.59707134  0.93111922  0.73379901  1
  O2-  O246  1  0.93071625  0.25895489  0.22716448  1
  O2-  O247  1  0.92656571  0.26010104  0.72866550  1
  O2-  O248  1  0.92659188  0.58955942  0.23227208  1
  O2-  O249  1  0.92819055  0.59147238  0.72975974  1
  O2-  O250  1  0.92595536  0.92570793  0.22778409  1
  O2-  O251  1  0.92546323  0.92810101  0.72711258  1
  O2-  O252  1  0.09648387  0.24020799  0.27242747  1
  O2-  O253  1  0.09730152  0.23821658  0.76671484  1
  O2-  O254  1  0.09509454  0.57310503  0.27211441  1
  O2-  O255  1  0.09922275  0.56633163  0.76959022  1
  O2-  O256  1  0.09456998  0.90378708  0.26795719  1
  O2-  O257  1  0.09810523  0.90382454  0.76717383  1
  O2-  O258  1  0.42618065  0.23898124  0.27350152  1
  O2-  O259  1  0.42918747  0.23898598  0.76870293  1
  O2-  O260  1  0.42860588  0.57142524  0.26902572  1
  O2-  O261  1  0.42793067  0.56983533  0.77503522  1
  O2-  O262  1  0.42665202  0.90466716  0.27152347  1
  O2-  O263  1  0.42567592  0.90693905  0.77248297  1
  O2-  O264  1  0.76408023  0.23929089  0.27156655  1
  O2-  O265  1  0.76511994  0.23597714  0.76809369  1
  O2-  O266  1  0.76025695  0.57173572  0.27107975  1
  O2-  O267  1  0.76290475  0.56936718  0.76897913  1
  O2-  O268  1  0.75892251  0.90335985  0.26982174  1
  O2-  O269  1  0.76101559  0.90472288  0.76997842  1
  O2-  O270  1  0.07594325  0.07627257  0.48235109  1
  O2-  O271  1  0.07399423  0.07338708  0.98172884  1
  O2-  O272  1  0.06890482  0.40332636  0.48408685  1
  O2-  O273  1  0.06956173  0.40080325  0.98129543  1
  O2-  O274  1  0.07238839  0.73442371  0.48097806  1
  O2-  O275  1  0.07764605  0.74010032  0.98235455  1
  O2-  O276  1  0.40552807  0.07323900  0.47862272  1
  O2-  O277  1  0.40384523  0.07367394  0.97893276  1
  O2-  O278  1  0.40427782  0.40688154  0.47908153  1
  O2-  O279  1  0.40186470  0.40769211  0.98162181  1
  O2-  O280  1  0.40367347  0.73748113  0.47950079  1
  O2-  O281  1  0.40755617  0.73900945  0.97643960  1
  O2-  O282  1  0.73686731  0.07144715  0.47785453  1
  O2-  O283  1  0.74042462  0.07324713  0.98317932  1
  O2-  O284  1  0.74018303  0.40710517  0.47621900  1
  O2-  O285  1  0.74031908  0.40647870  0.98654540  1
  O2-  O286  1  0.73773241  0.73986270  0.47725765  1
  O2-  O287  1  0.73588472  0.73871578  0.97691198  1
  O2-  O288  1  0.09731001  0.24068917  0.48003484  1
  O2-  O289  1  0.09732299  0.23976763  0.98180766  1
  O2-  O290  1  0.09810862  0.56982873  0.47757460  1
  O2-  O291  1  0.09866572  0.56996827  0.98155536  1
  O2-  O292  1  0.09731404  0.90055460  0.48444818  1
  O2-  O293  1  0.09661017  0.90692948  0.98107124  1
  O2-  O294  1  0.43090852  0.24061896  0.47931248  1
  O2-  O295  1  0.42496196  0.23834310  0.97876183  1
  O2-  O296  1  0.42587913  0.57301773  0.47844949  1
  O2-  O297  1  0.43181170  0.57017454  0.97742941  1
  O2-  O298  1  0.42671932  0.90782350  0.47727798  1
  O2-  O299  1  0.42770929  0.90483306  0.97799190  1
  O2-  O300  1  0.76353432  0.23791390  0.47686900  1
  O2-  O301  1  0.76525438  0.23781327  0.98312080  1
  O2-  O302  1  0.76093971  0.57148612  0.47934571  1
  O2-  O303  1  0.76322039  0.56891680  0.98083826  1
  O2-  O304  1  0.76141355  0.90457350  0.47913836  1
  O2-  O305  1  0.75952267  0.90424745  0.98093113  1
  O2-  O306  1  0.07430820  0.07174222  0.26859522  1
  O2-  O307  1  0.07648918  0.07758388  0.76846373  1
  O2-  O308  1  0.07016742  0.40193191  0.26635702  1
  O2-  O309  1  0.06902050  0.40126751  0.76914564  1
  O2-  O310  1  0.07328037  0.73769733  0.27068677  1
  O2-  O311  1  0.07594465  0.73899454  0.76697641  1
  O2-  O312  1  0.40327657  0.07328723  0.27165933  1
  O2-  O313  1  0.40650759  0.07312936  0.77043895  1
  O2-  O314  1  0.40462469  0.40928652  0.27362819  1
  O2-  O315  1  0.40108667  0.40444244  0.76671782  1
  O2-  O316  1  0.40426588  0.74077899  0.27129331  1
  O2-  O317  1  0.40626551  0.73559091  0.77250235  1
  O2-  O318  1  0.73950079  0.07298467  0.26923614  1
  O2-  O319  1  0.73857602  0.07225125  0.76964728  1
  O2-  O320  1  0.73804753  0.40608468  0.27028574  1
  O2-  O321  1  0.74175552  0.40786214  0.76675690  1
  O2-  O322  1  0.73809682  0.73989045  0.27333873  1
  O2-  O323  1  0.73642795  0.74010553  0.77224564  1
  O2-  O324  1  0.23698324  0.09804638  0.23243512  1
  O2-  O325  1  0.24098671  0.09350831  0.72524712  1
  O2-  O326  1  0.23528886  0.43333492  0.22806357  1
  O2-  O327  1  0.23906911  0.42627030  0.72758162  1
  O2-  O328  1  0.23537791  0.76726127  0.23114905  1
  O2-  O329  1  0.24083887  0.76022492  0.72736164  1
  O2-  O330  1  0.57332994  0.09128542  0.23196890  1
  O2-  O331  1  0.57262253  0.09620881  0.72907438  1
  O2-  O332  1  0.57173546  0.43025503  0.22799021  1
  O2-  O333  1  0.57202872  0.42731382  0.73344538  1
  O2-  O334  1  0.56835124  0.76250321  0.23104958  1
  O2-  O335  1  0.56768769  0.76700852  0.73205198  1
  O2-  O336  1  0.90812139  0.09362669  0.22852853  1
  O2-  O337  1  0.90456056  0.09609993  0.73314132  1
  O2-  O338  1  0.90515042  0.42628118  0.22753315  1
  O2-  O339  1  0.90710605  0.42572193  0.72614582  1
  O2-  O340  1  0.90343067  0.76223265  0.23320975  1
  O2-  O341  1  0.90330691  0.75989436  0.73150162  1
  O2-  O342  1  0.26371454  0.26713426  0.01758583  1
  O2-  O343  1  0.26215168  0.26125200  0.52066576  1
  O2-  O344  1  0.26848246  0.59994012  0.01711037  1
  O2-  O345  1  0.26140554  0.59605078  0.52170511  1
  O2-  O346  1  0.26477988  0.93324546  0.01294284  1
  O2-  O347  1  0.26127857  0.92757986  0.52407018  1
  O2-  O348  1  0.59437386  0.26088287  0.01853921  1
  O2-  O349  1  0.59836828  0.26318119  0.52151806  1
  O2-  O350  1  0.59434610  0.59457790  0.02559162  1
  O2-  O351  1  0.59224141  0.59314043  0.51496365  1
  O2-  O352  1  0.59517425  0.92553037  0.02244344  1
  O2-  O353  1  0.59766577  0.93015021  0.51591050  1
  O2-  O354  1  0.92809552  0.25736475  0.02386720  1
  O2-  O355  1  0.92816717  0.26194811  0.52003304  1
  O2-  O356  1  0.92531588  0.58933869  0.02001437  1
  O2-  O357  1  0.93089185  0.59300032  0.51821971  1
  O2-  O358  1  0.92451988  0.92669005  0.02253819  1
  O2-  O359  1  0.92559335  0.92832901  0.52366140  1
