# generated using pymatgen
data_Sr7Ca15Pr50Mn72O216
_symmetry_space_group_name_H-M   'P 1'
_cell_length_a   16.55825677
_cell_length_b   16.60502745
_cell_length_c   15.59217953
_cell_angle_alpha   89.99850001
_cell_angle_beta   89.99959516
_cell_angle_gamma   90.00727861
_symmetry_Int_Tables_number   1
_chemical_formula_structural   Sr7Ca15Pr50Mn72O216
_chemical_formula_sum   'Sr7 Ca15 Pr50 Mn72 O216'
_cell_volume   4287.07452993
_cell_formula_units_Z   1
loop_
 _symmetry_equiv_pos_site_id
 _symmetry_equiv_pos_as_xyz
  1  'x, y, z'
loop_
 _atom_type_symbol
 _atom_type_oxidation_number
  Sr2+  2.0
  Ca2+  2.0
  Pr3+  3.0
  Mn3.30+  3.3
  O2-  -2.0
loop_
 _atom_site_type_symbol
 _atom_site_label
 _atom_site_symmetry_multiplicity
 _atom_site_fract_x
 _atom_site_fract_y
 _atom_site_fract_z
 _atom_site_occupancy
  Sr2+  Sr0  1  0.66851083  0.32368118  0.37634271  1
  Sr2+  Sr1  1  0.33235530  0.34068548  0.62706172  1
  Sr2+  Sr2  1  0.33758831  0.32083639  0.87321753  1
  Sr2+  Sr3  1  0.16439545  0.15772262  0.37728077  1
  Sr2+  Sr4  1  0.49877560  0.50624480  0.62597563  1
  Sr2+  Sr5  1  0.33239037  0.67627543  0.62530297  1
  Sr2+  Sr6  1  0.33589454  0.99224426  0.87017236  1
  Ca2+  Ca7  1  1.00352083  0.98607548  0.87167961  1
  Ca2+  Ca8  1  0.66267486  0.01524813  0.62619779  1
  Ca2+  Ca9  1  0.83066376  0.48227914  0.37468315  1
  Ca2+  Ca10  1  0.83776408  0.84852921  0.12342684  1
  Ca2+  Ca11  1  -0.00703296  0.68583024  0.12454368  1
  Ca2+  Ca12  1  0.50191616  0.85105507  0.62653911  1
  Ca2+  Ca13  1  1.00236811  0.31824397  0.87481276  1
  Ca2+  Ca14  1  0.50343710  0.17946708  0.12036720  1
  Ca2+  Ca15  1  0.33043330  0.01156637  0.62780745  1
  Ca2+  Ca16  1  -0.00206337  0.01523766  0.62771087  1
  Ca2+  Ca17  1  0.49411400  0.15183539  0.87333856  1
  Ca2+  Ca18  1  1.00252548  0.31720450  0.37518497  1
  Ca2+  Ca19  1  0.17264254  0.85059303  0.62587156  1
  Ca2+  Ca20  1  0.83196009  0.15120159  0.87421452  1
  Ca2+  Ca21  1  0.83050836  0.48504969  0.87528780  1
  Pr3+  Pr22  1  0.33455376  0.65635552  0.87420606  1
  Pr3+  Pr23  1  0.65840263  0.68044356  0.62513913  1
  Pr3+  Pr24  1  0.16280743  0.82175358  0.37725228  1
  Pr3+  Pr25  1  0.33392008  0.98916826  0.37916663  1
  Pr3+  Pr26  1  0.49497581  0.82410261  0.87223532  1
  Pr3+  Pr27  1  0.16628558  0.84674230  0.12421996  1
  Pr3+  Pr28  1  -0.00398634  0.34462849  0.12492060  1
  Pr3+  Pr29  1  0.66707379  0.99098197  0.87179118  1
  Pr3+  Pr30  1  -0.00114072  0.34262217  0.62497325  1
  Pr3+  Pr31  1  1.00362816  0.98981576  0.37809259  1
  Pr3+  Pr32  1  0.66609059  0.34414932  0.12509035  1
  Pr3+  Pr33  1  0.83573321  0.51086290  0.62445986  1
  Pr3+  Pr34  1  0.33067955  0.01377704  0.12283345  1
  Pr3+  Pr35  1  0.16459863  0.15215560  0.87269737  1
  Pr3+  Pr36  1  0.50455887  0.51230380  0.12471174  1
  Pr3+  Pr37  1  0.33694038  0.31881806  0.37628709  1
  Pr3+  Pr38  1  0.16775517  0.17788159  0.12378397  1
  Pr3+  Pr39  1  0.16191489  0.48368869  0.37571119  1
  Pr3+  Pr40  1  0.16302818  0.48405585  0.87433000  1
  Pr3+  Pr41  1  -0.00471996  0.01151924  0.12217070  1
  Pr3+  Pr42  1  0.66360055  0.34572218  0.62477743  1
  Pr3+  Pr43  1  0.66494729  0.01496048  0.12372777  1
  Pr3+  Pr44  1  0.66604337  0.68213916  0.12529520  1
  Pr3+  Pr45  1  1.00161955  0.65445198  0.87570326  1
  Pr3+  Pr46  1  0.17268570  0.50969029  0.62618760  1
  Pr3+  Pr47  1  0.83946631  0.51507973  0.12546465  1
  Pr3+  Pr48  1  0.83154058  0.15701572  0.37583935  1
  Pr3+  Pr49  1  0.83624653  0.17934727  0.12249590  1
  Pr3+  Pr50  1  0.83085034  0.82264946  0.37546183  1
  Pr3+  Pr51  1  0.33118882  0.34418391  0.12312141  1
  Pr3+  Pr52  1  -0.00049026  0.67912203  0.62539764  1
  Pr3+  Pr53  1  0.67012842  0.99050018  0.37749814  1
  Pr3+  Pr54  1  0.16603327  0.51323315  0.12393711  1
  Pr3+  Pr55  1  1.00163394  0.65293462  0.37395471  1
  Pr3+  Pr56  1  0.67104379  0.31809817  0.87381577  1
  Pr3+  Pr57  1  0.50099410  0.17586662  0.62936474  1
  Pr3+  Pr58  1  0.67195460  0.65264588  0.87474551  1
  Pr3+  Pr59  1  0.49746085  0.15496514  0.37560308  1
  Pr3+  Pr60  1  0.83250169  0.82412589  0.87496895  1
  Pr3+  Pr61  1  0.50259844  0.84779722  0.12502009  1
  Pr3+  Pr62  1  0.33455964  0.65360458  0.37571558  1
  Pr3+  Pr63  1  0.49735498  0.48755861  0.87469359  1
  Pr3+  Pr64  1  0.83521034  0.17790482  0.62753977  1
  Pr3+  Pr65  1  0.49720674  0.82134719  0.37800038  1
  Pr3+  Pr66  1  0.67244609  0.65126776  0.37533248  1
  Pr3+  Pr67  1  0.49810564  0.48532919  0.37579670  1
  Pr3+  Pr68  1  0.16954517  0.17599098  0.62575765  1
  Pr3+  Pr69  1  0.16449088  0.82337433  0.87196055  1
  Pr3+  Pr70  1  0.83585232  0.85018530  0.62591059  1
  Pr3+  Pr71  1  0.33032088  0.68113440  0.12471113  1
  Mn3.30+  Mn72  1  0.16429128  -0.00058456  -0.00288846  1
  Mn3.30+  Mn73  1  0.16680331  -0.00053455  0.50384607  1
  Mn3.30+  Mn74  1  0.16474208  0.33153837  -0.00164648  1
  Mn3.30+  Mn75  1  0.16509622  0.33155027  0.49964261  1
  Mn3.30+  Mn76  1  0.16363667  0.66752872  0.00133305  1
  Mn3.30+  Mn77  1  0.16666413  0.66736750  0.50052612  1
  Mn3.30+  Mn78  1  0.49949624  0.00294937  -0.00061264  1
  Mn3.30+  Mn79  1  0.50082829  -0.00044403  0.50313868  1
  Mn3.30+  Mn80  1  0.50070178  0.33050930  -0.00035677  1
  Mn3.30+  Mn81  1  0.50093651  0.33217727  0.50087254  1
  Mn3.30+  Mn82  1  0.50110112  0.66815504  0.00007512  1
  Mn3.30+  Mn83  1  0.49992534  0.66686474  0.50153054  1
  Mn3.30+  Mn84  1  0.83382145  -0.00001748  -0.00355534  1
  Mn3.30+  Mn85  1  0.83430922  0.00192681  0.50391602  1
  Mn3.30+  Mn86  1  0.83497493  0.33278938  -0.00436826  1
  Mn3.30+  Mn87  1  0.83421798  0.33327273  0.49933129  1
  Mn3.30+  Mn88  1  0.83543071  0.66791677  0.00015329  1
  Mn3.30+  Mn89  1  0.83283462  0.66634230  0.50075561  1
  Mn3.30+  Mn90  1  0.00025325  0.16688085  0.25018540  1
  Mn3.30+  Mn91  1  -0.00135775  0.16481841  0.75260356  1
  Mn3.30+  Mn92  1  -0.00164644  0.49950555  0.25132001  1
  Mn3.30+  Mn93  1  -0.00107785  0.49785710  0.75133405  1
  Mn3.30+  Mn94  1  -0.00262806  0.83371034  0.24941201  1
  Mn3.30+  Mn95  1  0.00111918  0.83579981  0.74720878  1
  Mn3.30+  Mn96  1  0.33431019  0.16609949  0.24860691  1
  Mn3.30+  Mn97  1  0.33445704  0.16487193  0.75066274  1
  Mn3.30+  Mn98  1  0.33270471  0.49945610  0.24895242  1
  Mn3.30+  Mn99  1  0.33328345  0.49975436  0.75049537  1
  Mn3.30+  Mn100  1  0.33233177  0.83464161  0.25120309  1
  Mn3.30+  Mn101  1  0.33257886  0.83487776  0.74552991  1
  Mn3.30+  Mn102  1  0.66552895  0.16790711  0.24934991  1
  Mn3.30+  Mn103  1  0.66766943  0.16490124  0.75181832  1
  Mn3.30+  Mn104  1  0.67079283  0.49923222  0.24983204  1
  Mn3.30+  Mn105  1  0.66870295  0.49963757  0.75147836  1
  Mn3.30+  Mn106  1  0.66847025  0.83522677  0.24968925  1
  Mn3.30+  Mn107  1  0.66445165  0.83557711  0.74865224  1
  Mn3.30+  Mn108  1  0.16547798  0.00067860  0.25075800  1
  Mn3.30+  Mn109  1  0.16525220  -0.00181022  0.74788350  1
  Mn3.30+  Mn110  1  0.16454013  0.33213460  0.24930266  1
  Mn3.30+  Mn111  1  0.16537592  0.33101183  0.75244828  1
  Mn3.30+  Mn112  1  0.16367548  0.66727957  0.24817310  1
  Mn3.30+  Mn113  1  0.16697638  0.66755046  0.74960284  1
  Mn3.30+  Mn114  1  0.50047951  0.00165428  0.25018664  1
  Mn3.30+  Mn115  1  0.49993728  0.00028128  0.74729163  1
  Mn3.30+  Mn116  1  0.50045009  0.33085660  0.24841786  1
  Mn3.30+  Mn117  1  0.50135886  0.33226319  0.75152647  1
  Mn3.30+  Mn118  1  0.50106163  0.66714752  0.25091011  1
  Mn3.30+  Mn119  1  0.49999983  0.66808329  0.74862511  1
  Mn3.30+  Mn120  1  0.83367992  0.00024818  0.24924953  1
  Mn3.30+  Mn121  1  0.83487113  0.00175982  0.75057655  1
  Mn3.30+  Mn122  1  0.83393198  0.33362655  0.25168047  1
  Mn3.30+  Mn123  1  0.83516378  0.33256875  0.75309981  1
  Mn3.30+  Mn124  1  0.83567846  0.66812357  0.24984516  1
  Mn3.30+  Mn125  1  0.83268135  0.66647040  0.74925444  1
  Mn3.30+  Mn126  1  -0.00138125  0.16555091  -0.00500463  1
  Mn3.30+  Mn127  1  0.00016281  0.16624159  0.50220881  1
  Mn3.30+  Mn128  1  -0.00226932  0.49953668  -0.00195040  1
  Mn3.30+  Mn129  1  -0.00058398  0.49780127  0.49879638  1
  Mn3.30+  Mn130  1  -0.00191127  0.83389385  -0.00103848  1
  Mn3.30+  Mn131  1  0.00076796  0.83490000  0.50392145  1
  Mn3.30+  Mn132  1  0.33667898  0.16679238  -0.00067665  1
  Mn3.30+  Mn133  1  0.33257510  0.16425825  0.50120545  1
  Mn3.30+  Mn134  1  0.33363756  0.50017847  0.00057605  1
  Mn3.30+  Mn135  1  0.33198059  0.49894698  0.50030716  1
  Mn3.30+  Mn136  1  0.33288109  0.83551952  -0.00121517  1
  Mn3.30+  Mn137  1  0.33208635  0.83383413  0.50411385  1
  Mn3.30+  Mn138  1  0.66606609  0.16644655  -0.00295676  1
  Mn3.30+  Mn139  1  0.66668659  0.16618954  0.50148387  1
  Mn3.30+  Mn140  1  0.66989485  0.49927182  -0.00010166  1
  Mn3.30+  Mn141  1  0.66924263  0.49965803  0.49928705  1
  Mn3.30+  Mn142  1  0.66760747  0.83529604  -0.00005334  1
  Mn3.30+  Mn143  1  0.66459030  0.83557792  0.50197598  1
  O2-  O144  1  0.02332812  0.15917569  0.12093537  1
  O2-  O145  1  0.02452082  0.16268685  0.62760989  1
  O2-  O146  1  0.02428306  0.49078431  0.12550841  1
  O2-  O147  1  0.02861566  0.49157698  0.62478814  1
  O2-  O148  1  0.02324835  0.83052893  0.12347889  1
  O2-  O149  1  0.02973006  0.82421340  0.62468920  1
  O2-  O150  1  0.35976731  0.16129577  0.12493433  1
  O2-  O151  1  0.35563604  0.16179798  0.62460863  1
  O2-  O152  1  0.35960877  0.49488125  0.12527981  1
  O2-  O153  1  0.34685437  0.49824554  0.62299539  1
  O2-  O154  1  0.35845451  0.82868908  0.12655059  1
  O2-  O155  1  0.36164228  0.82714804  0.62349831  1
  O2-  O156  1  0.69290810  0.16354436  0.12159473  1
  O2-  O157  1  0.69162080  0.16217675  0.62658042  1
  O2-  O158  1  0.69458809  0.49399440  0.12364045  1
  O2-  O159  1  0.69116459  0.49610647  0.62509746  1
  O2-  O160  1  0.69481516  0.82970288  0.12601757  1
  O2-  O161  1  0.69311290  0.82529095  0.62501673  1
  O2-  O162  1  0.14056239  0.32764989  0.12309938  1
  O2-  O163  1  0.14357417  0.32952244  0.62842259  1
  O2-  O164  1  0.13589625  0.66078817  0.12606490  1
  O2-  O165  1  0.14185552  0.65493873  0.62586086  1
  O2-  O166  1  0.14001574  0.99564769  0.12245960  1
  O2-  O167  1  0.13873439  0.99633999  0.62559961  1
  O2-  O168  1  0.47503176  0.32658989  0.12456504  1
  O2-  O169  1  0.48367832  0.32699376  0.62643605  1
  O2-  O170  1  0.47509504  0.66113729  0.12588490  1
  O2-  O171  1  0.48227537  0.65885249  0.62336287  1
  O2-  O172  1  0.47393060  0.99215890  0.12710388  1
  O2-  O173  1  0.47327116  0.99644918  0.62321101  1
  O2-  O174  1  0.80972512  0.32634330  0.12236790  1
  O2-  O175  1  0.80743774  0.32678115  0.62757650  1
  O2-  O176  1  0.80755986  0.66043282  0.12551458  1
  O2-  O177  1  0.80433881  0.65906279  0.62492595  1
  O2-  O178  1  0.80921054  0.99502535  0.12144508  1
  O2-  O179  1  0.80514533  0.99744625  0.62644608  1
  O2-  O180  1  0.31445504  0.16980798  0.37447588  1
  O2-  O181  1  0.31019353  0.16575054  0.87618296  1
  O2-  O182  1  0.30732541  0.50375344  0.37205940  1
  O2-  O183  1  0.30909879  0.50681084  0.87868861  1
  O2-  O184  1  0.30667017  0.84080183  0.37560439  1
  O2-  O185  1  0.30961496  0.83500067  0.87393157  1
  O2-  O186  1  0.64223857  0.16621876  0.37579880  1
  O2-  O187  1  0.63723697  0.16983188  0.87584265  1
  O2-  O188  1  0.64231823  0.50413431  0.37356360  1
  O2-  O189  1  0.64172390  0.50490476  0.87800203  1
  O2-  O190  1  0.64170809  0.84176313  0.37590524  1
  O2-  O191  1  0.63917286  0.84139746  0.87358758  1
  O2-  O192  1  0.97577587  0.17016895  0.37726313  1
  O2-  O193  1  0.97187663  0.17576355  0.87455716  1
  O2-  O194  1  0.97142082  0.50841268  0.37450187  1
  O2-  O195  1  0.97049927  0.51032930  0.87527708  1
  O2-  O196  1  0.97463190  0.84100453  0.37940863  1
  O2-  O197  1  0.97616555  0.83756886  0.87232213  1
  O2-  O198  1  0.18935629  0.00044528  0.37730395  1
  O2-  O199  1  0.18686935  0.00168648  0.87427953  1
  O2-  O200  1  0.19275216  0.33635076  0.37148636  1
  O2-  O201  1  0.18787247  0.33600418  0.87655849  1
  O2-  O202  1  0.19036142  0.67359906  0.37168980  1
  O2-  O203  1  0.19005252  0.67380200  0.87605543  1
  O2-  O204  1  0.52683243  0.00697967  0.37540043  1
  O2-  O205  1  0.52302761  0.00340587  0.87414364  1
  O2-  O206  1  0.51810122  0.33628344  0.37352197  1
  O2-  O207  1  0.52696049  0.34188435  0.87627246  1
  O2-  O208  1  0.52676967  0.67333017  0.37505638  1
  O2-  O209  1  0.52697235  0.67599907  0.87661829  1
  O2-  O210  1  0.85901281  0.00735426  0.37890065  1
  O2-  O211  1  0.86080338  0.00296559  0.87332801  1
  O2-  O212  1  0.86047222  0.33629018  0.37563963  1
  O2-  O213  1  0.86253066  0.34379924  0.87438315  1
  O2-  O214  1  0.85944330  0.67731766  0.37557175  1
  O2-  O215  1  0.85857925  0.67694804  0.87398727  1
  O2-  O216  1  0.23751633  0.09328026  0.01946861  1
  O2-  O217  1  0.23911706  0.09192071  0.52058696  1
  O2-  O218  1  0.23821678  0.42750834  0.02090925  1
  O2-  O219  1  0.23470727  0.42878017  0.51344855  1
  O2-  O220  1  0.23811771  0.76094341  0.02214428  1
  O2-  O221  1  0.23428146  0.76584416  0.51672641  1
  O2-  O222  1  0.57295643  0.09277861  0.02372435  1
  O2-  O223  1  0.57014808  0.09576598  0.51955613  1
  O2-  O224  1  0.57277485  0.42736808  0.02258055  1
  O2-  O225  1  0.57641324  0.42648032  0.51464922  1
  O2-  O226  1  0.57277568  0.76213465  0.02320253  1
  O2-  O227  1  0.57029713  0.76619011  0.52035739  1
  O2-  O228  1  0.90523544  0.09342039  0.02051604  1
  O2-  O229  1  0.90378355  0.09655052  0.52041017  1
  O2-  O230  1  0.90509556  0.42795061  0.02321855  1
  O2-  O231  1  0.90757314  0.42589989  0.52440063  1
  O2-  O232  1  0.90173527  0.76455062  0.01810364  1
  O2-  O233  1  0.90524430  0.76245642  0.52314070  1
  O2-  O234  1  0.26061938  0.26169683  0.22834598  1
  O2-  O235  1  0.25629115  0.25472706  0.73282971  1
  O2-  O236  1  0.26046765  0.59531018  0.22731225  1
  O2-  O237  1  0.25712950  0.59378632  0.73658755  1
  O2-  O238  1  0.26027697  0.92793164  0.22902893  1
  O2-  O239  1  0.26197406  0.92709535  0.72757075  1
  O2-  O240  1  0.59512859  0.26103929  0.22949842  1
  O2-  O241  1  0.59856376  0.26004943  0.73183935  1
  O2-  O242  1  0.59864745  0.59340303  0.22905160  1
  O2-  O243  1  0.59718831  0.59859863  0.73720779  1
  O2-  O244  1  0.59456564  0.93019182  0.22908353  1
  O2-  O245  1  0.59771093  0.93106236  0.72985444  1
  O2-  O246  1  0.92653886  0.26003780  0.22857292  1
  O2-  O247  1  0.92694686  0.25985019  0.72702748  1
  O2-  O248  1  0.93015460  0.59959466  0.22808649  1
  O2-  O249  1  0.92935928  0.59302762  0.72654899  1
  O2-  O250  1  0.92956701  0.93108441  0.23323219  1
  O2-  O251  1  0.92708121  0.92739923  0.72555781  1
  O2-  O252  1  0.09426041  0.23777971  0.26240518  1
  O2-  O253  1  0.09344417  0.23595961  0.76864590  1
  O2-  O254  1  0.09590718  0.57054341  0.27121322  1
  O2-  O255  1  0.09276284  0.57019103  0.77206133  1
  O2-  O256  1  0.09414506  0.90424277  0.26868236  1
  O2-  O257  1  0.09504508  0.90398513  0.76909910  1
  O2-  O258  1  0.42683194  0.24004876  0.27095324  1
  O2-  O259  1  0.43268935  0.23868433  0.76668526  1
  O2-  O260  1  0.42927536  0.57229920  0.27107155  1
  O2-  O261  1  0.42770658  0.57704145  0.77400234  1
  O2-  O262  1  0.42982168  0.90681763  0.27236428  1
  O2-  O263  1  0.43068130  0.90447372  0.76616653  1
  O2-  O264  1  0.76411548  0.23783123  0.26657581  1
  O2-  O265  1  0.76317785  0.23808109  0.77383983  1
  O2-  O266  1  0.76662027  0.57278689  0.27167961  1
  O2-  O267  1  0.76236700  0.57041762  0.77274089  1
  O2-  O268  1  0.76117923  0.90903039  0.27408286  1
  O2-  O269  1  0.76271705  0.90640006  0.76972914  1
  O2-  O270  1  0.07080809  0.07195786  0.48402292  1
  O2-  O271  1  0.06911454  0.07067405  0.97644493  1
  O2-  O272  1  0.06965440  0.40418119  0.47635689  1
  O2-  O273  1  0.06840820  0.40579746  0.97830254  1
  O2-  O274  1  0.07027302  0.73654661  0.47942934  1
  O2-  O275  1  0.07069726  0.74047842  0.97792497  1
  O2-  O276  1  0.40839246  0.07316442  0.47797798  1
  O2-  O277  1  0.40480181  0.07022737  0.98633132  1
  O2-  O278  1  0.40562431  0.40750786  0.47928209  1
  O2-  O279  1  0.40973335  0.40671718  0.98366681  1
  O2-  O280  1  0.40352093  0.74052629  0.47522299  1
  O2-  O281  1  0.40432678  0.73944725  0.98159569  1
  O2-  O282  1  0.74008852  0.07469480  0.47899710  1
  O2-  O283  1  0.73654693  0.07123187  0.98042852  1
  O2-  O284  1  0.74209183  0.40612972  0.48632633  1
  O2-  O285  1  0.73853609  0.40204484  0.98047830  1
  O2-  O286  1  0.73608040  0.74056305  0.47911328  1
  O2-  O287  1  0.73734128  0.73924956  0.97935559  1
  O2-  O288  1  0.09174800  0.24003125  0.48749190  1
  O2-  O289  1  0.09575906  0.23372273  0.98176954  1
  O2-  O290  1  0.09307478  0.57031716  0.47814321  1
  O2-  O291  1  0.09455414  0.56967318  0.97895461  1
  O2-  O292  1  0.09402876  0.90619872  0.47882530  1
  O2-  O293  1  0.09547383  0.90254483  0.98246825  1
  O2-  O294  1  0.42667183  0.23835635  0.48237010  1
  O2-  O295  1  0.43254900  0.23679830  0.98041954  1
  O2-  O296  1  0.42511348  0.57217265  0.47550854  1
  O2-  O297  1  0.42918054  0.57413262  0.98033140  1
  O2-  O298  1  0.42801026  0.90724148  0.47676723  1
  O2-  O299  1  0.43147209  0.90374779  0.98446641  1
  O2-  O300  1  0.76331743  0.23765253  0.48314738  1
  O2-  O301  1  0.76364514  0.23790857  0.97547385  1
  O2-  O302  1  0.76366046  0.57031461  0.47660302  1
  O2-  O303  1  0.76515517  0.57296535  0.97893087  1
  O2-  O304  1  0.76333700  0.90600185  0.48163590  1
  O2-  O305  1  0.75936771  0.90848671  0.97456315  1
  O2-  O306  1  0.06893735  0.06916111  0.26624267  1
  O2-  O307  1  0.07050999  0.07314949  0.77286678  1
  O2-  O308  1  0.07152022  0.40313402  0.27212491  1
  O2-  O309  1  0.06944058  0.40412998  0.77292741  1
  O2-  O310  1  0.07022099  0.74033201  0.27233130  1
  O2-  O311  1  0.07097958  0.73643573  0.76985270  1
  O2-  O312  1  0.40606215  0.07005942  0.27139910  1
  O2-  O313  1  0.40988145  0.07459621  0.76349947  1
  O2-  O314  1  0.40504139  0.40424019  0.26853817  1
  O2-  O315  1  0.41187421  0.41078978  0.76831270  1
  O2-  O316  1  0.40305068  0.74029174  0.27107800  1
  O2-  O317  1  0.40552380  0.73975995  0.77244557  1
  O2-  O318  1  0.73854879  0.07277101  0.26793764  1
  O2-  O319  1  0.73973559  0.07324849  0.77202525  1
  O2-  O320  1  0.74031583  0.40496370  0.26487708  1
  O2-  O321  1  0.74076446  0.40241044  0.76853846  1
  O2-  O322  1  0.73863757  0.73784963  0.27116970  1
  O2-  O323  1  0.73614578  0.74106055  0.77082292  1
  O2-  O324  1  0.24004553  0.09247138  0.22692683  1
  O2-  O325  1  0.23506088  0.09179431  0.73328181  1
  O2-  O326  1  0.23635584  0.42694340  0.22694628  1
  O2-  O327  1  0.23479484  0.42727817  0.73750502  1
  O2-  O328  1  0.23595195  0.76021266  0.22782440  1
  O2-  O329  1  0.23566492  0.76434573  0.73226305  1
  O2-  O330  1  0.57069722  0.09536404  0.22752690  1
  O2-  O331  1  0.57355629  0.09267851  0.73006180  1
  O2-  O332  1  0.57076899  0.42673101  0.22919611  1
  O2-  O333  1  0.57776245  0.42576265  0.73385023  1
  O2-  O334  1  0.57269513  0.76221930  0.22966740  1
  O2-  O335  1  0.56938792  0.76371671  0.72827104  1
  O2-  O336  1  0.90379124  0.09496932  0.22962387  1
  O2-  O337  1  0.90489541  0.09481735  0.72980364  1
  O2-  O338  1  0.90519098  0.42691432  0.22745871  1
  O2-  O339  1  0.90701700  0.42610667  0.72485318  1
  O2-  O340  1  0.90120281  0.76642000  0.23169301  1
  O2-  O341  1  0.90607950  0.76205614  0.72731223  1
  O2-  O342  1  0.26218524  0.25776025  0.02253349  1
  O2-  O343  1  0.25876408  0.25749050  0.51599222  1
  O2-  O344  1  0.25985981  0.59580745  0.02244733  1
  O2-  O345  1  0.25824630  0.59401085  0.51289538  1
  O2-  O346  1  0.25911052  0.92614604  0.02264183  1
  O2-  O347  1  0.26468926  0.92997825  0.52030394  1
  O2-  O348  1  0.59894674  0.26389026  0.01781015  1
  O2-  O349  1  0.59526941  0.25706906  0.52183465  1
  O2-  O350  1  0.59648392  0.59508267  0.02153426  1
  O2-  O351  1  0.60040011  0.59667300  0.51357865  1
  O2-  O352  1  0.59454813  0.92919726  0.02122873  1
  O2-  O353  1  0.59850482  0.93254296  0.51901192  1
  O2-  O354  1  0.92799817  0.26041114  0.02147258  1
  O2-  O355  1  0.92560740  0.25924998  0.52329609  1
  O2-  O356  1  0.93087937  0.59724412  0.02272404  1
  O2-  O357  1  0.93008098  0.59318699  0.52278175  1
  O2-  O358  1  0.92772599  0.92688550  0.01781158  1
  O2-  O359  1  0.92870627  0.92954521  0.52456941  1
