# generated using pymatgen
data_Sr7Ca15Pr50Mn72O216
_symmetry_space_group_name_H-M   'P 1'
_cell_length_a   16.55793574
_cell_length_b   16.60501514
_cell_length_c   15.59384006
_cell_angle_alpha   89.98965204
_cell_angle_beta   90.00458503
_cell_angle_gamma   89.99010371
_symmetry_Int_Tables_number   1
_chemical_formula_structural   Sr7Ca15Pr50Mn72O216
_chemical_formula_sum   'Sr7 Ca15 Pr50 Mn72 O216'
_cell_volume   4287.44467982
_cell_formula_units_Z   1
loop_
 _symmetry_equiv_pos_site_id
 _symmetry_equiv_pos_as_xyz
  1  'x, y, z'
loop_
 _atom_type_symbol
 _atom_type_oxidation_number
  Sr2+  2.0
  Ca2+  2.0
  Pr3+  3.0
  Mn3.30+  3.3
  O2-  -2.0
loop_
 _atom_site_type_symbol
 _atom_site_label
 _atom_site_symmetry_multiplicity
 _atom_site_fract_x
 _atom_site_fract_y
 _atom_site_fract_z
 _atom_site_occupancy
  Sr2+  Sr0  1  0.83807996  0.84443839  0.62580708  1
  Sr2+  Sr1  1  -0.00263375  0.34334840  0.62472008  1
  Sr2+  Sr2  1  0.50224422  0.84164993  0.62679226  1
  Sr2+  Sr3  1  0.66493020  0.67498191  0.12464283  1
  Sr2+  Sr4  1  0.66688270  0.34116418  0.12304697  1
  Sr2+  Sr5  1  0.49741282  0.49174187  0.37293024  1
  Sr2+  Sr6  1  0.83334028  0.84056019  0.12360856  1
  Ca2+  Ca7  1  0.33010663  0.68213183  0.62356443  1
  Ca2+  Ca8  1  -0.00304117  0.68298551  0.62447380  1
  Ca2+  Ca9  1  0.49886740  0.81836890  0.87438273  1
  Ca2+  Ca10  1  0.50391457  0.17900192  0.62365622  1
  Ca2+  Ca11  1  0.16748917  0.84662838  0.12546804  1
  Ca2+  Ca12  1  -0.00563253  0.68439106  0.12531285  1
  Ca2+  Ca13  1  0.33156548  0.34785394  0.12576166  1
  Ca2+  Ca14  1  -0.00397467  0.01149978  0.62256957  1
  Ca2+  Ca15  1  0.66598303  0.01313573  0.12528336  1
  Ca2+  Ca16  1  0.83215542  0.81881952  0.87538215  1
  Ca2+  Ca17  1  0.67031373  0.31686663  0.87762021  1
  Ca2+  Ca18  1  0.49690672  0.15256584  0.37505059  1
  Ca2+  Ca19  1  0.83148148  0.17779287  0.12518177  1
  Ca2+  Ca20  1  1.00303460  0.98452991  0.37550311  1
  Ca2+  Ca21  1  0.33755015  0.65181426  0.37745370  1
  Pr3+  Pr22  1  0.82728910  0.48615592  0.87517226  1
  Pr3+  Pr23  1  0.16666088  0.48926918  0.37556981  1
  Pr3+  Pr24  1  0.33908368  0.98344942  0.87616175  1
  Pr3+  Pr25  1  0.49580328  0.81801331  0.37608328  1
  Pr3+  Pr26  1  0.50133128  0.51327062  0.62442663  1
  Pr3+  Pr27  1  0.49994711  0.48686037  0.87635276  1
  Pr3+  Pr28  1  0.66772842  0.98764237  0.37364017  1
  Pr3+  Pr29  1  0.16233554  0.48878371  0.87469092  1
  Pr3+  Pr30  1  0.33791682  0.98787910  0.37471962  1
  Pr3+  Pr31  1  0.34069164  0.31887813  0.37369380  1
  Pr3+  Pr32  1  0.33107422  0.34507752  0.62507966  1
  Pr3+  Pr33  1  0.33053151  0.67997790  0.12707277  1
  Pr3+  Pr34  1  0.16525198  0.82120252  0.37341589  1
  Pr3+  Pr35  1  0.16894165  0.51685381  0.62496953  1
  Pr3+  Pr36  1  0.16895686  0.84561869  0.62520108  1
  Pr3+  Pr37  1  0.66323555  0.01336721  0.62452540  1
  Pr3+  Pr38  1  0.83123987  0.15256017  0.37320236  1
  Pr3+  Pr39  1  0.33628440  0.65567763  0.87351652  1
  Pr3+  Pr40  1  0.16724667  0.17774180  0.62442091  1
  Pr3+  Pr41  1  0.17194019  0.18214470  0.12521779  1
  Pr3+  Pr42  1  0.66404571  0.68137437  0.62504072  1
  Pr3+  Pr43  1  0.33136438  0.01046613  0.12506683  1
  Pr3+  Pr44  1  1.00152239  0.31976433  0.87420610  1
  Pr3+  Pr45  1  0.83887761  0.51504060  0.62468583  1
  Pr3+  Pr46  1  0.66873087  0.65524920  0.37499460  1
  Pr3+  Pr47  1  0.33367975  0.01150254  0.62518311  1
  Pr3+  Pr48  1  0.50355716  0.17853559  0.12640234  1
  Pr3+  Pr49  1  0.50210866  0.15502887  0.87575963  1
  Pr3+  Pr50  1  0.82798017  0.15489646  0.87633204  1
  Pr3+  Pr51  1  1.00233113  0.32043137  0.37650457  1
  Pr3+  Pr52  1  0.16240287  0.15313051  0.87506609  1
  Pr3+  Pr53  1  0.16452725  0.82044693  0.87664121  1
  Pr3+  Pr54  1  0.33524175  0.32000610  0.87671005  1
  Pr3+  Pr55  1  0.51018052  0.84642800  0.12372128  1
  Pr3+  Pr56  1  0.99999735  0.98621532  0.87412071  1
  Pr3+  Pr57  1  0.83610011  0.17675909  0.62425618  1
  Pr3+  Pr58  1  0.66188214  0.34280321  0.62623221  1
  Pr3+  Pr59  1  0.83460816  0.82252034  0.37472031  1
  Pr3+  Pr60  1  0.16211035  0.15107732  0.37458878  1
  Pr3+  Pr61  1  -0.00425183  0.01250354  0.12677538  1
  Pr3+  Pr62  1  1.00224027  0.65758407  0.37544010  1
  Pr3+  Pr63  1  0.83597633  0.51573656  0.12503633  1
  Pr3+  Pr64  1  0.16808739  0.51242793  0.12477466  1
  Pr3+  Pr65  1  0.82802397  0.48800033  0.37462480  1
  Pr3+  Pr66  1  0.50194381  0.51172667  0.12559335  1
  Pr3+  Pr67  1  0.66857255  0.65815940  0.87464444  1
  Pr3+  Pr68  1  0.66460856  0.31922861  0.37227059  1
  Pr3+  Pr69  1  0.67281186  0.98413256  0.87613818  1
  Pr3+  Pr70  1  -0.00617040  0.34560410  0.12601072  1
  Pr3+  Pr71  1  1.00001571  0.65833589  0.87469626  1
  Mn3.30+  Mn72  1  0.16659023  -0.00139425  0.00080359  1
  Mn3.30+  Mn73  1  0.16501956  -0.00039523  0.50070654  1
  Mn3.30+  Mn74  1  0.16637862  0.33422883  0.00062320  1
  Mn3.30+  Mn75  1  0.16769518  0.33395271  0.50007395  1
  Mn3.30+  Mn76  1  0.16505707  0.66877694  0.00360714  1
  Mn3.30+  Mn77  1  0.16855005  0.66834715  0.49973433  1
  Mn3.30+  Mn78  1  0.50314247  -0.00195431  -0.00079607  1
  Mn3.30+  Mn79  1  0.50055292  0.00123713  0.50096455  1
  Mn3.30+  Mn80  1  0.50032162  0.33227991  0.00009379  1
  Mn3.30+  Mn81  1  0.49870124  0.33141623  0.50002289  1
  Mn3.30+  Mn82  1  0.49985308  0.66774771  -0.00112265  1
  Mn3.30+  Mn83  1  0.49730813  0.66615894  0.50139697  1
  Mn3.30+  Mn84  1  0.83252483  -0.00115705  0.00303160  1
  Mn3.30+  Mn85  1  0.83572557  -0.00121860  0.49863367  1
  Mn3.30+  Mn86  1  0.83197420  0.33218087  0.00125907  1
  Mn3.30+  Mn87  1  0.83193023  0.33256365  0.49922722  1
  Mn3.30+  Mn88  1  0.83467126  0.66889023  -0.00005290  1
  Mn3.30+  Mn89  1  0.83564355  0.66783364  0.50052345  1
  Mn3.30+  Mn90  1  -0.00108267  0.16546025  0.24946517  1
  Mn3.30+  Mn91  1  -0.00207120  0.16470454  0.74926320  1
  Mn3.30+  Mn92  1  -0.00015056  0.50195961  0.25104622  1
  Mn3.30+  Mn93  1  -0.00164531  0.50168225  0.74905110  1
  Mn3.30+  Mn94  1  0.00157713  0.83486751  0.24829987  1
  Mn3.30+  Mn95  1  -0.00091332  0.83378266  0.74974337  1
  Mn3.30+  Mn96  1  0.33454051  0.16681146  0.24980930  1
  Mn3.30+  Mn97  1  0.33508911  0.16575605  0.74976868  1
  Mn3.30+  Mn98  1  0.33291583  0.49993173  0.24930223  1
  Mn3.30+  Mn99  1  0.33303762  0.50114150  0.75006904  1
  Mn3.30+  Mn100  1  0.33348706  0.83248444  0.24914248  1
  Mn3.30+  Mn101  1  0.33532056  0.83218441  0.74960233  1
  Mn3.30+  Mn102  1  0.66522087  0.16466219  0.24928728  1
  Mn3.30+  Mn103  1  0.66548842  0.16651551  0.75005235  1
  Mn3.30+  Mn104  1  0.66521053  0.49878133  0.24900562  1
  Mn3.30+  Mn105  1  0.66710288  0.49843391  0.74957487  1
  Mn3.30+  Mn106  1  0.66722186  0.83363078  0.24893231  1
  Mn3.30+  Mn107  1  0.66829351  0.83385916  0.75093013  1
  Mn3.30+  Mn108  1  0.16578927  -0.00137738  0.24906693  1
  Mn3.30+  Mn109  1  0.16614203  -0.00025069  0.74926876  1
  Mn3.30+  Mn110  1  0.16814971  0.33408194  0.25057403  1
  Mn3.30+  Mn111  1  0.16582588  0.33389186  0.74874753  1
  Mn3.30+  Mn112  1  0.16650032  0.66809143  0.24894644  1
  Mn3.30+  Mn113  1  0.16650669  0.66856834  0.74838696  1
  Mn3.30+  Mn114  1  0.50150403  0.00036964  0.25003768  1
  Mn3.30+  Mn115  1  0.50184607  -0.00093880  0.75035569  1
  Mn3.30+  Mn116  1  0.49866328  0.33287581  0.24849138  1
  Mn3.30+  Mn117  1  0.50061796  0.33091293  0.75150735  1
  Mn3.30+  Mn118  1  0.49778288  0.66612315  0.25071253  1
  Mn3.30+  Mn119  1  0.49939207  0.66786395  0.74935321  1
  Mn3.30+  Mn120  1  0.83372315  -0.00054437  0.24835443  1
  Mn3.30+  Mn121  1  0.83479500  -0.00182608  0.74915692  1
  Mn3.30+  Mn122  1  0.83274563  0.33212467  0.24939176  1
  Mn3.30+  Mn123  1  0.83095726  0.33259792  0.75019592  1
  Mn3.30+  Mn124  1  0.83539369  0.66831478  0.24891693  1
  Mn3.30+  Mn125  1  0.83515894  0.66862039  0.74973017  1
  Mn3.30+  Mn126  1  -0.00223980  0.16627479  0.00176439  1
  Mn3.30+  Mn127  1  -0.00064705  0.16327745  0.49907543  1
  Mn3.30+  Mn128  1  -0.00137708  0.50236425  0.00011576  1
  Mn3.30+  Mn129  1  -0.00030404  0.50149332  0.50058659  1
  Mn3.30+  Mn130  1  -0.00055607  0.83351280  0.00115674  1
  Mn3.30+  Mn131  1  0.00110609  0.83524384  0.50058048  1
  Mn3.30+  Mn132  1  0.33352940  0.16625994  -0.00008538  1
  Mn3.30+  Mn133  1  0.33594157  0.16608610  0.50095386  1
  Mn3.30+  Mn134  1  0.33236670  0.49957225  0.00006419  1
  Mn3.30+  Mn135  1  0.33372136  0.50225696  0.50081938  1
  Mn3.30+  Mn136  1  0.33523069  0.83218882  0.00137577  1
  Mn3.30+  Mn137  1  0.33355736  0.83233687  0.50099327  1
  Mn3.30+  Mn138  1  0.66713064  0.16542291  0.00268814  1
  Mn3.30+  Mn139  1  0.66381248  0.16607470  0.49775125  1
  Mn3.30+  Mn140  1  0.66610470  0.49876612  0.00033338  1
  Mn3.30+  Mn141  1  0.66615897  0.49852429  0.50024057  1
  Mn3.30+  Mn142  1  0.66842981  0.83288307  -0.00097313  1
  Mn3.30+  Mn143  1  0.66707122  0.83441952  0.50028146  1
  O2-  O144  1  0.02803863  0.16217537  0.12585273  1
  O2-  O145  1  0.02307912  0.15838008  0.62280518  1
  O2-  O146  1  0.02530103  0.49058944  0.12722130  1
  O2-  O147  1  0.02475681  0.49519012  0.62479101  1
  O2-  O148  1  0.02574932  0.82885109  0.12442165  1
  O2-  O149  1  0.02591154  0.82605141  0.62538824  1
  O2-  O150  1  0.35897165  0.15771032  0.12473499  1
  O2-  O151  1  0.36188954  0.15945637  0.62814995  1
  O2-  O152  1  0.35675331  0.49349696  0.12247602  1
  O2-  O153  1  0.35853114  0.49133435  0.62785095  1
  O2-  O154  1  0.36456871  0.82760533  0.12635684  1
  O2-  O155  1  0.35278379  0.82971334  0.62592785  1
  O2-  O156  1  0.69045710  0.15941204  0.12637790  1
  O2-  O157  1  0.69216714  0.16267735  0.62232241  1
  O2-  O158  1  0.69092054  0.49781460  0.12538369  1
  O2-  O159  1  0.69410547  0.49064239  0.62598587  1
  O2-  O160  1  0.68288095  0.82768139  0.12585603  1
  O2-  O161  1  0.68732962  0.82991379  0.62411699  1
  O2-  O162  1  0.13853463  0.33006140  0.12535781  1
  O2-  O163  1  0.14724074  0.32694059  0.62432448  1
  O2-  O164  1  0.13533375  0.65750156  0.12569027  1
  O2-  O165  1  0.13836945  0.66361583  0.62447234  1
  O2-  O166  1  0.14137161  0.99440294  0.12335984  1
  O2-  O167  1  0.13933227  0.99467032  0.62494585  1
  O2-  O168  1  0.47225914  0.32579442  0.12374150  1
  O2-  O169  1  0.47425929  0.32428507  0.62713815  1
  O2-  O170  1  0.47595850  0.66264694  0.12305784  1
  O2-  O171  1  0.47408710  0.66131932  0.62608688  1
  O2-  O172  1  0.47474771  0.99227030  0.12377353  1
  O2-  O173  1  0.47651062  0.99450595  0.62675882  1
  O2-  O174  1  0.81688832  0.32758972  0.12559076  1
  O2-  O175  1  0.80609839  0.32575536  0.62263041  1
  O2-  O176  1  0.81458505  0.66401751  0.12440414  1
  O2-  O177  1  0.80827287  0.66246671  0.62431040  1
  O2-  O178  1  0.80718372  0.99351420  0.12525921  1
  O2-  O179  1  0.80779338  1.00034755  0.62280753  1
  O2-  O180  1  0.30635375  0.17036400  0.37311415  1
  O2-  O181  1  0.30561920  0.17157104  0.87460705  1
  O2-  O182  1  0.31023348  0.50588048  0.37542143  1
  O2-  O183  1  0.30644427  0.50687766  0.87412371  1
  O2-  O184  1  0.30906575  0.84186517  0.37407575  1
  O2-  O185  1  0.30823284  0.83558305  0.87515083  1
  O2-  O186  1  0.63812554  0.17085614  0.37413464  1
  O2-  O187  1  0.64555703  0.17035244  0.87688627  1
  O2-  O188  1  0.64813720  0.50670352  0.37517744  1
  O2-  O189  1  0.64358248  0.50973676  0.87298669  1
  O2-  O190  1  0.64085906  0.83847421  0.37530846  1
  O2-  O191  1  0.64126978  0.83705645  0.87453912  1
  O2-  O192  1  0.97590667  0.17335051  0.37387698  1
  O2-  O193  1  0.97373433  0.17150445  0.87723369  1
  O2-  O194  1  0.97238683  0.50897292  0.37541037  1
  O2-  O195  1  0.97217066  0.50968014  0.87312105  1
  O2-  O196  1  0.97903333  0.83943918  0.37462601  1
  O2-  O197  1  0.97517984  0.83964482  0.87509464  1
  O2-  O198  1  0.19386993  0.00424849  0.37551569  1
  O2-  O199  1  0.19347134  0.00570002  0.87582222  1
  O2-  O200  1  0.19503652  0.33886678  0.37629480  1
  O2-  O201  1  0.19007138  0.33849552  0.87393769  1
  O2-  O202  1  0.19617420  0.67285546  0.37357668  1
  O2-  O203  1  0.19288640  0.67178623  0.87674459  1
  O2-  O204  1  0.52303114  0.00732692  0.37567348  1
  O2-  O205  1  0.52826124  0.00890733  0.87441299  1
  O2-  O206  1  0.52132640  0.33889925  0.37411318  1
  O2-  O207  1  0.52802410  0.33831638  0.87509642  1
  O2-  O208  1  0.52364108  0.66865254  0.37740988  1
  O2-  O209  1  0.52304462  0.66917882  0.87378287  1
  O2-  O210  1  0.86072217  0.00566351  0.37343241  1
  O2-  O211  1  0.85755856  0.00983968  0.87754305  1
  O2-  O212  1  0.85836893  0.33940401  0.37460712  1
  O2-  O213  1  0.85830589  0.33720947  0.87707193  1
  O2-  O214  1  0.85716082  0.66875388  0.37540238  1
  O2-  O215  1  0.85617691  0.66762075  0.87495786  1
  O2-  O216  1  0.23795798  0.09471886  0.02057463  1
  O2-  O217  1  0.23739972  0.09449943  0.52143413  1
  O2-  O218  1  0.23512522  0.43096552  0.01616480  1
  O2-  O219  1  0.23948167  0.43176907  0.52079293  1
  O2-  O220  1  0.23638225  0.76098923  0.02456914  1
  O2-  O221  1  0.23599846  0.76347068  0.51876064  1
  O2-  O222  1  0.56951010  0.09471064  0.01859396  1
  O2-  O223  1  0.57170977  0.09444718  0.52363664  1
  O2-  O224  1  0.56799712  0.42869593  0.01715612  1
  O2-  O225  1  0.57056546  0.42448391  0.52418313  1
  O2-  O226  1  0.56985883  0.76228144  0.01399700  1
  O2-  O227  1  0.57402184  0.75687259  0.51604012  1
  O2-  O228  1  0.90468557  0.09703198  0.02421672  1
  O2-  O229  1  0.90176778  0.09561832  0.51608317  1
  O2-  O230  1  0.90383813  0.43003958  0.01936324  1
  O2-  O231  1  0.90012886  0.42964038  0.51604771  1
  O2-  O232  1  0.90917873  0.76016972  0.01373231  1
  O2-  O233  1  0.90765228  0.76174514  0.51190639  1
  O2-  O234  1  0.26387758  0.26129745  0.22727419  1
  O2-  O235  1  0.26321461  0.25821915  0.72992319  1
  O2-  O236  1  0.25699564  0.59316058  0.22578526  1
  O2-  O237  1  0.26021490  0.59751550  0.72763457  1
  O2-  O238  1  0.26569330  0.92797735  0.23042561  1
  O2-  O239  1  0.26282588  0.92820268  0.73140153  1
  O2-  O240  1  0.59200674  0.25874693  0.23153824  1
  O2-  O241  1  0.59424039  0.26018230  0.73134006  1
  O2-  O242  1  0.59056313  0.59113853  0.23390862  1
  O2-  O243  1  0.59540136  0.59206669  0.72715319  1
  O2-  O244  1  0.59642674  0.92942625  0.23100622  1
  O2-  O245  1  0.59929850  0.93225733  0.73391623  1
  O2-  O246  1  0.93256763  0.26289171  0.23518584  1
  O2-  O247  1  0.92478902  0.25887828  0.73292519  1
  O2-  O248  1  0.93043006  0.59498265  0.22837376  1
  O2-  O249  1  0.92897651  0.59611048  0.72701930  1
  O2-  O250  1  0.93006361  0.92938378  0.23155375  1
  O2-  O251  1  0.93436618  0.93279401  0.73261296  1
  O2-  O252  1  0.09750018  0.23917381  0.27066573  1
  O2-  O253  1  0.09222267  0.23865486  0.76918726  1
  O2-  O254  1  0.09440577  0.57256124  0.27406769  1
  O2-  O255  1  0.09514315  0.57437411  0.77079650  1
  O2-  O256  1  0.09711570  0.90539456  0.26828912  1
  O2-  O257  1  0.09634743  0.90458076  0.77140900  1
  O2-  O258  1  0.42844233  0.23560327  0.27139087  1
  O2-  O259  1  0.42630614  0.23952237  0.77634109  1
  O2-  O260  1  0.42324948  0.57199412  0.26108844  1
  O2-  O261  1  0.42853742  0.57080715  0.77131042  1
  O2-  O262  1  0.43142448  0.90538568  0.27079775  1
  O2-  O263  1  0.42884519  0.90618713  0.77408672  1
  O2-  O264  1  0.75790151  0.23908804  0.27201061  1
  O2-  O265  1  0.76087636  0.23617955  0.76761867  1
  O2-  O266  1  0.76062976  0.57352007  0.26734061  1
  O2-  O267  1  0.76192490  0.57136758  0.76775110  1
  O2-  O268  1  0.76076803  0.90709826  0.27404377  1
  O2-  O269  1  0.76504012  0.90624923  0.77288312  1
  O2-  O270  1  0.07398425  0.07057792  0.47550507  1
  O2-  O271  1  0.07026480  0.07387462  0.97907128  1
  O2-  O272  1  0.07275149  0.40908114  0.47640745  1
  O2-  O273  1  0.06940233  0.40689333  0.97807778  1
  O2-  O274  1  0.07498351  0.74057773  0.47629159  1
  O2-  O275  1  0.07374147  0.74075510  0.97642627  1
  O2-  O276  1  0.40242161  0.06975790  0.48315872  1
  O2-  O277  1  0.40679399  0.06962390  0.97890914  1
  O2-  O278  1  0.40161326  0.40081074  0.48567404  1
  O2-  O279  1  0.40653928  0.40511025  0.97623070  1
  O2-  O280  1  0.40596520  0.73892385  0.47796417  1
  O2-  O281  1  0.40150672  0.73519593  0.98228493  1
  O2-  O282  1  0.73747881  0.07287876  0.47757976  1
  O2-  O283  1  0.73980449  0.07211748  0.97925567  1
  O2-  O284  1  0.73682206  0.40322455  0.47782294  1
  O2-  O285  1  0.73998375  0.40514563  0.97770753  1
  O2-  O286  1  0.74098265  0.73881163  0.47937596  1
  O2-  O287  1  0.73878197  0.73894112  0.97913094  1
  O2-  O288  1  0.09357022  0.23774494  0.48000368  1
  O2-  O289  1  0.09486061  0.23834282  0.97965067  1
  O2-  O290  1  0.09755674  0.57497033  0.47826039  1
  O2-  O291  1  0.09426873  0.57281907  0.97817010  1
  O2-  O292  1  0.09953580  0.90264439  0.48210232  1
  O2-  O293  1  0.09437964  0.90699815  0.97756594  1
  O2-  O294  1  0.42899306  0.23777873  0.47669262  1
  O2-  O295  1  0.42718497  0.23815939  0.97737612  1
  O2-  O296  1  0.42750993  0.57005644  0.48694368  1
  O2-  O297  1  0.42600674  0.57168364  0.97907289  1
  O2-  O298  1  0.42761666  0.90733870  0.47880631  1
  O2-  O299  1  0.43334481  0.90386583  0.97765628  1
  O2-  O300  1  0.75950629  0.23808752  0.47604314  1
  O2-  O301  1  0.76200181  0.23844566  0.98351015  1
  O2-  O302  1  0.76257974  0.57303769  0.48224595  1
  O2-  O303  1  0.76116510  0.57316648  0.98183877  1
  O2-  O304  1  0.76251417  0.90846610  0.47639930  1
  O2-  O305  1  0.76284176  0.90452304  0.97573433  1
  O2-  O306  1  0.06945688  0.07245726  0.27051591  1
  O2-  O307  1  0.07360612  0.07419190  0.77333951  1
  O2-  O308  1  0.07060596  0.40680712  0.27383332  1
  O2-  O309  1  0.06963208  0.41014049  0.77285780  1
  O2-  O310  1  0.07491743  0.74034050  0.27353746  1
  O2-  O311  1  0.07423736  0.74128572  0.77398489  1
  O2-  O312  1  0.40255731  0.06935144  0.26632267  1
  O2-  O313  1  0.40527588  0.07137198  0.77310815  1
  O2-  O314  1  0.40205491  0.40268505  0.26561560  1
  O2-  O315  1  0.40613929  0.40350065  0.77225715  1
  O2-  O316  1  0.40197851  0.73759763  0.27282067  1
  O2-  O317  1  0.40431091  0.73905482  0.76955115  1
  O2-  O318  1  0.73957934  0.07322599  0.27369059  1
  O2-  O319  1  0.73730433  0.07151769  0.76860235  1
  O2-  O320  1  0.73910369  0.40688769  0.27140138  1
  O2-  O321  1  0.73534125  0.40308460  0.77296114  1
  O2-  O322  1  0.74029690  0.74149737  0.27350743  1
  O2-  O323  1  0.73925849  0.73623623  0.76691146  1
  O2-  O324  1  0.23671440  0.09481060  0.22942657  1
  O2-  O325  1  0.23924093  0.09434832  0.72788862  1
  O2-  O326  1  0.23536829  0.43037699  0.23253506  1
  O2-  O327  1  0.23831061  0.42946216  0.72994134  1
  O2-  O328  1  0.23765018  0.76190083  0.22475649  1
  O2-  O329  1  0.23600239  0.76308540  0.73301314  1
  O2-  O330  1  0.57062397  0.09299582  0.22914372  1
  O2-  O331  1  0.57129939  0.09669866  0.72919088  1
  O2-  O332  1  0.57057085  0.42655743  0.22964734  1
  O2-  O333  1  0.57023489  0.42732347  0.72886743  1
  O2-  O334  1  0.56838841  0.76310891  0.23737635  1
  O2-  O335  1  0.57646511  0.75562805  0.73261627  1
  O2-  O336  1  0.90307441  0.09685724  0.22699185  1
  O2-  O337  1  0.90239200  0.09541549  0.73280155  1
  O2-  O338  1  0.90543754  0.43073925  0.23141883  1
  O2-  O339  1  0.89993199  0.43042905  0.73381523  1
  O2-  O340  1  0.90900520  0.76267776  0.23823923  1
  O2-  O341  1  0.90898373  0.76022774  0.73538551  1
  O2-  O342  1  0.26074632  0.26357003  0.02122693  1
  O2-  O343  1  0.26431883  0.25884293  0.52093345  1
  O2-  O344  1  0.25910091  0.59649182  0.02203065  1
  O2-  O345  1  0.26032483  0.59581749  0.52442887  1
  O2-  O346  1  0.26680000  0.92744153  0.01757328  1
  O2-  O347  1  0.26087178  0.92994116  0.52128479  1
  O2-  O348  1  0.58989631  0.25594047  0.01900432  1
  O2-  O349  1  0.59661115  0.26329630  0.51681020  1
  O2-  O350  1  0.58923320  0.59190582  0.01606927  1
  O2-  O351  1  0.59479063  0.59291484  0.52222573  1
  O2-  O352  1  0.59899499  0.93018457  0.01979919  1
  O2-  O353  1  0.59640660  0.93183071  0.51554186  1
  O2-  O354  1  0.93218017  0.26465876  0.01622149  1
  O2-  O355  1  0.92364207  0.25953933  0.51621739  1
  O2-  O356  1  0.92942055  0.59510014  0.02175975  1
  O2-  O357  1  0.92933789  0.59671742  0.52216658  1
  O2-  O358  1  0.93218510  0.93224405  0.01705729  1
  O2-  O359  1  0.93220449  0.92968005  0.51793149  1
