# generated using pymatgen
data_Sr7Ca15Pr50Mn72O216
_symmetry_space_group_name_H-M   'P 1'
_cell_length_a   16.56004445
_cell_length_b   16.60401548
_cell_length_c   15.59239344
_cell_angle_alpha   90.00068557
_cell_angle_beta   90.00709800
_cell_angle_gamma   90.00426366
_symmetry_Int_Tables_number   1
_chemical_formula_structural   Sr7Ca15Pr50Mn72O216
_chemical_formula_sum   'Sr7 Ca15 Pr50 Mn72 O216'
_cell_volume   4287.33488536
_cell_formula_units_Z   1
loop_
 _symmetry_equiv_pos_site_id
 _symmetry_equiv_pos_as_xyz
  1  'x, y, z'
loop_
 _atom_type_symbol
 _atom_type_oxidation_number
  Sr2+  2.0
  Ca2+  2.0
  Pr3+  3.0
  Mn3.30+  3.3
  O2-  -2.0
loop_
 _atom_site_type_symbol
 _atom_site_label
 _atom_site_symmetry_multiplicity
 _atom_site_fract_x
 _atom_site_fract_y
 _atom_site_fract_z
 _atom_site_occupancy
  Sr2+  Sr0  1  0.33376293  0.99275761  0.87647537  1
  Sr2+  Sr1  1  -0.00187059  0.01141293  0.12424620  1
  Sr2+  Sr2  1  0.66714744  0.67628805  0.12504017  1
  Sr2+  Sr3  1  0.66389788  0.01182021  0.62627689  1
  Sr2+  Sr4  1  0.50158286  0.15641333  0.87342597  1
  Sr2+  Sr5  1  0.66733366  0.65675909  0.37274654  1
  Sr2+  Sr6  1  -0.00206959  0.67668689  0.62499904  1
  Ca2+  Ca7  1  0.82532970  0.14839205  0.87896435  1
  Ca2+  Ca8  1  0.66459367  0.01381140  0.12073448  1
  Ca2+  Ca9  1  0.83017336  0.81655608  0.37413132  1
  Ca2+  Ca10  1  0.50607603  0.17844650  0.62935681  1
  Ca2+  Ca11  1  1.00041442  0.65331868  0.37493796  1
  Ca2+  Ca12  1  0.16939862  0.84838000  0.12424136  1
  Ca2+  Ca13  1  0.67263897  0.31315170  0.87515877  1
  Ca2+  Ca14  1  0.50541491  0.51510307  0.62502349  1
  Ca2+  Ca15  1  0.32735696  0.68509246  0.12483682  1
  Ca2+  Ca16  1  0.83488356  0.17826311  0.12098171  1
  Ca2+  Ca17  1  0.16294865  0.48725599  0.87421698  1
  Ca2+  Ca18  1  0.49873405  0.48751726  0.37524256  1
  Ca2+  Ca19  1  1.00633801  0.65022245  0.87517315  1
  Ca2+  Ca20  1  0.16289859  0.15038883  0.87564329  1
  Ca2+  Ca21  1  0.67002125  0.98845891  0.87588478  1
  Pr3+  Pr22  1  0.16296506  0.15351368  0.37513773  1
  Pr3+  Pr23  1  0.83093213  0.49274157  0.37517034  1
  Pr3+  Pr24  1  0.83596777  0.51425452  0.62567937  1
  Pr3+  Pr25  1  0.16655331  0.84517181  0.62495869  1
  Pr3+  Pr26  1  0.33835332  0.32394120  0.37571752  1
  Pr3+  Pr27  1  0.83033255  0.48573953  0.87491405  1
  Pr3+  Pr28  1  0.33336338  0.01351535  0.62705929  1
  Pr3+  Pr29  1  0.16169148  0.82146057  0.87819560  1
  Pr3+  Pr30  1  0.50435264  0.84724838  0.12519850  1
  Pr3+  Pr31  1  1.00027141  0.98578980  0.37266603  1
  Pr3+  Pr32  1  -0.00545147  0.01091442  0.62544847  1
  Pr3+  Pr33  1  0.83386769  0.17844315  0.62723996  1
  Pr3+  Pr34  1  0.82934623  0.15548428  0.37292147  1
  Pr3+  Pr35  1  0.49893629  0.15453071  0.37584092  1
  Pr3+  Pr36  1  0.16950126  0.51442803  0.62796593  1
  Pr3+  Pr37  1  0.33090789  0.34458094  0.12235276  1
  Pr3+  Pr38  1  0.66005798  0.34537937  0.62800847  1
  Pr3+  Pr39  1  0.83234299  0.82399020  0.87654568  1
  Pr3+  Pr40  1  0.33037090  0.68035631  0.62524789  1
  Pr3+  Pr41  1  0.49794409  0.81949146  0.37466782  1
  Pr3+  Pr42  1  0.67174001  0.98481794  0.37335577  1
  Pr3+  Pr43  1  0.83593030  0.84538734  0.62319358  1
  Pr3+  Pr44  1  0.16828967  0.17770501  0.12118751  1
  Pr3+  Pr45  1  1.00210799  0.98975925  0.87747423  1
  Pr3+  Pr46  1  1.00383859  0.31659787  0.87423922  1
  Pr3+  Pr47  1  0.33624861  0.98605084  0.37385906  1
  Pr3+  Pr48  1  0.66849145  0.65674984  0.87652707  1
  Pr3+  Pr49  1  0.17179198  0.51431538  0.12235894  1
  Pr3+  Pr50  1  0.33593814  0.65711036  0.87673575  1
  Pr3+  Pr51  1  0.50206450  0.51404616  0.12425986  1
  Pr3+  Pr52  1  0.33988270  0.65027259  0.37342094  1
  Pr3+  Pr53  1  0.83655272  0.51248691  0.12419972  1
  Pr3+  Pr54  1  0.32964255  0.01243710  0.12338792  1
  Pr3+  Pr55  1  0.66735682  0.32452845  0.37431785  1
  Pr3+  Pr56  1  0.33379778  0.32156345  0.87450897  1
  Pr3+  Pr57  1  0.49918707  0.48780154  0.87466113  1
  Pr3+  Pr58  1  -0.00315238  0.67921705  0.12525898  1
  Pr3+  Pr59  1  -0.00371079  0.34320272  0.12311493  1
  Pr3+  Pr60  1  -0.00416456  0.34747408  0.62655723  1
  Pr3+  Pr61  1  0.66476034  0.67865616  0.62469542  1
  Pr3+  Pr62  1  0.33715027  0.34599833  0.62849367  1
  Pr3+  Pr63  1  0.66610290  0.34288619  0.12122424  1
  Pr3+  Pr64  1  1.00169295  0.32131025  0.37574223  1
  Pr3+  Pr65  1  0.16929245  0.17948445  0.62861901  1
  Pr3+  Pr66  1  0.83411465  0.84656652  0.12740503  1
  Pr3+  Pr67  1  0.50316062  0.84642713  0.62458920  1
  Pr3+  Pr68  1  0.50251510  0.17632978  0.12162598  1
  Pr3+  Pr69  1  0.49820328  0.82825890  0.87499545  1
  Pr3+  Pr70  1  0.16162629  0.81678143  0.37176946  1
  Pr3+  Pr71  1  0.16437428  0.48876681  0.37618497  1
  Mn3.30+  Mn72  1  0.16601352  -0.00015047  0.00047386  1
  Mn3.30+  Mn73  1  0.16597138  -0.00035245  0.49998104  1
  Mn3.30+  Mn74  1  0.16505647  0.33299155  -0.00310329  1
  Mn3.30+  Mn75  1  0.16820247  0.33407126  0.50263063  1
  Mn3.30+  Mn76  1  0.16642321  0.66725275  0.00028863  1
  Mn3.30+  Mn77  1  0.16596272  0.66653101  0.49909530  1
  Mn3.30+  Mn78  1  0.50223210  0.00081356  -0.00114114  1
  Mn3.30+  Mn79  1  0.50141200  0.00145398  0.50002826  1
  Mn3.30+  Mn80  1  0.50120261  0.33254887  -0.00263994  1
  Mn3.30+  Mn81  1  0.50121702  0.33461704  0.50143347  1
  Mn3.30+  Mn82  1  0.49872685  0.66913995  0.00164333  1
  Mn3.30+  Mn83  1  0.49995531  0.66336002  0.49987358  1
  Mn3.30+  Mn84  1  0.83126956  0.00166970  0.00189733  1
  Mn3.30+  Mn85  1  0.83252470  -0.00062368  0.49845533  1
  Mn3.30+  Mn86  1  0.83273131  0.32969708  -0.00211855  1
  Mn3.30+  Mn87  1  0.83151824  0.33412173  0.50104525  1
  Mn3.30+  Mn88  1  0.83637506  0.66694278  -0.00135882  1
  Mn3.30+  Mn89  1  0.83349207  0.66733309  0.49808221  1
  Mn3.30+  Mn90  1  -0.00230399  0.16660637  0.24813214  1
  Mn3.30+  Mn91  1  -0.00122772  0.16493511  0.75242683  1
  Mn3.30+  Mn92  1  0.00173268  0.50032198  0.24978914  1
  Mn3.30+  Mn93  1  0.00048950  0.50080638  0.75260054  1
  Mn3.30+  Mn94  1  -0.00036939  0.83174339  0.25010070  1
  Mn3.30+  Mn95  1  -0.00092020  0.83157592  0.75060585  1
  Mn3.30+  Mn96  1  0.33305348  0.16783080  0.25060306  1
  Mn3.30+  Mn97  1  0.33536353  0.16694141  0.75048171  1
  Mn3.30+  Mn98  1  0.33438589  0.50044870  0.24855779  1
  Mn3.30+  Mn99  1  0.33442902  0.50184677  0.75123257  1
  Mn3.30+  Mn100  1  0.33140772  0.83213236  0.24795967  1
  Mn3.30+  Mn101  1  0.33222889  0.83533703  0.75122200  1
  Mn3.30+  Mn102  1  0.66733774  0.16613052  0.24677975  1
  Mn3.30+  Mn103  1  0.66813969  0.16490867  0.75277852  1
  Mn3.30+  Mn104  1  0.66503298  0.50011276  0.24987171  1
  Mn3.30+  Mn105  1  0.66564405  0.49910310  0.75085861  1
  Mn3.30+  Mn106  1  0.66839818  0.83276998  0.24894846  1
  Mn3.30+  Mn107  1  0.66699080  0.83516561  0.75139511  1
  Mn3.30+  Mn108  1  0.16642531  -0.00083520  0.24871507  1
  Mn3.30+  Mn109  1  0.16551941  0.00035474  0.75103892  1
  Mn3.30+  Mn110  1  0.16657144  0.33337963  0.24971876  1
  Mn3.30+  Mn111  1  0.16626905  0.33402467  0.75116454  1
  Mn3.30+  Mn112  1  0.16733543  0.66674125  0.24872113  1
  Mn3.30+  Mn113  1  0.16495171  0.66673017  0.75225020  1
  Mn3.30+  Mn114  1  0.50206302  0.00038269  0.24917724  1
  Mn3.30+  Mn115  1  0.50184183  0.00226786  0.75137376  1
  Mn3.30+  Mn116  1  0.50011221  0.33420098  0.24853630  1
  Mn3.30+  Mn117  1  0.50264274  0.33251495  0.75216025  1
  Mn3.30+  Mn118  1  0.49883288  0.66584591  0.24849236  1
  Mn3.30+  Mn119  1  0.49995885  0.66716013  0.74996772  1
  Mn3.30+  Mn120  1  0.83250411  0.00124556  0.24759765  1
  Mn3.30+  Mn121  1  0.83132108  0.00094233  0.75169638  1
  Mn3.30+  Mn122  1  0.83340259  0.33341755  0.24897095  1
  Mn3.30+  Mn123  1  0.83082320  0.33071100  0.75227848  1
  Mn3.30+  Mn124  1  0.83411591  0.66729940  0.25083409  1
  Mn3.30+  Mn125  1  0.83582482  0.66699333  0.75283725  1
  Mn3.30+  Mn126  1  -0.00311098  0.16530657  -0.00124666  1
  Mn3.30+  Mn127  1  -0.00057238  0.16636985  0.50060007  1
  Mn3.30+  Mn128  1  0.00275166  0.49994447  -0.00199578  1
  Mn3.30+  Mn129  1  -0.00028369  0.50175603  0.50011926  1
  Mn3.30+  Mn130  1  0.00002414  0.83294528  0.00254743  1
  Mn3.30+  Mn131  1  -0.00165348  0.83021934  0.49628683  1
  Mn3.30+  Mn132  1  0.33374764  0.16638765  -0.00348013  1
  Mn3.30+  Mn133  1  0.33497049  0.16816351  0.50234078  1
  Mn3.30+  Mn134  1  0.33178238  0.50193181  -0.00233248  1
  Mn3.30+  Mn135  1  0.33706101  0.49992394  0.50311988  1
  Mn3.30+  Mn136  1  0.33161610  0.83418510  0.00145952  1
  Mn3.30+  Mn137  1  0.33224512  0.83303237  0.49907896  1
  Mn3.30+  Mn138  1  0.66981419  0.16378744  -0.00044836  1
  Mn3.30+  Mn139  1  0.66489023  0.16726382  0.50076779  1
  Mn3.30+  Mn140  1  0.66703711  0.49881874  -0.00127306  1
  Mn3.30+  Mn141  1  0.66368957  0.50036090  0.49969259  1
  Mn3.30+  Mn142  1  0.66675042  0.83544645  0.00095741  1
  Mn3.30+  Mn143  1  0.66828148  0.83218037  0.49855051  1
  O2-  O144  1  0.02465787  0.17124498  0.12519807  1
  O2-  O145  1  0.02531646  0.16000776  0.62537790  1
  O2-  O146  1  0.02710291  0.49175026  0.12266994  1
  O2-  O147  1  0.02407117  0.49521094  0.62576126  1
  O2-  O148  1  0.02734526  0.82574296  0.12656396  1
  O2-  O149  1  0.02264832  0.83173446  0.62172200  1
  O2-  O150  1  0.35665700  0.16378752  0.12367304  1
  O2-  O151  1  0.36188242  0.16145156  0.62402714  1
  O2-  O152  1  0.35860659  0.49098000  0.12104069  1
  O2-  O153  1  0.36401854  0.49540162  0.62764786  1
  O2-  O154  1  0.35947471  0.82946064  0.12551163  1
  O2-  O155  1  0.35750567  0.82810965  0.62299547  1
  O2-  O156  1  0.69327449  0.16102816  0.12509268  1
  O2-  O157  1  0.69126146  0.16709550  0.62702392  1
  O2-  O158  1  0.69217745  0.49261639  0.12109076  1
  O2-  O159  1  0.69255610  0.49461753  0.62754874  1
  O2-  O160  1  0.69043270  0.82919346  0.12594674  1
  O2-  O161  1  0.69124989  0.82707324  0.62477187  1
  O2-  O162  1  0.14068568  0.32613149  0.12053757  1
  O2-  O163  1  0.13970615  0.32782841  0.62589622  1
  O2-  O164  1  0.13941246  0.65853938  0.12438795  1
  O2-  O165  1  0.14806046  0.66309642  0.62733403  1
  O2-  O166  1  0.14871190  0.99804941  0.12679091  1
  O2-  O167  1  0.13896845  0.99408736  0.62391066  1
  O2-  O168  1  0.47428225  0.32513322  0.12168134  1
  O2-  O169  1  0.47988404  0.32295150  0.62687238  1
  O2-  O170  1  0.47034120  0.66111759  0.12491132  1
  O2-  O171  1  0.47376822  0.66084764  0.62576664  1
  O2-  O172  1  0.47374213  0.99652450  0.12722506  1
  O2-  O173  1  0.47668995  0.99325697  0.62282211  1
  O2-  O174  1  0.81087324  0.32702695  0.12342475  1
  O2-  O175  1  0.80582223  0.32663527  0.62712391  1
  O2-  O176  1  0.81669235  0.65957144  0.12284497  1
  O2-  O177  1  0.80936904  0.66258439  0.62768556  1
  O2-  O178  1  0.80503331  0.99225476  0.12669199  1
  O2-  O179  1  0.81415193  0.99346321  0.62298414  1
  O2-  O180  1  0.30638874  0.17540980  0.37823217  1
  O2-  O181  1  0.30594142  0.17238341  0.87402702  1
  O2-  O182  1  0.30802535  0.50183304  0.37666083  1
  O2-  O183  1  0.30453323  0.50870745  0.87527094  1
  O2-  O184  1  0.30701754  0.83829676  0.37486017  1
  O2-  O185  1  0.30718960  0.83581943  0.87669293  1
  O2-  O186  1  0.64214921  0.17500676  0.37209722  1
  O2-  O187  1  0.64866123  0.17140282  0.87632976  1
  O2-  O188  1  0.64126445  0.49791057  0.37643479  1
  O2-  O189  1  0.64259990  0.50884954  0.87526845  1
  O2-  O190  1  0.64159652  0.83687931  0.37291558  1
  O2-  O191  1  0.64257302  0.83820475  0.87625949  1
  O2-  O192  1  0.97481582  0.17285462  0.37495069  1
  O2-  O193  1  0.96985265  0.16858161  0.87425881  1
  O2-  O194  1  0.97653898  0.50385433  0.37656592  1
  O2-  O195  1  0.97450082  0.50445255  0.87567244  1
  O2-  O196  1  0.97215116  0.84022098  0.37321289  1
  O2-  O197  1  0.97622738  0.84245921  0.87796741  1
  O2-  O198  1  0.19225979  0.00629999  0.37508597  1
  O2-  O199  1  0.18277560  0.00257178  0.87454347  1
  O2-  O200  1  0.19376807  0.34001568  0.37989487  1
  O2-  O201  1  0.19067310  0.34262633  0.87376290  1
  O2-  O202  1  0.19573694  0.66840300  0.37263870  1
  O2-  O203  1  0.19329097  0.67542250  0.87627484  1
  O2-  O204  1  0.52594549  0.00635436  0.37406823  1
  O2-  O205  1  0.52553424  -0.00378413  0.87528909  1
  O2-  O206  1  0.52302306  0.34121376  0.37485154  1
  O2-  O207  1  0.52920140  0.34142932  0.87565995  1
  O2-  O208  1  0.51773785  0.67311693  0.37421340  1
  O2-  O209  1  0.52457838  0.67714337  0.87454076  1
  O2-  O210  1  0.85837443  0.01040370  0.37336359  1
  O2-  O211  1  0.85871543  0.00253453  0.87679025  1
  O2-  O212  1  0.85807644  0.34263385  0.37572766  1
  O2-  O213  1  0.86105785  0.34031426  0.87428669  1
  O2-  O214  1  0.85813371  0.66575749  0.37332575  1
  O2-  O215  1  0.86317902  0.67484083  0.87641766  1
  O2-  O216  1  0.24098291  0.09381039  0.01938187  1
  O2-  O217  1  0.23915515  0.09662333  0.52205906  1
  O2-  O218  1  0.23994900  0.42599657  0.02067474  1
  O2-  O219  1  0.24119071  0.42983737  0.52488662  1
  O2-  O220  1  0.23436284  0.76423340  0.01994121  1
  O2-  O221  1  0.23681283  0.76179520  0.51875021  1
  O2-  O222  1  0.57308590  0.09397231  0.02093526  1
  O2-  O223  1  0.56867245  0.10091057  0.51595243  1
  O2-  O224  1  0.57037516  0.42578423  0.02139030  1
  O2-  O225  1  0.57158269  0.42801689  0.52539349  1
  O2-  O226  1  0.56998290  0.76377473  0.01776554  1
  O2-  O227  1  0.57010037  0.75850767  0.51966124  1
  O2-  O228  1  0.90160029  0.09555399  0.02048854  1
  O2-  O229  1  0.90490386  0.09488649  0.51990631  1
  O2-  O230  1  0.90505958  0.42774454  0.01955285  1
  O2-  O231  1  0.90447391  0.42650695  0.52256684  1
  O2-  O232  1  0.90623197  0.76201317  0.02263532  1
  O2-  O233  1  0.90259883  0.76269900  0.51685950  1
  O2-  O234  1  0.26065729  0.26239539  0.22910141  1
  O2-  O235  1  0.26123287  0.26088888  0.72844038  1
  O2-  O236  1  0.26435905  0.59671173  0.22779051  1
  O2-  O237  1  0.26364635  0.59616742  0.72952634  1
  O2-  O238  1  0.26540171  0.93014579  0.23369752  1
  O2-  O239  1  0.25856977  0.92648610  0.72623476  1
  O2-  O240  1  0.59518194  0.26041503  0.22765763  1
  O2-  O241  1  0.59824631  0.26090317  0.73504344  1
  O2-  O242  1  0.59055231  0.59023874  0.22845972  1
  O2-  O243  1  0.59533940  0.59753567  0.73322676  1
  O2-  O244  1  0.59617583  0.93031823  0.22978437  1
  O2-  O245  1  0.58970448  0.92341044  0.73021464  1
  O2-  O246  1  0.93090552  0.26494147  0.23611460  1
  O2-  O247  1  0.92959490  0.26091463  0.72814432  1
  O2-  O248  1  0.92958140  0.59153928  0.22939608  1
  O2-  O249  1  0.92495778  0.59095306  0.73240959  1
  O2-  O250  1  0.92509340  0.92783682  0.23165695  1
  O2-  O251  1  0.92724665  0.92801037  0.73195026  1
  O2-  O252  1  0.09462491  0.23854852  0.27183243  1
  O2-  O253  1  0.09324388  0.23391646  0.77167318  1
  O2-  O254  1  0.10042265  0.56840933  0.26648658  1
  O2-  O255  1  0.09971109  0.57048889  0.76917487  1
  O2-  O256  1  0.09251784  0.90538100  0.27232872  1
  O2-  O257  1  0.09329303  0.90313396  0.76806902  1
  O2-  O258  1  0.42793639  0.23926595  0.27053917  1
  O2-  O259  1  0.42390370  0.24591790  0.77099725  1
  O2-  O260  1  0.42812815  0.56846788  0.27059894  1
  O2-  O261  1  0.42733430  0.57557693  0.77596086  1
  O2-  O262  1  0.43000240  0.90600312  0.27110327  1
  O2-  O263  1  0.42752358  0.90525311  0.76452278  1
  O2-  O264  1  0.76014601  0.24307870  0.27221621  1
  O2-  O265  1  0.76739434  0.23337422  0.76949480  1
  O2-  O266  1  0.76326437  0.57020926  0.26484469  1
  O2-  O267  1  0.76201392  0.57299178  0.77168925  1
  O2-  O268  1  0.76219395  0.90551405  0.27323478  1
  O2-  O269  1  0.76379790  0.90449308  0.76809309  1
  O2-  O270  1  0.07174611  0.07099535  0.47829922  1
  O2-  O271  1  0.06964496  0.07446546  0.98292643  1
  O2-  O272  1  0.07236799  0.40605880  0.48085915  1
  O2-  O273  1  0.06899071  0.40185063  0.97982362  1
  O2-  O274  1  0.06999919  0.73978654  0.47404372  1
  O2-  O275  1  0.07070412  0.73547142  0.97861845  1
  O2-  O276  1  0.40334403  0.07249520  0.47788326  1
  O2-  O277  1  0.40759184  0.07408585  0.98704146  1
  O2-  O278  1  0.40303043  0.40253631  0.48525709  1
  O2-  O279  1  0.40486311  0.40823854  0.97635504  1
  O2-  O280  1  0.40421916  0.73692976  0.48107157  1
  O2-  O281  1  0.40537661  0.74220682  0.97839104  1
  O2-  O282  1  0.73917364  0.07350299  0.47776666  1
  O2-  O283  1  0.73540892  0.06796289  0.98016108  1
  O2-  O284  1  0.73737151  0.40674960  0.48083927  1
  O2-  O285  1  0.74090549  0.40051570  0.97795433  1
  O2-  O286  1  0.73895709  0.73747957  0.48491512  1
  O2-  O287  1  0.74080739  0.74141593  0.97802675  1
  O2-  O288  1  0.09437672  0.23810554  0.48040100  1
  O2-  O289  1  0.09537439  0.23715904  0.97551422  1
  O2-  O290  1  0.09908091  0.57104569  0.48372421  1
  O2-  O291  1  0.10027556  0.56796171  0.98050185  1
  O2-  O292  1  0.09342878  0.90314185  0.47750083  1
  O2-  O293  1  0.09134594  0.90605129  0.98214574  1
  O2-  O294  1  0.42751435  0.24156305  0.47636289  1
  O2-  O295  1  0.42388708  0.24352254  0.97922377  1
  O2-  O296  1  0.42902525  0.57038953  0.47658613  1
  O2-  O297  1  0.42736695  0.57356714  0.97693025  1
  O2-  O298  1  0.42622987  0.90535281  0.47857857  1
  O2-  O299  1  0.42996671  0.90500932  0.98501538  1
  O2-  O300  1  0.76127660  0.23974409  0.47946456  1
  O2-  O301  1  0.76421744  0.23522089  0.98192971  1
  O2-  O302  1  0.76203142  0.56985762  0.48480053  1
  O2-  O303  1  0.76359443  0.57363966  0.97866777  1
  O2-  O304  1  0.76340797  0.90602648  0.47668013  1
  O2-  O305  1  0.76265563  0.90415428  0.98289848  1
  O2-  O306  1  0.07167204  0.07436685  0.27149587  1
  O2-  O307  1  0.06777094  0.06968662  0.76706130  1
  O2-  O308  1  0.07217420  0.40480756  0.27137088  1
  O2-  O309  1  0.06856428  0.40353553  0.76696519  1
  O2-  O310  1  0.07133488  0.73377866  0.27316908  1
  O2-  O311  1  0.07245314  0.73874973  0.77368716  1
  O2-  O312  1  0.40434027  0.07277461  0.27134481  1
  O2-  O313  1  0.40551516  0.07210752  0.76388861  1
  O2-  O314  1  0.40218969  0.40330330  0.26492669  1
  O2-  O315  1  0.40550759  0.40808987  0.77344156  1
  O2-  O316  1  0.40319106  0.73969949  0.27079831  1
  O2-  O317  1  0.40541852  0.74049419  0.76882085  1
  O2-  O318  1  0.73829281  0.07403861  0.27337483  1
  O2-  O319  1  0.73800918  0.06930394  0.76992691  1
  O2-  O320  1  0.73959977  0.40672038  0.26796222  1
  O2-  O321  1  0.73767900  0.40240338  0.77274362  1
  O2-  O322  1  0.74405101  0.74082824  0.26576116  1
  O2-  O323  1  0.73943048  0.73825124  0.77180183  1
  O2-  O324  1  0.23887131  0.09737621  0.23111304  1
  O2-  O325  1  0.23997399  0.09312995  0.72737262  1
  O2-  O326  1  0.23875690  0.42945747  0.22915251  1
  O2-  O327  1  0.24366545  0.42867513  0.72679165  1
  O2-  O328  1  0.23207147  0.76419254  0.23015684  1
  O2-  O329  1  0.23813705  0.76222983  0.73039540  1
  O2-  O330  1  0.56853559  0.09736740  0.23200207  1
  O2-  O331  1  0.57141881  0.09613037  0.73160842  1
  O2-  O332  1  0.57304374  0.42427045  0.22457420  1
  O2-  O333  1  0.56959836  0.42958730  0.72907274  1
  O2-  O334  1  0.56875126  0.76280073  0.23356533  1
  O2-  O335  1  0.57178793  0.75991275  0.72832837  1
  O2-  O336  1  0.90180122  0.10024791  0.23120292  1
  O2-  O337  1  0.90582365  0.09268265  0.72678234  1
  O2-  O338  1  0.90547334  0.42747097  0.22906490  1
  O2-  O339  1  0.90241083  0.42587593  0.73003272  1
  O2-  O340  1  0.90802199  0.75931179  0.22731027  1
  O2-  O341  1  0.90227429  0.76448666  0.73248016  1
  O2-  O342  1  0.25936588  0.26106582  0.01888869  1
  O2-  O343  1  0.26300646  0.26158016  0.52570863  1
  O2-  O344  1  0.26283741  0.59823743  0.02249834  1
  O2-  O345  1  0.26657806  0.59289453  0.52093854  1
  O2-  O346  1  0.26254398  0.92691273  0.02041165  1
  O2-  O347  1  0.26014621  0.92936594  0.52098353  1
  O2-  O348  1  0.59540507  0.25663913  0.02119358  1
  O2-  O349  1  0.59743068  0.26636095  0.51450161  1
  O2-  O350  1  0.58844471  0.59423602  0.01677038  1
  O2-  O351  1  0.59553708  0.59436206  0.52203221  1
  O2-  O352  1  0.59318543  0.92712155  0.02410098  1
  O2-  O353  1  0.59288014  0.92458564  0.51514061  1
  O2-  O354  1  0.93135011  0.26414767  0.01553583  1
  O2-  O355  1  0.92753755  0.26161036  0.52069309  1
  O2-  O356  1  0.93104779  0.59181262  0.02106403  1
  O2-  O357  1  0.92364195  0.59161974  0.51868198  1
  O2-  O358  1  0.92328871  0.92582788  0.01997378  1
  O2-  O359  1  0.92896484  0.92868297  0.51687332  1
