# generated using pymatgen
data_Sr7Ca15Pr50Mn72O216
_symmetry_space_group_name_H-M   'P 1'
_cell_length_a   16.55928210
_cell_length_b   16.60281402
_cell_length_c   15.59446411
_cell_angle_alpha   90.00089601
_cell_angle_beta   89.99872066
_cell_angle_gamma   90.00428692
_symmetry_Int_Tables_number   1
_chemical_formula_structural   Sr7Ca15Pr50Mn72O216
_chemical_formula_sum   'Sr7 Ca15 Pr50 Mn72 O216'
_cell_volume   4287.39662420
_cell_formula_units_Z   1
loop_
 _symmetry_equiv_pos_site_id
 _symmetry_equiv_pos_as_xyz
  1  'x, y, z'
loop_
 _atom_type_symbol
 _atom_type_oxidation_number
  Sr2+  2.0
  Ca2+  2.0
  Pr3+  3.0
  Mn3.30+  3.3
  O2-  -2.0
loop_
 _atom_site_type_symbol
 _atom_site_label
 _atom_site_symmetry_multiplicity
 _atom_site_fract_x
 _atom_site_fract_y
 _atom_site_fract_z
 _atom_site_occupancy
  Sr2+  Sr0  1  0.83361438  0.16163119  0.87714376  1
  Sr2+  Sr1  1  0.83609733  0.50926464  0.62305848  1
  Sr2+  Sr2  1  0.66612924  0.65669208  0.87606483  1
  Sr2+  Sr3  1  0.50177582  0.51017535  0.62505817  1
  Sr2+  Sr4  1  -0.00329207  0.33983315  0.12624920  1
  Sr2+  Sr5  1  0.16846320  0.50959790  0.62255936  1
  Sr2+  Sr6  1  0.83313657  0.17898739  0.12434449  1
  Ca2+  Ca7  1  0.16528431  0.81561351  0.87625943  1
  Ca2+  Ca8  1  0.49686377  0.48704014  0.37560809  1
  Ca2+  Ca9  1  0.33852538  0.65006915  0.87480334  1
  Ca2+  Ca10  1  1.00025586  0.32310664  0.37578097  1
  Ca2+  Ca11  1  0.50192141  0.84874510  0.12235882  1
  Ca2+  Ca12  1  1.00000648  0.32263561  0.87457096  1
  Ca2+  Ca13  1  0.16276579  0.48365260  0.37577338  1
  Ca2+  Ca14  1  0.49551390  0.15290157  0.37377930  1
  Ca2+  Ca15  1  0.49783943  0.48824269  0.87469208  1
  Ca2+  Ca16  1  0.49527693  0.81490987  0.87705597  1
  Ca2+  Ca17  1  0.33267229  0.01636488  0.12429929  1
  Ca2+  Ca18  1  0.66489133  0.34726098  0.12469987  1
  Ca2+  Ca19  1  0.33694240  0.64832189  0.37553408  1
  Ca2+  Ca20  1  0.83183545  0.48290794  0.37565011  1
  Ca2+  Ca21  1  -0.00453726  0.35084067  0.62333941  1
  Pr3+  Pr22  1  0.65974188  0.68142797  0.12401188  1
  Pr3+  Pr23  1  0.17090510  0.84289085  0.62693463  1
  Pr3+  Pr24  1  0.50428470  0.18147182  0.12656417  1
  Pr3+  Pr25  1  0.33720225  0.32138407  0.37607808  1
  Pr3+  Pr26  1  0.16336502  0.15803083  0.37379094  1
  Pr3+  Pr27  1  0.16398299  0.48730479  0.87423929  1
  Pr3+  Pr28  1  1.00390563  0.98791631  0.37343941  1
  Pr3+  Pr29  1  0.82882310  0.82018410  0.87616869  1
  Pr3+  Pr30  1  -0.00022194  0.67400253  0.62510902  1
  Pr3+  Pr31  1  0.33205423  0.67923600  0.12485117  1
  Pr3+  Pr32  1  -0.00364832  0.01423726  0.12437787  1
  Pr3+  Pr33  1  0.83350355  0.16020020  0.37305656  1
  Pr3+  Pr34  1  0.33058564  0.67594616  0.62576412  1
  Pr3+  Pr35  1  0.83487712  0.84534898  0.12361936  1
  Pr3+  Pr36  1  0.50356673  0.18130517  0.62306194  1
  Pr3+  Pr37  1  0.17310793  0.84963675  0.12264704  1
  Pr3+  Pr38  1  0.66992107  0.65001299  0.37393138  1
  Pr3+  Pr39  1  0.17014193  0.51121984  0.12693194  1
  Pr3+  Pr40  1  0.16659657  0.81936589  0.37361094  1
  Pr3+  Pr41  1  0.66294340  0.67539043  0.62615059  1
  Pr3+  Pr42  1  0.66393128  0.01355854  0.62560976  1
  Pr3+  Pr43  1  0.50124868  0.84226246  0.62739153  1
  Pr3+  Pr44  1  0.49671306  0.15514226  0.87542591  1
  Pr3+  Pr45  1  0.50337573  0.51045782  0.12536833  1
  Pr3+  Pr46  1  0.33641553  0.32395636  0.87375596  1
  Pr3+  Pr47  1  0.33013685  0.35131121  0.62383111  1
  Pr3+  Pr48  1  0.83451558  0.50612830  0.12726391  1
  Pr3+  Pr49  1  0.83516335  0.84265111  0.62604259  1
  Pr3+  Pr50  1  0.33015451  0.01277114  0.62556062  1
  Pr3+  Pr51  1  0.82932677  0.82073421  0.37362090  1
  Pr3+  Pr52  1  -0.00274458  0.01147987  0.62555565  1
  Pr3+  Pr53  1  0.33741785  0.98342892  0.87675292  1
  Pr3+  Pr54  1  0.66322533  0.01390781  0.12426090  1
  Pr3+  Pr55  1  0.33769491  0.98961512  0.37311034  1
  Pr3+  Pr56  1  0.83172186  0.48813987  0.87427436  1
  Pr3+  Pr57  1  0.49378116  0.81771252  0.37301010  1
  Pr3+  Pr58  1  1.00353676  0.64944317  0.37475088  1
  Pr3+  Pr59  1  0.66594269  0.98975974  0.37371382  1
  Pr3+  Pr60  1  -0.00059056  0.67590133  0.12537596  1
  Pr3+  Pr61  1  0.66777545  0.32720951  0.87544050  1
  Pr3+  Pr62  1  0.83779940  0.18268449  0.62566240  1
  Pr3+  Pr63  1  0.66865700  0.98851568  0.87623527  1
  Pr3+  Pr64  1  0.16857916  0.18372760  0.62431202  1
  Pr3+  Pr65  1  0.16202085  0.15720089  0.87529627  1
  Pr3+  Pr66  1  1.00323098  0.65333391  0.87573377  1
  Pr3+  Pr67  1  0.16886940  0.18163763  0.12494325  1
  Pr3+  Pr68  1  1.00441338  0.98556433  0.87662677  1
  Pr3+  Pr69  1  0.66814132  0.32530900  0.37505017  1
  Pr3+  Pr70  1  0.32893096  0.34717415  0.12590972  1
  Pr3+  Pr71  1  0.66585028  0.34937548  0.62558112  1
  Mn3.30+  Mn72  1  0.16990625  0.00043304  -0.00052663  1
  Mn3.30+  Mn73  1  0.16712505  -0.00014711  0.50006427  1
  Mn3.30+  Mn74  1  0.16508486  0.33470753  -0.00030484  1
  Mn3.30+  Mn75  1  0.16433177  0.33571867  0.49882681  1
  Mn3.30+  Mn76  1  0.16944907  0.66684182  -0.00111814  1
  Mn3.30+  Mn77  1  0.16850346  0.66384073  0.49721038  1
  Mn3.30+  Mn78  1  0.49798918  -0.00185817  0.00096022  1
  Mn3.30+  Mn79  1  0.49935541  -0.00003121  0.50002288  1
  Mn3.30+  Mn80  1  0.50026150  0.33514457  0.00087627  1
  Mn3.30+  Mn81  1  0.50054423  0.33500214  0.49802797  1
  Mn3.30+  Mn82  1  0.49705729  0.66647611  -0.00155228  1
  Mn3.30+  Mn83  1  0.49792157  0.66411108  0.49850217  1
  Mn3.30+  Mn84  1  0.83330750  0.00180756  -0.00149553  1
  Mn3.30+  Mn85  1  0.83306360  0.00061769  0.49940896  1
  Mn3.30+  Mn86  1  0.83314319  0.33349241  0.00079168  1
  Mn3.30+  Mn87  1  0.83651919  0.33540514  0.49861333  1
  Mn3.30+  Mn88  1  0.83195456  0.66504486  0.00198080  1
  Mn3.30+  Mn89  1  0.83360475  0.66435177  0.49844739  1
  Mn3.30+  Mn90  1  -0.00106604  0.16875231  0.25050849  1
  Mn3.30+  Mn91  1  0.00048902  0.16876223  0.75002570  1
  Mn3.30+  Mn92  1  0.00094713  0.49606909  0.25243248  1
  Mn3.30+  Mn93  1  0.00014816  0.49841195  0.74865624  1
  Mn3.30+  Mn94  1  0.00110770  0.83202717  0.24890848  1
  Mn3.30+  Mn95  1  0.00223512  0.83135654  0.75156344  1
  Mn3.30+  Mn96  1  0.33494269  0.16680287  0.24942313  1
  Mn3.30+  Mn97  1  0.33254641  0.16762500  0.74930102  1
  Mn3.30+  Mn98  1  0.33449550  0.50064829  0.25368277  1
  Mn3.30+  Mn99  1  0.33425124  0.50221720  0.75081949  1
  Mn3.30+  Mn100  1  0.33487533  0.83409673  0.24685756  1
  Mn3.30+  Mn101  1  0.33406525  0.82960831  0.75491813  1
  Mn3.30+  Mn102  1  0.66393641  0.16959441  0.25129941  1
  Mn3.30+  Mn103  1  0.66711313  0.16827033  0.75013787  1
  Mn3.30+  Mn104  1  0.66677699  0.49840092  0.25088512  1
  Mn3.30+  Mn105  1  0.66527528  0.50231257  0.75144907  1
  Mn3.30+  Mn106  1  0.66260620  0.83404844  0.24902903  1
  Mn3.30+  Mn107  1  0.66497678  0.83242569  0.75153012  1
  Mn3.30+  Mn108  1  0.16980869  0.00158323  0.24824060  1
  Mn3.30+  Mn109  1  0.16721481  -0.00158670  0.75156845  1
  Mn3.30+  Mn110  1  0.16491821  0.33518693  0.25213999  1
  Mn3.30+  Mn111  1  0.16425230  0.33555742  0.74864849  1
  Mn3.30+  Mn112  1  0.16914043  0.66500427  0.25163891  1
  Mn3.30+  Mn113  1  0.16877239  0.66587123  0.75223836  1
  Mn3.30+  Mn114  1  0.49831392  0.00046337  0.24809205  1
  Mn3.30+  Mn115  1  0.49931461  -0.00183986  0.75128431  1
  Mn3.30+  Mn116  1  0.50052646  0.33455124  0.25099394  1
  Mn3.30+  Mn117  1  0.50017545  0.33536061  0.74999217  1
  Mn3.30+  Mn118  1  0.49762370  0.66547460  0.25052447  1
  Mn3.30+  Mn119  1  0.49746517  0.66473226  0.75323159  1
  Mn3.30+  Mn120  1  0.83307372  0.00094968  0.25058208  1
  Mn3.30+  Mn121  1  0.83348876  0.00101132  0.75104844  1
  Mn3.30+  Mn122  1  0.83328610  0.33398160  0.25063838  1
  Mn3.30+  Mn123  1  0.83634246  0.33484005  0.75025828  1
  Mn3.30+  Mn124  1  0.83259155  0.66397559  0.24964110  1
  Mn3.30+  Mn125  1  0.83304204  0.66552369  0.74986518  1
  Mn3.30+  Mn126  1  -0.00121038  0.16853247  -0.00180442  1
  Mn3.30+  Mn127  1  0.00050826  0.16900066  0.50113819  1
  Mn3.30+  Mn128  1  0.00059225  0.49733521  0.00151404  1
  Mn3.30+  Mn129  1  0.00064664  0.49727433  0.49737656  1
  Mn3.30+  Mn130  1  0.00287169  0.83147282  0.00018784  1
  Mn3.30+  Mn131  1  0.00076570  0.83185037  0.49969317  1
  Mn3.30+  Mn132  1  0.33301831  0.16660616  0.00027420  1
  Mn3.30+  Mn133  1  0.33466156  0.16721237  0.49974905  1
  Mn3.30+  Mn134  1  0.33561843  0.50134779  -0.00116218  1
  Mn3.30+  Mn135  1  0.33308896  0.50179248  0.49655837  1
  Mn3.30+  Mn136  1  0.33546490  0.83210835  -0.00011009  1
  Mn3.30+  Mn137  1  0.33361856  0.83165683  0.49898348  1
  Mn3.30+  Mn138  1  0.66551842  0.17001532  0.00072262  1
  Mn3.30+  Mn139  1  0.66592968  0.16797879  0.49798234  1
  Mn3.30+  Mn140  1  0.66561148  0.50045079  -0.00013433  1
  Mn3.30+  Mn141  1  0.66676151  0.50039710  0.49848916  1
  Mn3.30+  Mn142  1  0.66251079  0.83390536  -0.00026527  1
  Mn3.30+  Mn143  1  0.66509641  0.83250019  0.49921722  1
  O2-  O144  1  0.02422639  0.16132434  0.12384230  1
  O2-  O145  1  0.02641253  0.15611523  0.62476087  1
  O2-  O146  1  0.02625129  0.49619554  0.12652482  1
  O2-  O147  1  0.01909059  0.49954587  0.62219591  1
  O2-  O148  1  0.02923637  0.82475789  0.12550009  1
  O2-  O149  1  0.02725821  0.82483593  0.62683616  1
  O2-  O150  1  0.35943465  0.16425695  0.12493572  1
  O2-  O151  1  0.35996639  0.16113835  0.62486345  1
  O2-  O152  1  0.35823683  0.49402913  0.12641488  1
  O2-  O153  1  0.35161217  0.49914161  0.62335951  1
  O2-  O154  1  0.36212703  0.82473740  0.12442984  1
  O2-  O155  1  0.35776241  0.82551615  0.62737562  1
  O2-  O156  1  0.68387623  0.15983220  0.12601690  1
  O2-  O157  1  0.69308921  0.16074332  0.62275350  1
  O2-  O158  1  0.69056641  0.49507246  0.12614904  1
  O2-  O159  1  0.68574698  0.49969183  0.62439852  1
  O2-  O160  1  0.69062867  0.83150993  0.12510889  1
  O2-  O161  1  0.69059791  0.82646628  0.62394462  1
  O2-  O162  1  0.14781848  0.33153469  0.12624923  1
  O2-  O163  1  0.14019375  0.33142312  0.62333483  1
  O2-  O164  1  0.14337286  0.65985256  0.12675838  1
  O2-  O165  1  0.14450810  0.66638203  0.62426497  1
  O2-  O166  1  0.13994623  0.99651230  0.12470220  1
  O2-  O167  1  0.14074533  0.99030207  0.62795218  1
  O2-  O168  1  0.47227404  0.32921051  0.12585066  1
  O2-  O169  1  0.47459174  0.32783652  0.62223551  1
  O2-  O170  1  0.47453007  0.65635509  0.12569263  1
  O2-  O171  1  0.47487508  0.66613228  0.62540557  1
  O2-  O172  1  0.47410750  0.99488334  0.12374766  1
  O2-  O173  1  0.47359378  0.99144896  0.62733241  1
  O2-  O174  1  0.80885114  0.33692405  0.12588624  1
  O2-  O175  1  0.80949164  0.32997023  0.62423457  1
  O2-  O176  1  0.80494245  0.65672628  0.12635088  1
  O2-  O177  1  0.80851538  0.66672913  0.62143561  1
  O2-  O178  1  0.80870783  0.99384805  0.12554854  1
  O2-  O179  1  0.80842138  0.99254067  0.62508454  1
  O2-  O180  1  0.30780612  0.17043915  0.37600992  1
  O2-  O181  1  0.30732834  0.17473296  0.87333812  1
  O2-  O182  1  0.30563584  0.50333294  0.37396319  1
  O2-  O183  1  0.30840732  0.50169010  0.87635063  1
  O2-  O184  1  0.30855657  0.84423993  0.37103353  1
  O2-  O185  1  0.30439417  0.84029061  0.87740878  1
  O2-  O186  1  0.63647182  0.17618605  0.37572700  1
  O2-  O187  1  0.63935727  0.17616219  0.87589212  1
  O2-  O188  1  0.63907413  0.50329486  0.37404826  1
  O2-  O189  1  0.64109935  0.49866957  0.87616146  1
  O2-  O190  1  0.63873995  0.84056222  0.37430741  1
  O2-  O191  1  0.63969722  0.84102526  0.87654855  1
  O2-  O192  1  0.97856039  0.17131013  0.37837297  1
  O2-  O193  1  0.98377189  0.17387691  0.87246742  1
  O2-  O194  1  0.97183904  0.50613926  0.37395810  1
  O2-  O195  1  0.97589458  0.50801565  0.87758714  1
  O2-  O196  1  0.97368301  0.84015551  0.37290775  1
  O2-  O197  1  0.97263679  0.83656920  0.87543253  1
  O2-  O198  1  0.19366644  0.00810625  0.37267012  1
  O2-  O199  1  0.19433876  0.01064170  0.87397855  1
  O2-  O200  1  0.19251157  0.33005388  0.37529786  1
  O2-  O201  1  0.19229440  0.33602676  0.87464618  1
  O2-  O202  1  0.19479029  0.67539467  0.37216211  1
  O2-  O203  1  0.19336525  0.67008444  0.87698549  1
  O2-  O204  1  0.52247712  0.00561177  0.37468466  1
  O2-  O205  1  0.52564794  0.00867063  0.87445444  1
  O2-  O206  1  0.52457427  0.34240133  0.37512824  1
  O2-  O207  1  0.52225458  0.33616968  0.87695453  1
  O2-  O208  1  0.52694441  0.67437295  0.37232544  1
  O2-  O209  1  0.51949576  0.67388061  0.87729326  1
  O2-  O210  1  0.85988312  0.00666519  0.37541312  1
  O2-  O211  1  0.85931997  0.00179607  0.87348385  1
  O2-  O212  1  0.85754253  0.33276204  0.37619199  1
  O2-  O213  1  0.85725531  0.33991713  0.87422570  1
  O2-  O214  1  0.85927448  0.67652240  0.37345654  1
  O2-  O215  1  0.85869014  0.67295814  0.87852753  1
  O2-  O216  1  0.23809566  0.09809135  0.01907080  1
  O2-  O217  1  0.23751103  0.09373952  0.52236370  1
  O2-  O218  1  0.23878553  0.42946637  0.01886806  1
  O2-  O219  1  0.24175236  0.42469200  0.51564809  1
  O2-  O220  1  0.23993713  0.76275739  0.02396271  1
  O2-  O221  1  0.23866151  0.76385444  0.51823104  1
  O2-  O222  1  0.56873461  0.09617789  0.01871871  1
  O2-  O223  1  0.57306883  0.09323424  0.52296032  1
  O2-  O224  1  0.57218076  0.42679458  0.02024690  1
  O2-  O225  1  0.57669332  0.42386920  0.51901127  1
  O2-  O226  1  0.56937416  0.76039620  0.02330464  1
  O2-  O227  1  0.56975765  0.76069439  0.51976515  1
  O2-  O228  1  0.90969017  0.08938370  0.01808562  1
  O2-  O229  1  0.90530201  0.09529849  0.52061333  1
  O2-  O230  1  0.90369339  0.42988861  0.01691232  1
  O2-  O231  1  0.90767197  0.42611542  0.51534413  1
  O2-  O232  1  0.90456412  0.75773254  0.02372681  1
  O2-  O233  1  0.90533060  0.76141337  0.51985995  1
  O2-  O234  1  0.26139139  0.26159180  0.23129006  1
  O2-  O235  1  0.26048898  0.26392924  0.72699668  1
  O2-  O236  1  0.26272658  0.59328526  0.22771518  1
  O2-  O237  1  0.26292805  0.59618550  0.73409778  1
  O2-  O238  1  0.26315354  0.93171871  0.22548199  1
  O2-  O239  1  0.26299136  0.92711766  0.73011117  1
  O2-  O240  1  0.59440183  0.26380172  0.22800802  1
  O2-  O241  1  0.59391667  0.26037192  0.72785281  1
  O2-  O242  1  0.59705149  0.59586497  0.23012537  1
  O2-  O243  1  0.59464258  0.59652969  0.73278030  1
  O2-  O244  1  0.59541900  0.93221270  0.23216583  1
  O2-  O245  1  0.59474669  0.92845775  0.72849256  1
  O2-  O246  1  0.92432131  0.25689437  0.23706225  1
  O2-  O247  1  0.92897490  0.26027606  0.72595308  1
  O2-  O248  1  0.92959530  0.59321986  0.22933775  1
  O2-  O249  1  0.93089686  0.59692842  0.73479809  1
  O2-  O250  1  0.93005490  0.92457759  0.22764379  1
  O2-  O251  1  0.93009064  0.92498100  0.72933680  1
  O2-  O252  1  0.09630147  0.23685659  0.26493606  1
  O2-  O253  1  0.09906794  0.23592972  0.76381802  1
  O2-  O254  1  0.09463674  0.56914615  0.27165992  1
  O2-  O255  1  0.09440092  0.57338402  0.77145843  1
  O2-  O256  1  0.09829167  0.90757294  0.27059337  1
  O2-  O257  1  0.09500451  0.90234176  0.77499728  1
  O2-  O258  1  0.42968339  0.23884380  0.27210242  1
  O2-  O259  1  0.42725011  0.23863628  0.76908693  1
  O2-  O260  1  0.43154280  0.56759639  0.26955240  1
  O2-  O261  1  0.42955996  0.57004712  0.77186371  1
  O2-  O262  1  0.42845596  0.90579231  0.27145765  1
  O2-  O263  1  0.42785900  0.90027649  0.77286708  1
  O2-  O264  1  0.75765327  0.24189965  0.27308907  1
  O2-  O265  1  0.75903681  0.24334036  0.76606509  1
  O2-  O266  1  0.76306491  0.57105050  0.27323618  1
  O2-  O267  1  0.76182495  0.57334122  0.76925612  1
  O2-  O268  1  0.76072347  0.90704833  0.27089060  1
  O2-  O269  1  0.76081395  0.90644719  0.77050032  1
  O2-  O270  1  0.07179250  0.07050796  0.47975665  1
  O2-  O271  1  0.07260802  0.07215850  0.97936582  1
  O2-  O272  1  0.07182265  0.40379340  0.47668632  1
  O2-  O273  1  0.07349743  0.40584712  0.97567644  1
  O2-  O274  1  0.07279918  0.73806084  0.47782272  1
  O2-  O275  1  0.07095605  0.73697879  0.98151393  1
  O2-  O276  1  0.40338397  0.06914318  0.48372103  1
  O2-  O277  1  0.40617987  0.07107235  0.97728978  1
  O2-  O278  1  0.40351568  0.40516240  0.48237023  1
  O2-  O279  1  0.40272263  0.40266620  0.98317939  1
  O2-  O280  1  0.40401805  0.73710698  0.47714418  1
  O2-  O281  1  0.39921846  0.73290998  0.98224377  1
  O2-  O282  1  0.73621910  0.07521771  0.47672284  1
  O2-  O283  1  0.73362377  0.07405769  0.98269614  1
  O2-  O284  1  0.73839431  0.40509506  0.48285440  1
  O2-  O285  1  0.74060011  0.40947396  0.97818494  1
  O2-  O286  1  0.73893581  0.73934251  0.47656152  1
  O2-  O287  1  0.74058238  0.74317513  0.98522792  1
  O2-  O288  1  0.09808421  0.23532876  0.48440613  1
  O2-  O289  1  0.09695002  0.23750327  0.98536820  1
  O2-  O290  1  0.09392175  0.57101596  0.47555029  1
  O2-  O291  1  0.09479154  0.57129916  0.98164020  1
  O2-  O292  1  0.09567672  0.90511971  0.47781301  1
  O2-  O293  1  0.09893610  0.90534580  0.97824547  1
  O2-  O294  1  0.43057458  0.23846665  0.47791814  1
  O2-  O295  1  0.42692227  0.23825290  0.97980041  1
  O2-  O296  1  0.42986577  0.57102975  0.47723406  1
  O2-  O297  1  0.43120301  0.56701026  0.98188153  1
  O2-  O298  1  0.42779531  0.90288940  0.48064603  1
  O2-  O299  1  0.42954225  0.90247870  0.97545713  1
  O2-  O300  1  0.76191823  0.23952775  0.48002198  1
  O2-  O301  1  0.75473298  0.24587762  0.98057667  1
  O2-  O302  1  0.76143426  0.57263967  0.47484092  1
  O2-  O303  1  0.76317141  0.57171297  0.98202751  1
  O2-  O304  1  0.76025930  0.90610676  0.47842394  1
  O2-  O305  1  0.76139848  0.90740368  0.97979521  1
  O2-  O306  1  0.07261915  0.07265555  0.26994664  1
  O2-  O307  1  0.07154084  0.07014531  0.77054523  1
  O2-  O308  1  0.07203979  0.40343485  0.27429067  1
  O2-  O309  1  0.07321588  0.40616511  0.77316580  1
  O2-  O310  1  0.07174777  0.73832212  0.27126640  1
  O2-  O311  1  0.07155299  0.73596945  0.77018092  1
  O2-  O312  1  0.40480113  0.07120651  0.26852114  1
  O2-  O313  1  0.40494019  0.06988356  0.77051859  1
  O2-  O314  1  0.40242935  0.40270162  0.26848891  1
  O2-  O315  1  0.40389418  0.40482595  0.76537395  1
  O2-  O316  1  0.40269815  0.73506242  0.27180307  1
  O2-  O317  1  0.40127728  0.73442337  0.76991608  1
  O2-  O318  1  0.73661068  0.07660139  0.27283347  1
  O2-  O319  1  0.73418771  0.07258920  0.76748679  1
  O2-  O320  1  0.73922024  0.40668081  0.27189962  1
  O2-  O321  1  0.73976843  0.40816666  0.76854900  1
  O2-  O322  1  0.73624754  0.73947963  0.26892384  1
  O2-  O323  1  0.74223533  0.74306544  0.76857945  1
  O2-  O324  1  0.23670447  0.09756911  0.23003221  1
  O2-  O325  1  0.23932270  0.09567914  0.72697930  1
  O2-  O326  1  0.23988705  0.42761025  0.23092820  1
  O2-  O327  1  0.24022678  0.42726249  0.73456708  1
  O2-  O328  1  0.23851742  0.76507732  0.22781436  1
  O2-  O329  1  0.23881671  0.76045452  0.72963054  1
  O2-  O330  1  0.57094972  0.09386489  0.23013392  1
  O2-  O331  1  0.57156010  0.09608219  0.72861272  1
  O2-  O332  1  0.57181741  0.42742749  0.22992149  1
  O2-  O333  1  0.57693099  0.42361496  0.73235424  1
  O2-  O334  1  0.56749034  0.76272799  0.22719624  1
  O2-  O335  1  0.57204087  0.75877128  0.72960174  1
  O2-  O336  1  0.90855367  0.09104319  0.23305200  1
  O2-  O337  1  0.90707082  0.09343573  0.72736034  1
  O2-  O338  1  0.90494651  0.42797229  0.23315647  1
  O2-  O339  1  0.90659608  0.42851381  0.73553389  1
  O2-  O340  1  0.90229974  0.75825732  0.22669151  1
  O2-  O341  1  0.90674194  0.76070077  0.72987141  1
  O2-  O342  1  0.26030065  0.26342305  0.01950162  1
  O2-  O343  1  0.26201463  0.26152246  0.52148193  1
  O2-  O344  1  0.26199885  0.59245447  0.02281002  1
  O2-  O345  1  0.26420356  0.59727673  0.51569271  1
  O2-  O346  1  0.26642185  0.93036823  0.02213505  1
  O2-  O347  1  0.26186992  0.92791227  0.52050220  1
  O2-  O348  1  0.59183387  0.26271583  0.02266479  1
  O2-  O349  1  0.59648632  0.26113609  0.52283912  1
  O2-  O350  1  0.59392504  0.59389148  0.02279864  1
  O2-  O351  1  0.59802753  0.59870329  0.51467758  1
  O2-  O352  1  0.59588252  0.93259333  0.01869150  1
  O2-  O353  1  0.59399292  0.92829840  0.52087901  1
  O2-  O354  1  0.92505553  0.25847753  0.01330167  1
  O2-  O355  1  0.92839544  0.25950313  0.52434969  1
  O2-  O356  1  0.92869125  0.59281926  0.02242046  1
  O2-  O357  1  0.93127476  0.59844621  0.51469535  1
  O2-  O358  1  0.93133196  0.92351994  0.02131883  1
  O2-  O359  1  0.92996514  0.92550201  0.52091313  1
