# generated using pymatgen
data_Sr7Ca15Pr50Mn72O216
_symmetry_space_group_name_H-M   'P 1'
_cell_length_a   16.55592770
_cell_length_b   16.60244587
_cell_length_c   15.59062166
_cell_angle_alpha   90.00129777
_cell_angle_beta   89.99782733
_cell_angle_gamma   89.99410029
_symmetry_Int_Tables_number   1
_chemical_formula_structural   Sr7Ca15Pr50Mn72O216
_chemical_formula_sum   'Sr7 Ca15 Pr50 Mn72 O216'
_cell_volume   4285.37689591
_cell_formula_units_Z   1
loop_
 _symmetry_equiv_pos_site_id
 _symmetry_equiv_pos_as_xyz
  1  'x, y, z'
loop_
 _atom_type_symbol
 _atom_type_oxidation_number
  Sr2+  2.0
  Ca2+  2.0
  Pr3+  3.0
  Mn3.30+  3.3
  O2-  -2.0
loop_
 _atom_site_type_symbol
 _atom_site_label
 _atom_site_symmetry_multiplicity
 _atom_site_fract_x
 _atom_site_fract_y
 _atom_site_fract_z
 _atom_site_occupancy
  Sr2+  Sr0  1  0.66785812  0.67791190  0.12452717  1
  Sr2+  Sr1  1  -0.00068438  0.34307955  0.62725917  1
  Sr2+  Sr2  1  0.83101341  0.15723307  0.37248894  1
  Sr2+  Sr3  1  0.66647336  0.67650314  0.62523010  1
  Sr2+  Sr4  1  0.49944070  0.17673180  0.62704483  1
  Sr2+  Sr5  1  -0.00149613  0.34091865  0.12272390  1
  Sr2+  Sr6  1  -0.00232024  0.67564243  0.62574537  1
  Ca2+  Ca7  1  0.33631689  0.31791213  0.37630664  1
  Ca2+  Ca8  1  0.67264137  0.98782244  0.37479958  1
  Ca2+  Ca9  1  0.66993292  0.31880631  0.87413565  1
  Ca2+  Ca10  1  1.00304981  0.65095783  0.37682519  1
  Ca2+  Ca11  1  0.32742424  0.68131724  0.62556373  1
  Ca2+  Ca12  1  0.83674562  0.84926468  0.12462402  1
  Ca2+  Ca13  1  0.32823925  0.01634128  0.12201727  1
  Ca2+  Ca14  1  0.33556367  0.31756366  0.87412369  1
  Ca2+  Ca15  1  1.00427582  0.98781157  0.87593270  1
  Ca2+  Ca16  1  0.16283128  0.15109232  0.87515068  1
  Ca2+  Ca17  1  1.00396299  0.65195323  0.87346703  1
  Ca2+  Ca18  1  0.83895770  0.18335587  0.12336660  1
  Ca2+  Ca19  1  0.32866289  0.34597261  0.62692021  1
  Ca2+  Ca20  1  0.33482303  0.98797405  0.87555690  1
  Ca2+  Ca21  1  1.00627726  0.31682349  0.87541257  1
  Pr3+  Pr22  1  0.66956365  0.65446721  0.37486688  1
  Pr3+  Pr23  1  0.17089729  0.85073613  0.12456797  1
  Pr3+  Pr24  1  0.66924540  0.65478020  0.87473632  1
  Pr3+  Pr25  1  0.49873775  0.17720909  0.12320812  1
  Pr3+  Pr26  1  0.83498320  0.82227476  0.87764707  1
  Pr3+  Pr27  1  0.49864550  0.15525579  0.37527090  1
  Pr3+  Pr28  1  0.33082971  0.01390930  0.62726952  1
  Pr3+  Pr29  1  -0.00548524  0.01518265  0.12210217  1
  Pr3+  Pr30  1  0.16179506  0.48571220  0.87427601  1
  Pr3+  Pr31  1  0.17044117  0.51475564  0.62608272  1
  Pr3+  Pr32  1  0.66854147  0.98935956  0.87507444  1
  Pr3+  Pr33  1  0.33610404  0.65317456  0.37651905  1
  Pr3+  Pr34  1  0.66694632  0.34211432  0.12316713  1
  Pr3+  Pr35  1  0.83416428  0.15832208  0.87714415  1
  Pr3+  Pr36  1  0.32904112  0.68004545  0.12431954  1
  Pr3+  Pr37  1  0.33643643  0.98905496  0.37416247  1
  Pr3+  Pr38  1  0.16576454  0.51231942  0.12398966  1
  Pr3+  Pr39  1  0.49500241  0.48348046  0.37471059  1
  Pr3+  Pr40  1  0.50267507  0.84681175  0.12450341  1
  Pr3+  Pr41  1  0.66125176  0.34308526  0.62645805  1
  Pr3+  Pr42  1  0.83347640  0.48692781  0.87333052  1
  Pr3+  Pr43  1  0.49623936  0.48421311  0.87515157  1
  Pr3+  Pr44  1  0.83800966  0.51061498  0.12453377  1
  Pr3+  Pr45  1  0.66951320  0.32043762  0.37521752  1
  Pr3+  Pr46  1  0.50088598  0.82083703  0.37445547  1
  Pr3+  Pr47  1  0.17246181  0.18265093  0.62772616  1
  Pr3+  Pr48  1  0.16072643  0.81768620  0.37498463  1
  Pr3+  Pr49  1  0.49543428  0.15252428  0.87439336  1
  Pr3+  Pr50  1  0.66877086  0.01197526  0.12485236  1
  Pr3+  Pr51  1  0.16973041  0.17905506  0.12244338  1
  Pr3+  Pr52  1  0.83708332  0.51383627  0.62534753  1
  Pr3+  Pr53  1  0.33541840  0.65418015  0.87342971  1
  Pr3+  Pr54  1  0.16347196  0.48619587  0.37619118  1
  Pr3+  Pr55  1  0.49605549  0.82120209  0.87508318  1
  Pr3+  Pr56  1  0.83617230  0.17913528  0.62582941  1
  Pr3+  Pr57  1  0.66333567  0.01281890  0.62505991  1
  Pr3+  Pr58  1  0.50213844  0.84387322  0.62487113  1
  Pr3+  Pr59  1  -0.00702517  0.68093873  0.12444664  1
  Pr3+  Pr60  1  -0.00137583  0.01161925  0.62796343  1
  Pr3+  Pr61  1  0.32786943  0.34570103  0.12359842  1
  Pr3+  Pr62  1  0.83673128  0.84570170  0.62593794  1
  Pr3+  Pr63  1  0.16936358  0.84475668  0.62587545  1
  Pr3+  Pr64  1  1.00158500  0.31955280  0.37556295  1
  Pr3+  Pr65  1  0.16251332  0.82150387  0.87527187  1
  Pr3+  Pr66  1  0.16391299  0.15564832  0.37506697  1
  Pr3+  Pr67  1  0.83381722  0.48961714  0.37648063  1
  Pr3+  Pr68  1  1.00209235  0.98877316  0.37428346  1
  Pr3+  Pr69  1  0.83082672  0.82347182  0.37331310  1
  Pr3+  Pr70  1  0.50355556  0.51179707  0.12426425  1
  Pr3+  Pr71  1  0.49967299  0.51039473  0.62558188  1
  Mn3.30+  Mn72  1  0.16690589  0.00184212  -0.00256483  1
  Mn3.30+  Mn73  1  0.16736884  0.00010526  0.50038267  1
  Mn3.30+  Mn74  1  0.16649889  0.33123536  -0.00347603  1
  Mn3.30+  Mn75  1  0.16943359  0.33413424  0.50108492  1
  Mn3.30+  Mn76  1  0.16358387  0.66730833  -0.00045304  1
  Mn3.30+  Mn77  1  0.16689281  0.66655787  0.50058941  1
  Mn3.30+  Mn78  1  0.49645662  0.00004399  0.00160081  1
  Mn3.30+  Mn79  1  0.50206453  0.00017944  0.49805219  1
  Mn3.30+  Mn80  1  0.49898720  0.33130720  -0.00251090  1
  Mn3.30+  Mn81  1  0.49584114  0.33164166  0.50220016  1
  Mn3.30+  Mn82  1  0.50019806  0.66643545  0.00004044  1
  Mn3.30+  Mn83  1  0.49892700  0.66565155  0.50161182  1
  Mn3.30+  Mn84  1  0.83583471  0.00114583  -0.00096767  1
  Mn3.30+  Mn85  1  0.83241477  0.00100745  0.49947497  1
  Mn3.30+  Mn86  1  0.83519811  0.33279316  -0.00298134  1
  Mn3.30+  Mn87  1  0.83267251  0.33362641  0.50167410  1
  Mn3.30+  Mn88  1  0.83529473  0.66756794  -0.00059959  1
  Mn3.30+  Mn89  1  0.83541555  0.66843717  0.49874496  1
  Mn3.30+  Mn90  1  -0.00185745  0.16652270  0.24913468  1
  Mn3.30+  Mn91  1  0.00307254  0.16677681  0.75216797  1
  Mn3.30+  Mn92  1  0.00033093  0.49979124  0.25043789  1
  Mn3.30+  Mn93  1  0.00066089  0.49892050  0.75084350  1
  Mn3.30+  Mn94  1  -0.00111959  0.83335324  0.24898424  1
  Mn3.30+  Mn95  1  0.00117811  0.83286188  0.75146465  1
  Mn3.30+  Mn96  1  0.33304408  0.16662941  0.24986244  1
  Mn3.30+  Mn97  1  0.33124363  0.16840439  0.75296489  1
  Mn3.30+  Mn98  1  0.33253242  0.49878871  0.24995664  1
  Mn3.30+  Mn99  1  0.33237916  0.49781883  0.75018591  1
  Mn3.30+  Mn100  1  0.33282491  0.83523553  0.24994388  1
  Mn3.30+  Mn101  1  0.33273377  0.83404344  0.75034557  1
  Mn3.30+  Mn102  1  0.66822876  0.16562316  0.24747596  1
  Mn3.30+  Mn103  1  0.66602029  0.16791848  0.75255924  1
  Mn3.30+  Mn104  1  0.66655777  0.49953788  0.24954911  1
  Mn3.30+  Mn105  1  0.66592975  0.49838451  0.75108186  1
  Mn3.30+  Mn106  1  0.66839392  0.83540121  0.24789100  1
  Mn3.30+  Mn107  1  0.66736900  0.83275890  0.75080571  1
  Mn3.30+  Mn108  1  0.16794859  0.00121585  0.24864582  1
  Mn3.30+  Mn109  1  0.16631450  0.00095640  0.75345789  1
  Mn3.30+  Mn110  1  0.16774277  0.33302362  0.25043634  1
  Mn3.30+  Mn111  1  0.16808798  0.33272871  0.75239152  1
  Mn3.30+  Mn112  1  0.16372951  0.66650280  0.24989949  1
  Mn3.30+  Mn113  1  0.16693299  0.66734513  0.75005999  1
  Mn3.30+  Mn114  1  0.50100840  0.00082647  0.24929150  1
  Mn3.30+  Mn115  1  0.49815016  -0.00077897  0.75116009  1
  Mn3.30+  Mn116  1  0.49777720  0.33141447  0.24872516  1
  Mn3.30+  Mn117  1  0.49700765  0.33156701  0.75114112  1
  Mn3.30+  Mn118  1  0.50050524  0.66624458  0.24958848  1
  Mn3.30+  Mn119  1  0.49840251  0.66574578  0.74811481  1
  Mn3.30+  Mn120  1  0.83305703  0.00118410  0.24884677  1
  Mn3.30+  Mn121  1  0.83526642  0.00089529  0.75290712  1
  Mn3.30+  Mn122  1  0.83383276  0.33316121  0.24889918  1
  Mn3.30+  Mn123  1  0.83381770  0.33293529  0.75205116  1
  Mn3.30+  Mn124  1  0.83499156  0.66844150  0.25032455  1
  Mn3.30+  Mn125  1  0.83603559  0.66752349  0.75169245  1
  Mn3.30+  Mn126  1  0.00109068  0.16712015  -0.00247425  1
  Mn3.30+  Mn127  1  0.00022355  0.16612473  0.50126524  1
  Mn3.30+  Mn128  1  0.00017928  0.49860071  -0.00198056  1
  Mn3.30+  Mn129  1  0.00078598  0.49997095  0.50115485  1
  Mn3.30+  Mn130  1  0.00023711  0.83449682  -0.00011466  1
  Mn3.30+  Mn131  1  0.00000066  0.83144764  0.49991775  1
  Mn3.30+  Mn132  1  0.33118654  0.16533445  -0.00374415  1
  Mn3.30+  Mn133  1  0.33335169  0.16941848  0.50104875  1
  Mn3.30+  Mn134  1  0.33238862  0.49888509  -0.00110059  1
  Mn3.30+  Mn135  1  0.33280904  0.49790636  0.50102864  1
  Mn3.30+  Mn136  1  0.33201077  0.83695589  0.00024874  1
  Mn3.30+  Mn137  1  0.33324311  0.83278336  0.49945097  1
  Mn3.30+  Mn138  1  0.66766073  0.16779879  0.00004958  1
  Mn3.30+  Mn139  1  0.66630660  0.16573951  0.49977779  1
  Mn3.30+  Mn140  1  0.66745122  0.49806772  -0.00162458  1
  Mn3.30+  Mn141  1  0.66489820  0.49981652  0.50056165  1
  Mn3.30+  Mn142  1  0.66801365  0.83388520  0.00135115  1
  Mn3.30+  Mn143  1  0.66767165  0.83420107  0.49976548  1
  O2-  O144  1  0.02533670  0.16307491  0.12293273  1
  O2-  O145  1  0.02684759  0.16023529  0.62808113  1
  O2-  O146  1  0.02180505  0.49588272  0.12389768  1
  O2-  O147  1  0.02449961  0.49743614  0.62599801  1
  O2-  O148  1  0.02758638  0.82711724  0.12549279  1
  O2-  O149  1  0.02481655  0.83127542  0.62541866  1
  O2-  O150  1  0.35515480  0.16019577  0.12191020  1
  O2-  O151  1  0.35141648  0.15929658  0.62665963  1
  O2-  O152  1  0.35914546  0.49394754  0.12412481  1
  O2-  O153  1  0.35756415  0.48915221  0.62592700  1
  O2-  O154  1  0.35791371  0.82573434  0.12578841  1
  O2-  O155  1  0.35778421  0.82735638  0.62195102  1
  O2-  O156  1  0.69562403  0.16128946  0.12319807  1
  O2-  O157  1  0.69139736  0.16156800  0.62877664  1
  O2-  O158  1  0.69306306  0.49116627  0.12237091  1
  O2-  O159  1  0.69171981  0.49161482  0.62698422  1
  O2-  O160  1  0.69384881  0.83276880  0.12338934  1
  O2-  O161  1  0.69270952  0.83139591  0.62768289  1
  O2-  O162  1  0.14830369  0.32850989  0.12258437  1
  O2-  O163  1  0.14738480  0.33027139  0.62674899  1
  O2-  O164  1  0.13802672  0.66163445  0.12623503  1
  O2-  O165  1  0.14719723  0.66454137  0.62666077  1
  O2-  O166  1  0.14010650  0.99841719  0.12497983  1
  O2-  O167  1  0.14313653  0.99401604  0.62603640  1
  O2-  O168  1  0.47092715  0.32659073  0.12338858  1
  O2-  O169  1  0.47165723  0.33190514  0.62659790  1
  O2-  O170  1  0.47322498  0.66063788  0.12557057  1
  O2-  O171  1  0.47009706  0.66000245  0.62534079  1
  O2-  O172  1  0.46983461  0.99481603  0.12505861  1
  O2-  O173  1  0.47531519  0.99295487  0.62496735  1
  O2-  O174  1  0.81137518  0.33277597  0.12278701  1
  O2-  O175  1  0.80620738  0.32798891  0.62696329  1
  O2-  O176  1  0.81552569  0.65713848  0.12435888  1
  O2-  O177  1  0.81537442  0.66373187  0.62532231  1
  O2-  O178  1  0.81146572  0.99262592  0.12254901  1
  O2-  O179  1  0.80757305  0.99395476  0.62790255  1
  O2-  O180  1  0.30787074  0.17159140  0.37718877  1
  O2-  O181  1  0.30493433  0.17443600  0.87458016  1
  O2-  O182  1  0.30704418  0.50785595  0.37466214  1
  O2-  O183  1  0.30651062  0.50912897  0.87534999  1
  O2-  O184  1  0.30612475  0.84100202  0.37396158  1
  O2-  O185  1  0.30790570  0.84019887  0.87806656  1
  O2-  O186  1  0.64189677  0.17413249  0.37121928  1
  O2-  O187  1  0.64005051  0.17078321  0.87673144  1
  O2-  O188  1  0.63992893  0.50453574  0.37541094  1
  O2-  O189  1  0.64012024  0.50753530  0.87455001  1
  O2-  O190  1  0.64380036  0.84122522  0.37220003  1
  O2-  O191  1  0.64039260  0.83926451  0.87620954  1
  O2-  O192  1  0.98274221  0.16894095  0.37491561  1
  O2-  O193  1  0.97689272  0.17266606  0.87400031  1
  O2-  O194  1  0.97859207  0.50393577  0.37610134  1
  O2-  O195  1  0.97760385  0.50790499  0.87464943  1
  O2-  O196  1  0.97539984  0.84310615  0.37342535  1
  O2-  O197  1  0.97821811  0.84388149  0.87595792  1
  O2-  O198  1  0.19165130  0.00611036  0.37419965  1
  O2-  O199  1  0.19367513  0.00216526  0.87521980  1
  O2-  O200  1  0.19403118  0.33773630  0.37599119  1
  O2-  O201  1  0.19604541  0.34149354  0.87517114  1
  O2-  O202  1  0.19261659  0.67065785  0.37348678  1
  O2-  O203  1  0.19259523  0.67222414  0.87430026  1
  O2-  O204  1  0.52927243  0.00724143  0.37250666  1
  O2-  O205  1  0.52395595  0.00185342  0.87727431  1
  O2-  O206  1  0.52562445  0.33568839  0.37324105  1
  O2-  O207  1  0.52824963  0.33777089  0.87633060  1
  O2-  O208  1  0.52483365  0.67069302  0.37395480  1
  O2-  O209  1  0.52376366  0.67219096  0.87418290  1
  O2-  O210  1  0.85898566  0.00228908  0.37449559  1
  O2-  O211  1  0.86260714  0.00970304  0.87585096  1
  O2-  O212  1  0.85626949  0.34039593  0.37652671  1
  O2-  O213  1  0.86257877  0.33868931  0.87353163  1
  O2-  O214  1  0.86177863  0.67547199  0.37402341  1
  O2-  O215  1  0.86191143  0.67369176  0.87635926  1
  O2-  O216  1  0.23565199  0.09561363  0.01842093  1
  O2-  O217  1  0.23946082  0.09606987  0.51925067  1
  O2-  O218  1  0.23834174  0.42918645  0.02050103  1
  O2-  O219  1  0.23569197  0.43215296  0.51764346  1
  O2-  O220  1  0.23774100  0.76314115  0.02085318  1
  O2-  O221  1  0.23550322  0.76316224  0.51532148  1
  O2-  O222  1  0.57084082  0.09189755  0.02082200  1
  O2-  O223  1  0.57383373  0.09246521  0.51908025  1
  O2-  O224  1  0.57121400  0.42539363  0.02183752  1
  O2-  O225  1  0.56830057  0.42482551  0.52039345  1
  O2-  O226  1  0.56927703  0.76225425  0.01735253  1
  O2-  O227  1  0.57020106  0.76221550  0.51584342  1
  O2-  O228  1  0.90407927  0.09661879  0.02125119  1
  O2-  O229  1  0.90588905  0.09043707  0.52426154  1
  O2-  O230  1  0.90163533  0.43179682  0.01400456  1
  O2-  O231  1  0.90166495  0.42904538  0.51753848  1
  O2-  O232  1  0.90441164  0.76435105  0.02122921  1
  O2-  O233  1  0.90229740  0.76580380  0.51655294  1
  O2-  O234  1  0.26164468  0.26023716  0.22898954  1
  O2-  O235  1  0.26252955  0.26315219  0.72829066  1
  O2-  O236  1  0.26013421  0.59610753  0.22790475  1
  O2-  O237  1  0.26419021  0.59629584  0.72969462  1
  O2-  O238  1  0.26188464  0.93250678  0.22771994  1
  O2-  O239  1  0.26093179  0.92776778  0.72769135  1
  O2-  O240  1  0.59288470  0.25980576  0.22622025  1
  O2-  O241  1  0.59467331  0.26141704  0.73202399  1
  O2-  O242  1  0.59225498  0.59089115  0.23028035  1
  O2-  O243  1  0.59029098  0.59133771  0.73118525  1
  O2-  O244  1  0.59279883  0.92768830  0.22404417  1
  O2-  O245  1  0.59500508  0.92602800  0.73058806  1
  O2-  O246  1  0.92587070  0.26228214  0.23758596  1
  O2-  O247  1  0.92402616  0.25616425  0.73076541  1
  O2-  O248  1  0.92846323  0.59447371  0.23122514  1
  O2-  O249  1  0.92372935  0.59080198  0.73288547  1
  O2-  O250  1  0.93211300  0.93075177  0.23187423  1
  O2-  O251  1  0.92775419  0.92647239  0.72899482  1
  O2-  O252  1  0.09456788  0.23910568  0.26936014  1
  O2-  O253  1  0.09984307  0.23555027  0.76875696  1
  O2-  O254  1  0.09787943  0.56954915  0.26761002  1
  O2-  O255  1  0.09828011  0.57138838  0.76712135  1
  O2-  O256  1  0.09743396  0.90477626  0.26885433  1
  O2-  O257  1  0.09790718  0.90320061  0.76671158  1
  O2-  O258  1  0.43034541  0.23572755  0.26654472  1
  O2-  O259  1  0.42831524  0.23756174  0.77333228  1
  O2-  O260  1  0.42631951  0.56978072  0.27028517  1
  O2-  O261  1  0.42775757  0.57016682  0.77140881  1
  O2-  O262  1  0.43095303  0.90752946  0.27275318  1
  O2-  O263  1  0.42845518  0.90273484  0.76680928  1
  O2-  O264  1  0.75575840  0.24454248  0.26647820  1
  O2-  O265  1  0.76210646  0.23823172  0.77024021  1
  O2-  O266  1  0.76313671  0.57589270  0.27258282  1
  O2-  O267  1  0.76005821  0.57498918  0.77080658  1
  O2-  O268  1  0.76289260  0.90695250  0.26761682  1
  O2-  O269  1  0.76350155  0.90887689  0.77461339  1
  O2-  O270  1  0.07389100  0.07072510  0.48110576  1
  O2-  O271  1  0.06890575  0.06822328  0.98106832  1
  O2-  O272  1  0.07379413  0.40495023  0.47828337  1
  O2-  O273  1  0.07313154  0.40415108  0.97705213  1
  O2-  O274  1  0.07028696  0.73961887  0.47657846  1
  O2-  O275  1  0.06953685  0.73739271  0.97827064  1
  O2-  O276  1  0.40558600  0.07288453  0.47974646  1
  O2-  O277  1  0.40408579  0.07244120  0.97537166  1
  O2-  O278  1  0.40486542  0.40522278  0.47476654  1
  O2-  O279  1  0.40553603  0.40263812  0.97803359  1
  O2-  O280  1  0.40618026  0.74009364  0.47582381  1
  O2-  O281  1  0.40280031  0.73875037  0.98049130  1
  O2-  O282  1  0.73704310  0.06898847  0.48411597  1
  O2-  O283  1  0.73834147  0.07359439  0.97820400  1
  O2-  O284  1  0.73757842  0.40719744  0.47978870  1
  O2-  O285  1  0.73770270  0.40526463  0.97632683  1
  O2-  O286  1  0.73924975  0.74100892  0.47681708  1
  O2-  O287  1  0.74038186  0.74012243  0.97670253  1
  O2-  O288  1  0.09690252  0.24063599  0.48175689  1
  O2-  O289  1  0.09865691  0.23523397  0.98026943  1
  O2-  O290  1  0.09898272  0.57119430  0.48372628  1
  O2-  O291  1  0.09600363  0.56867387  0.98327741  1
  O2-  O292  1  0.09436196  0.90431012  0.47957306  1
  O2-  O293  1  0.09962247  0.90296679  0.98481275  1
  O2-  O294  1  0.42828737  0.23768983  0.47894311  1
  O2-  O295  1  0.42944137  0.23498690  0.98110108  1
  O2-  O296  1  0.42749197  0.56930149  0.47857225  1
  O2-  O297  1  0.42685236  0.57114774  0.97971700  1
  O2-  O298  1  0.42918580  0.90690925  0.47707040  1
  O2-  O299  1  0.43014996  0.90244037  0.98292453  1
  O2-  O300  1  0.75725286  0.24119481  0.48321361  1
  O2-  O301  1  0.76132673  0.24202653  0.97913701  1
  O2-  O302  1  0.76081004  0.57644919  0.47917746  1
  O2-  O303  1  0.76138430  0.57312123  0.97755804  1
  O2-  O304  1  0.76469130  0.90492035  0.48293440  1
  O2-  O305  1  0.76056260  0.91023321  0.97545165  1
  O2-  O306  1  0.07303116  0.07069119  0.26885931  1
  O2-  O307  1  0.06979122  0.06731780  0.76941231  1
  O2-  O308  1  0.07337247  0.40538988  0.27242511  1
  O2-  O309  1  0.07326546  0.40352597  0.77375362  1
  O2-  O310  1  0.06857574  0.73660697  0.27276016  1
  O2-  O311  1  0.07222182  0.73971705  0.77375643  1
  O2-  O312  1  0.40711397  0.07391657  0.27318623  1
  O2-  O313  1  0.40315695  0.07199843  0.77063989  1
  O2-  O314  1  0.40441716  0.40209532  0.27100631  1
  O2-  O315  1  0.40552599  0.40562970  0.77635544  1
  O2-  O316  1  0.40536479  0.73792478  0.27072684  1
  O2-  O317  1  0.40519653  0.73919754  0.77220944  1
  O2-  O318  1  0.73458728  0.06898177  0.26625794  1
  O2-  O319  1  0.74024829  0.07400861  0.77246018  1
  O2-  O320  1  0.73868480  0.40712466  0.27025677  1
  O2-  O321  1  0.73791897  0.40469728  0.77323667  1
  O2-  O322  1  0.73965495  0.74013626  0.27248594  1
  O2-  O323  1  0.74062319  0.74125550  0.77421243  1
  O2-  O324  1  0.23588220  0.09742518  0.23351720  1
  O2-  O325  1  0.23748022  0.09414393  0.72972855  1
  O2-  O326  1  0.23838428  0.42953430  0.22869527  1
  O2-  O327  1  0.23574049  0.43176539  0.73316435  1
  O2-  O328  1  0.23447873  0.76081361  0.22958701  1
  O2-  O329  1  0.23753651  0.76426489  0.73367362  1
  O2-  O330  1  0.57173519  0.09448314  0.22505674  1
  O2-  O331  1  0.57527487  0.09034395  0.73536389  1
  O2-  O332  1  0.56893634  0.42334590  0.22776330  1
  O2-  O333  1  0.56923124  0.42571333  0.72963138  1
  O2-  O334  1  0.57119314  0.76405544  0.23286828  1
  O2-  O335  1  0.56809112  0.76041644  0.73200986  1
  O2-  O336  1  0.90510318  0.09438302  0.22627547  1
  O2-  O337  1  0.90532582  0.09352917  0.72869402  1
  O2-  O338  1  0.90202186  0.43099427  0.23603698  1
  O2-  O339  1  0.90039035  0.42939640  0.73221037  1
  O2-  O340  1  0.90345219  0.76433403  0.22659932  1
  O2-  O341  1  0.90342492  0.76520550  0.73518352  1
  O2-  O342  1  0.26226226  0.26053650  0.02091994  1
  O2-  O343  1  0.26195228  0.26250777  0.52257535  1
  O2-  O344  1  0.25943196  0.59654598  0.02137630  1
  O2-  O345  1  0.26550619  0.59548298  0.52074968  1
  O2-  O346  1  0.26177107  0.92953493  0.02433850  1
  O2-  O347  1  0.26219410  0.92924299  0.52027208  1
  O2-  O348  1  0.59212983  0.25834745  0.02445449  1
  O2-  O349  1  0.59406673  0.26280020  0.51718463  1
  O2-  O350  1  0.59332794  0.59009287  0.01800550  1
  O2-  O351  1  0.59139764  0.59102500  0.51931965  1
  O2-  O352  1  0.59399389  0.92802776  0.02139426  1
  O2-  O353  1  0.59442679  0.92507149  0.52253690  1
  O2-  O354  1  0.92631144  0.25907113  0.01414422  1
  O2-  O355  1  0.92434531  0.25886791  0.51710637  1
  O2-  O356  1  0.92820032  0.59384114  0.01988253  1
  O2-  O357  1  0.92421915  0.59157268  0.51592687  1
  O2-  O358  1  0.93028294  0.92775193  0.01934288  1
  O2-  O359  1  0.92905183  0.92827195  0.52055575  1
