# generated using pymatgen
data_Sr7Ca15Pr50Mn72O216
_symmetry_space_group_name_H-M   'P 1'
_cell_length_a   16.55607240
_cell_length_b   16.60239797
_cell_length_c   15.58951148
_cell_angle_alpha   90.00453880
_cell_angle_beta   90.00308921
_cell_angle_gamma   89.99760467
_symmetry_Int_Tables_number   1
_chemical_formula_structural   Sr7Ca15Pr50Mn72O216
_chemical_formula_sum   'Sr7 Ca15 Pr50 Mn72 O216'
_cell_volume   4285.09683489
_cell_formula_units_Z   1
loop_
 _symmetry_equiv_pos_site_id
 _symmetry_equiv_pos_as_xyz
  1  'x, y, z'
loop_
 _atom_type_symbol
 _atom_type_oxidation_number
  Sr2+  2.0
  Ca2+  2.0
  Pr3+  3.0
  Mn3.30+  3.3
  O2-  -2.0
loop_
 _atom_site_type_symbol
 _atom_site_label
 _atom_site_symmetry_multiplicity
 _atom_site_fract_x
 _atom_site_fract_y
 _atom_site_fract_z
 _atom_site_occupancy
  Sr2+  Sr0  1  -0.00111169  0.00684585  0.12490539  1
  Sr2+  Sr1  1  0.66832784  0.65644089  0.37618219  1
  Sr2+  Sr2  1  0.83076086  0.15746662  0.37251499  1
  Sr2+  Sr3  1  -0.00046062  0.34395687  0.12533303  1
  Sr2+  Sr4  1  0.33249034  0.67312799  0.12467808  1
  Sr2+  Sr5  1  0.16885469  0.17647940  0.62354785  1
  Sr2+  Sr6  1  0.33291454  0.32209584  0.37457886  1
  Ca2+  Ca7  1  0.66379693  0.01727114  0.12638491  1
  Ca2+  Ca8  1  0.50200823  0.51438977  0.12712577  1
  Ca2+  Ca9  1  0.16790386  0.51379425  0.62521799  1
  Ca2+  Ca10  1  0.50480363  0.51717279  0.62385323  1
  Ca2+  Ca11  1  0.83664980  0.84684910  0.12673768  1
  Ca2+  Ca12  1  0.49866307  0.81727833  0.37454609  1
  Ca2+  Ca13  1  0.16893242  0.51481959  0.12522433  1
  Ca2+  Ca14  1  0.16280620  0.15345794  0.37408159  1
  Ca2+  Ca15  1  0.50194207  0.18198410  0.12660850  1
  Ca2+  Ca16  1  1.00560788  0.65185430  0.87302533  1
  Ca2+  Ca17  1  -0.00198269  0.67992591  0.62687974  1
  Ca2+  Ca18  1  0.82892922  0.48767037  0.37399092  1
  Ca2+  Ca19  1  0.33540072  0.31814385  0.87536353  1
  Ca2+  Ca20  1  0.66286741  0.68059316  0.62340659  1
  Ca2+  Ca21  1  0.16046704  0.81339457  0.87638821  1
  Pr3+  Pr22  1  0.83297728  0.81937466  0.87705418  1
  Pr3+  Pr23  1  0.50052435  0.18030955  0.62386383  1
  Pr3+  Pr24  1  0.83755673  0.18100491  0.62368692  1
  Pr3+  Pr25  1  0.16638035  0.15568096  0.87523220  1
  Pr3+  Pr26  1  0.83070259  0.15335706  0.87774730  1
  Pr3+  Pr27  1  0.16403325  0.81920012  0.37462231  1
  Pr3+  Pr28  1  0.66785048  0.32111421  0.87532193  1
  Pr3+  Pr29  1  0.50487276  0.84364812  0.62370569  1
  Pr3+  Pr30  1  0.33581446  0.98611492  0.87492711  1
  Pr3+  Pr31  1  -0.00242342  0.67725179  0.12399068  1
  Pr3+  Pr32  1  0.49633509  0.15557734  0.37264566  1
  Pr3+  Pr33  1  0.32908243  0.34734508  0.12508879  1
  Pr3+  Pr34  1  1.00314603  0.32190368  0.87644901  1
  Pr3+  Pr35  1  0.16470806  0.48899194  0.87553154  1
  Pr3+  Pr36  1  0.33658885  0.98628016  0.37508447  1
  Pr3+  Pr37  1  0.33168997  0.67661021  0.62520318  1
  Pr3+  Pr38  1  0.66366422  0.67789553  0.12576250  1
  Pr3+  Pr39  1  0.66919158  0.32374630  0.37417755  1
  Pr3+  Pr40  1  0.66973549  0.65318007  0.87332686  1
  Pr3+  Pr41  1  0.83496151  0.84263297  0.62360031  1
  Pr3+  Pr42  1  0.32649965  0.34764022  0.62501402  1
  Pr3+  Pr43  1  0.67080343  0.98870375  0.37239237  1
  Pr3+  Pr44  1  0.66485848  0.01311874  0.62415640  1
  Pr3+  Pr45  1  0.83691453  0.51705671  0.62360606  1
  Pr3+  Pr46  1  0.50321918  0.84526340  0.12668723  1
  Pr3+  Pr47  1  1.00501111  0.98360700  0.87679152  1
  Pr3+  Pr48  1  0.33030813  0.01239548  0.12518142  1
  Pr3+  Pr49  1  0.49536509  0.15459814  0.87706057  1
  Pr3+  Pr50  1  0.67042887  0.98746849  0.87727783  1
  Pr3+  Pr51  1  1.00090840  0.65322445  0.37709299  1
  Pr3+  Pr52  1  0.17196367  0.84299306  0.12376793  1
  Pr3+  Pr53  1  0.66094746  0.34806326  0.12593927  1
  Pr3+  Pr54  1  0.83404354  0.48930556  0.87510366  1
  Pr3+  Pr55  1  0.16585421  0.48864146  0.37459817  1
  Pr3+  Pr56  1  0.83116870  0.82195418  0.37255866  1
  Pr3+  Pr57  1  0.33297910  0.65399386  0.87575558  1
  Pr3+  Pr58  1  0.33824474  0.65489168  0.37457650  1
  Pr3+  Pr59  1  0.83649814  0.17880323  0.12658869  1
  Pr3+  Pr60  1  1.00299885  0.31945038  0.37336164  1
  Pr3+  Pr61  1  0.49853262  0.81928253  0.87561516  1
  Pr3+  Pr62  1  0.33066386  0.01303071  0.62467271  1
  Pr3+  Pr63  1  0.16862681  0.17866851  0.12639998  1
  Pr3+  Pr64  1  -0.00048036  0.34643829  0.62473000  1
  Pr3+  Pr65  1  0.83642211  0.51062207  0.12664953  1
  Pr3+  Pr66  1  1.00228187  0.98872414  0.37313573  1
  Pr3+  Pr67  1  -0.00163194  0.01260921  0.62484416  1
  Pr3+  Pr68  1  0.49247211  0.48540354  0.87569230  1
  Pr3+  Pr69  1  0.66159929  0.34962531  0.62340180  1
  Pr3+  Pr70  1  0.16920068  0.84380694  0.62637379  1
  Pr3+  Pr71  1  0.49525840  0.48862997  0.37465590  1
  Mn3.30+  Mn72  1  0.16732220  -0.00201374  -0.00046634  1
  Mn3.30+  Mn73  1  0.16754299  0.00012184  0.49890971  1
  Mn3.30+  Mn74  1  0.16859500  0.33491578  0.00055875  1
  Mn3.30+  Mn75  1  0.16615198  0.33289393  0.49968237  1
  Mn3.30+  Mn76  1  0.16482419  0.66545215  -0.00072917  1
  Mn3.30+  Mn77  1  0.16591790  0.66473517  0.50283220  1
  Mn3.30+  Mn78  1  0.50219278  0.00117184  0.00271086  1
  Mn3.30+  Mn79  1  0.50092345  -0.00142256  0.49799322  1
  Mn3.30+  Mn80  1  0.49719042  0.33361924  0.00127898  1
  Mn3.30+  Mn81  1  0.49784450  0.33564359  0.50055602  1
  Mn3.30+  Mn82  1  0.50029615  0.66515220  0.00106221  1
  Mn3.30+  Mn83  1  0.50217440  0.66627038  0.49999175  1
  Mn3.30+  Mn84  1  0.83352808  -0.00207421  0.00317445  1
  Mn3.30+  Mn85  1  0.83339703  0.00069304  0.49879468  1
  Mn3.30+  Mn86  1  0.83282620  0.33386486  0.00017108  1
  Mn3.30+  Mn87  1  0.83245897  0.33623820  0.49924192  1
  Mn3.30+  Mn88  1  0.83469510  0.66679925  -0.00070843  1
  Mn3.30+  Mn89  1  0.83268920  0.66671285  0.50100967  1
  Mn3.30+  Mn90  1  0.00049956  0.16499656  0.24990235  1
  Mn3.30+  Mn91  1  0.00021528  0.16700256  0.75037698  1
  Mn3.30+  Mn92  1  -0.00106416  0.49943430  0.25086804  1
  Mn3.30+  Mn93  1  0.00155691  0.50287859  0.74792135  1
  Mn3.30+  Mn94  1  -0.00119318  0.83235841  0.24852146  1
  Mn3.30+  Mn95  1  0.00214655  0.82957390  0.75054966  1
  Mn3.30+  Mn96  1  0.33380055  0.16677724  0.25043270  1
  Mn3.30+  Mn97  1  0.33305774  0.16804517  0.75048685  1
  Mn3.30+  Mn98  1  0.33274403  0.50009530  0.24810623  1
  Mn3.30+  Mn99  1  0.33278084  0.49926960  0.74857133  1
  Mn3.30+  Mn100  1  0.33593937  0.83199482  0.25011808  1
  Mn3.30+  Mn101  1  0.33274004  0.83175691  0.75135492  1
  Mn3.30+  Mn102  1  0.66429762  0.16722737  0.24784652  1
  Mn3.30+  Mn103  1  0.66626434  0.16734911  0.75016641  1
  Mn3.30+  Mn104  1  0.66601091  0.50170059  0.25125092  1
  Mn3.30+  Mn105  1  0.66455299  0.50179639  0.74851986  1
  Mn3.30+  Mn106  1  0.66762046  0.83480058  0.24850487  1
  Mn3.30+  Mn107  1  0.66762573  0.83238982  0.74999122  1
  Mn3.30+  Mn108  1  0.16744631  0.00001966  0.25032869  1
  Mn3.30+  Mn109  1  0.16740063  -0.00207251  0.75127459  1
  Mn3.30+  Mn110  1  0.16645549  0.33365714  0.24999141  1
  Mn3.30+  Mn111  1  0.16811209  0.33425534  0.75043886  1
  Mn3.30+  Mn112  1  0.16700984  0.66486345  0.24990613  1
  Mn3.30+  Mn113  1  0.16420904  0.66531139  0.74813423  1
  Mn3.30+  Mn114  1  0.50206380  0.00025759  0.24886554  1
  Mn3.30+  Mn115  1  0.50098149  -0.00029176  0.75012447  1
  Mn3.30+  Mn116  1  0.49825918  0.33419982  0.24853287  1
  Mn3.30+  Mn117  1  0.49673470  0.33514407  0.74928858  1
  Mn3.30+  Mn118  1  0.50088323  0.66684436  0.24998474  1
  Mn3.30+  Mn119  1  0.50159995  0.66504617  0.74916999  1
  Mn3.30+  Mn120  1  0.83258540  -0.00021603  0.24713732  1
  Mn3.30+  Mn121  1  0.83433007  -0.00110797  0.75066354  1
  Mn3.30+  Mn122  1  0.83262789  0.33491960  0.25064354  1
  Mn3.30+  Mn123  1  0.83255787  0.33500403  0.74957537  1
  Mn3.30+  Mn124  1  0.83205072  0.66598357  0.25028080  1
  Mn3.30+  Mn125  1  0.83559517  0.66754355  0.74961911  1
  Mn3.30+  Mn126  1  -0.00031154  0.16544809  0.00115725  1
  Mn3.30+  Mn127  1  0.00156299  0.16672830  0.49872646  1
  Mn3.30+  Mn128  1  0.00156244  0.50117605  0.00144369  1
  Mn3.30+  Mn129  1  -0.00067134  0.50101260  0.50068810  1
  Mn3.30+  Mn130  1  0.00034595  0.82995673  -0.00012417  1
  Mn3.30+  Mn131  1  0.00045751  0.83183798  0.50116477  1
  Mn3.30+  Mn132  1  0.33521923  0.16768834  0.00174880  1
  Mn3.30+  Mn133  1  0.33160484  0.16675984  0.49704869  1
  Mn3.30+  Mn134  1  0.33185775  0.49923625  0.00122108  1
  Mn3.30+  Mn135  1  0.33352379  0.50012865  0.50279502  1
  Mn3.30+  Mn136  1  0.33258281  0.83142546  -0.00128447  1
  Mn3.30+  Mn137  1  0.33575699  0.83193780  0.50016663  1
  Mn3.30+  Mn138  1  0.66357396  0.16662573  0.00214914  1
  Mn3.30+  Mn139  1  0.66658320  0.16796442  0.49943522  1
  Mn3.30+  Mn140  1  0.66428989  0.50033591  -0.00061170  1
  Mn3.30+  Mn141  1  0.66622592  0.50327521  0.50026190  1
  Mn3.30+  Mn142  1  0.66869608  0.83494197  0.00310957  1
  Mn3.30+  Mn143  1  0.66625470  0.83193982  0.49764663  1
  O2-  O144  1  0.02404587  0.16360043  0.12529337  1
  O2-  O145  1  0.01880777  0.16231941  0.62589654  1
  O2-  O146  1  0.02515191  0.50102626  0.12588275  1
  O2-  O147  1  0.02726944  0.49173753  0.62462321  1
  O2-  O148  1  0.02819023  0.82552546  0.12495315  1
  O2-  O149  1  0.02581031  0.82835578  0.62685602  1
  O2-  O150  1  0.36089258  0.15902376  0.12526055  1
  O2-  O151  1  0.35733367  0.16058010  0.62298468  1
  O2-  O152  1  0.35999220  0.49461919  0.12365334  1
  O2-  O153  1  0.36206826  0.49498757  0.62645336  1
  O2-  O154  1  0.35748677  0.83139012  0.12458595  1
  O2-  O155  1  0.36050723  0.82694632  0.62685165  1
  O2-  O156  1  0.69227227  0.16466609  0.12369797  1
  O2-  O157  1  0.69295930  0.16167754  0.62627335  1
  O2-  O158  1  0.69195327  0.49611332  0.12366420  1
  O2-  O159  1  0.69322064  0.49459080  0.62602238  1
  O2-  O160  1  0.69528651  0.82385097  0.12371109  1
  O2-  O161  1  0.69006449  0.82927667  0.62388243  1
  O2-  O162  1  0.14800019  0.32540838  0.12481462  1
  O2-  O163  1  0.14213262  0.32853866  0.62334776  1
  O2-  O164  1  0.14217033  0.66220735  0.12458368  1
  O2-  O165  1  0.13932539  0.65968285  0.62448415  1
  O2-  O166  1  0.14926016  0.99167534  0.12417864  1
  O2-  O167  1  0.14281592  0.99198832  0.62575897  1
  O2-  O168  1  0.47316826  0.32573588  0.12448617  1
  O2-  O169  1  0.47108890  0.32557512  0.62601626  1
  O2-  O170  1  0.48308205  0.66365645  0.12339982  1
  O2-  O171  1  0.47571884  0.66445004  0.62650822  1
  O2-  O172  1  0.47230220  0.99096818  0.12509948  1
  O2-  O173  1  0.47492023  0.99244344  0.62199565  1
  O2-  O174  1  0.80726941  0.32994757  0.12308902  1
  O2-  O175  1  0.80711172  0.32812730  0.62581749  1
  O2-  O176  1  0.80691235  0.65657872  0.12417054  1
  O2-  O177  1  0.80501988  0.66461462  0.62537026  1
  O2-  O178  1  0.80641828  0.99266546  0.12311190  1
  O2-  O179  1  0.80880108  0.99234656  0.62495749  1
  O2-  O180  1  0.30712208  0.16510048  0.37439427  1
  O2-  O181  1  0.31049750  0.17077346  0.87718869  1
  O2-  O182  1  0.31086023  0.50613105  0.37672415  1
  O2-  O183  1  0.30875664  0.50609866  0.87392252  1
  O2-  O184  1  0.30816322  0.83681570  0.37558198  1
  O2-  O185  1  0.30590522  0.83829630  0.87328760  1
  O2-  O186  1  0.64042495  0.17373645  0.37371501  1
  O2-  O187  1  0.63943139  0.17201085  0.87503879  1
  O2-  O188  1  0.63938697  0.49999285  0.37661646  1
  O2-  O189  1  0.63838374  0.50446865  0.87306451  1
  O2-  O190  1  0.64051067  0.84210336  0.37386454  1
  O2-  O191  1  0.64176732  0.84025345  0.87803072  1
  O2-  O192  1  0.97947834  0.16881773  0.37477759  1
  O2-  O193  1  0.97530663  0.17163653  0.87443079  1
  O2-  O194  1  0.97089127  0.50645728  0.37720723  1
  O2-  O195  1  0.97671893  0.50574813  0.87306758  1
  O2-  O196  1  0.97639576  0.83830604  0.37466446  1
  O2-  O197  1  0.97523868  0.83796279  0.87361865  1
  O2-  O198  1  0.19137284  0.00327499  0.37471964  1
  O2-  O199  1  0.19255390  0.00757673  0.87564101  1
  O2-  O200  1  0.18509031  0.34228034  0.37490947  1
  O2-  O201  1  0.19389710  0.34133086  0.87751168  1
  O2-  O202  1  0.19301491  0.67137986  0.37844201  1
  O2-  O203  1  0.18963303  0.66940299  0.87276030  1
  O2-  O204  1  0.52812800  0.00953645  0.37412674  1
  O2-  O205  1  0.52724600  0.00696894  0.87863046  1
  O2-  O206  1  0.52460902  0.33997667  0.37450481  1
  O2-  O207  1  0.52498749  0.33911829  0.87417788  1
  O2-  O208  1  0.51816874  0.66967643  0.37527874  1
  O2-  O209  1  0.52541279  0.67099762  0.87506892  1
  O2-  O210  1  0.85732640  0.00115746  0.37541027  1
  O2-  O211  1  0.85912214  0.00569985  0.87567101  1
  O2-  O212  1  0.85684767  0.34129795  0.37679072  1
  O2-  O213  1  0.85747569  0.33970450  0.87445950  1
  O2-  O214  1  0.85843468  0.67492604  0.37559071  1
  O2-  O215  1  0.86290868  0.67210276  0.87497371  1
  O2-  O216  1  0.24069617  0.09601843  0.02014265  1
  O2-  O217  1  0.24315082  0.08877330  0.51934591  1
  O2-  O218  1  0.23747907  0.42950319  0.02391817  1
  O2-  O219  1  0.23800145  0.42963052  0.52102914  1
  O2-  O220  1  0.23473032  0.75995069  0.01610185  1
  O2-  O221  1  0.23753326  0.75893727  0.52250886  1
  O2-  O222  1  0.56818383  0.09946240  0.02082824  1
  O2-  O223  1  0.57191892  0.09479160  0.52133456  1
  O2-  O224  1  0.56707004  0.42889449  0.02132710  1
  O2-  O225  1  0.57166187  0.43108237  0.52264572  1
  O2-  O226  1  0.57407552  0.76428155  0.01914843  1
  O2-  O227  1  0.57125332  0.76200822  0.51826467  1
  O2-  O228  1  0.90045346  0.09375227  0.01788680  1
  O2-  O229  1  0.90550869  0.09291996  0.52205239  1
  O2-  O230  1  0.90467385  0.43079637  0.01535589  1
  O2-  O231  1  0.90685402  0.42793547  0.52514964  1
  O2-  O232  1  0.90324614  0.76148322  0.02353465  1
  O2-  O233  1  0.90479685  0.76199317  0.51852763  1
  O2-  O234  1  0.26214811  0.25842500  0.22766691  1
  O2-  O235  1  0.26227842  0.26327542  0.73349863  1
  O2-  O236  1  0.25893647  0.59267899  0.23594720  1
  O2-  O237  1  0.26323853  0.59572726  0.73197343  1
  O2-  O238  1  0.26447166  0.92663958  0.23241629  1
  O2-  O239  1  0.26302146  0.92663679  0.72825143  1
  O2-  O240  1  0.59420619  0.26440280  0.23116129  1
  O2-  O241  1  0.59355741  0.26401102  0.72915238  1
  O2-  O242  1  0.59598807  0.59421973  0.23121783  1
  O2-  O243  1  0.59861630  0.59917557  0.73095699  1
  O2-  O244  1  0.59624318  0.93076362  0.22575762  1
  O2-  O245  1  0.59588176  0.92885796  0.73048885  1
  O2-  O246  1  0.92455362  0.25770638  0.23406380  1
  O2-  O247  1  0.92639700  0.26318502  0.73025382  1
  O2-  O248  1  0.92782726  0.59499670  0.23051104  1
  O2-  O249  1  0.92783085  0.59522250  0.72492018  1
  O2-  O250  1  0.92780253  0.92393257  0.23494181  1
  O2-  O251  1  0.93051578  0.92744802  0.73039482  1
  O2-  O252  1  0.09473044  0.23846967  0.26902182  1
  O2-  O253  1  0.09374424  0.24102314  0.77403491  1
  O2-  O254  1  0.09095478  0.57295543  0.27451089  1
  O2-  O255  1  0.09692710  0.57005955  0.76912251  1
  O2-  O256  1  0.09466430  0.90448606  0.27006716  1
  O2-  O257  1  0.09585129  0.90175160  0.77225844  1
  O2-  O258  1  0.42799008  0.23710349  0.26923661  1
  O2-  O259  1  0.43096699  0.23598925  0.76729256  1
  O2-  O260  1  0.42501566  0.57278251  0.26929200  1
  O2-  O261  1  0.42656827  0.57185467  0.77182518  1
  O2-  O262  1  0.43097311  0.90450466  0.27219404  1
  O2-  O263  1  0.42946151  0.90591221  0.77212923  1
  O2-  O264  1  0.75668549  0.24299965  0.26656486  1
  O2-  O265  1  0.76024090  0.23798957  0.77167024  1
  O2-  O266  1  0.76390121  0.56952217  0.26804799  1
  O2-  O267  1  0.76457435  0.57351955  0.77201352  1
  O2-  O268  1  0.75948099  0.90701231  0.27161622  1
  O2-  O269  1  0.76271636  0.90484649  0.77086676  1
  O2-  O270  1  0.06965653  0.07018747  0.48404307  1
  O2-  O271  1  0.07531039  0.07218038  0.97787417  1
  O2-  O272  1  0.06919355  0.40517877  0.47933084  1
  O2-  O273  1  0.07232532  0.40715742  0.97778241  1
  O2-  O274  1  0.07417556  0.73950612  0.47803729  1
  O2-  O275  1  0.06698648  0.73345597  0.98139250  1
  O2-  O276  1  0.40737844  0.07015899  0.47936273  1
  O2-  O277  1  0.40446643  0.07075477  0.97909072  1
  O2-  O278  1  0.40625588  0.40718201  0.48145848  1
  O2-  O279  1  0.40195252  0.40277839  0.97817700  1
  O2-  O280  1  0.40364461  0.73711303  0.48410697  1
  O2-  O281  1  0.40689075  0.74056537  0.97703772  1
  O2-  O282  1  0.73613785  0.07040154  0.48341198  1
  O2-  O283  1  0.73755935  0.07424266  0.97846976  1
  O2-  O284  1  0.73450747  0.40600065  0.48346467  1
  O2-  O285  1  0.73651641  0.40675231  0.97879759  1
  O2-  O286  1  0.74251131  0.74448543  0.47995678  1
  O2-  O287  1  0.73987786  0.73781690  0.97736187  1
  O2-  O288  1  0.09296256  0.23876825  0.47697786  1
  O2-  O289  1  0.09646851  0.24106031  0.97932632  1
  O2-  O290  1  0.09370514  0.57212425  0.47641369  1
  O2-  O291  1  0.09495236  0.57136107  0.98011845  1
  O2-  O292  1  0.09551089  0.90555772  0.47996750  1
  O2-  O293  1  0.09499845  0.90129415  0.97880752  1
  O2-  O294  1  0.42916128  0.23479770  0.48240542  1
  O2-  O295  1  0.42908354  0.23816965  0.97966449  1
  O2-  O296  1  0.42753977  0.57378415  0.48094295  1
  O2-  O297  1  0.42501034  0.57174366  0.97853506  1
  O2-  O298  1  0.43189431  0.90511758  0.47672938  1
  O2-  O299  1  0.43041977  0.90636621  0.97831497  1
  O2-  O300  1  0.75803225  0.24220136  0.48255879  1
  O2-  O301  1  0.75824898  0.23891720  0.97817329  1
  O2-  O302  1  0.76638493  0.56915701  0.48274854  1
  O2-  O303  1  0.76235864  0.57328522  0.97612693  1
  O2-  O304  1  0.76137361  0.90667696  0.47905472  1
  O2-  O305  1  0.76080672  0.90668563  0.97601123  1
  O2-  O306  1  0.07317979  0.07182565  0.26935977  1
  O2-  O307  1  0.07293943  0.07035829  0.76968909  1
  O2-  O308  1  0.07024072  0.40804441  0.27250055  1
  O2-  O309  1  0.07182241  0.40454183  0.77089695  1
  O2-  O310  1  0.07169133  0.73788933  0.27142226  1
  O2-  O311  1  0.07013913  0.73583185  0.76940370  1
  O2-  O312  1  0.40495877  0.06970772  0.27103563  1
  O2-  O313  1  0.40697943  0.07102164  0.76973210  1
  O2-  O314  1  0.40675903  0.40703338  0.26754512  1
  O2-  O315  1  0.40195056  0.40287632  0.77299207  1
  O2-  O316  1  0.40575991  0.73994797  0.26871291  1
  O2-  O317  1  0.40535891  0.73847666  0.77169006  1
  O2-  O318  1  0.73501661  0.07342038  0.26595181  1
  O2-  O319  1  0.73902090  0.07083609  0.77096833  1
  O2-  O320  1  0.73485271  0.40604084  0.26661850  1
  O2-  O321  1  0.73753373  0.40618197  0.77022962  1
  O2-  O322  1  0.74184623  0.74109217  0.26838345  1
  O2-  O323  1  0.74110849  0.74041303  0.77398731  1
  O2-  O324  1  0.24127141  0.09358106  0.22741740  1
  O2-  O325  1  0.24257927  0.09224416  0.73386797  1
  O2-  O326  1  0.23889517  0.42853912  0.22994583  1
  O2-  O327  1  0.23748643  0.43032226  0.72688832  1
  O2-  O328  1  0.23688694  0.76355731  0.23446639  1
  O2-  O329  1  0.23803943  0.75704094  0.72647345  1
  O2-  O330  1  0.56796628  0.09847480  0.22965895  1
  O2-  O331  1  0.57258802  0.09486843  0.72816012  1
  O2-  O332  1  0.57089323  0.42946354  0.22821972  1
  O2-  O333  1  0.56740623  0.42898349  0.72746947  1
  O2-  O334  1  0.57602004  0.76252721  0.22905785  1
  O2-  O335  1  0.57089566  0.76471990  0.73429761  1
  O2-  O336  1  0.90395397  0.09269112  0.22979136  1
  O2-  O337  1  0.90369302  0.09423898  0.73018829  1
  O2-  O338  1  0.90439474  0.42872488  0.23110034  1
  O2-  O339  1  0.90635458  0.43038697  0.72987750  1
  O2-  O340  1  0.90604947  0.75950288  0.22784733  1
  O2-  O341  1  0.90291407  0.76392894  0.73034532  1
  O2-  O342  1  0.26244328  0.25916981  0.02163569  1
  O2-  O343  1  0.26194012  0.26271495  0.51859994  1
  O2-  O344  1  0.25967988  0.59379692  0.01279480  1
  O2-  O345  1  0.26287965  0.59489082  0.52011232  1
  O2-  O346  1  0.26381247  0.92782606  0.01812201  1
  O2-  O347  1  0.26383522  0.92481546  0.52078129  1
  O2-  O348  1  0.59638470  0.26571409  0.01669228  1
  O2-  O349  1  0.59226956  0.26305143  0.52090552  1
  O2-  O350  1  0.59844246  0.59657698  0.01565708  1
  O2-  O351  1  0.59675994  0.59672791  0.52139495  1
  O2-  O352  1  0.59652131  0.93097473  0.02364856  1
  O2-  O353  1  0.59599358  0.92898299  0.52110110  1
  O2-  O354  1  0.92305039  0.25856572  0.01676168  1
  O2-  O355  1  0.92803998  0.26101512  0.51911367  1
  O2-  O356  1  0.92609088  0.59273715  0.02190527  1
  O2-  O357  1  0.93016108  0.59713976  0.52315747  1
  O2-  O358  1  0.92894437  0.92499587  0.01295462  1
  O2-  O359  1  0.92838863  0.92741704  0.52086018  1
