# generated using pymatgen
data_Sr7Ca15Pr50Mn72O216
_symmetry_space_group_name_H-M   'P 1'
_cell_length_a   16.55801414
_cell_length_b   16.60399432
_cell_length_c   15.59287285
_cell_angle_alpha   89.99092284
_cell_angle_beta   89.99532015
_cell_angle_gamma   90.01030096
_symmetry_Int_Tables_number   1
_chemical_formula_structural   Sr7Ca15Pr50Mn72O216
_chemical_formula_sum   'Sr7 Ca15 Pr50 Mn72 O216'
_cell_volume   4286.93549500
_cell_formula_units_Z   1
loop_
 _symmetry_equiv_pos_site_id
 _symmetry_equiv_pos_as_xyz
  1  'x, y, z'
loop_
 _atom_type_symbol
 _atom_type_oxidation_number
  Sr2+  2.0
  Ca2+  2.0
  Pr3+  3.0
  Mn3.30+  3.3
  O2-  -2.0
loop_
 _atom_site_type_symbol
 _atom_site_label
 _atom_site_symmetry_multiplicity
 _atom_site_fract_x
 _atom_site_fract_y
 _atom_site_fract_z
 _atom_site_occupancy
  Sr2+  Sr0  1  0.99617697  0.99341263  0.87173001  1
  Sr2+  Sr1  1  -0.00469507  0.01056883  0.62554165  1
  Sr2+  Sr2  1  0.83646754  0.17288011  0.62583328  1
  Sr2+  Sr3  1  0.67113255  0.31996723  0.87826124  1
  Sr2+  Sr4  1  0.83315482  0.84177389  0.12508217  1
  Sr2+  Sr5  1  0.33435242  0.67440475  0.12513836  1
  Sr2+  Sr6  1  0.49846181  0.82405086  0.37719736  1
  Ca2+  Ca7  1  0.50566350  0.84890808  0.62345509  1
  Ca2+  Ca8  1  0.83538818  0.17981209  0.12324922  1
  Ca2+  Ca9  1  0.49611201  0.15155689  0.37629417  1
  Ca2+  Ca10  1  -0.00783135  0.68319019  0.62504172  1
  Ca2+  Ca11  1  1.00332656  0.31609180  0.37385354  1
  Ca2+  Ca12  1  0.83587392  0.84861237  0.62540172  1
  Ca2+  Ca13  1  0.16355062  0.15300335  0.37444440  1
  Ca2+  Ca14  1  0.83616502  0.51357406  0.62566276  1
  Ca2+  Ca15  1  0.83122816  0.15380429  0.87419176  1
  Ca2+  Ca16  1  0.66410455  0.68367774  0.62496015  1
  Ca2+  Ca17  1  0.66619546  0.35029481  0.12505455  1
  Ca2+  Ca18  1  0.50028892  0.51236282  0.12532920  1
  Ca2+  Ca19  1  0.83347849  0.51284617  0.12406574  1
  Ca2+  Ca20  1  0.33074204  0.34923604  0.12581379  1
  Ca2+  Ca21  1  0.50809653  0.18093741  0.62264772  1
  Pr3+  Pr22  1  0.82882392  0.82081344  0.37797235  1
  Pr3+  Pr23  1  0.67124364  0.65216984  0.87275423  1
  Pr3+  Pr24  1  0.33411961  0.01291090  0.62383418  1
  Pr3+  Pr25  1  0.33793788  0.31746915  0.37285449  1
  Pr3+  Pr26  1  0.33660890  0.98736816  0.87459750  1
  Pr3+  Pr27  1  0.99884802  0.32038020  0.87637725  1
  Pr3+  Pr28  1  0.50178534  0.15563820  0.87391488  1
  Pr3+  Pr29  1  0.66800618  0.34064421  0.62515481  1
  Pr3+  Pr30  1  0.16680096  0.51141399  0.62458198  1
  Pr3+  Pr31  1  0.33287271  0.34308993  0.62462340  1
  Pr3+  Pr32  1  0.66718422  0.32048544  0.37169666  1
  Pr3+  Pr33  1  0.16311476  0.48664753  0.87557071  1
  Pr3+  Pr34  1  -0.00497925  0.34802238  0.12747240  1
  Pr3+  Pr35  1  0.50068296  0.48616623  0.87695407  1
  Pr3+  Pr36  1  0.99937130  0.65526728  0.87267170  1
  Pr3+  Pr37  1  0.66903607  0.65424382  0.37707948  1
  Pr3+  Pr38  1  0.16544087  0.84776985  0.62476339  1
  Pr3+  Pr39  1  0.16393197  0.15404734  0.87538597  1
  Pr3+  Pr40  1  0.82959801  0.48606322  0.37376783  1
  Pr3+  Pr41  1  0.49867621  0.82060977  0.87200154  1
  Pr3+  Pr42  1  0.66321474  0.67482297  0.12532898  1
  Pr3+  Pr43  1  0.67364512  0.99110058  0.87414095  1
  Pr3+  Pr44  1  0.49816552  0.48962233  0.37349698  1
  Pr3+  Pr45  1  0.50595741  0.18268712  0.12752376  1
  Pr3+  Pr46  1  0.33208493  0.68089820  0.62475241  1
  Pr3+  Pr47  1  0.33625998  0.98839885  0.37524359  1
  Pr3+  Pr48  1  0.50698204  0.51287251  0.62483073  1
  Pr3+  Pr49  1  0.16538119  0.17600781  0.62407462  1
  Pr3+  Pr50  1  0.33611097  0.65252284  0.87426248  1
  Pr3+  Pr51  1  0.50365561  0.84461109  0.12579483  1
  Pr3+  Pr52  1  -0.00830037  0.34240833  0.62187697  1
  Pr3+  Pr53  1  1.00023741  0.65425358  0.37754830  1
  Pr3+  Pr54  1  -0.00589863  0.01401543  0.12485654  1
  Pr3+  Pr55  1  0.16047437  0.82133240  0.87318823  1
  Pr3+  Pr56  1  0.16139731  0.48398517  0.37474170  1
  Pr3+  Pr57  1  0.66588230  0.01278667  0.12596126  1
  Pr3+  Pr58  1  0.83373346  0.15453843  0.37388332  1
  Pr3+  Pr59  1  0.33885782  0.32024159  0.87782169  1
  Pr3+  Pr60  1  0.33735923  0.65463527  0.37572748  1
  Pr3+  Pr61  1  0.82744686  0.48523649  0.87643119  1
  Pr3+  Pr62  1  0.33167402  0.00994463  0.12611241  1
  Pr3+  Pr63  1  0.66418429  0.01469868  0.62369196  1
  Pr3+  Pr64  1  -0.00450865  0.67843999  0.12544083  1
  Pr3+  Pr65  1  0.17084119  0.51277264  0.12549620  1
  Pr3+  Pr66  1  0.83022298  0.82180779  0.87158066  1
  Pr3+  Pr67  1  0.16920382  0.84472159  0.12481146  1
  Pr3+  Pr68  1  0.16388577  0.82067906  0.37699828  1
  Pr3+  Pr69  1  0.17239685  0.18097296  0.12649134  1
  Pr3+  Pr70  1  0.66751905  0.98722434  0.37576904  1
  Pr3+  Pr71  1  1.00237001  0.98892837  0.37754806  1
  Mn3.30+  Mn72  1  0.16498966  -0.00012691  -0.00022949  1
  Mn3.30+  Mn73  1  0.16703238  0.00207576  0.50018525  1
  Mn3.30+  Mn74  1  0.16802037  0.33330817  0.00108565  1
  Mn3.30+  Mn75  1  0.16425958  0.33074713  0.49884761  1
  Mn3.30+  Mn76  1  0.16626523  0.66639682  -0.00099128  1
  Mn3.30+  Mn77  1  0.16461004  0.66605050  0.50258794  1
  Mn3.30+  Mn78  1  0.50146716  0.00075378  -0.00045905  1
  Mn3.30+  Mn79  1  0.50008716  0.00133847  0.50064379  1
  Mn3.30+  Mn80  1  0.50228043  0.33484543  0.00389666  1
  Mn3.30+  Mn81  1  0.50033970  0.33177123  0.49888914  1
  Mn3.30+  Mn82  1  0.50037238  0.66539619  -0.00028126  1
  Mn3.30+  Mn83  1  0.50241564  0.66860439  0.50218922  1
  Mn3.30+  Mn84  1  0.83317600  0.00124134  0.00134531  1
  Mn3.30+  Mn85  1  0.83399982  -0.00034629  0.49994782  1
  Mn3.30+  Mn86  1  0.83159759  0.33154277  0.00448944  1
  Mn3.30+  Mn87  1  0.83394863  0.33236917  0.49663197  1
  Mn3.30+  Mn88  1  0.83294769  0.66580655  0.00008383  1
  Mn3.30+  Mn89  1  0.83281784  0.66570863  0.50496857  1
  Mn3.30+  Mn90  1  0.00172610  0.16807300  0.24910636  1
  Mn3.30+  Mn91  1  -0.00199377  0.16664684  0.75114449  1
  Mn3.30+  Mn92  1  -0.00237266  0.49862946  0.25086822  1
  Mn3.30+  Mn93  1  -0.00344583  0.50019275  0.74821338  1
  Mn3.30+  Mn94  1  -0.00088926  0.83316949  0.25101785  1
  Mn3.30+  Mn95  1  -0.00398432  0.83316650  0.74812981  1
  Mn3.30+  Mn96  1  0.33528974  0.16717626  0.25078071  1
  Mn3.30+  Mn97  1  0.33629966  0.16701431  0.74783139  1
  Mn3.30+  Mn98  1  0.33270604  0.49889766  0.24925893  1
  Mn3.30+  Mn99  1  0.33433570  0.49895590  0.74911356  1
  Mn3.30+  Mn100  1  0.33340907  0.83213462  0.25000068  1
  Mn3.30+  Mn101  1  0.33413354  0.83386600  0.74836125  1
  Mn3.30+  Mn102  1  0.66724705  0.16823795  0.24980210  1
  Mn3.30+  Mn103  1  0.66852931  0.16783403  0.74958977  1
  Mn3.30+  Mn104  1  0.66527732  0.49961386  0.24794904  1
  Mn3.30+  Mn105  1  0.66987967  0.49913207  0.74706272  1
  Mn3.30+  Mn106  1  0.66647183  0.83218914  0.25104111  1
  Mn3.30+  Mn107  1  0.66609975  0.83348521  0.74616526  1
  Mn3.30+  Mn108  1  0.16558138  0.00116068  0.25068744  1
  Mn3.30+  Mn109  1  0.16652864  0.00087208  0.74912973  1
  Mn3.30+  Mn110  1  0.16665147  0.33138138  0.25100069  1
  Mn3.30+  Mn111  1  0.16559813  0.33273159  0.74936171  1
  Mn3.30+  Mn112  1  0.16663461  0.66587494  0.25153341  1
  Mn3.30+  Mn113  1  0.16400364  0.66656346  0.74704894  1
  Mn3.30+  Mn114  1  0.49927814  0.00145492  0.25087662  1
  Mn3.30+  Mn115  1  0.50225434  0.00092715  0.74876449  1
  Mn3.30+  Mn116  1  0.50032858  0.33539096  0.24721811  1
  Mn3.30+  Mn117  1  0.50184623  0.33181986  0.75028511  1
  Mn3.30+  Mn118  1  0.49968956  0.66636574  0.25057705  1
  Mn3.30+  Mn119  1  0.50304001  0.66750672  0.74772403  1
  Mn3.30+  Mn120  1  0.83373153  0.00027522  0.24908363  1
  Mn3.30+  Mn121  1  0.83327699  0.00015744  0.74974919  1
  Mn3.30+  Mn122  1  0.83349741  0.33268346  0.24821120  1
  Mn3.30+  Mn123  1  0.83226775  0.33176033  0.74981117  1
  Mn3.30+  Mn124  1  0.83326144  0.66502226  0.25038433  1
  Mn3.30+  Mn125  1  0.83277481  0.66602199  0.74490858  1
  Mn3.30+  Mn126  1  -0.00129501  0.16730588  0.00122403  1
  Mn3.30+  Mn127  1  0.00117294  0.16732072  0.49750273  1
  Mn3.30+  Mn128  1  -0.00255523  0.50011109  0.00067879  1
  Mn3.30+  Mn129  1  -0.00323199  0.49896233  0.50099457  1
  Mn3.30+  Mn130  1  -0.00162803  0.83418786  -0.00107192  1
  Mn3.30+  Mn131  1  -0.00362345  0.83218232  0.50191678  1
  Mn3.30+  Mn132  1  0.33554052  0.16703721  0.00160743  1
  Mn3.30+  Mn133  1  0.33555327  0.16699995  0.49970973  1
  Mn3.30+  Mn134  1  0.33381773  0.49868781  0.00151106  1
  Mn3.30+  Mn135  1  0.33326078  0.49906424  0.50086308  1
  Mn3.30+  Mn136  1  0.33292337  0.83189218  -0.00097790  1
  Mn3.30+  Mn137  1  0.33490534  0.83421960  0.50233981  1
  Mn3.30+  Mn138  1  0.67076488  0.16866079  0.00315562  1
  Mn3.30+  Mn139  1  0.66473431  0.16727136  0.49689595  1
  Mn3.30+  Mn140  1  0.66636282  0.49888271  0.00340287  1
  Mn3.30+  Mn141  1  0.66899896  0.49982936  0.50184952  1
  Mn3.30+  Mn142  1  0.66634734  0.83320396  -0.00075038  1
  Mn3.30+  Mn143  1  0.66625929  0.83235897  0.50306184  1
  O2-  O144  1  0.02858808  0.16166104  0.12492280  1
  O2-  O145  1  0.02022249  0.17140048  0.62413492  1
  O2-  O146  1  0.02748655  0.49648888  0.12574936  1
  O2-  O147  1  0.02558591  0.48820706  0.62444416  1
  O2-  O148  1  0.02507814  0.82679016  0.12601682  1
  O2-  O149  1  0.02308723  0.82773861  0.62441512  1
  O2-  O150  1  0.36236143  0.15536021  0.12439774  1
  O2-  O151  1  0.36562228  0.16198304  0.62435886  1
  O2-  O152  1  0.35622631  0.49543601  0.12530956  1
  O2-  O153  1  0.36107840  0.49199586  0.62505082  1
  O2-  O154  1  0.35850605  0.83191639  0.12183123  1
  O2-  O155  1  0.36218958  0.82857195  0.62604983  1
  O2-  O156  1  0.69381163  0.15852573  0.12820261  1
  O2-  O157  1  0.68648146  0.16564587  0.62091002  1
  O2-  O158  1  0.69157851  0.50314942  0.12656549  1
  O2-  O159  1  0.69465568  0.48678304  0.62231738  1
  O2-  O160  1  0.68329105  0.82505490  0.12434912  1
  O2-  O161  1  0.69409577  0.83010724  0.62483298  1
  O2-  O162  1  0.13993545  0.32852440  0.12500383  1
  O2-  O163  1  0.13771627  0.32508381  0.62341703  1
  O2-  O164  1  0.13992751  0.66101500  0.12571514  1
  O2-  O165  1  0.13634358  0.65888300  0.62468095  1
  O2-  O166  1  0.13969220  0.99252396  0.12491435  1
  O2-  O167  1  0.14597220  0.99753482  0.62459513  1
  O2-  O168  1  0.47059486  0.32690826  0.12615688  1
  O2-  O169  1  0.47661675  0.32709859  0.62372509  1
  O2-  O170  1  0.48379153  0.66058483  0.12480022  1
  O2-  O171  1  0.47422982  0.65797912  0.62610254  1
  O2-  O172  1  0.47575948  0.99346302  0.12374887  1
  O2-  O173  1  0.47655985  0.99276125  0.62575609  1
  O2-  O174  1  0.80768960  0.32298870  0.12682502  1
  O2-  O175  1  0.81187408  0.32563355  0.62002725  1
  O2-  O176  1  0.80854577  0.66076712  0.12674841  1
  O2-  O177  1  0.80343831  0.65511889  0.62500951  1
  O2-  O178  1  0.80963748  0.99478377  0.12706042  1
  O2-  O179  1  0.80988035  0.99743278  0.62151594  1
  O2-  O180  1  0.30563884  0.17089805  0.37530907  1
  O2-  O181  1  0.30821258  0.17257832  0.87646453  1
  O2-  O182  1  0.30728176  0.50626147  0.37740284  1
  O2-  O183  1  0.30808476  0.50396456  0.87293727  1
  O2-  O184  1  0.30794951  0.83825733  0.37836103  1
  O2-  O185  1  0.30582147  0.83872074  0.87321741  1
  O2-  O186  1  0.63713440  0.17219776  0.37242010  1
  O2-  O187  1  0.64454362  0.16305113  0.87782563  1
  O2-  O188  1  0.64189491  0.50498623  0.37614700  1
  O2-  O189  1  0.64514716  0.50387233  0.87514897  1
  O2-  O190  1  0.64761572  0.83618520  0.37700057  1
  O2-  O191  1  0.64163927  0.84084453  0.87361373  1
  O2-  O192  1  0.97790040  0.16914586  0.37141891  1
  O2-  O193  1  0.97556711  0.17323016  0.87888319  1
  O2-  O194  1  0.97250686  0.50861186  0.37644435  1
  O2-  O195  1  0.97138441  0.50685854  0.87400576  1
  O2-  O196  1  0.97442101  0.83761953  0.37658044  1
  O2-  O197  1  0.97537013  0.83234670  0.87309463  1
  O2-  O198  1  0.19202991  0.00508523  0.37682224  1
  O2-  O199  1  0.19278868  0.00518567  0.87361414  1
  O2-  O200  1  0.19433547  0.33914130  0.37625657  1
  O2-  O201  1  0.19435778  0.33877988  0.87561960  1
  O2-  O202  1  0.19258997  0.67189475  0.37928548  1
  O2-  O203  1  0.19198640  0.67279285  0.87030550  1
  O2-  O204  1  0.52318326  0.00582245  0.37558835  1
  O2-  O205  1  0.52795454  0.00712029  0.87483210  1
  O2-  O206  1  0.52428656  0.34372350  0.37195361  1
  O2-  O207  1  0.52101551  0.33806054  0.87853946  1
  O2-  O208  1  0.52405453  0.66764595  0.37862805  1
  O2-  O209  1  0.52670767  0.67242906  0.87065913  1
  O2-  O210  1  0.85778740  0.00452822  0.37306201  1
  O2-  O211  1  0.84551068  0.00595732  0.87798572  1
  O2-  O212  1  0.86068758  0.34070952  0.37146203  1
  O2-  O213  1  0.85639388  0.34130575  0.88073736  1
  O2-  O214  1  0.85680310  0.67257857  0.37728721  1
  O2-  O215  1  0.85563900  0.67261352  0.87137307  1
  O2-  O216  1  0.24061727  0.09431996  0.02075233  1
  O2-  O217  1  0.24374648  0.09496992  0.52463378  1
  O2-  O218  1  0.23597047  0.42827459  0.01871831  1
  O2-  O219  1  0.23604135  0.42543472  0.52210453  1
  O2-  O220  1  0.23583324  0.76242831  0.01672262  1
  O2-  O221  1  0.23855359  0.76209575  0.52371787  1
  O2-  O222  1  0.57306354  0.09711179  0.02233301  1
  O2-  O223  1  0.57219827  0.09359780  0.52108609  1
  O2-  O224  1  0.56911974  0.43314004  0.02028704  1
  O2-  O225  1  0.57281012  0.42820498  0.51971287  1
  O2-  O226  1  0.56988586  0.76273321  0.01598061  1
  O2-  O227  1  0.57112140  0.76207221  0.52334976  1
  O2-  O228  1  0.90777639  0.09497545  0.02381467  1
  O2-  O229  1  0.90687114  0.09487117  0.50933268  1
  O2-  O230  1  0.90463478  0.42915945  0.02370415  1
  O2-  O231  1  0.90281610  0.43066181  0.52084121  1
  O2-  O232  1  0.90694488  0.75758212  0.01679230  1
  O2-  O233  1  0.89975091  0.76277917  0.51990141  1
  O2-  O234  1  0.26797783  0.26087200  0.22736638  1
  O2-  O235  1  0.26241129  0.25859014  0.72764473  1
  O2-  O236  1  0.25754075  0.59238646  0.23291980  1
  O2-  O237  1  0.26165273  0.59332173  0.72776555  1
  O2-  O238  1  0.25877986  0.92759620  0.23019168  1
  O2-  O239  1  0.26277525  0.92717200  0.72862419  1
  O2-  O240  1  0.59618054  0.26661561  0.22683513  1
  O2-  O241  1  0.59547879  0.26085914  0.73273773  1
  O2-  O242  1  0.59675530  0.59703908  0.23657182  1
  O2-  O243  1  0.59820457  0.59505677  0.72762577  1
  O2-  O244  1  0.59251626  0.92729476  0.23168328  1
  O2-  O245  1  0.59693052  0.93086019  0.73009746  1
  O2-  O246  1  0.93225346  0.26148281  0.23106532  1
  O2-  O247  1  0.93058694  0.26613906  0.73721619  1
  O2-  O248  1  0.92965008  0.59590062  0.23309929  1
  O2-  O249  1  0.93187335  0.59811822  0.72990452  1
  O2-  O250  1  0.93066815  0.93105718  0.23424181  1
  O2-  O251  1  0.92350525  0.92393430  0.73443918  1
  O2-  O252  1  0.10141559  0.23476748  0.26741345  1
  O2-  O253  1  0.09532616  0.24051308  0.77223436  1
  O2-  O254  1  0.09342109  0.57088071  0.27221499  1
  O2-  O255  1  0.09481525  0.57079868  0.77093702  1
  O2-  O256  1  0.09497701  0.90446900  0.27253027  1
  O2-  O257  1  0.09514035  0.90359649  0.76456404  1
  O2-  O258  1  0.43195253  0.23675073  0.27162566  1
  O2-  O259  1  0.42616813  0.24001298  0.77375758  1
  O2-  O260  1  0.42617484  0.57416361  0.27183930  1
  O2-  O261  1  0.43069022  0.57248887  0.77089395  1
  O2-  O262  1  0.42317486  0.90770530  0.26681928  1
  O2-  O263  1  0.42841291  0.90921896  0.77398642  1
  O2-  O264  1  0.76031232  0.24007171  0.27485776  1
  O2-  O265  1  0.76270937  0.23572769  0.76866307  1
  O2-  O266  1  0.76003224  0.57363662  0.27346826  1
  O2-  O267  1  0.76311644  0.57179054  0.77169606  1
  O2-  O268  1  0.75963097  0.90655786  0.27096538  1
  O2-  O269  1  0.75832926  0.90568138  0.76988595  1
  O2-  O270  1  0.07344052  0.07349157  0.48166729  1
  O2-  O271  1  0.07501043  0.07493258  0.98125705  1
  O2-  O272  1  0.06996897  0.40274164  0.47700942  1
  O2-  O273  1  0.06942943  0.40808706  0.97854752  1
  O2-  O274  1  0.07175276  0.74070476  0.47869924  1
  O2-  O275  1  0.07226030  0.73755851  0.97912028  1
  O2-  O276  1  0.40309822  0.07120057  0.48083022  1
  O2-  O277  1  0.40625690  0.07171159  0.97766837  1
  O2-  O278  1  0.40504552  0.40459330  0.47963659  1
  O2-  O279  1  0.40567467  0.40646881  0.97887719  1
  O2-  O280  1  0.40094488  0.73629158  0.48452176  1
  O2-  O281  1  0.40630964  0.73930399  0.97539193  1
  O2-  O282  1  0.73770946  0.07360157  0.47757534  1
  O2-  O283  1  0.73461809  0.06837901  0.98857933  1
  O2-  O284  1  0.73876636  0.40398494  0.47563826  1
  O2-  O285  1  0.74025217  0.40765874  0.98639008  1
  O2-  O286  1  0.73888347  0.73847291  0.48026350  1
  O2-  O287  1  0.73716004  0.73926848  0.97887954  1
  O2-  O288  1  0.09982636  0.23475249  0.48011289  1
  O2-  O289  1  0.09756373  0.23975882  0.97978479  1
  O2-  O290  1  0.09393585  0.56845524  0.47969975  1
  O2-  O291  1  0.09356904  0.57227931  0.97787442  1
  O2-  O292  1  0.09363448  0.90532856  0.48116914  1
  O2-  O293  1  0.09602997  0.90227813  0.98192311  1
  O2-  O294  1  0.42710274  0.23882646  0.47442029  1
  O2-  O295  1  0.43071157  0.23712086  0.98019078  1
  O2-  O296  1  0.42953029  0.57292782  0.48151713  1
  O2-  O297  1  0.42722655  0.57362743  0.97667055  1
  O2-  O298  1  0.42366914  0.91059721  0.48147571  1
  O2-  O299  1  0.42717825  0.90517192  0.97725995  1
  O2-  O300  1  0.75915019  0.24021592  0.47301506  1
  O2-  O301  1  0.76652242  0.23348442  0.98212645  1
  O2-  O302  1  0.76170524  0.57202454  0.47652443  1
  O2-  O303  1  0.76097666  0.57340930  0.97889708  1
  O2-  O304  1  0.75875786  0.90765017  0.47856837  1
  O2-  O305  1  0.75849060  0.90427867  0.97971669  1
  O2-  O306  1  0.07010386  0.06941786  0.26736494  1
  O2-  O307  1  0.07929788  0.07926111  0.76717656  1
  O2-  O308  1  0.06735410  0.40480566  0.27202562  1
  O2-  O309  1  0.07059736  0.40767439  0.77332213  1
  O2-  O310  1  0.07347858  0.73764724  0.27241953  1
  O2-  O311  1  0.07117703  0.73986969  0.77023161  1
  O2-  O312  1  0.40319068  0.07126195  0.26884054  1
  O2-  O313  1  0.40638920  0.07259214  0.77209250  1
  O2-  O314  1  0.40415979  0.40602155  0.27239629  1
  O2-  O315  1  0.40587432  0.40491706  0.77025177  1
  O2-  O316  1  0.40485910  0.73733542  0.26884948  1
  O2-  O317  1  0.40263068  0.73847220  0.77039924  1
  O2-  O318  1  0.73935014  0.07147854  0.27275339  1
  O2-  O319  1  0.73519367  0.07038460  0.76136665  1
  O2-  O320  1  0.73683742  0.40725242  0.27003477  1
  O2-  O321  1  0.74103942  0.40393965  0.76740422  1
  O2-  O322  1  0.74006312  0.73786781  0.27027442  1
  O2-  O323  1  0.73707669  0.73952696  0.77058508  1
  O2-  O324  1  0.24019116  0.09266789  0.22674708  1
  O2-  O325  1  0.24424504  0.09533923  0.72863518  1
  O2-  O326  1  0.23411248  0.42823211  0.23294810  1
  O2-  O327  1  0.23703656  0.42528013  0.72741058  1
  O2-  O328  1  0.23667226  0.76338143  0.23402672  1
  O2-  O329  1  0.23626393  0.75997938  0.72556763  1
  O2-  O330  1  0.57431839  0.09387167  0.22748896  1
  O2-  O331  1  0.57082708  0.09655976  0.72914828  1
  O2-  O332  1  0.56734956  0.43344882  0.23027928  1
  O2-  O333  1  0.57264355  0.42788881  0.73059332  1
  O2-  O334  1  0.57178237  0.75892876  0.23061073  1
  O2-  O335  1  0.56840634  0.76624295  0.73024564  1
  O2-  O336  1  0.90541612  0.09689938  0.22912021  1
  O2-  O337  1  0.90893667  0.09272808  0.73891048  1
  O2-  O338  1  0.90261400  0.43048007  0.22600489  1
  O2-  O339  1  0.90420722  0.42937269  0.72994297  1
  O2-  O340  1  0.90783243  0.75810322  0.23391893  1
  O2-  O341  1  0.89987738  0.76169269  0.72901834  1
  O2-  O342  1  0.26580251  0.26057663  0.02325218  1
  O2-  O343  1  0.26346878  0.26032271  0.52282700  1
  O2-  O344  1  0.25813092  0.59191315  0.01538247  1
  O2-  O345  1  0.26116988  0.59332944  0.52385370  1
  O2-  O346  1  0.26069506  0.92810709  0.01960311  1
  O2-  O347  1  0.26077424  0.92682512  0.52163978  1
  O2-  O348  1  0.59673684  0.26205941  0.02520927  1
  O2-  O349  1  0.59653903  0.26430257  0.51545126  1
  O2-  O350  1  0.59796171  0.59725832  0.01320168  1
  O2-  O351  1  0.59743838  0.59436263  0.52280528  1
  O2-  O352  1  0.59432431  0.92811869  0.02087613  1
  O2-  O353  1  0.59608603  0.92923583  0.51709529  1
  O2-  O354  1  0.93280622  0.26533632  0.01976462  1
  O2-  O355  1  0.93007565  0.26325902  0.51054432  1
  O2-  O356  1  0.93037403  0.59511789  0.01818833  1
  O2-  O357  1  0.93070214  0.59924429  0.51958313  1
  O2-  O358  1  0.92783443  0.92899310  0.01779095  1
  O2-  O359  1  0.92696408  0.92632789  0.51366798  1
