# generated using pymatgen
data_Sr7Ca15Pr50Mn72O216
_symmetry_space_group_name_H-M   'P 1'
_cell_length_a   16.56007382
_cell_length_b   16.60275619
_cell_length_c   15.59259053
_cell_angle_alpha   90.00048329
_cell_angle_beta   89.99841854
_cell_angle_gamma   89.99402757
_symmetry_Int_Tables_number   1
_chemical_formula_structural   Sr7Ca15Pr50Mn72O216
_chemical_formula_sum   'Sr7 Ca15 Pr50 Mn72 O216'
_cell_volume   4287.07153748
_cell_formula_units_Z   1
loop_
 _symmetry_equiv_pos_site_id
 _symmetry_equiv_pos_as_xyz
  1  'x, y, z'
loop_
 _atom_type_symbol
 _atom_type_oxidation_number
  Sr2+  2.0
  Ca2+  2.0
  Pr3+  3.0
  Mn3.30+  3.3
  O2-  -2.0
loop_
 _atom_site_type_symbol
 _atom_site_label
 _atom_site_symmetry_multiplicity
 _atom_site_fract_x
 _atom_site_fract_y
 _atom_site_fract_z
 _atom_site_occupancy
  Sr2+  Sr0  1  0.66505616  0.32552952  0.37365283  1
  Sr2+  Sr1  1  0.83404277  0.82220524  0.87588831  1
  Sr2+  Sr2  1  0.83599156  0.17807243  0.12467059  1
  Sr2+  Sr3  1  0.83349234  0.49376718  0.87642692  1
  Sr2+  Sr4  1  0.33631163  0.98678545  0.87465500  1
  Sr2+  Sr5  1  0.00130472  0.67282636  0.12603185  1
  Sr2+  Sr6  1  0.33666752  0.00863015  0.62555123  1
  Ca2+  Ca7  1  0.67096601  0.32160441  0.87522621  1
  Ca2+  Ca8  1  -0.00412497  0.68085398  0.62329859  1
  Ca2+  Ca9  1  0.16233561  0.81662064  0.37645639  1
  Ca2+  Ca10  1  0.32873468  0.01376520  0.12459450  1
  Ca2+  Ca11  1  1.00674093  0.98277411  0.37469085  1
  Ca2+  Ca12  1  0.32681513  0.35292119  0.12683274  1
  Ca2+  Ca13  1  1.00501520  0.65261397  0.37607422  1
  Ca2+  Ca14  1  0.49397319  0.82032783  0.87081874  1
  Ca2+  Ca15  1  0.33015472  0.68274196  0.62431224  1
  Ca2+  Ca16  1  0.49750888  0.84527411  0.62714809  1
  Ca2+  Ca17  1  0.16957516  0.51592037  0.12585770  1
  Ca2+  Ca18  1  0.49254775  0.48002214  0.37552059  1
  Ca2+  Ca19  1  1.00248970  0.65334413  0.87407174  1
  Ca2+  Ca20  1  0.33925231  0.32044927  0.37379137  1
  Ca2+  Ca21  1  0.50316533  0.18121830  0.62513923  1
  Pr3+  Pr22  1  0.50244804  0.51337527  0.62248991  1
  Pr3+  Pr23  1  0.16957815  0.84443410  0.62232771  1
  Pr3+  Pr24  1  0.49610698  0.82124683  0.37789110  1
  Pr3+  Pr25  1  0.16503668  0.48748900  0.37301485  1
  Pr3+  Pr26  1  0.83649991  0.51495413  0.62494722  1
  Pr3+  Pr27  1  0.17166711  0.84659429  0.12728482  1
  Pr3+  Pr28  1  0.33568985  0.32098915  0.87667547  1
  Pr3+  Pr29  1  0.83473220  0.18074511  0.62521999  1
  Pr3+  Pr30  1  -0.00271119  0.01093001  0.62377439  1
  Pr3+  Pr31  1  0.66174466  0.34609333  0.62514478  1
  Pr3+  Pr32  1  0.16548685  0.15119819  0.87430527  1
  Pr3+  Pr33  1  0.49930790  0.84540796  0.12444920  1
  Pr3+  Pr34  1  0.33444765  0.34228440  0.62443803  1
  Pr3+  Pr35  1  0.66826318  0.98570196  0.87663374  1
  Pr3+  Pr36  1  0.49572558  0.15784988  0.37637556  1
  Pr3+  Pr37  1  -0.00191948  0.34607220  0.12529183  1
  Pr3+  Pr38  1  -0.00222521  0.34668353  0.62459634  1
  Pr3+  Pr39  1  0.49777402  0.15329857  0.87337435  1
  Pr3+  Pr40  1  0.33517416  0.65683740  0.87304899  1
  Pr3+  Pr41  1  0.66254166  0.68333591  0.62550747  1
  Pr3+  Pr42  1  0.83491232  0.51043303  0.12573878  1
  Pr3+  Pr43  1  0.83863717  0.84310049  0.12449939  1
  Pr3+  Pr44  1  0.82984553  0.15446297  0.37350192  1
  Pr3+  Pr45  1  0.83369741  0.49011487  0.37378391  1
  Pr3+  Pr46  1  1.00386365  0.32068402  0.37413984  1
  Pr3+  Pr47  1  1.00355269  0.98571085  0.87543853  1
  Pr3+  Pr48  1  0.16641464  0.15266414  0.37505371  1
  Pr3+  Pr49  1  0.16260667  0.81853281  0.87309963  1
  Pr3+  Pr50  1  0.49722640  0.48837458  0.87475555  1
  Pr3+  Pr51  1  0.17151905  0.17704580  0.62473511  1
  Pr3+  Pr52  1  0.83683043  0.84493240  0.62544601  1
  Pr3+  Pr53  1  0.49851969  0.17898298  0.12354299  1
  Pr3+  Pr54  1  0.66776662  0.65367996  0.37555919  1
  Pr3+  Pr55  1  0.82925721  0.15583085  0.87645081  1
  Pr3+  Pr56  1  0.17135941  0.51653567  0.62406732  1
  Pr3+  Pr57  1  0.66888061  0.65769170  0.87430603  1
  Pr3+  Pr58  1  0.66450592  0.34600520  0.12472670  1
  Pr3+  Pr59  1  0.66629607  0.01336995  0.12445975  1
  Pr3+  Pr60  1  0.65923809  0.01389278  0.62564279  1
  Pr3+  Pr61  1  0.83420153  0.81995763  0.37441477  1
  Pr3+  Pr62  1  0.66875721  0.98915047  0.37370434  1
  Pr3+  Pr63  1  0.33627181  0.98740275  0.37535606  1
  Pr3+  Pr64  1  -0.00180602  0.01087897  0.12606148  1
  Pr3+  Pr65  1  0.33555095  0.65147532  0.37806165  1
  Pr3+  Pr66  1  0.66491550  0.67728088  0.12428127  1
  Pr3+  Pr67  1  0.50021009  0.51221114  0.12755927  1
  Pr3+  Pr68  1  0.17397898  0.18009425  0.12465475  1
  Pr3+  Pr69  1  1.00252194  0.32113328  0.87559781  1
  Pr3+  Pr70  1  0.16127433  0.49002339  0.87715362  1
  Pr3+  Pr71  1  0.32606788  0.67744539  0.12621156  1
  Mn3.30+  Mn72  1  0.16905604  -0.00164663  0.00053488  1
  Mn3.30+  Mn73  1  0.16655105  -0.00216592  0.49842217  1
  Mn3.30+  Mn74  1  0.16867112  0.33517274  0.00189926  1
  Mn3.30+  Mn75  1  0.16905250  0.33310521  0.49829434  1
  Mn3.30+  Mn76  1  0.16551777  0.66609996  0.00053258  1
  Mn3.30+  Mn77  1  0.16474064  0.66792563  0.50023601  1
  Mn3.30+  Mn78  1  0.49728706  -0.00139477  0.00091179  1
  Mn3.30+  Mn79  1  0.50074124  0.00062591  0.50109152  1
  Mn3.30+  Mn80  1  0.49886100  0.33447790  0.00046115  1
  Mn3.30+  Mn81  1  0.49840792  0.33232666  0.49909674  1
  Mn3.30+  Mn82  1  0.49810024  0.66790474  -0.00025621  1
  Mn3.30+  Mn83  1  0.49830019  0.66716664  0.50125520  1
  Mn3.30+  Mn84  1  0.83429989  -0.00052983  0.00022287  1
  Mn3.30+  Mn85  1  0.83425928  -0.00037777  0.49897802  1
  Mn3.30+  Mn86  1  0.83218592  0.33438411  -0.00087086  1
  Mn3.30+  Mn87  1  0.83256151  0.33444577  0.49932877  1
  Mn3.30+  Mn88  1  0.83478596  0.66628987  -0.00100372  1
  Mn3.30+  Mn89  1  0.83571602  0.66749776  0.49933246  1
  Mn3.30+  Mn90  1  0.00175603  0.16459016  0.25084051  1
  Mn3.30+  Mn91  1  -0.00018147  0.16630793  0.74944280  1
  Mn3.30+  Mn92  1  0.00259766  0.50093344  0.24983017  1
  Mn3.30+  Mn93  1  0.00041252  0.50287511  0.74940633  1
  Mn3.30+  Mn94  1  0.00377292  0.83092265  0.25209773  1
  Mn3.30+  Mn95  1  0.00005983  0.82960466  0.74919552  1
  Mn3.30+  Mn96  1  0.33261480  0.16810586  0.24935366  1
  Mn3.30+  Mn97  1  0.33578961  0.16565465  0.74860310  1
  Mn3.30+  Mn98  1  0.33276480  0.49842392  0.25101568  1
  Mn3.30+  Mn99  1  0.33299847  0.50128505  0.74867192  1
  Mn3.30+  Mn100  1  0.33138686  0.83367693  0.25236030  1
  Mn3.30+  Mn101  1  0.33421749  0.83260863  0.74807970  1
  Mn3.30+  Mn102  1  0.66532763  0.16852264  0.24867050  1
  Mn3.30+  Mn103  1  0.66536510  0.16837823  0.75120947  1
  Mn3.30+  Mn104  1  0.66417804  0.49994867  0.25211490  1
  Mn3.30+  Mn105  1  0.66710977  0.50074017  0.75009832  1
  Mn3.30+  Mn106  1  0.66648316  0.83306865  0.24946388  1
  Mn3.30+  Mn107  1  0.66414060  0.83442639  0.75135611  1
  Mn3.30+  Mn108  1  0.16722441  -0.00167649  0.25166663  1
  Mn3.30+  Mn109  1  0.16811141  -0.00204921  0.74880745  1
  Mn3.30+  Mn110  1  0.17107397  0.33416307  0.24997246  1
  Mn3.30+  Mn111  1  0.16698182  0.33392731  0.74949694  1
  Mn3.30+  Mn112  1  0.16529589  0.66716900  0.25251472  1
  Mn3.30+  Mn113  1  0.16532883  0.66704301  0.74680160  1
  Mn3.30+  Mn114  1  0.49761266  0.00065451  0.24808898  1
  Mn3.30+  Mn115  1  0.49963717  -0.00167598  0.74981824  1
  Mn3.30+  Mn116  1  0.49497211  0.33364549  0.24817047  1
  Mn3.30+  Mn117  1  0.50211505  0.33310806  0.75210453  1
  Mn3.30+  Mn118  1  0.49763357  0.66536879  0.25207545  1
  Mn3.30+  Mn119  1  0.49849044  0.66974274  0.74766072  1
  Mn3.30+  Mn120  1  0.83716648  -0.00080819  0.25189800  1
  Mn3.30+  Mn121  1  0.83165743  -0.00040437  0.74983009  1
  Mn3.30+  Mn122  1  0.83385067  0.33312054  0.25014432  1
  Mn3.30+  Mn123  1  0.83119811  0.33564904  0.75151727  1
  Mn3.30+  Mn124  1  0.83557215  0.66636240  0.25123606  1
  Mn3.30+  Mn125  1  0.83507904  0.66741338  0.75063507  1
  Mn3.30+  Mn126  1  0.00133232  0.16624602  0.00076933  1
  Mn3.30+  Mn127  1  0.00055704  0.16514192  0.49879517  1
  Mn3.30+  Mn128  1  0.00038686  0.50108915  0.00051293  1
  Mn3.30+  Mn129  1  0.00177161  0.50242385  0.50011981  1
  Mn3.30+  Mn130  1  0.00192279  0.82922212  0.00081184  1
  Mn3.30+  Mn131  1  0.00221424  0.83113000  0.49799565  1
  Mn3.30+  Mn132  1  0.33372212  0.16643792  0.00051402  1
  Mn3.30+  Mn133  1  0.33434545  0.16729920  0.50109771  1
  Mn3.30+  Mn134  1  0.33085074  0.50060472  0.00049611  1
  Mn3.30+  Mn135  1  0.33476476  0.49841069  0.50030031  1
  Mn3.30+  Mn136  1  0.33432611  0.83387530  -0.00126114  1
  Mn3.30+  Mn137  1  0.33160801  0.83263714  0.50062191  1
  Mn3.30+  Mn138  1  0.66562252  0.16929022  0.00036159  1
  Mn3.30+  Mn139  1  0.66510563  0.16784180  0.49925545  1
  Mn3.30+  Mn140  1  0.66556036  0.50003197  -0.00079681  1
  Mn3.30+  Mn141  1  0.66571144  0.50025130  0.49794021  1
  Mn3.30+  Mn142  1  0.66487884  0.83276701  0.00006216  1
  Mn3.30+  Mn143  1  0.66565765  0.83498583  0.49969534  1
  O2-  O144  1  0.02906887  0.15983968  0.12488251  1
  O2-  O145  1  0.02653467  0.16024784  0.62255859  1
  O2-  O146  1  0.02665914  0.49299301  0.12653472  1
  O2-  O147  1  0.02758766  0.49163867  0.62342784  1
  O2-  O148  1  0.02717059  0.82907925  0.12717208  1
  O2-  O149  1  0.02456185  0.82671937  0.62355293  1
  O2-  O150  1  0.35474034  0.15691429  0.12412121  1
  O2-  O151  1  0.35884678  0.16776866  0.62650625  1
  O2-  O152  1  0.35727219  0.49964778  0.12689743  1
  O2-  O153  1  0.36003776  0.49017210  0.62586656  1
  O2-  O154  1  0.35626055  0.82369901  0.12751959  1
  O2-  O155  1  0.35626820  0.82679493  0.62366643  1
  O2-  O156  1  0.68726222  0.16237314  0.12476545  1
  O2-  O157  1  0.69207298  0.16116096  0.62661203  1
  O2-  O158  1  0.68878731  0.49691666  0.12601807  1
  O2-  O159  1  0.69077897  0.49457770  0.62246732  1
  O2-  O160  1  0.69330677  0.82688069  0.12525717  1
  O2-  O161  1  0.69286235  0.83182429  0.62113573  1
  O2-  O162  1  0.14051603  0.32518618  0.12450306  1
  O2-  O163  1  0.14055747  0.32483897  0.62274480  1
  O2-  O164  1  0.15139583  0.66275446  0.12731841  1
  O2-  O165  1  0.13728584  0.66293451  0.62322268  1
  O2-  O166  1  0.14200626  0.99584704  0.12781857  1
  O2-  O167  1  0.14110214  0.99573555  0.62365091  1
  O2-  O168  1  0.46860251  0.32881309  0.12295830  1
  O2-  O169  1  0.47826766  0.32881480  0.62709772  1
  O2-  O170  1  0.47053822  0.65944630  0.12889052  1
  O2-  O171  1  0.47229391  0.65860179  0.62326447  1
  O2-  O172  1  0.46950061  0.99228107  0.12506882  1
  O2-  O173  1  0.48615376  0.99057986  0.62450695  1
  O2-  O174  1  0.81004474  0.33488130  0.12539351  1
  O2-  O175  1  0.80731447  0.32939038  0.62524604  1
  O2-  O176  1  0.80892301  0.66210081  0.12697033  1
  O2-  O177  1  0.80705512  0.66465567  0.62326860  1
  O2-  O178  1  0.81108175  0.99220320  0.12580319  1
  O2-  O179  1  0.80546106  0.99425918  0.62372452  1
  O2-  O180  1  0.31022797  0.17487543  0.37466671  1
  O2-  O181  1  0.30932778  0.17308616  0.87510282  1
  O2-  O182  1  0.30744661  0.50470369  0.37652095  1
  O2-  O183  1  0.30610071  0.50683831  0.87120611  1
  O2-  O184  1  0.30707019  0.84033114  0.37507713  1
  O2-  O185  1  0.30795067  0.83043292  0.87363609  1
  O2-  O186  1  0.64112426  0.16630267  0.37102699  1
  O2-  O187  1  0.64133234  0.17444165  0.87687614  1
  O2-  O188  1  0.63720844  0.50678309  0.37519959  1
  O2-  O189  1  0.63980444  0.51106654  0.87600993  1
  O2-  O190  1  0.64032177  0.83947063  0.37460283  1
  O2-  O191  1  0.63680673  0.83744650  0.87980904  1
  O2-  O192  1  0.97355277  0.17440773  0.37671269  1
  O2-  O193  1  0.97495884  0.17184117  0.87556846  1
  O2-  O194  1  0.97779202  0.50375010  0.37599732  1
  O2-  O195  1  0.98391318  0.50531350  0.87348329  1
  O2-  O196  1  0.97495524  0.84214024  0.37509287  1
  O2-  O197  1  0.98302924  0.84066376  0.87443876  1
  O2-  O198  1  0.19377002  0.00607760  0.37456045  1
  O2-  O199  1  0.18503300  0.00205715  0.87314670  1
  O2-  O200  1  0.19673421  0.33922308  0.37500636  1
  O2-  O201  1  0.19187132  0.34155306  0.87740924  1
  O2-  O202  1  0.19233323  0.66943466  0.37780267  1
  O2-  O203  1  0.19148806  0.66947926  0.87189064  1
  O2-  O204  1  0.52473235  0.00798006  0.37326700  1
  O2-  O205  1  0.52534276  0.00607232  0.87649459  1
  O2-  O206  1  0.51635386  0.33291815  0.37317461  1
  O2-  O207  1  0.52845651  0.34155359  0.87677616  1
  O2-  O208  1  0.52519701  0.67538213  0.37665429  1
  O2-  O209  1  0.52477510  0.67405137  0.87218554  1
  O2-  O210  1  0.86270723  0.00715489  0.37656775  1
  O2-  O211  1  0.85873558  0.00680360  0.87473651  1
  O2-  O212  1  0.85998668  0.34039546  0.37507269  1
  O2-  O213  1  0.85893861  0.33533370  0.87454630  1
  O2-  O214  1  0.86106702  0.67140450  0.37561557  1
  O2-  O215  1  0.85785879  0.66719868  0.87390111  1
  O2-  O216  1  0.23589121  0.09630231  0.01491413  1
  O2-  O217  1  0.23830446  0.09791138  0.51599932  1
  O2-  O218  1  0.23563618  0.43279915  0.01970913  1
  O2-  O219  1  0.23871477  0.42794466  0.52261834  1
  O2-  O220  1  0.23782417  0.76276775  0.01800803  1
  O2-  O221  1  0.23574732  0.75940352  0.51915129  1
  O2-  O222  1  0.57266028  0.09358150  0.02030432  1
  O2-  O223  1  0.57167272  0.09634218  0.52092675  1
  O2-  O224  1  0.56915842  0.42879886  0.02310215  1
  O2-  O225  1  0.57097867  0.42530441  0.51991763  1
  O2-  O226  1  0.57292004  0.75856493  0.02693242  1
  O2-  O227  1  0.57131588  0.76578405  0.52148142  1
  O2-  O228  1  0.91065589  0.09153209  0.01840582  1
  O2-  O229  1  0.90364720  0.09365564  0.52305329  1
  O2-  O230  1  0.90685429  0.42560416  0.02128575  1
  O2-  O231  1  0.90753455  0.42924178  0.52012792  1
  O2-  O232  1  0.90593318  0.76055270  0.01979757  1
  O2-  O233  1  0.90162119  0.76462857  0.51667982  1
  O2-  O234  1  0.26215485  0.26275506  0.22532671  1
  O2-  O235  1  0.26096284  0.26140861  0.73149008  1
  O2-  O236  1  0.26487512  0.59675081  0.23785095  1
  O2-  O237  1  0.26104631  0.59750274  0.72497488  1
  O2-  O238  1  0.26343223  0.93156366  0.22837208  1
  O2-  O239  1  0.25800175  0.92299358  0.72952570  1
  O2-  O240  1  0.58848667  0.26157834  0.22555741  1
  O2-  O241  1  0.59660067  0.26271586  0.73080893  1
  O2-  O242  1  0.59297645  0.59548430  0.22934805  1
  O2-  O243  1  0.59282715  0.59650825  0.72798732  1
  O2-  O244  1  0.59461489  0.92838642  0.22827330  1
  O2-  O245  1  0.59884554  0.93191452  0.73626996  1
  O2-  O246  1  0.93207965  0.26277539  0.23295173  1
  O2-  O247  1  0.92840726  0.26144773  0.72882925  1
  O2-  O248  1  0.92124947  0.58902978  0.23115539  1
  O2-  O249  1  0.92884899  0.59286408  0.72519195  1
  O2-  O250  1  0.92981284  0.92471456  0.22816366  1
  O2-  O251  1  0.92859346  0.92631292  0.72927695  1
  O2-  O252  1  0.09711494  0.23757816  0.27142372  1
  O2-  O253  1  0.09553084  0.23904664  0.77108113  1
  O2-  O254  1  0.09548002  0.57216617  0.26978172  1
  O2-  O255  1  0.09936851  0.56935591  0.76511420  1
  O2-  O256  1  0.10010780  0.90090735  0.26873054  1
  O2-  O257  1  0.09351266  0.90437163  0.76634206  1
  O2-  O258  1  0.42937656  0.23478222  0.26467403  1
  O2-  O259  1  0.42875397  0.24272954  0.77383565  1
  O2-  O260  1  0.42927296  0.56918253  0.27414865  1
  O2-  O261  1  0.42876047  0.57289670  0.77067697  1
  O2-  O262  1  0.42958280  0.90523128  0.27185816  1
  O2-  O263  1  0.42973364  0.90371121  0.76661101  1
  O2-  O264  1  0.76399214  0.24187449  0.26927673  1
  O2-  O265  1  0.76329332  0.23571921  0.76774072  1
  O2-  O266  1  0.75955269  0.57524878  0.27208613  1
  O2-  O267  1  0.75904299  0.57492250  0.76512692  1
  O2-  O268  1  0.76418549  0.90774970  0.27195352  1
  O2-  O269  1  0.75950826  0.90827848  0.76981877  1
  O2-  O270  1  0.07172844  0.06935269  0.47807192  1
  O2-  O271  1  0.07230125  0.07110125  0.97949623  1
  O2-  O272  1  0.07469121  0.40368848  0.47854520  1
  O2-  O273  1  0.07128123  0.40390049  0.98025131  1
  O2-  O274  1  0.06832364  0.73539218  0.47847404  1
  O2-  O275  1  0.07335725  0.73737527  0.97693270  1
  O2-  O276  1  0.40544073  0.07435443  0.47778509  1
  O2-  O277  1  0.41045143  0.07484525  0.98058503  1
  O2-  O278  1  0.40187203  0.40085295  0.48366290  1
  O2-  O279  1  0.40533190  0.40794271  0.97683411  1
  O2-  O280  1  0.40458984  0.74048137  0.47731317  1
  O2-  O281  1  0.40294705  0.73623282  0.98311969  1
  O2-  O282  1  0.73874928  0.07235871  0.47832790  1
  O2-  O283  1  0.73802484  0.07571474  0.98040687  1
  O2-  O284  1  0.74228126  0.40943001  0.47978832  1
  O2-  O285  1  0.73216084  0.40574494  0.98363837  1
  O2-  O286  1  0.73715287  0.73939396  0.47814466  1
  O2-  O287  1  0.73582397  0.73850460  0.98291792  1
  O2-  O288  1  0.09616285  0.23920157  0.47723905  1
  O2-  O289  1  0.09677963  0.23765769  0.97827639  1
  O2-  O290  1  0.09877524  0.56922466  0.48171793  1
  O2-  O291  1  0.09534478  0.57220800  0.98376539  1
  O2-  O292  1  0.09518547  0.89987511  0.48155798  1
  O2-  O293  1  0.09644409  0.90392328  0.98319762  1
  O2-  O294  1  0.42837128  0.23771891  0.48384982  1
  O2-  O295  1  0.42961942  0.23989460  0.97760611  1
  O2-  O296  1  0.42881349  0.56706804  0.47858524  1
  O2-  O297  1  0.42692942  0.57218738  0.97865837  1
  O2-  O298  1  0.42784713  0.90857587  0.47874068  1
  O2-  O299  1  0.43147320  0.89886213  0.98196654  1
  O2-  O300  1  0.76317874  0.23577525  0.48271770  1
  O2-  O301  1  0.76132418  0.24082254  0.98076504  1
  O2-  O302  1  0.76280392  0.57467172  0.47791179  1
  O2-  O303  1  0.75529632  0.57568157  0.98474767  1
  O2-  O304  1  0.76318316  0.90641879  0.47568361  1
  O2-  O305  1  0.75632301  0.90844371  0.98287478  1
  O2-  O306  1  0.07263508  0.06874446  0.27297471  1
  O2-  O307  1  0.07070773  0.07097299  0.76882022  1
  O2-  O308  1  0.07451578  0.40264185  0.27160321  1
  O2-  O309  1  0.07182913  0.40472875  0.76890132  1
  O2-  O310  1  0.07014061  0.73666426  0.27350286  1
  O2-  O311  1  0.07188598  0.73710543  0.77247294  1
  O2-  O312  1  0.40469898  0.07387181  0.27228742  1
  O2-  O313  1  0.41041743  0.07373072  0.76908917  1
  O2-  O314  1  0.40132673  0.40374686  0.26857534  1
  O2-  O315  1  0.40699869  0.40501856  0.77186057  1
  O2-  O316  1  0.40497016  0.73741418  0.27348633  1
  O2-  O317  1  0.40357931  0.73778433  0.76778172  1
  O2-  O318  1  0.74233478  0.07162077  0.26881879  1
  O2-  O319  1  0.73606181  0.07412184  0.77301405  1
  O2-  O320  1  0.74289855  0.41101999  0.26744439  1
  O2-  O321  1  0.73519303  0.40335197  0.76775487  1
  O2-  O322  1  0.73868090  0.73854609  0.27132238  1
  O2-  O323  1  0.73345107  0.73970509  0.76604278  1
  O2-  O324  1  0.23637426  0.09875883  0.23490696  1
  O2-  O325  1  0.23559768  0.09510819  0.73374484  1
  O2-  O326  1  0.23489655  0.43303928  0.22973949  1
  O2-  O327  1  0.23866802  0.42702068  0.72773661  1
  O2-  O328  1  0.23816958  0.76059877  0.23177005  1
  O2-  O329  1  0.23417000  0.76142747  0.73078273  1
  O2-  O330  1  0.56915908  0.09097703  0.22500718  1
  O2-  O331  1  0.57201852  0.09739967  0.73107512  1
  O2-  O332  1  0.57046790  0.42430214  0.22792718  1
  O2-  O333  1  0.57060087  0.42981630  0.72938276  1
  O2-  O334  1  0.56909805  0.75901485  0.22952789  1
  O2-  O335  1  0.57030985  0.76211433  0.72468352  1
  O2-  O336  1  0.90861259  0.09128555  0.23061829  1
  O2-  O337  1  0.90382161  0.09336336  0.72853431  1
  O2-  O338  1  0.90785688  0.42649143  0.23093728  1
  O2-  O339  1  0.90735785  0.42842082  0.72729335  1
  O2-  O340  1  0.90276269  0.76341167  0.23388140  1
  O2-  O341  1  0.90485783  0.76183515  0.72915864  1
  O2-  O342  1  0.26283820  0.26513515  0.02028313  1
  O2-  O343  1  0.26002930  0.25994080  0.52356395  1
  O2-  O344  1  0.26313593  0.59819106  0.01479758  1
  O2-  O345  1  0.26358304  0.59500597  0.52141457  1
  O2-  O346  1  0.26299288  0.92712212  0.02277028  1
  O2-  O347  1  0.26020893  0.92616855  0.51886164  1
  O2-  O348  1  0.59176746  0.26118498  0.02418932  1
  O2-  O349  1  0.59515937  0.26121112  0.51859779  1
  O2-  O350  1  0.59053245  0.59426510  0.02141042  1
  O2-  O351  1  0.59586938  0.59687203  0.52116623  1
  O2-  O352  1  0.59361680  0.92848435  0.02490840  1
  O2-  O353  1  0.60096760  0.93279776  0.51206538  1
  O2-  O354  1  0.93316220  0.26131812  0.01758398  1
  O2-  O355  1  0.92794534  0.26191713  0.52101256  1
  O2-  O356  1  0.92349960  0.58709951  0.02039479  1
  O2-  O357  1  0.92648274  0.59477032  0.52331161  1
  O2-  O358  1  0.93081144  0.92398415  0.01961901  1
  O2-  O359  1  0.92687939  0.92605018  0.52361864  1
