# generated using pymatgen
data_Sr7Ca15Pr50Mn72O216
_symmetry_space_group_name_H-M   'P 1'
_cell_length_a   16.55571809
_cell_length_b   16.60127219
_cell_length_c   15.58992524
_cell_angle_alpha   89.99548311
_cell_angle_beta   90.00063830
_cell_angle_gamma   89.99809261
_symmetry_Int_Tables_number   1
_chemical_formula_structural   Sr7Ca15Pr50Mn72O216
_chemical_formula_sum   'Sr7 Ca15 Pr50 Mn72 O216'
_cell_volume   4284.82829833
_cell_formula_units_Z   1
loop_
 _symmetry_equiv_pos_site_id
 _symmetry_equiv_pos_as_xyz
  1  'x, y, z'
loop_
 _atom_type_symbol
 _atom_type_oxidation_number
  Sr2+  2.0
  Ca2+  2.0
  Pr3+  3.0
  Mn3.30+  3.3
  O2-  -2.0
loop_
 _atom_site_type_symbol
 _atom_site_label
 _atom_site_symmetry_multiplicity
 _atom_site_fract_x
 _atom_site_fract_y
 _atom_site_fract_z
 _atom_site_occupancy
  Sr2+  Sr0  1  0.49644394  0.48938118  0.87654525  1
  Sr2+  Sr1  1  0.66676795  0.99172762  0.37489647  1
  Sr2+  Sr2  1  0.66748122  0.98782644  0.87496919  1
  Sr2+  Sr3  1  0.49847053  0.17626747  0.62508369  1
  Sr2+  Sr4  1  0.66607996  0.32353890  0.37513498  1
  Sr2+  Sr5  1  0.50407483  0.83964189  0.12304471  1
  Sr2+  Sr6  1  0.50212274  0.17435561  0.12510518  1
  Ca2+  Ca7  1  0.49863298  0.81817599  0.87761574  1
  Ca2+  Ca8  1  0.83030907  0.81769291  0.87754877  1
  Ca2+  Ca9  1  0.33132762  0.34772854  0.62557413  1
  Ca2+  Ca10  1  0.33890999  0.31883792  0.37751070  1
  Ca2+  Ca11  1  0.17269153  0.85018046  0.62572960  1
  Ca2+  Ca12  1  0.33699548  0.65240258  0.37401355  1
  Ca2+  Ca13  1  -0.00714381  0.68483920  0.12491896  1
  Ca2+  Ca14  1  0.66201925  0.68320850  0.12320545  1
  Ca2+  Ca15  1  1.00061449  0.65353358  0.87706524  1
  Ca2+  Ca16  1  0.33830507  0.32046371  0.87242610  1
  Ca2+  Ca17  1  0.33170459  0.01465553  0.62591184  1
  Ca2+  Ca18  1  0.50562317  0.51702362  0.12478296  1
  Ca2+  Ca19  1  1.00231090  0.65231329  0.37311951  1
  Ca2+  Ca20  1  0.83170906  0.84344424  0.12256588  1
  Ca2+  Ca21  1  0.83701061  0.51527993  0.62426247  1
  Pr3+  Pr22  1  0.66234483  0.34583917  0.62418959  1
  Pr3+  Pr23  1  0.49690776  0.15547711  0.87461222  1
  Pr3+  Pr24  1  0.16685714  0.48863367  0.37382493  1
  Pr3+  Pr25  1  0.17180811  0.17931385  0.12478046  1
  Pr3+  Pr26  1  0.83326231  0.17760958  0.12464526  1
  Pr3+  Pr27  1  0.32667276  0.68039903  0.62403651  1
  Pr3+  Pr28  1  0.33383266  0.01261011  0.12435968  1
  Pr3+  Pr29  1  0.65686816  0.34729793  0.12579620  1
  Pr3+  Pr30  1  0.66450861  0.00866188  0.12450134  1
  Pr3+  Pr31  1  0.49462626  0.48575093  0.37326063  1
  Pr3+  Pr32  1  -0.00240993  0.67651791  0.62463492  1
  Pr3+  Pr33  1  0.33374268  0.67842865  0.12557159  1
  Pr3+  Pr34  1  0.49848389  0.15477910  0.37536473  1
  Pr3+  Pr35  1  0.33826265  0.65492013  0.87558968  1
  Pr3+  Pr36  1  0.82861373  0.49215806  0.87456541  1
  Pr3+  Pr37  1  0.83398668  0.51763562  0.12571016  1
  Pr3+  Pr38  1  0.16211909  0.81704341  0.87341493  1
  Pr3+  Pr39  1  0.16469969  0.48924362  0.87601910  1
  Pr3+  Pr40  1  0.82851405  0.15360036  0.37493237  1
  Pr3+  Pr41  1  0.17555201  0.18249926  0.62525603  1
  Pr3+  Pr42  1  0.49646545  0.81750806  0.37424947  1
  Pr3+  Pr43  1  -0.00331912  0.34934438  0.62499371  1
  Pr3+  Pr44  1  1.00321793  0.32179709  0.87574953  1
  Pr3+  Pr45  1  0.34043129  0.98513999  0.87286965  1
  Pr3+  Pr46  1  -0.00348955  0.34725099  0.12480837  1
  Pr3+  Pr47  1  0.82884326  0.48862825  0.37540509  1
  Pr3+  Pr48  1  0.83546084  0.84481905  0.62728375  1
  Pr3+  Pr49  1  0.16245637  0.81752039  0.37669218  1
  Pr3+  Pr50  1  0.16699362  0.51623364  0.12537624  1
  Pr3+  Pr51  1  0.66316110  0.01278312  0.62564936  1
  Pr3+  Pr52  1  0.17035565  0.51181605  0.62428678  1
  Pr3+  Pr53  1  0.00093093  0.01196670  0.62571630  1
  Pr3+  Pr54  1  0.83139378  0.82123021  0.37418131  1
  Pr3+  Pr55  1  0.66661750  0.67618080  0.62574503  1
  Pr3+  Pr56  1  0.83525253  0.17812460  0.62512911  1
  Pr3+  Pr57  1  1.00406474  0.98558822  0.37549052  1
  Pr3+  Pr58  1  0.33844878  0.98811882  0.37725430  1
  Pr3+  Pr59  1  1.00261769  0.32093934  0.37389651  1
  Pr3+  Pr60  1  0.16653969  0.15320602  0.37520216  1
  Pr3+  Pr61  1  0.16911320  0.84417664  0.12454438  1
  Pr3+  Pr62  1  0.49757613  0.50795451  0.62534670  1
  Pr3+  Pr63  1  0.50286308  0.84401210  0.62737738  1
  Pr3+  Pr64  1  0.66835753  0.65622939  0.37229029  1
  Pr3+  Pr65  1  0.16683005  0.15351933  0.87505386  1
  Pr3+  Pr66  1  0.33371089  0.34764658  0.12530368  1
  Pr3+  Pr67  1  0.66564945  0.32214181  0.87449536  1
  Pr3+  Pr68  1  1.00272042  0.98432769  0.87459487  1
  Pr3+  Pr69  1  0.82955843  0.15316482  0.87485608  1
  Pr3+  Pr70  1  0.66623815  0.65988978  0.87777198  1
  Pr3+  Pr71  1  -0.00330601  0.00941964  0.12417985  1
  Mn3.30+  Mn72  1  0.16759214  -0.00161441  -0.00146535  1
  Mn3.30+  Mn73  1  0.17030574  -0.00108418  0.50199803  1
  Mn3.30+  Mn74  1  0.16834916  0.33440701  -0.00027467  1
  Mn3.30+  Mn75  1  0.16938575  0.33425210  0.49847834  1
  Mn3.30+  Mn76  1  0.16343990  0.66722389  0.00143323  1
  Mn3.30+  Mn77  1  0.16578945  0.66639159  0.49758620  1
  Mn3.30+  Mn78  1  0.50155218  -0.00310175  -0.00132949  1
  Mn3.30+  Mn79  1  0.49906543  -0.00111334  0.50201178  1
  Mn3.30+  Mn80  1  0.49720640  0.33436569  -0.00018756  1
  Mn3.30+  Mn81  1  0.49688422  0.33258713  0.50073674  1
  Mn3.30+  Mn82  1  0.50151126  0.66663676  0.00071589  1
  Mn3.30+  Mn83  1  0.49739938  0.66475599  0.50040402  1
  Mn3.30+  Mn84  1  0.83309789  -0.00413801  -0.00105401  1
  Mn3.30+  Mn85  1  0.83435544  -0.00065387  0.50115165  1
  Mn3.30+  Mn86  1  0.83113479  0.33509879  0.00027487  1
  Mn3.30+  Mn87  1  0.83307474  0.33489865  0.50051277  1
  Mn3.30+  Mn88  1  0.83418895  0.66996517  0.00133804  1
  Mn3.30+  Mn89  1  0.83517790  0.66610915  0.49876737  1
  Mn3.30+  Mn90  1  0.00015400  0.16591761  0.24934510  1
  Mn3.30+  Mn91  1  0.00200972  0.16680208  0.74999444  1
  Mn3.30+  Mn92  1  -0.00130513  0.50339088  0.24986501  1
  Mn3.30+  Mn93  1  -0.00135728  0.50173064  0.75107304  1
  Mn3.30+  Mn94  1  -0.00128441  0.83083004  0.24889109  1
  Mn3.30+  Mn95  1  0.00114176  0.83041679  0.75006086  1
  Mn3.30+  Mn96  1  0.33417241  0.16840660  0.25050190  1
  Mn3.30+  Mn97  1  0.33345755  0.16888619  0.74924262  1
  Mn3.30+  Mn98  1  0.33475305  0.50108597  0.24863093  1
  Mn3.30+  Mn99  1  0.33266406  0.49803188  0.75096204  1
  Mn3.30+  Mn100  1  0.33321532  0.83190248  0.25092616  1
  Mn3.30+  Mn101  1  0.33290285  0.83368366  0.74926838  1
  Mn3.30+  Mn102  1  0.66649791  0.16670078  0.25035601  1
  Mn3.30+  Mn103  1  0.66545033  0.16696114  0.74942760  1
  Mn3.30+  Mn104  1  0.66442219  0.50219353  0.24866479  1
  Mn3.30+  Mn105  1  0.66643801  0.50118760  0.74937650  1
  Mn3.30+  Mn106  1  0.66750156  0.83294059  0.24900349  1
  Mn3.30+  Mn107  1  0.66810188  0.83247663  0.75257999  1
  Mn3.30+  Mn108  1  0.16753296  -0.00145491  0.25024970  1
  Mn3.30+  Mn109  1  0.17022481  -0.00123901  0.74946762  1
  Mn3.30+  Mn110  1  0.16836757  0.33389560  0.25058853  1
  Mn3.30+  Mn111  1  0.16933378  0.33466218  0.75127575  1
  Mn3.30+  Mn112  1  0.16451532  0.66721501  0.25042663  1
  Mn3.30+  Mn113  1  0.16477816  0.66658201  0.75026625  1
  Mn3.30+  Mn114  1  0.50131977  -0.00259996  0.24999278  1
  Mn3.30+  Mn115  1  0.49919774  -0.00179544  0.74999031  1
  Mn3.30+  Mn116  1  0.49755014  0.33296398  0.25028203  1
  Mn3.30+  Mn117  1  0.49646718  0.33387148  0.74926912  1
  Mn3.30+  Mn118  1  0.50108025  0.66492762  0.24946357  1
  Mn3.30+  Mn119  1  0.49807914  0.66615548  0.74902097  1
  Mn3.30+  Mn120  1  0.83394875  -0.00257620  0.24901800  1
  Mn3.30+  Mn121  1  0.83355658  -0.00210962  0.75107579  1
  Mn3.30+  Mn122  1  0.83094725  0.33448570  0.24874242  1
  Mn3.30+  Mn123  1  0.83342089  0.33561439  0.74981782  1
  Mn3.30+  Mn124  1  0.83463073  0.66994568  0.24810544  1
  Mn3.30+  Mn125  1  0.83510876  0.66682351  0.75196325  1
  Mn3.30+  Mn126  1  0.00021930  0.16602321  0.00001392  1
  Mn3.30+  Mn127  1  0.00208722  0.16688133  0.50071570  1
  Mn3.30+  Mn128  1  -0.00197695  0.50374920  0.00090329  1
  Mn3.30+  Mn129  1  -0.00077136  0.50116493  0.49788011  1
  Mn3.30+  Mn130  1  -0.00285265  0.83005244  -0.00122011  1
  Mn3.30+  Mn131  1  0.00232501  0.83102329  0.50198922  1
  Mn3.30+  Mn132  1  0.33429851  0.16881894  -0.00055700  1
  Mn3.30+  Mn133  1  0.33359014  0.16874332  0.50132085  1
  Mn3.30+  Mn134  1  0.33505518  0.49999790  0.00205819  1
  Mn3.30+  Mn135  1  0.33247492  0.49931914  0.49810876  1
  Mn3.30+  Mn136  1  0.33465583  0.83289484  -0.00026585  1
  Mn3.30+  Mn137  1  0.33137526  0.83354931  0.50080269  1
  Mn3.30+  Mn138  1  0.66582488  0.16600145  -0.00045526  1
  Mn3.30+  Mn139  1  0.66621206  0.16769046  0.50046123  1
  Mn3.30+  Mn140  1  0.66388614  0.50223791  0.00028345  1
  Mn3.30+  Mn141  1  0.66692114  0.50062815  0.50105274  1
  Mn3.30+  Mn142  1  0.66841280  0.83232822  -0.00121575  1
  Mn3.30+  Mn143  1  0.66675981  0.83313168  0.50001931  1
  O2-  O144  1  0.02763696  0.15943167  0.12487115  1
  O2-  O145  1  0.03028534  0.16151776  0.62667314  1
  O2-  O146  1  0.02395309  0.49275867  0.12517035  1
  O2-  O147  1  0.02629617  0.49598081  0.62278227  1
  O2-  O148  1  0.02638948  0.83046461  0.12296910  1
  O2-  O149  1  0.03049452  0.82400596  0.62544107  1
  O2-  O150  1  0.35210271  0.16026404  0.12499535  1
  O2-  O151  1  0.34987329  0.15860481  0.62530675  1
  O2-  O152  1  0.36245162  0.49486909  0.12548990  1
  O2-  O153  1  0.35265692  0.49405346  0.62392408  1
  O2-  O154  1  0.35247412  0.82730127  0.12562741  1
  O2-  O155  1  0.35913981  0.82515601  0.62461750  1
  O2-  O156  1  0.68931317  0.16124932  0.12412063  1
  O2-  O157  1  0.69091252  0.16396373  0.62616591  1
  O2-  O158  1  0.69091186  0.49246124  0.12418069  1
  O2-  O159  1  0.69455085  0.49406918  0.62548205  1
  O2-  O160  1  0.69037017  0.82848008  0.12412304  1
  O2-  O161  1  0.69203264  0.82487050  0.62554521  1
  O2-  O162  1  0.14003144  0.32749357  0.12560110  1
  O2-  O163  1  0.14045334  0.33117963  0.62498919  1
  O2-  O164  1  0.13647705  0.66470463  0.12579024  1
  O2-  O165  1  0.14118123  0.65772912  0.62302980  1
  O2-  O166  1  0.14157077  0.99404749  0.12361625  1
  O2-  O167  1  0.14388383  0.99655398  0.62600981  1
  O2-  O168  1  0.47614545  0.32755031  0.12528981  1
  O2-  O169  1  0.47370906  0.33623711  0.62458750  1
  O2-  O170  1  0.47712182  0.66393385  0.12590925  1
  O2-  O171  1  0.47146220  0.66014511  0.62353991  1
  O2-  O172  1  0.47708506  0.99549915  0.12310572  1
  O2-  O173  1  0.47337199  0.99123523  0.62618562  1
  O2-  O174  1  0.80331901  0.32611352  0.12392747  1
  O2-  O175  1  0.80740686  0.32507713  0.62691597  1
  O2-  O176  1  0.80332370  0.66273443  0.12580754  1
  O2-  O177  1  0.81035137  0.66135779  0.62474778  1
  O2-  O178  1  0.81038676  0.99247971  0.12346811  1
  O2-  O179  1  0.80866319  0.99391926  0.62711406  1
  O2-  O180  1  0.30906733  0.17168264  0.37488973  1
  O2-  O181  1  0.30918321  0.17422746  0.87533645  1
  O2-  O182  1  0.30946063  0.50962907  0.37231371  1
  O2-  O183  1  0.30768966  0.50911890  0.87785754  1
  O2-  O184  1  0.30607589  0.84209549  0.37605795  1
  O2-  O185  1  0.30623689  0.83655136  0.87404676  1
  O2-  O186  1  0.64469706  0.16720007  0.37626956  1
  O2-  O187  1  0.64291780  0.17263758  0.87354104  1
  O2-  O188  1  0.64015961  0.50803748  0.37494575  1
  O2-  O189  1  0.64583639  0.50925495  0.87461801  1
  O2-  O190  1  0.64156621  0.83504779  0.37784450  1
  O2-  O191  1  0.64075463  0.83052053  0.87254156  1
  O2-  O192  1  0.97321402  0.17197277  0.37432630  1
  O2-  O193  1  0.97392425  0.17335350  0.87452559  1
  O2-  O194  1  0.97269970  0.50488063  0.37298182  1
  O2-  O195  1  0.97325311  0.50546669  0.87871744  1
  O2-  O196  1  0.97496195  0.84076696  0.37771037  1
  O2-  O197  1  0.97257638  0.83968559  0.87368313  1
  O2-  O198  1  0.19297114  0.00376784  0.37617234  1
  O2-  O199  1  0.19456389  0.00359722  0.87454472  1
  O2-  O200  1  0.19492481  0.33937168  0.37188892  1
  O2-  O201  1  0.19387228  0.34086448  0.87791296  1
  O2-  O202  1  0.19479726  0.67146813  0.37398513  1
  O2-  O203  1  0.19376605  0.66966844  0.87672643  1
  O2-  O204  1  0.51666094  0.00476496  0.37706289  1
  O2-  O205  1  0.51789862  0.00812006  0.87413799  1
  O2-  O206  1  0.51811988  0.33808032  0.37542617  1
  O2-  O207  1  0.52247106  0.33454948  0.87447572  1
  O2-  O208  1  0.52396129  0.66812414  0.37726531  1
  O2-  O209  1  0.51983941  0.67003932  0.87309574  1
  O2-  O210  1  0.86040134  0.00574196  0.37614199  1
  O2-  O211  1  0.86038467  0.00805406  0.87351010  1
  O2-  O212  1  0.85902912  0.33965782  0.37401809  1
  O2-  O213  1  0.85981337  0.34219676  0.87462334  1
  O2-  O214  1  0.86106377  0.67447997  0.37303797  1
  O2-  O215  1  0.85985944  0.67082626  0.87629409  1
  O2-  O216  1  0.23911586  0.09553572  0.01827782  1
  O2-  O217  1  0.23648171  0.10040959  0.51462586  1
  O2-  O218  1  0.23827789  0.43081828  0.02402209  1
  O2-  O219  1  0.23495264  0.43165995  0.51479484  1
  O2-  O220  1  0.23601741  0.76008835  0.01956146  1
  O2-  O221  1  0.23609072  0.76559936  0.52151969  1
  O2-  O222  1  0.57561307  0.08999890  0.01583122  1
  O2-  O223  1  0.57517087  0.08900651  0.51881019  1
  O2-  O224  1  0.56980687  0.42767117  0.02152350  1
  O2-  O225  1  0.57173321  0.42721789  0.51960507  1
  O2-  O226  1  0.57481387  0.75789845  0.01299133  1
  O2-  O227  1  0.57141403  0.75885551  0.52047579  1
  O2-  O228  1  0.90678156  0.09348171  0.02080204  1
  O2-  O229  1  0.90942272  0.09447309  0.52308063  1
  O2-  O230  1  0.90265146  0.42850264  0.02259123  1
  O2-  O231  1  0.90507696  0.42838363  0.52125868  1
  O2-  O232  1  0.90313600  0.76368158  0.02277220  1
  O2-  O233  1  0.90644735  0.76149758  0.52244005  1
  O2-  O234  1  0.25951275  0.26046309  0.22690248  1
  O2-  O235  1  0.26217031  0.26372930  0.72773332  1
  O2-  O236  1  0.25974198  0.59447362  0.22531723  1
  O2-  O237  1  0.25983071  0.59587866  0.73041755  1
  O2-  O238  1  0.26092775  0.92928659  0.22881964  1
  O2-  O239  1  0.26732151  0.93164525  0.73134827  1
  O2-  O240  1  0.59380619  0.26245772  0.23326441  1
  O2-  O241  1  0.59591595  0.26388315  0.73320411  1
  O2-  O242  1  0.59871407  0.59782821  0.23061044  1
  O2-  O243  1  0.59253013  0.59106411  0.72594007  1
  O2-  O244  1  0.59785680  0.92580733  0.23181965  1
  O2-  O245  1  0.59607726  0.92432257  0.72712836  1
  O2-  O246  1  0.92664794  0.26225935  0.22760796  1
  O2-  O247  1  0.92973522  0.26145591  0.72903086  1
  O2-  O248  1  0.92491142  0.59855114  0.22566278  1
  O2-  O249  1  0.92819848  0.59383006  0.73079160  1
  O2-  O250  1  0.93285887  0.93101745  0.23447825  1
  O2-  O251  1  0.93126134  0.92705773  0.72729308  1
  O2-  O252  1  0.09402470  0.23830565  0.27118698  1
  O2-  O253  1  0.09729827  0.24077307  0.77274746  1
  O2-  O254  1  0.09772915  0.57145340  0.26911630  1
  O2-  O255  1  0.09585167  0.56965652  0.76884681  1
  O2-  O256  1  0.09528361  0.90273775  0.27018299  1
  O2-  O257  1  0.09411712  0.90425914  0.77116625  1
  O2-  O258  1  0.42755044  0.23685389  0.27043250  1
  O2-  O259  1  0.42860645  0.23738405  0.76892740  1
  O2-  O260  1  0.43022704  0.57066145  0.26776807  1
  O2-  O261  1  0.42358333  0.57181692  0.76549416  1
  O2-  O262  1  0.42610414  0.90531812  0.27229157  1
  O2-  O263  1  0.42991458  0.90111887  0.77188729  1
  O2-  O264  1  0.76444974  0.23731216  0.26693374  1
  O2-  O265  1  0.76345356  0.24130900  0.77139843  1
  O2-  O266  1  0.76372201  0.57430578  0.27091439  1
  O2-  O267  1  0.75952792  0.57655497  0.77112929  1
  O2-  O268  1  0.76426507  0.90511542  0.26899738  1
  O2-  O269  1  0.76697505  0.90197693  0.76747006  1
  O2-  O270  1  0.07338154  0.07164960  0.47958100  1
  O2-  O271  1  0.07440210  0.06998117  0.97736491  1
  O2-  O272  1  0.06992653  0.40522171  0.47761922  1
  O2-  O273  1  0.07162380  0.40548933  0.98033332  1
  O2-  O274  1  0.07035069  0.73549763  0.47633261  1
  O2-  O275  1  0.07035522  0.73911423  0.97536546  1
  O2-  O276  1  0.40543974  0.07498472  0.48044380  1
  O2-  O277  1  0.40406027  0.07276797  0.98154077  1
  O2-  O278  1  0.40386188  0.40674773  0.47788972  1
  O2-  O279  1  0.39950953  0.40021535  0.98270433  1
  O2-  O280  1  0.40173554  0.73823604  0.47795404  1
  O2-  O281  1  0.40362031  0.73802001  0.98369775  1
  O2-  O282  1  0.74434799  0.07508156  0.48547727  1
  O2-  O283  1  0.74458739  0.07393682  0.98273237  1
  O2-  O284  1  0.73928485  0.40968058  0.48098871  1
  O2-  O285  1  0.73633757  0.40763686  0.97826857  1
  O2-  O286  1  0.73877932  0.73935471  0.48000069  1
  O2-  O287  1  0.73981069  0.73842878  0.97813795  1
  O2-  O288  1  0.09624487  0.23941744  0.47766482  1
  O2-  O289  1  0.09409593  0.23865499  0.97926923  1
  O2-  O290  1  0.09522585  0.56887014  0.47835263  1
  O2-  O291  1  0.09685532  0.57144626  0.98218897  1
  O2-  O292  1  0.09420700  0.90474657  0.47989251  1
  O2-  O293  1  0.09475215  0.90251726  0.97822080  1
  O2-  O294  1  0.42820061  0.23698390  0.48019910  1
  O2-  O295  1  0.42863869  0.23745023  0.98071744  1
  O2-  O296  1  0.42885844  0.56773053  0.48328321  1
  O2-  O297  1  0.42389611  0.57588417  0.98318479  1
  O2-  O298  1  0.42836972  0.90262720  0.48012793  1
  O2-  O299  1  0.42758918  0.90606772  0.97654076  1
  O2-  O300  1  0.76595116  0.23841259  0.48338697  1
  O2-  O301  1  0.76190015  0.24017706  0.97781030  1
  O2-  O302  1  0.75968789  0.57585402  0.47665207  1
  O2-  O303  1  0.76364484  0.57380678  0.98134648  1
  O2-  O304  1  0.76425244  0.90292766  0.48467042  1
  O2-  O305  1  0.76520765  0.90316226  0.97947542  1
  O2-  O306  1  0.07459038  0.06985625  0.27170479  1
  O2-  O307  1  0.07324943  0.07147292  0.77187279  1
  O2-  O308  1  0.07346213  0.40435586  0.27048068  1
  O2-  O309  1  0.06954148  0.40574363  0.77100209  1
  O2-  O310  1  0.07073938  0.73887255  0.27401812  1
  O2-  O311  1  0.07053355  0.73511165  0.77356858  1
  O2-  O312  1  0.40467997  0.07256746  0.26781048  1
  O2-  O313  1  0.40442814  0.07454881  0.77039974  1
  O2-  O314  1  0.40132031  0.40273953  0.27044429  1
  O2-  O315  1  0.40151695  0.40444530  0.76804224  1
  O2-  O316  1  0.40498449  0.73623878  0.27127607  1
  O2-  O317  1  0.40045512  0.73747248  0.76608449  1
  O2-  O318  1  0.74540075  0.07375836  0.26549941  1
  O2-  O319  1  0.74350322  0.07514322  0.76647844  1
  O2-  O320  1  0.73901388  0.41009294  0.26787356  1
  O2-  O321  1  0.73757766  0.40761778  0.77190838  1
  O2-  O322  1  0.74083932  0.74102853  0.27395673  1
  O2-  O323  1  0.73904862  0.73723796  0.76739006  1
  O2-  O324  1  0.23899713  0.09547825  0.23157879  1
  O2-  O325  1  0.23633298  0.10028821  0.73587773  1
  O2-  O326  1  0.23863113  0.43013969  0.22667689  1
  O2-  O327  1  0.23420559  0.43216044  0.73447115  1
  O2-  O328  1  0.23597242  0.76101595  0.23030255  1
  O2-  O329  1  0.23563443  0.76378318  0.72907778  1
  O2-  O330  1  0.57642387  0.08965611  0.23434338  1
  O2-  O331  1  0.57476953  0.09000183  0.73150818  1
  O2-  O332  1  0.56834845  0.42928978  0.23061881  1
  O2-  O333  1  0.57333857  0.42550154  0.72866389  1
  O2-  O334  1  0.57227131  0.75975856  0.23920925  1
  O2-  O335  1  0.57407727  0.75641364  0.72698321  1
  O2-  O336  1  0.90663977  0.09354240  0.22771983  1
  O2-  O337  1  0.90755092  0.09296577  0.72822270  1
  O2-  O338  1  0.90374276  0.42755464  0.22829889  1
  O2-  O339  1  0.90412836  0.42884318  0.72789127  1
  O2-  O340  1  0.90171648  0.76656468  0.22938251  1
  O2-  O341  1  0.90790825  0.75893441  0.72563222  1
  O2-  O342  1  0.25983834  0.26061481  0.02367253  1
  O2-  O343  1  0.26252487  0.26330313  0.52225851  1
  O2-  O344  1  0.25959252  0.59525590  0.02406967  1
  O2-  O345  1  0.25998549  0.59419529  0.52014397  1
  O2-  O346  1  0.26231859  0.92788931  0.02014599  1
  O2-  O347  1  0.26644402  0.93285532  0.52013319  1
  O2-  O348  1  0.59572313  0.26489148  0.01466601  1
  O2-  O349  1  0.59388447  0.26189926  0.51898910  1
  O2-  O350  1  0.59699956  0.59653307  0.01848912  1
  O2-  O351  1  0.59489700  0.59188626  0.52332949  1
  O2-  O352  1  0.59874624  0.92651272  0.01719329  1
  O2-  O353  1  0.59433330  0.92376603  0.52464584  1
  O2-  O354  1  0.92632921  0.26217965  0.02147002  1
  O2-  O355  1  0.93081234  0.26142733  0.52143537  1
  O2-  O356  1  0.92545888  0.59728129  0.02515608  1
  O2-  O357  1  0.92928211  0.59346896  0.51871388  1
  O2-  O358  1  0.93307236  0.93053201  0.01581391  1
  O2-  O359  1  0.93054990  0.92707932  0.52302621  1
