# generated using pymatgen
data_Sr7Ca15Pr50Mn72O216
_symmetry_space_group_name_H-M   'P 1'
_cell_length_a   16.55894894
_cell_length_b   16.60535696
_cell_length_c   15.59321494
_cell_angle_alpha   89.99542167
_cell_angle_beta   89.99860321
_cell_angle_gamma   90.00087869
_symmetry_Int_Tables_number   1
_chemical_formula_structural   Sr7Ca15Pr50Mn72O216
_chemical_formula_sum   'Sr7 Ca15 Pr50 Mn72 O216'
_cell_volume   4287.62354097
_cell_formula_units_Z   1
loop_
 _symmetry_equiv_pos_site_id
 _symmetry_equiv_pos_as_xyz
  1  'x, y, z'
loop_
 _atom_type_symbol
 _atom_type_oxidation_number
  Sr2+  2.0
  Ca2+  2.0
  Pr3+  3.0
  Mn3.30+  3.3
  O2-  -2.0
loop_
 _atom_site_type_symbol
 _atom_site_label
 _atom_site_symmetry_multiplicity
 _atom_site_fract_x
 _atom_site_fract_y
 _atom_site_fract_z
 _atom_site_occupancy
  Sr2+  Sr0  1  1.00139816  0.32346346  0.37670671  1
  Sr2+  Sr1  1  0.83630763  0.50769879  0.62456267  1
  Sr2+  Sr2  1  0.66870860  0.32423881  0.87465418  1
  Sr2+  Sr3  1  0.49778943  0.82518749  0.87378796  1
  Sr2+  Sr4  1  0.83334622  0.15854090  0.37581882  1
  Sr2+  Sr5  1  0.16594723  0.82374352  0.37517422  1
  Sr2+  Sr6  1  0.33365707  0.00632719  0.62452255  1
  Ca2+  Ca7  1  0.33833511  0.98394405  0.87341709  1
  Ca2+  Ca8  1  0.49288829  0.48139100  0.37270333  1
  Ca2+  Ca9  1  0.50411501  0.51481398  0.12704630  1
  Ca2+  Ca10  1  1.00257149  0.65494478  0.37498896  1
  Ca2+  Ca11  1  0.83892241  0.85201805  0.12765417  1
  Ca2+  Ca12  1  0.50151855  0.84864671  0.62497737  1
  Ca2+  Ca13  1  0.83890137  0.18371198  0.62427188  1
  Ca2+  Ca14  1  0.66568448  0.01344490  0.12561414  1
  Ca2+  Ca15  1  -0.00290378  0.01298533  0.12685286  1
  Ca2+  Ca16  1  1.00253902  0.65316838  0.87460558  1
  Ca2+  Ca17  1  0.17018566  0.51610758  0.12749368  1
  Ca2+  Ca18  1  0.33502334  0.31870606  0.37518602  1
  Ca2+  Ca19  1  0.83077095  0.81946812  0.37340990  1
  Ca2+  Ca20  1  0.33382750  0.98672984  0.37689040  1
  Ca2+  Ca21  1  -0.00554973  0.34764971  0.62252625  1
  Pr3+  Pr22  1  0.33096251  0.01058060  0.12509079  1
  Pr3+  Pr23  1  0.50157361  0.17760492  0.62404990  1
  Pr3+  Pr24  1  0.66277554  0.01198328  0.62435793  1
  Pr3+  Pr25  1  0.16810728  0.84544626  0.62339849  1
  Pr3+  Pr26  1  -0.00459072  0.67773586  0.62266176  1
  Pr3+  Pr27  1  1.00109081  0.98696157  0.87732162  1
  Pr3+  Pr28  1  1.00091105  0.98988643  0.37276738  1
  Pr3+  Pr29  1  0.49589500  0.15153888  0.37542750  1
  Pr3+  Pr30  1  1.00124679  0.32138504  0.87352849  1
  Pr3+  Pr31  1  0.16513867  0.15209005  0.87459761  1
  Pr3+  Pr32  1  0.49750930  0.48746365  0.87706194  1
  Pr3+  Pr33  1  0.33097025  0.67848327  0.12619489  1
  Pr3+  Pr34  1  -0.00379956  0.01343011  0.62406320  1
  Pr3+  Pr35  1  0.16295993  0.48767196  0.37269040  1
  Pr3+  Pr36  1  0.83385463  0.17681103  0.12650778  1
  Pr3+  Pr37  1  0.66875341  0.65530310  0.37441000  1
  Pr3+  Pr38  1  0.50541655  0.51160052  0.62324858  1
  Pr3+  Pr39  1  0.83198519  0.48775542  0.87494022  1
  Pr3+  Pr40  1  0.66141663  0.34820551  0.12634759  1
  Pr3+  Pr41  1  0.50427870  0.84904245  0.12482760  1
  Pr3+  Pr42  1  0.66696690  0.34495901  0.62330946  1
  Pr3+  Pr43  1  0.16749894  0.84526767  0.12653751  1
  Pr3+  Pr44  1  0.50394097  0.17750864  0.12626304  1
  Pr3+  Pr45  1  0.83536267  0.51187274  0.12635514  1
  Pr3+  Pr46  1  0.16364928  0.48935144  0.87727014  1
  Pr3+  Pr47  1  0.66419564  0.68179390  0.62419043  1
  Pr3+  Pr48  1  0.16835645  0.17757101  0.12520182  1
  Pr3+  Pr49  1  0.49768358  0.15183372  0.87440083  1
  Pr3+  Pr50  1  0.67365778  0.98570658  0.37283823  1
  Pr3+  Pr51  1  0.33786589  0.32029883  0.87473102  1
  Pr3+  Pr52  1  0.16921300  0.17994128  0.62462128  1
  Pr3+  Pr53  1  0.49558379  0.82341045  0.37594615  1
  Pr3+  Pr54  1  0.82896976  0.81963574  0.87642043  1
  Pr3+  Pr55  1  0.33076007  0.34525168  0.62296403  1
  Pr3+  Pr56  1  0.32948723  0.34795958  0.12700599  1
  Pr3+  Pr57  1  0.66952236  0.98622152  0.87691167  1
  Pr3+  Pr58  1  0.66793215  0.65536966  0.87594496  1
  Pr3+  Pr59  1  0.16629525  0.51131697  0.62269423  1
  Pr3+  Pr60  1  0.16285702  0.15521803  0.37518139  1
  Pr3+  Pr61  1  0.82798184  0.15482965  0.87488589  1
  Pr3+  Pr62  1  0.33076343  0.67968617  0.62419236  1
  Pr3+  Pr63  1  -0.00373051  0.68100476  0.12714134  1
  Pr3+  Pr64  1  0.33752802  0.65448055  0.87628009  1
  Pr3+  Pr65  1  0.33700893  0.65147252  0.37371606  1
  Pr3+  Pr66  1  0.66543549  0.67950222  0.12607844  1
  Pr3+  Pr67  1  -0.00064866  0.34698437  0.12697049  1
  Pr3+  Pr68  1  0.16408269  0.81893155  0.87470016  1
  Pr3+  Pr69  1  0.83574423  0.84510605  0.62240751  1
  Pr3+  Pr70  1  0.83486206  0.48946581  0.37557804  1
  Pr3+  Pr71  1  0.66999679  0.32126242  0.37479909  1
  Mn3.30+  Mn72  1  0.16674587  -0.00151957  -0.00041042  1
  Mn3.30+  Mn73  1  0.16691745  -0.00020571  0.49907962  1
  Mn3.30+  Mn74  1  0.16744650  0.33438299  0.00037178  1
  Mn3.30+  Mn75  1  0.16611052  0.33361733  0.50000489  1
  Mn3.30+  Mn76  1  0.16480685  0.66601880  0.00116558  1
  Mn3.30+  Mn77  1  0.16509663  0.66682100  0.49762586  1
  Mn3.30+  Mn78  1  0.49976530  0.00023596  0.00028800  1
  Mn3.30+  Mn79  1  0.49975876  -0.00129680  0.49986046  1
  Mn3.30+  Mn80  1  0.49962742  0.33349468  0.00137449  1
  Mn3.30+  Mn81  1  0.49798581  0.33290787  0.49784555  1
  Mn3.30+  Mn82  1  0.50023430  0.66688642  0.00140867  1
  Mn3.30+  Mn83  1  0.49987783  0.66677321  0.49907744  1
  Mn3.30+  Mn84  1  0.83421131  -0.00047336  0.00409171  1
  Mn3.30+  Mn85  1  0.83293912  0.00080396  0.49877179  1
  Mn3.30+  Mn86  1  0.83286290  0.33374058  0.00169745  1
  Mn3.30+  Mn87  1  0.83504692  0.33288383  0.49973196  1
  Mn3.30+  Mn88  1  0.83517773  0.66796839  0.00086469  1
  Mn3.30+  Mn89  1  0.83400782  0.66707358  0.49735332  1
  Mn3.30+  Mn90  1  -0.00004837  0.16602538  0.24939458  1
  Mn3.30+  Mn91  1  -0.00162186  0.16753981  0.74945555  1
  Mn3.30+  Mn92  1  0.00257930  0.50232401  0.24882267  1
  Mn3.30+  Mn93  1  -0.00019814  0.50061731  0.75072786  1
  Mn3.30+  Mn94  1  -0.00292787  0.83400936  0.25111313  1
  Mn3.30+  Mn95  1  -0.00108829  0.83179670  0.75090927  1
  Mn3.30+  Mn96  1  0.33366422  0.16555027  0.25180510  1
  Mn3.30+  Mn97  1  0.33307841  0.16395075  0.74937556  1
  Mn3.30+  Mn98  1  0.33505370  0.49853513  0.24959911  1
  Mn3.30+  Mn99  1  0.33348992  0.50032972  0.74902100  1
  Mn3.30+  Mn100  1  0.33388651  0.83393679  0.25142319  1
  Mn3.30+  Mn101  1  0.33372797  0.83383867  0.74918424  1
  Mn3.30+  Mn102  1  0.66661748  0.16486488  0.25043376  1
  Mn3.30+  Mn103  1  0.66861986  0.16740513  0.74848127  1
  Mn3.30+  Mn104  1  0.66273340  0.50097019  0.25226687  1
  Mn3.30+  Mn105  1  0.66780783  0.50068797  0.74896415  1
  Mn3.30+  Mn106  1  0.66990265  0.83484977  0.24794740  1
  Mn3.30+  Mn107  1  0.66539198  0.83365184  0.75027786  1
  Mn3.30+  Mn108  1  0.16602780  -0.00060661  0.24939102  1
  Mn3.30+  Mn109  1  0.16767305  -0.00136202  0.75141060  1
  Mn3.30+  Mn110  1  0.16828797  0.33383007  0.25041061  1
  Mn3.30+  Mn111  1  0.16553979  0.33413950  0.74940267  1
  Mn3.30+  Mn112  1  0.16486825  0.66714183  0.25087088  1
  Mn3.30+  Mn113  1  0.16511273  0.66577556  0.75010546  1
  Mn3.30+  Mn114  1  0.50112354  -0.00010864  0.25072876  1
  Mn3.30+  Mn115  1  0.49890253  -0.00154120  0.74947254  1
  Mn3.30+  Mn116  1  0.49729913  0.33388011  0.25109585  1
  Mn3.30+  Mn117  1  0.50055947  0.33257343  0.74966540  1
  Mn3.30+  Mn118  1  0.50033962  0.66509842  0.25005769  1
  Mn3.30+  Mn119  1  0.49977239  0.66860723  0.74906818  1
  Mn3.30+  Mn120  1  0.83413564  -0.00060669  0.24885724  1
  Mn3.30+  Mn121  1  0.83312653  0.00088389  0.74900875  1
  Mn3.30+  Mn122  1  0.83261984  0.33335027  0.25035368  1
  Mn3.30+  Mn123  1  0.83545973  0.33295412  0.74857244  1
  Mn3.30+  Mn124  1  0.83437082  0.66974034  0.25159941  1
  Mn3.30+  Mn125  1  0.83474353  0.66593803  0.75031118  1
  Mn3.30+  Mn126  1  -0.00074875  0.16579066  0.00061562  1
  Mn3.30+  Mn127  1  -0.00143892  0.16811343  0.50056647  1
  Mn3.30+  Mn128  1  0.00143026  0.50260766  0.00122233  1
  Mn3.30+  Mn129  1  0.00051734  0.50020430  0.49897009  1
  Mn3.30+  Mn130  1  -0.00230415  0.83346730  0.00145606  1
  Mn3.30+  Mn131  1  -0.00094807  0.83250219  0.49605549  1
  Mn3.30+  Mn132  1  0.33416063  0.16465204  -0.00020154  1
  Mn3.30+  Mn133  1  0.33263636  0.16516327  0.49893559  1
  Mn3.30+  Mn134  1  0.33272982  0.50040198  0.00351064  1
  Mn3.30+  Mn135  1  0.33543889  0.49796880  0.49768743  1
  Mn3.30+  Mn136  1  0.33383361  0.83380197  -0.00012839  1
  Mn3.30+  Mn137  1  0.33363402  0.83394583  0.49972016  1
  Mn3.30+  Mn138  1  0.66619403  0.16613489  0.00013427  1
  Mn3.30+  Mn139  1  0.66871061  0.16645120  0.50077826  1
  Mn3.30+  Mn140  1  0.66585290  0.50109385  0.00164053  1
  Mn3.30+  Mn141  1  0.66522349  0.50069170  0.49731025  1
  Mn3.30+  Mn142  1  0.66893907  0.83487917  0.00360776  1
  Mn3.30+  Mn143  1  0.66634706  0.83386710  0.49861331  1
  O2-  O144  1  0.02516795  0.16023249  0.12285182  1
  O2-  O145  1  0.02677589  0.15899029  0.62699256  1
  O2-  O146  1  0.02746165  0.49495107  0.12433296  1
  O2-  O147  1  0.02262698  0.49512990  0.62556604  1
  O2-  O148  1  0.02554054  0.82638582  0.12428178  1
  O2-  O149  1  0.02377223  0.82677265  0.62358592  1
  O2-  O150  1  0.36004945  0.15764737  0.12643933  1
  O2-  O151  1  0.35731932  0.16347901  0.62579955  1
  O2-  O152  1  0.36332785  0.49426354  0.12694700  1
  O2-  O153  1  0.36190082  0.49366768  0.62122628  1
  O2-  O154  1  0.35802252  0.82749390  0.12682273  1
  O2-  O155  1  0.35730036  0.82646388  0.62438188  1
  O2-  O156  1  0.68797834  0.15958740  0.12542575  1
  O2-  O157  1  0.69414454  0.15855576  0.62453330  1
  O2-  O158  1  0.69089340  0.49737978  0.12785373  1
  O2-  O159  1  0.68490991  0.49523968  0.62324363  1
  O2-  O160  1  0.69760705  0.82524698  0.12534676  1
  O2-  O161  1  0.69245634  0.83004119  0.62472878  1
  O2-  O162  1  0.14213677  0.32466165  0.12291007  1
  O2-  O163  1  0.13826484  0.32882932  0.62719734  1
  O2-  O164  1  0.14123466  0.66322265  0.12410471  1
  O2-  O165  1  0.14043714  0.66053921  0.62301024  1
  O2-  O166  1  0.14031811  0.99461810  0.12309536  1
  O2-  O167  1  0.14082351  0.99441457  0.62669838  1
  O2-  O168  1  0.47321109  0.32384765  0.12577457  1
  O2-  O169  1  0.47418831  0.32710684  0.62278915  1
  O2-  O170  1  0.47519135  0.66027012  0.12564711  1
  O2-  O171  1  0.47399629  0.65647426  0.62182702  1
  O2-  O172  1  0.47510881  0.99991279  0.12691010  1
  O2-  O173  1  0.48402860  0.99866117  0.62522686  1
  O2-  O174  1  0.80761125  0.33079197  0.12577796  1
  O2-  O175  1  0.81130609  0.33195601  0.62279249  1
  O2-  O176  1  0.80798482  0.65738922  0.12611340  1
  O2-  O177  1  0.80900634  0.66480288  0.62255524  1
  O2-  O178  1  0.80626810  0.99676331  0.12501577  1
  O2-  O179  1  0.80632460  0.99035949  0.62401091  1
  O2-  O180  1  0.30678018  0.17481067  0.37421250  1
  O2-  O181  1  0.30805852  0.17516216  0.87383988  1
  O2-  O182  1  0.30639278  0.50500169  0.37439068  1
  O2-  O183  1  0.30775286  0.50581090  0.87746889  1
  O2-  O184  1  0.31709332  0.83934384  0.37381720  1
  O2-  O185  1  0.30931208  0.83621619  0.87486856  1
  O2-  O186  1  0.64137407  0.17238823  0.37584265  1
  O2-  O187  1  0.64293685  0.16974693  0.87404513  1
  O2-  O188  1  0.63539371  0.50671821  0.37409505  1
  O2-  O189  1  0.64171830  0.50598418  0.87500477  1
  O2-  O190  1  0.63934318  0.83807264  0.37230170  1
  O2-  O191  1  0.64825355  0.83724330  0.87782589  1
  O2-  O192  1  0.98341470  0.16635257  0.37479480  1
  O2-  O193  1  0.97220245  0.17273678  0.87504543  1
  O2-  O194  1  0.97908253  0.50693403  0.37227177  1
  O2-  O195  1  0.97562391  0.50774339  0.87779636  1
  O2-  O196  1  0.97082595  0.84379861  0.37386962  1
  O2-  O197  1  0.97152295  0.84122053  0.87790269  1
  O2-  O198  1  0.19112939  0.00765282  0.37375034  1
  O2-  O199  1  0.19483042  0.00345434  0.87595258  1
  O2-  O200  1  0.19335121  0.33918840  0.37380915  1
  O2-  O201  1  0.19464394  0.34101262  0.87635694  1
  O2-  O202  1  0.19278215  0.66709928  0.37615055  1
  O2-  O203  1  0.19319677  0.67017531  0.87680893  1
  O2-  O204  1  0.52825716  0.00197549  0.37385212  1
  O2-  O205  1  0.52543141  0.00372323  0.87448061  1
  O2-  O206  1  0.52620753  0.33637171  0.37483543  1
  O2-  O207  1  0.51854647  0.33925108  0.87714973  1
  O2-  O208  1  0.52547785  0.67760783  0.37583718  1
  O2-  O209  1  0.52354905  0.66931357  0.87636712  1
  O2-  O210  1  0.85755531  0.00608317  0.37499074  1
  O2-  O211  1  0.85771826  0.00700959  0.87586831  1
  O2-  O212  1  0.85061302  0.33856536  0.37357257  1
  O2-  O213  1  0.85635486  0.33699320  0.87816994  1
  O2-  O214  1  0.85992012  0.67397006  0.37315216  1
  O2-  O215  1  0.86075250  0.67377558  0.87790441  1
  O2-  O216  1  0.23898378  0.09427641  0.02086996  1
  O2-  O217  1  0.23571157  0.09663500  0.51768401  1
  O2-  O218  1  0.23837859  0.43008936  0.02400649  1
  O2-  O219  1  0.24009726  0.42717615  0.52265761  1
  O2-  O220  1  0.23617290  0.76052943  0.01998052  1
  O2-  O221  1  0.23812420  0.75751280  0.52169041  1
  O2-  O222  1  0.56862711  0.09726444  0.01482079  1
  O2-  O223  1  0.57190965  0.09533816  0.51861516  1
  O2-  O224  1  0.57047643  0.42883694  0.02201640  1
  O2-  O225  1  0.57103334  0.42417180  0.52079488  1
  O2-  O226  1  0.57585678  0.76156614  0.02437459  1
  O2-  O227  1  0.57094116  0.76357760  0.52214091  1
  O2-  O228  1  0.90181050  0.09657869  0.01824749  1
  O2-  O229  1  0.90634863  0.09414093  0.52385334  1
  O2-  O230  1  0.90814998  0.42984822  0.02106805  1
  O2-  O231  1  0.90779047  0.42812609  0.51067104  1
  O2-  O232  1  0.90242674  0.76416464  0.02417743  1
  O2-  O233  1  0.90507479  0.76071940  0.52104427  1
  O2-  O234  1  0.26101560  0.25937085  0.22653757  1
  O2-  O235  1  0.26083997  0.26218452  0.72935876  1
  O2-  O236  1  0.26609601  0.59387952  0.23179487  1
  O2-  O237  1  0.26271024  0.59346419  0.72851307  1
  O2-  O238  1  0.25901361  0.92679118  0.22810509  1
  O2-  O239  1  0.25637294  0.92125371  0.72991781  1
  O2-  O240  1  0.59328044  0.26226066  0.23013108  1
  O2-  O241  1  0.59554722  0.25863973  0.72568711  1
  O2-  O242  1  0.59660840  0.59757188  0.23160555  1
  O2-  O243  1  0.59483400  0.59553961  0.73001779  1
  O2-  O244  1  0.59841656  0.92888357  0.22588752  1
  O2-  O245  1  0.59747302  0.92928120  0.73448056  1
  O2-  O246  1  0.92792987  0.25754228  0.22643762  1
  O2-  O247  1  0.93239176  0.26427622  0.73141218  1
  O2-  O248  1  0.92600747  0.59378675  0.22815508  1
  O2-  O249  1  0.93063388  0.59571651  0.73209403  1
  O2-  O250  1  0.93033329  0.93166882  0.22949795  1
  O2-  O251  1  0.92763969  0.92888944  0.73003567  1
  O2-  O252  1  0.09768863  0.23777040  0.26447523  1
  O2-  O253  1  0.09605359  0.23903205  0.77416189  1
  O2-  O254  1  0.09623400  0.57273532  0.26803287  1
  O2-  O255  1  0.09787330  0.56977321  0.76716068  1
  O2-  O256  1  0.09204200  0.90685886  0.26766800  1
  O2-  O257  1  0.09218730  0.90393992  0.77158092  1
  O2-  O258  1  0.43016971  0.23479394  0.26854890  1
  O2-  O259  1  0.42755328  0.23783535  0.76927608  1
  O2-  O260  1  0.42778619  0.56950266  0.27398667  1
  O2-  O261  1  0.42918967  0.57148433  0.77019064  1
  O2-  O262  1  0.43400111  0.90400321  0.26422183  1
  O2-  O263  1  0.42510225  0.90722442  0.76422956  1
  O2-  O264  1  0.75535920  0.23992363  0.26528181  1
  O2-  O265  1  0.76329086  0.23726026  0.76588244  1
  O2-  O266  1  0.76131806  0.57308334  0.27240666  1
  O2-  O267  1  0.76143491  0.57582721  0.77400685  1
  O2-  O268  1  0.76324256  0.90490522  0.27363876  1
  O2-  O269  1  0.76361174  0.90646033  0.77073554  1
  O2-  O270  1  0.07159233  0.07165418  0.48190650  1
  O2-  O271  1  0.07465435  0.07289807  0.97543503  1
  O2-  O272  1  0.07807631  0.40954837  0.48076605  1
  O2-  O273  1  0.07047630  0.40667628  0.97863460  1
  O2-  O274  1  0.06786432  0.73696906  0.48074251  1
  O2-  O275  1  0.06928134  0.73875679  0.97833736  1
  O2-  O276  1  0.40715587  0.07088667  0.47628260  1
  O2-  O277  1  0.40265616  0.07149561  0.97731515  1
  O2-  O278  1  0.40241506  0.40029856  0.47911628  1
  O2-  O279  1  0.40219863  0.40493476  0.98093359  1
  O2-  O280  1  0.40475481  0.73595526  0.47990576  1
  O2-  O281  1  0.40323237  0.73643716  0.98448272  1
  O2-  O282  1  0.73593123  0.06843844  0.48180176  1
  O2-  O283  1  0.73832381  0.07258239  0.97927232  1
  O2-  O284  1  0.73753261  0.40866902  0.47905783  1
  O2-  O285  1  0.74104793  0.40935747  0.98444433  1
  O2-  O286  1  0.73491672  0.73808531  0.48215022  1
  O2-  O287  1  0.73947686  0.73740707  0.97942839  1
  O2-  O288  1  0.09800539  0.23658469  0.48372246  1
  O2-  O289  1  0.09439876  0.23948140  0.97764335  1
  O2-  O290  1  0.09760892  0.57028273  0.48312180  1
  O2-  O291  1  0.09560020  0.57264206  0.98005331  1
  O2-  O292  1  0.08982161  0.90810616  0.48186796  1
  O2-  O293  1  0.09510043  0.90340796  0.97786797  1
  O2-  O294  1  0.42992596  0.23573934  0.48232175  1
  O2-  O295  1  0.42827844  0.23652652  0.97982007  1
  O2-  O296  1  0.42961905  0.56867541  0.47568166  1
  O2-  O297  1  0.42622385  0.57122677  0.97826612  1
  O2-  O298  1  0.43113710  0.90561523  0.48431508  1
  O2-  O299  1  0.42845446  0.90667660  0.98820963  1
  O2-  O300  1  0.75548654  0.24328015  0.48267752  1
  O2-  O301  1  0.76198884  0.23513658  0.98554051  1
  O2-  O302  1  0.76076737  0.57535423  0.47403135  1
  O2-  O303  1  0.76270289  0.57376536  0.97963329  1
  O2-  O304  1  0.76227907  0.90285806  0.47738722  1
  O2-  O305  1  0.76284907  0.90687342  0.97865284  1
  O2-  O306  1  0.07449829  0.07365424  0.26916558  1
  O2-  O307  1  0.07052724  0.07201326  0.77232545  1
  O2-  O308  1  0.07500872  0.40648270  0.26646702  1
  O2-  O309  1  0.07487931  0.40810581  0.77549127  1
  O2-  O310  1  0.06471108  0.73857494  0.26760523  1
  O2-  O311  1  0.07044612  0.73773421  0.77183877  1
  O2-  O312  1  0.40273585  0.06976875  0.27397516  1
  O2-  O313  1  0.40687255  0.07321484  0.77321408  1
  O2-  O314  1  0.40058537  0.39935918  0.26981957  1
  O2-  O315  1  0.40372014  0.40683706  0.76932929  1
  O2-  O316  1  0.40643518  0.73684855  0.26915465  1
  O2-  O317  1  0.40069917  0.73533229  0.76571959  1
  O2-  O318  1  0.73803767  0.07051143  0.26687806  1
  O2-  O319  1  0.73760448  0.07060724  0.77148330  1
  O2-  O320  1  0.73507856  0.40978566  0.27018814  1
  O2-  O321  1  0.74269208  0.40881839  0.76595520  1
  O2-  O322  1  0.73627142  0.73687018  0.26923768  1
  O2-  O323  1  0.73785447  0.73909717  0.76923845  1
  O2-  O324  1  0.23904685  0.09378620  0.22752835  1
  O2-  O325  1  0.23629789  0.09745901  0.73349222  1
  O2-  O326  1  0.23874818  0.42927018  0.22664902  1
  O2-  O327  1  0.23928763  0.42801234  0.72763002  1
  O2-  O328  1  0.23822750  0.75874033  0.22912064  1
  O2-  O329  1  0.23591313  0.75952315  0.72970462  1
  O2-  O330  1  0.56883792  0.09715000  0.23502576  1
  O2-  O331  1  0.57310739  0.09585086  0.73130965  1
  O2-  O332  1  0.56971658  0.42687838  0.22698882  1
  O2-  O333  1  0.57213514  0.42662770  0.73084871  1
  O2-  O334  1  0.57350043  0.76291773  0.22767152  1
  O2-  O335  1  0.57076340  0.76007873  0.72617947  1
  O2-  O336  1  0.90516009  0.09355545  0.22942670  1
  O2-  O337  1  0.90206997  0.09433530  0.72801319  1
  O2-  O338  1  0.90795660  0.42907988  0.23049297  1
  O2-  O339  1  0.90890249  0.42824647  0.73966452  1
  O2-  O340  1  0.90345861  0.76302185  0.22524639  1
  O2-  O341  1  0.90378837  0.76205271  0.72953026  1
  O2-  O342  1  0.26389104  0.25951485  0.02064125  1
  O2-  O343  1  0.25899479  0.26125067  0.52289488  1
  O2-  O344  1  0.26382309  0.59538907  0.02079794  1
  O2-  O345  1  0.26315815  0.59247806  0.52038448  1
  O2-  O346  1  0.25897571  0.92527328  0.02364597  1
  O2-  O347  1  0.25544657  0.92386245  0.51755174  1
  O2-  O348  1  0.59450406  0.26050194  0.02288788  1
  O2-  O349  1  0.59363399  0.26041736  0.52154470  1
  O2-  O350  1  0.59682704  0.59670910  0.01783962  1
  O2-  O351  1  0.59491372  0.59678310  0.52030014  1
  O2-  O352  1  0.59708299  0.92907624  0.02257648  1
  O2-  O353  1  0.59845295  0.92989942  0.51624315  1
  O2-  O354  1  0.92798468  0.26275133  0.02224440  1
  O2-  O355  1  0.92985114  0.26001616  0.52049284  1
  O2-  O356  1  0.92720456  0.59420133  0.02417536  1
  O2-  O357  1  0.92932571  0.59501775  0.51573497  1
  O2-  O358  1  0.93190733  0.93269273  0.01991927  1
  O2-  O359  1  0.92659933  0.92850940  0.52142413  1
