# generated using pymatgen
data_Sr7Ca15Pr50Mn72O216
_symmetry_space_group_name_H-M   'P 1'
_cell_length_a   16.55798569
_cell_length_b   16.60514570
_cell_length_c   15.59417960
_cell_angle_alpha   90.00121529
_cell_angle_beta   89.99365350
_cell_angle_gamma   90.00902848
_symmetry_Int_Tables_number   1
_chemical_formula_structural   Sr7Ca15Pr50Mn72O216
_chemical_formula_sum   'Sr7 Ca15 Pr50 Mn72 O216'
_cell_volume   4287.58474748
_cell_formula_units_Z   1
loop_
 _symmetry_equiv_pos_site_id
 _symmetry_equiv_pos_as_xyz
  1  'x, y, z'
loop_
 _atom_type_symbol
 _atom_type_oxidation_number
  Sr2+  2.0
  Ca2+  2.0
  Pr3+  3.0
  Mn3.30+  3.3
  O2-  -2.0
loop_
 _atom_site_type_symbol
 _atom_site_label
 _atom_site_symmetry_multiplicity
 _atom_site_fract_x
 _atom_site_fract_y
 _atom_site_fract_z
 _atom_site_occupancy
  Sr2+  Sr0  1  0.50492601  0.17442339  0.62534606  1
  Sr2+  Sr1  1  -0.00154983  0.34469537  0.12481722  1
  Sr2+  Sr2  1  0.50247529  0.51038652  0.12259222  1
  Sr2+  Sr3  1  0.50417328  0.15852573  0.37792900  1
  Sr2+  Sr4  1  -0.00260058  0.67512287  0.62495251  1
  Sr2+  Sr5  1  0.66593115  0.01134915  0.62353235  1
  Sr2+  Sr6  1  0.33774386  0.98874002  0.87381093  1
  Ca2+  Ca7  1  1.00196925  0.65208261  0.37643300  1
  Ca2+  Ca8  1  0.82983335  0.48751036  0.87030372  1
  Ca2+  Ca9  1  0.50510391  0.51324437  0.62908431  1
  Ca2+  Ca10  1  0.66925126  0.31968882  0.37833060  1
  Ca2+  Ca11  1  0.49460232  0.81578468  0.87363928  1
  Ca2+  Ca12  1  0.82994632  0.15426485  0.87241484  1
  Ca2+  Ca13  1  0.83599887  0.18358829  0.62665662  1
  Ca2+  Ca14  1  0.16961643  0.18240788  0.62551910  1
  Ca2+  Ca15  1  -0.00665137  0.35090711  0.62580781  1
  Ca2+  Ca16  1  0.34033487  0.64979780  0.87373781  1
  Ca2+  Ca17  1  0.83693744  0.51409378  0.62764268  1
  Ca2+  Ca18  1  0.66949431  0.98656777  0.37849440  1
  Ca2+  Ca19  1  -0.00337320  0.67890063  0.12454930  1
  Ca2+  Ca20  1  0.66877900  0.64708193  0.87433915  1
  Ca2+  Ca21  1  0.49927392  0.48855015  0.87344716  1
  Pr3+  Pr22  1  0.33164537  0.67802634  0.62832880  1
  Pr3+  Pr23  1  0.66352471  0.34547394  0.62421526  1
  Pr3+  Pr24  1  0.66695815  0.98825940  0.87219764  1
  Pr3+  Pr25  1  0.50166042  0.82427675  0.37641149  1
  Pr3+  Pr26  1  1.00152301  0.32183682  0.37802340  1
  Pr3+  Pr27  1  0.49966784  0.48646379  0.37670869  1
  Pr3+  Pr28  1  0.16590935  0.82051364  0.87515182  1
  Pr3+  Pr29  1  0.16043806  0.81775429  0.37472570  1
  Pr3+  Pr30  1  1.00068441  0.65225551  0.87460276  1
  Pr3+  Pr31  1  0.16848525  0.18169543  0.12444684  1
  Pr3+  Pr32  1  0.83029451  0.81966099  0.37528923  1
  Pr3+  Pr33  1  0.33650445  0.65485892  0.37588898  1
  Pr3+  Pr34  1  0.33092701  0.01367211  0.12368194  1
  Pr3+  Pr35  1  0.16537954  0.48843842  0.87249540  1
  Pr3+  Pr36  1  0.66498368  0.34714812  0.12636779  1
  Pr3+  Pr37  1  0.83076935  0.48503817  0.37893301  1
  Pr3+  Pr38  1  0.83831652  0.51224598  0.12244941  1
  Pr3+  Pr39  1  0.16652035  0.51249879  0.62647220  1
  Pr3+  Pr40  1  0.33688162  0.98857825  0.37601180  1
  Pr3+  Pr41  1  0.33107762  0.01531629  0.62609264  1
  Pr3+  Pr42  1  0.16866773  0.51328716  0.12410119  1
  Pr3+  Pr43  1  0.16223209  0.15407842  0.37747352  1
  Pr3+  Pr44  1  1.00144345  0.98823954  0.87461246  1
  Pr3+  Pr45  1  0.67029718  0.65302660  0.37546349  1
  Pr3+  Pr46  1  -0.00636617  0.01596832  0.62597998  1
  Pr3+  Pr47  1  0.66207546  0.67650732  0.12252864  1
  Pr3+  Pr48  1  -0.00429023  0.01444534  0.12419478  1
  Pr3+  Pr49  1  0.33576615  0.32049673  0.37617683  1
  Pr3+  Pr50  1  0.16816684  0.84434362  0.62620908  1
  Pr3+  Pr51  1  0.16403710  0.15473994  0.87207325  1
  Pr3+  Pr52  1  0.50315972  0.17966031  0.12485880  1
  Pr3+  Pr53  1  0.82694116  0.15428019  0.37655700  1
  Pr3+  Pr54  1  0.83558244  0.84470981  0.62603001  1
  Pr3+  Pr55  1  0.66507453  0.67490810  0.62752982  1
  Pr3+  Pr56  1  0.83712705  0.18282368  0.12251005  1
  Pr3+  Pr57  1  0.33420628  0.34469253  0.62441567  1
  Pr3+  Pr58  1  0.66372225  0.01274916  0.12575440  1
  Pr3+  Pr59  1  0.16858395  0.84499702  0.12388985  1
  Pr3+  Pr60  1  0.82735756  0.81732181  0.87409375  1
  Pr3+  Pr61  1  0.67026271  0.32247844  0.87404451  1
  Pr3+  Pr62  1  0.83493056  0.84516721  0.12333923  1
  Pr3+  Pr63  1  0.49784953  0.15450181  0.87229986  1
  Pr3+  Pr64  1  0.33060641  0.34836275  0.12518727  1
  Pr3+  Pr65  1  0.50364641  0.84549905  0.62652347  1
  Pr3+  Pr66  1  0.33826941  0.32395780  0.87388383  1
  Pr3+  Pr67  1  1.00201388  0.98713994  0.37548137  1
  Pr3+  Pr68  1  0.99916582  0.32352559  0.87242873  1
  Pr3+  Pr69  1  0.50243842  0.84460795  0.12331615  1
  Pr3+  Pr70  1  0.16143149  0.48926975  0.37734264  1
  Pr3+  Pr71  1  0.33264886  0.67757101  0.12180885  1
  Mn3.30+  Mn72  1  0.16670886  0.00018006  -0.00150489  1
  Mn3.30+  Mn73  1  0.16560943  0.00094928  0.50222714  1
  Mn3.30+  Mn74  1  0.16648214  0.33484977  -0.00180865  1
  Mn3.30+  Mn75  1  0.16428241  0.33340633  0.50400288  1
  Mn3.30+  Mn76  1  0.16686498  0.66650226  -0.00146041  1
  Mn3.30+  Mn77  1  0.16521677  0.66644174  0.50095001  1
  Mn3.30+  Mn78  1  0.49948489  -0.00144176  -0.00030492  1
  Mn3.30+  Mn79  1  0.50245724  0.00078344  0.49866826  1
  Mn3.30+  Mn80  1  0.50181367  0.33576299  -0.00081371  1
  Mn3.30+  Mn81  1  0.50180219  0.33262530  0.50067266  1
  Mn3.30+  Mn82  1  0.50003832  0.66504488  -0.00469917  1
  Mn3.30+  Mn83  1  0.50084464  0.66500338  0.50193241  1
  Mn3.30+  Mn84  1  0.83178158  0.00102231  -0.00226956  1
  Mn3.30+  Mn85  1  0.83260816  0.00158549  0.50119700  1
  Mn3.30+  Mn86  1  0.83356240  0.33536550  -0.00291051  1
  Mn3.30+  Mn87  1  0.83337476  0.33284950  0.50390746  1
  Mn3.30+  Mn88  1  0.83159618  0.66404728  -0.00131341  1
  Mn3.30+  Mn89  1  0.83525833  0.66470886  0.49997996  1
  Mn3.30+  Mn90  1  -0.00194175  0.16819798  0.25123764  1
  Mn3.30+  Mn91  1  -0.00203007  0.17011928  0.74763440  1
  Mn3.30+  Mn92  1  -0.00085185  0.50183382  0.24958017  1
  Mn3.30+  Mn93  1  -0.00451214  0.49917176  0.74974916  1
  Mn3.30+  Mn94  1  -0.00113166  0.83073976  0.24870355  1
  Mn3.30+  Mn95  1  -0.00116539  0.83248476  0.75098827  1
  Mn3.30+  Mn96  1  0.33401020  0.16706355  0.25134553  1
  Mn3.30+  Mn97  1  0.33237692  0.16810994  0.74801134  1
  Mn3.30+  Mn98  1  0.33301112  0.50159258  0.25086130  1
  Mn3.30+  Mn99  1  0.33747709  0.50058696  0.74919705  1
  Mn3.30+  Mn100  1  0.33276747  0.83293781  0.24983330  1
  Mn3.30+  Mn101  1  0.33614647  0.83242054  0.75207616  1
  Mn3.30+  Mn102  1  0.66806582  0.16662151  0.25152816  1
  Mn3.30+  Mn103  1  0.66992415  0.16688056  0.74884349  1
  Mn3.30+  Mn104  1  0.66794211  0.49865936  0.25091508  1
  Mn3.30+  Mn105  1  0.66691795  0.49944575  0.75010873  1
  Mn3.30+  Mn106  1  0.66770426  0.83310450  0.24952530  1
  Mn3.30+  Mn107  1  0.66416540  0.83042718  0.75241025  1
  Mn3.30+  Mn108  1  0.16619461  0.00024432  0.24970637  1
  Mn3.30+  Mn109  1  0.16597570  0.00083403  0.74937682  1
  Mn3.30+  Mn110  1  0.16566237  0.33506403  0.25115132  1
  Mn3.30+  Mn111  1  0.16535141  0.33312993  0.74687138  1
  Mn3.30+  Mn112  1  0.16336508  0.66631726  0.24889962  1
  Mn3.30+  Mn113  1  0.16840643  0.66683486  0.75218145  1
  Mn3.30+  Mn114  1  0.50107153  0.00019330  0.25192453  1
  Mn3.30+  Mn115  1  0.50086274  -0.00111282  0.74960955  1
  Mn3.30+  Mn116  1  0.50138375  0.33323406  0.25170571  1
  Mn3.30+  Mn117  1  0.50224296  0.33520513  0.74890496  1
  Mn3.30+  Mn118  1  0.50070466  0.66627473  0.24996504  1
  Mn3.30+  Mn119  1  0.50031361  0.66387540  0.75292844  1
  Mn3.30+  Mn120  1  0.83142802  -0.00007537  0.25014231  1
  Mn3.30+  Mn121  1  0.83271690  0.00283472  0.75049714  1
  Mn3.30+  Mn122  1  0.83297043  0.33372351  0.25146447  1
  Mn3.30+  Mn123  1  0.83349231  0.33394313  0.74861878  1
  Mn3.30+  Mn124  1  0.83603567  0.66530510  0.24970959  1
  Mn3.30+  Mn125  1  0.83101481  0.66308814  0.75122760  1
  Mn3.30+  Mn126  1  -0.00191084  0.16848643  -0.00345706  1
  Mn3.30+  Mn127  1  -0.00191405  0.16980863  0.50455207  1
  Mn3.30+  Mn128  1  -0.00096995  0.50025765  -0.00082199  1
  Mn3.30+  Mn129  1  -0.00356960  0.50078325  0.50194979  1
  Mn3.30+  Mn130  1  -0.00128603  0.83136205  0.00011279  1
  Mn3.30+  Mn131  1  -0.00097935  0.83196859  0.50032660  1
  Mn3.30+  Mn132  1  0.33415189  0.16790111  -0.00078470  1
  Mn3.30+  Mn133  1  0.33244148  0.16755004  0.50131930  1
  Mn3.30+  Mn134  1  0.33581237  0.50189415  -0.00235447  1
  Mn3.30+  Mn135  1  0.33442907  0.50043797  0.50208302  1
  Mn3.30+  Mn136  1  0.33581663  0.83183633  -0.00281890  1
  Mn3.30+  Mn137  1  0.33303843  0.83345849  0.50042474  1
  Mn3.30+  Mn138  1  0.66847915  0.16686642  -0.00098159  1
  Mn3.30+  Mn139  1  0.66935286  0.16656741  0.50106279  1
  Mn3.30+  Mn140  1  0.66764656  0.50008802  -0.00358287  1
  Mn3.30+  Mn141  1  0.66707013  0.49851402  0.50264217  1
  Mn3.30+  Mn142  1  0.66404457  0.83062129  -0.00393664  1
  Mn3.30+  Mn143  1  0.66778815  0.83280988  0.50086078  1
  O2-  O144  1  0.02453465  0.16289009  0.12215426  1
  O2-  O145  1  0.02979173  0.15941320  0.62535238  1
  O2-  O146  1  0.02561501  0.49557287  0.12411187  1
  O2-  O147  1  0.02306769  0.49652545  0.62717646  1
  O2-  O148  1  0.02485274  0.82596364  0.12375878  1
  O2-  O149  1  0.02345777  0.83074608  0.62812385  1
  O2-  O150  1  0.35750971  0.16312086  0.12549030  1
  O2-  O151  1  0.35397572  0.16406009  0.62435668  1
  O2-  O152  1  0.35223954  0.49692036  0.12425677  1
  O2-  O153  1  0.36268946  0.49388212  0.62432361  1
  O2-  O154  1  0.35827427  0.82536390  0.12454257  1
  O2-  O155  1  0.35874207  0.82596439  0.62616120  1
  O2-  O156  1  0.69384491  0.15997733  0.12423764  1
  O2-  O157  1  0.69327926  0.16572847  0.62668751  1
  O2-  O158  1  0.69323755  0.49584076  0.12482806  1
  O2-  O159  1  0.69474155  0.49553172  0.62445830  1
  O2-  O160  1  0.69111728  0.82569369  0.12235994  1
  O2-  O161  1  0.69200223  0.82391181  0.62745376  1
  O2-  O162  1  0.14796797  0.32927090  0.12407388  1
  O2-  O163  1  0.13676548  0.32818857  0.62518889  1
  O2-  O164  1  0.13922620  0.66076203  0.12171295  1
  O2-  O165  1  0.14806831  0.66352563  0.62623205  1
  O2-  O166  1  0.14005295  0.99508367  0.12338819  1
  O2-  O167  1  0.13768637  0.99025753  0.62640258  1
  O2-  O168  1  0.47497585  0.32763945  0.12637024  1
  O2-  O169  1  0.47754119  0.32771521  0.62419495  1
  O2-  O170  1  0.47653927  0.66460206  0.12343129  1
  O2-  O171  1  0.47445017  0.65918009  0.62483234  1
  O2-  O172  1  0.47426492  0.99390233  0.12605765  1
  O2-  O173  1  0.47592412  0.99400151  0.62292931  1
  O2-  O174  1  0.80999416  0.33067467  0.12301831  1
  O2-  O175  1  0.80631531  0.32523253  0.62642753  1
  O2-  O176  1  0.80566290  0.65952527  0.12320519  1
  O2-  O177  1  0.80943124  0.66334614  0.62771270  1
  O2-  O178  1  0.80757860  0.99400226  0.12236456  1
  O2-  O179  1  0.81501025  0.99100563  0.62576667  1
  O2-  O180  1  0.30594920  0.17026081  0.37653599  1
  O2-  O181  1  0.30911987  0.17405423  0.87345121  1
  O2-  O182  1  0.30585788  0.50648306  0.37737011  1
  O2-  O183  1  0.30878907  0.50122903  0.87354543  1
  O2-  O184  1  0.30493503  0.83975061  0.37426035  1
  O2-  O185  1  0.30823470  0.83797915  0.87503280  1
  O2-  O186  1  0.65280265  0.17612280  0.37365683  1
  O2-  O187  1  0.64107514  0.17363778  0.87648706  1
  O2-  O188  1  0.64281742  0.50638160  0.37739677  1
  O2-  O189  1  0.64077414  0.50024460  0.87354985  1
  O2-  O190  1  0.64559121  0.83588930  0.37445641  1
  O2-  O191  1  0.63639323  0.84234152  0.87501976  1
  O2-  O192  1  0.97269633  0.17294241  0.37973097  1
  O2-  O193  1  0.97258971  0.17433956  0.87277645  1
  O2-  O194  1  0.97628546  0.50584434  0.37486721  1
  O2-  O195  1  0.97415078  0.50450895  0.87436156  1
  O2-  O196  1  0.97408486  0.84148195  0.37263958  1
  O2-  O197  1  0.97283161  0.84017815  0.87581644  1
  O2-  O198  1  0.19187433  0.00620866  0.37594904  1
  O2-  O199  1  0.18804832  0.00695969  0.87384716  1
  O2-  O200  1  0.19104285  0.34059956  0.37848472  1
  O2-  O201  1  0.19356283  0.33921740  0.87212296  1
  O2-  O202  1  0.19261091  0.66978001  0.37667267  1
  O2-  O203  1  0.19586801  0.67143889  0.87546302  1
  O2-  O204  1  0.52551542  -0.00251061  0.37334330  1
  O2-  O205  1  0.52238559  0.00755797  0.87682216  1
  O2-  O206  1  0.52538356  0.33983255  0.37591451  1
  O2-  O207  1  0.52468276  0.34073646  0.87406260  1
  O2-  O208  1  0.52616972  0.67521969  0.37680471  1
  O2-  O209  1  0.52835668  0.67510010  0.87419946  1
  O2-  O210  1  0.85992674  0.00584894  0.37641128  1
  O2-  O211  1  0.85820334  0.00613235  0.87538521  1
  O2-  O212  1  0.85838021  0.33719498  0.37928809  1
  O2-  O213  1  0.85664639  0.34346555  0.87240984  1
  O2-  O214  1  0.86045214  0.67293146  0.37239693  1
  O2-  O215  1  0.85843995  0.67206367  0.87602188  1
  O2-  O216  1  0.23777163  0.09511498  0.02060727  1
  O2-  O217  1  0.23530313  0.09466304  0.52216479  1
  O2-  O218  1  0.23928849  0.42893526  0.01811025  1
  O2-  O219  1  0.23774853  0.42745595  0.52377737  1
  O2-  O220  1  0.23786316  0.76158262  0.02119608  1
  O2-  O221  1  0.23834079  0.76116237  0.51948260  1
  O2-  O222  1  0.57274659  0.09525293  0.02066910  1
  O2-  O223  1  0.57524319  0.09243755  0.51377641  1
  O2-  O224  1  0.57723596  0.42370311  0.02037456  1
  O2-  O225  1  0.57053885  0.43054285  0.52139678  1
  O2-  O226  1  0.57102058  0.75987033  0.02204423  1
  O2-  O227  1  0.57177188  0.75820913  0.52138974  1
  O2-  O228  1  0.90750731  0.09443259  0.02170652  1
  O2-  O229  1  0.90476673  0.09829901  0.52306075  1
  O2-  O230  1  0.90539261  0.42932271  0.01747726  1
  O2-  O231  1  0.89906867  0.42992355  0.51907728  1
  O2-  O232  1  0.90052691  0.76124064  0.01714463  1
  O2-  O233  1  0.90288368  0.76557470  0.51685647  1
  O2-  O234  1  0.26062768  0.26249736  0.23174936  1
  O2-  O235  1  0.26113944  0.26338227  0.72988631  1
  O2-  O236  1  0.26077982  0.59631906  0.22978054  1
  O2-  O237  1  0.26312553  0.59030150  0.72881489  1
  O2-  O238  1  0.26192677  0.92732645  0.22754733  1
  O2-  O239  1  0.26002082  0.92710247  0.72697585  1
  O2-  O240  1  0.59469930  0.25715949  0.22694832  1
  O2-  O241  1  0.59832433  0.26335781  0.73473106  1
  O2-  O242  1  0.59831554  0.59634637  0.23487420  1
  O2-  O243  1  0.59614916  0.59346213  0.73011270  1
  O2-  O244  1  0.59248310  0.92574238  0.22682167  1
  O2-  O245  1  0.59332120  0.92441529  0.73057071  1
  O2-  O246  1  0.92648317  0.26139142  0.23369673  1
  O2-  O247  1  0.93245676  0.26724917  0.73072342  1
  O2-  O248  1  0.92844373  0.59533330  0.22476801  1
  O2-  O249  1  0.92754656  0.59548900  0.73678812  1
  O2-  O250  1  0.92832145  0.92851523  0.22805920  1
  O2-  O251  1  0.92865261  0.92909828  0.73309671  1
  O2-  O252  1  0.09527241  0.23977779  0.27070704  1
  O2-  O253  1  0.09333281  0.24003861  0.77408659  1
  O2-  O254  1  0.09699799  0.56965212  0.26820578  1
  O2-  O255  1  0.09429887  0.57340349  0.76991745  1
  O2-  O256  1  0.09427491  0.90472941  0.26929116  1
  O2-  O257  1  0.09469618  0.90596504  0.77234376  1
  O2-  O258  1  0.42527859  0.24088745  0.26955092  1
  O2-  O259  1  0.42870208  0.24302322  0.77214824  1
  O2-  O260  1  0.42716386  0.57468057  0.27432147  1
  O2-  O261  1  0.43148109  0.57019354  0.77172716  1
  O2-  O262  1  0.42794066  0.90513907  0.27091489  1
  O2-  O263  1  0.43001784  0.90009585  0.76646280  1
  O2-  O264  1  0.76571519  0.23536004  0.26308718  1
  O2-  O265  1  0.76299684  0.23979938  0.77436666  1
  O2-  O266  1  0.76438686  0.57093161  0.27165133  1
  O2-  O267  1  0.76025391  0.56983190  0.77011618  1
  O2-  O268  1  0.76361243  0.90280365  0.26638692  1
  O2-  O269  1  0.75903542  0.90398135  0.77104257  1
  O2-  O270  1  0.06938330  0.07233600  0.47911765  1
  O2-  O271  1  0.07010990  0.07471774  0.97823977  1
  O2-  O272  1  0.07169485  0.40790181  0.48002236  1
  O2-  O273  1  0.07383716  0.40835196  0.97535759  1
  O2-  O274  1  0.07234926  0.73956754  0.47717172  1
  O2-  O275  1  0.07397183  0.73986979  0.97547956  1
  O2-  O276  1  0.40317741  0.06919098  0.48358373  1
  O2-  O277  1  0.40708692  0.07446764  0.98461224  1
  O2-  O278  1  0.40378533  0.40762003  0.47787500  1
  O2-  O279  1  0.40319765  0.40476810  0.98439018  1
  O2-  O280  1  0.40587164  0.73976983  0.47986620  1
  O2-  O281  1  0.40166023  0.73358747  0.98085630  1
  O2-  O282  1  0.74079671  0.07119274  0.47704548  1
  O2-  O283  1  0.73492607  0.06993566  0.98088708  1
  O2-  O284  1  0.73649720  0.40261142  0.48004842  1
  O2-  O285  1  0.73723635  0.40273752  0.98294854  1
  O2-  O286  1  0.74066139  0.73714222  0.48006932  1
  O2-  O287  1  0.73529589  0.73612469  0.97704599  1
  O2-  O288  1  0.09338600  0.23967383  0.47643985  1
  O2-  O289  1  0.09460689  0.23958541  0.97833281  1
  O2-  O290  1  0.09744463  0.57181981  0.48550686  1
  O2-  O291  1  0.09556106  0.57211565  0.97637935  1
  O2-  O292  1  0.09482111  0.90478012  0.47924234  1
  O2-  O293  1  0.09467759  0.90634910  0.97945636  1
  O2-  O294  1  0.42250497  0.24423269  0.47987604  1
  O2-  O295  1  0.43006586  0.24064777  0.97931599  1
  O2-  O296  1  0.42811186  0.57518909  0.47525356  1
  O2-  O297  1  0.42979819  0.57125736  0.97726728  1
  O2-  O298  1  0.42588822  0.90527789  0.47881604  1
  O2-  O299  1  0.43099701  0.89925331  0.98362861  1
  O2-  O300  1  0.76647503  0.23715202  0.48386018  1
  O2-  O301  1  0.76262792  0.23744112  0.97976311  1
  O2-  O302  1  0.75955590  0.57269793  0.47808145  1
  O2-  O303  1  0.76539265  0.56721671  0.98010858  1
  O2-  O304  1  0.76398153  0.90389842  0.48330741  1
  O2-  O305  1  0.75862136  0.90331032  0.97777688  1
  O2-  O306  1  0.07013400  0.07367229  0.27033502  1
  O2-  O307  1  0.06923106  0.07297739  0.77129971  1
  O2-  O308  1  0.07195012  0.40745452  0.27317154  1
  O2-  O309  1  0.07377294  0.40848896  0.77156708  1
  O2-  O310  1  0.07130847  0.73805410  0.27332173  1
  O2-  O311  1  0.07267664  0.74228668  0.77495000  1
  O2-  O312  1  0.40293801  0.06882267  0.26704349  1
  O2-  O313  1  0.40726040  0.07452913  0.76411265  1
  O2-  O314  1  0.40417656  0.40739500  0.27098742  1
  O2-  O315  1  0.40364825  0.40385819  0.76632630  1
  O2-  O316  1  0.40479012  0.73975678  0.27098524  1
  O2-  O317  1  0.40325642  0.73291709  0.76781649  1
  O2-  O318  1  0.73644413  0.06869937  0.27065981  1
  O2-  O319  1  0.73955967  0.07244740  0.77209138  1
  O2-  O320  1  0.73846065  0.40209988  0.27178686  1
  O2-  O321  1  0.73517446  0.40254565  0.76647176  1
  O2-  O322  1  0.74024091  0.73620449  0.26922449  1
  O2-  O323  1  0.73606826  0.73649572  0.77378978  1
  O2-  O324  1  0.23784284  0.09583209  0.22863535  1
  O2-  O325  1  0.23492128  0.09435034  0.72900522  1
  O2-  O326  1  0.23756497  0.42892658  0.23146864  1
  O2-  O327  1  0.23946748  0.42709586  0.72702545  1
  O2-  O328  1  0.23609003  0.76043716  0.22909243  1
  O2-  O329  1  0.23945103  0.76284072  0.73074546  1
  O2-  O330  1  0.57278579  0.09341568  0.22713743  1
  O2-  O331  1  0.57549220  0.09437867  0.73927180  1
  O2-  O332  1  0.57443472  0.42595741  0.23232408  1
  O2-  O333  1  0.57347846  0.42730337  0.72543797  1
  O2-  O334  1  0.57207057  0.76107235  0.23042165  1
  O2-  O335  1  0.57112960  0.75740007  0.72575178  1
  O2-  O336  1  0.90360299  0.09430956  0.22836834  1
  O2-  O337  1  0.90730318  0.09862981  0.72680610  1
  O2-  O338  1  0.90250680  0.43167890  0.23575793  1
  O2-  O339  1  0.90212736  0.42896667  0.72859780  1
  O2-  O340  1  0.90164349  0.76288808  0.22866363  1
  O2-  O341  1  0.90159495  0.76398350  0.73570405  1
  O2-  O342  1  0.26226006  0.26166205  0.01980963  1
  O2-  O343  1  0.25921847  0.26398606  0.51856830  1
  O2-  O344  1  0.25980176  0.59363467  0.02095128  1
  O2-  O345  1  0.26326339  0.59391511  0.52195298  1
  O2-  O346  1  0.26165087  0.92520833  0.02254785  1
  O2-  O347  1  0.26120848  0.92825239  0.52262133  1
  O2-  O348  1  0.59624453  0.25954108  0.02217590  1
  O2-  O349  1  0.59826034  0.26065134  0.51634566  1
  O2-  O350  1  0.59791606  0.59506703  0.01622420  1
  O2-  O351  1  0.59715169  0.59538358  0.51816512  1
  O2-  O352  1  0.59489842  0.92818946  0.02195859  1
  O2-  O353  1  0.59013084  0.92129715  0.51799486  1
  O2-  O354  1  0.92626222  0.26137621  0.01579826  1
  O2-  O355  1  0.93286176  0.26685077  0.52173436  1
  O2-  O356  1  0.93113371  0.59636426  0.02014729  1
  O2-  O357  1  0.92533690  0.59415273  0.51611313  1
  O2-  O358  1  0.92732443  0.92781835  0.02076043  1
  O2-  O359  1  0.92945816  0.93041766  0.51819657  1
