# generated using pymatgen
data_Sr7Ca15Pr50Mn72O216
_symmetry_space_group_name_H-M   'P 1'
_cell_length_a   16.55870004
_cell_length_b   16.60509805
_cell_length_c   15.59469444
_cell_angle_alpha   89.99409758
_cell_angle_beta   90.00083034
_cell_angle_gamma   90.00833741
_symmetry_Int_Tables_number   1
_chemical_formula_structural   Sr7Ca15Pr50Mn72O216
_chemical_formula_sum   'Sr7 Ca15 Pr50 Mn72 O216'
_cell_volume   4287.89899092
_cell_formula_units_Z   1
loop_
 _symmetry_equiv_pos_site_id
 _symmetry_equiv_pos_as_xyz
  1  'x, y, z'
loop_
 _atom_type_symbol
 _atom_type_oxidation_number
  Sr2+  2.0
  Ca2+  2.0
  Pr3+  3.0
  Mn3.30+  3.3
  O2-  -2.0
loop_
 _atom_site_type_symbol
 _atom_site_label
 _atom_site_symmetry_multiplicity
 _atom_site_fract_x
 _atom_site_fract_y
 _atom_site_fract_z
 _atom_site_occupancy
  Sr2+  Sr0  1  0.16360507  0.49161496  0.37292366  1
  Sr2+  Sr1  1  0.33487749  0.98810456  0.87625263  1
  Sr2+  Sr2  1  1.00093504  0.98950437  0.37670183  1
  Sr2+  Sr3  1  1.00138528  0.66010686  0.87263750  1
  Sr2+  Sr4  1  -0.00484341  0.01119734  0.62547222  1
  Sr2+  Sr5  1  0.83838429  0.84211163  0.62460594  1
  Sr2+  Sr6  1  0.83413741  0.49286621  0.87493147  1
  Ca2+  Ca7  1  0.49347698  0.48353311  0.87409871  1
  Ca2+  Ca8  1  0.16890474  0.51660947  0.12412771  1
  Ca2+  Ca9  1  0.50518166  0.84755873  0.62608785  1
  Ca2+  Ca10  1  1.00183678  0.65500654  0.37634138  1
  Ca2+  Ca11  1  0.83789201  0.17890818  0.62627151  1
  Ca2+  Ca12  1  0.33175979  0.01222528  0.12304271  1
  Ca2+  Ca13  1  0.50115418  0.84790169  0.12415217  1
  Ca2+  Ca14  1  -0.00508681  0.68107310  0.62269231  1
  Ca2+  Ca15  1  0.16345098  0.81857300  0.87476003  1
  Ca2+  Ca16  1  0.83787374  0.84705686  0.12658333  1
  Ca2+  Ca17  1  0.83060543  0.15235167  0.87178455  1
  Ca2+  Ca18  1  0.33741251  0.31931286  0.87336571  1
  Ca2+  Ca19  1  0.32795065  0.34833252  0.62815491  1
  Ca2+  Ca20  1  0.67093920  0.65410741  0.37611780  1
  Ca2+  Ca21  1  0.83126878  0.81662175  0.37649932  1
  Pr3+  Pr22  1  0.17075919  0.17551743  0.12462578  1
  Pr3+  Pr23  1  1.00424475  0.98530735  0.87367894  1
  Pr3+  Pr24  1  0.66625500  0.34546359  0.62629470  1
  Pr3+  Pr25  1  -0.00033040  0.34868077  0.12447884  1
  Pr3+  Pr26  1  0.83392912  0.51404457  0.12368823  1
  Pr3+  Pr27  1  0.16027810  0.81992109  0.37494620  1
  Pr3+  Pr28  1  0.49831614  0.81913077  0.37478034  1
  Pr3+  Pr29  1  0.49698273  0.48848664  0.37514722  1
  Pr3+  Pr30  1  -0.00202048  0.68017938  0.12625945  1
  Pr3+  Pr31  1  1.00427938  0.32289789  0.37548956  1
  Pr3+  Pr32  1  0.83223886  0.82178892  0.87523475  1
  Pr3+  Pr33  1  0.83243726  0.49243970  0.37471017  1
  Pr3+  Pr34  1  0.83809261  0.51546053  0.62597147  1
  Pr3+  Pr35  1  0.16822148  0.51398193  0.62451392  1
  Pr3+  Pr36  1  0.50259604  0.51300658  0.12293502  1
  Pr3+  Pr37  1  0.66692046  0.01123586  0.62506041  1
  Pr3+  Pr38  1  0.66957905  0.32128133  0.37534211  1
  Pr3+  Pr39  1  0.32819439  0.34807436  0.12191560  1
  Pr3+  Pr40  1  0.16333618  0.84257645  0.62707861  1
  Pr3+  Pr41  1  0.67044754  0.32018708  0.87457706  1
  Pr3+  Pr42  1  0.66216085  0.68268564  0.12632113  1
  Pr3+  Pr43  1  0.50009565  0.17743702  0.12240280  1
  Pr3+  Pr44  1  0.66248738  0.34663492  0.12391706  1
  Pr3+  Pr45  1  0.17076688  0.84692331  0.12406514  1
  Pr3+  Pr46  1  0.83752064  0.17945067  0.12424554  1
  Pr3+  Pr47  1  0.83213124  0.15303304  0.37681463  1
  Pr3+  Pr48  1  -0.00305373  0.34390113  0.62558833  1
  Pr3+  Pr49  1  0.66989685  0.98796472  0.87583920  1
  Pr3+  Pr50  1  0.33191148  0.00958663  0.62619691  1
  Pr3+  Pr51  1  0.33463614  0.32193010  0.37638774  1
  Pr3+  Pr52  1  0.33526547  0.98643678  0.37332451  1
  Pr3+  Pr53  1  0.67316083  0.98371469  0.37463202  1
  Pr3+  Pr54  1  0.49617528  0.82223436  0.87513823  1
  Pr3+  Pr55  1  0.32965076  0.67791746  0.12512260  1
  Pr3+  Pr56  1  0.16158944  0.48790286  0.87617477  1
  Pr3+  Pr57  1  -0.00273040  0.01128706  0.12525901  1
  Pr3+  Pr58  1  0.66460082  0.68244367  0.62438841  1
  Pr3+  Pr59  1  0.33427516  0.65209849  0.37526843  1
  Pr3+  Pr60  1  0.49630241  0.15229319  0.87502398  1
  Pr3+  Pr61  1  0.66573411  0.01093879  0.12531969  1
  Pr3+  Pr62  1  0.49772414  0.15263970  0.37501184  1
  Pr3+  Pr63  1  1.00026736  0.32166303  0.87461622  1
  Pr3+  Pr64  1  0.33119106  0.67964475  0.62432973  1
  Pr3+  Pr65  1  0.16595546  0.15429879  0.87419963  1
  Pr3+  Pr66  1  0.50162793  0.51217452  0.62665292  1
  Pr3+  Pr67  1  0.16273628  0.15332059  0.37613222  1
  Pr3+  Pr68  1  0.16917876  0.17957379  0.62521838  1
  Pr3+  Pr69  1  0.33419582  0.65421467  0.87433892  1
  Pr3+  Pr70  1  0.50264471  0.17958676  0.62725016  1
  Pr3+  Pr71  1  0.67061681  0.65377861  0.87448507  1
  Mn3.30+  Mn72  1  0.16830938  -0.00167953  -0.00163013  1
  Mn3.30+  Mn73  1  0.16548207  -0.00114285  0.50210883  1
  Mn3.30+  Mn74  1  0.16832492  0.33349901  -0.00114808  1
  Mn3.30+  Mn75  1  0.16776745  0.33499543  0.50095481  1
  Mn3.30+  Mn76  1  0.16628520  0.66737993  -0.00007743  1
  Mn3.30+  Mn77  1  0.16268851  0.66707093  0.50022896  1
  Mn3.30+  Mn78  1  0.49887697  -0.00197256  0.00264753  1
  Mn3.30+  Mn79  1  0.50131705  -0.00207710  0.49968416  1
  Mn3.30+  Mn80  1  0.49768860  0.33420337  -0.00295129  1
  Mn3.30+  Mn81  1  0.49889529  0.33337083  0.50253480  1
  Mn3.30+  Mn82  1  0.49949720  0.66662171  -0.00081675  1
  Mn3.30+  Mn83  1  0.50189465  0.66777107  0.49990071  1
  Mn3.30+  Mn84  1  0.83437993  -0.00012093  -0.00005440  1
  Mn3.30+  Mn85  1  0.83475066  -0.00260047  0.50015599  1
  Mn3.30+  Mn86  1  0.83278226  0.33378637  -0.00112087  1
  Mn3.30+  Mn87  1  0.83386527  0.33353433  0.50040557  1
  Mn3.30+  Mn88  1  0.83210334  0.66901723  0.00191717  1
  Mn3.30+  Mn89  1  0.83431084  0.66784487  0.49745396  1
  Mn3.30+  Mn90  1  0.00113148  0.16688106  0.24932316  1
  Mn3.30+  Mn91  1  -0.00308769  0.16641668  0.75113317  1
  Mn3.30+  Mn92  1  0.00087043  0.50307856  0.24873546  1
  Mn3.30+  Mn93  1  0.00069343  0.50152839  0.75056098  1
  Mn3.30+  Mn94  1  -0.00283113  0.83314623  0.25161907  1
  Mn3.30+  Mn95  1  0.00017987  0.83162124  0.75004889  1
  Mn3.30+  Mn96  1  0.33316229  0.16553659  0.24975138  1
  Mn3.30+  Mn97  1  0.33427062  0.16797618  0.74969386  1
  Mn3.30+  Mn98  1  0.33151696  0.49957903  0.24915094  1
  Mn3.30+  Mn99  1  0.33351177  0.49784199  0.75113703  1
  Mn3.30+  Mn100  1  0.33412799  0.83354188  0.24829411  1
  Mn3.30+  Mn101  1  0.33399644  0.83314531  0.74984059  1
  Mn3.30+  Mn102  1  0.66684120  0.16633133  0.24952770  1
  Mn3.30+  Mn103  1  0.66977308  0.16650161  0.74963683  1
  Mn3.30+  Mn104  1  0.66598809  0.50211194  0.25097823  1
  Mn3.30+  Mn105  1  0.66541046  0.49993819  0.75102180  1
  Mn3.30+  Mn106  1  0.66851638  0.83192398  0.24977042  1
  Mn3.30+  Mn107  1  0.66569960  0.83466718  0.74931260  1
  Mn3.30+  Mn108  1  0.16755555  -0.00081331  0.24968444  1
  Mn3.30+  Mn109  1  0.16641240  -0.00157628  0.74995249  1
  Mn3.30+  Mn110  1  0.16711398  0.33492830  0.24881301  1
  Mn3.30+  Mn111  1  0.16907534  0.33345537  0.75132273  1
  Mn3.30+  Mn112  1  0.16411389  0.66614901  0.25032918  1
  Mn3.30+  Mn113  1  0.16539056  0.66814519  0.74912621  1
  Mn3.30+  Mn114  1  0.50013129  -0.00203855  0.24808974  1
  Mn3.30+  Mn115  1  0.50025855  -0.00157513  0.74935185  1
  Mn3.30+  Mn116  1  0.49900704  0.33289125  0.24950993  1
  Mn3.30+  Mn117  1  0.49714055  0.33429107  0.75033271  1
  Mn3.30+  Mn118  1  0.50097696  0.66788729  0.25024327  1
  Mn3.30+  Mn119  1  0.50006031  0.66676364  0.75022691  1
  Mn3.30+  Mn120  1  0.83402091  -0.00373680  0.25049021  1
  Mn3.30+  Mn121  1  0.83467487  0.00118315  0.75017863  1
  Mn3.30+  Mn122  1  0.83371194  0.33473258  0.24954835  1
  Mn3.30+  Mn123  1  0.83300846  0.33260081  0.75133029  1
  Mn3.30+  Mn124  1  0.83209720  0.66924456  0.25117246  1
  Mn3.30+  Mn125  1  0.83450188  0.66741002  0.75008853  1
  Mn3.30+  Mn126  1  -0.00066425  0.16634487  -0.00194699  1
  Mn3.30+  Mn127  1  -0.00141804  0.16688132  0.50236941  1
  Mn3.30+  Mn128  1  0.00141428  0.50241560  0.00050904  1
  Mn3.30+  Mn129  1  0.00049052  0.50242841  0.49971662  1
  Mn3.30+  Mn130  1  0.00125118  0.83308302  0.00137240  1
  Mn3.30+  Mn131  1  -0.00346798  0.83179628  0.49729550  1
  Mn3.30+  Mn132  1  0.33394394  0.16614806  -0.00095239  1
  Mn3.30+  Mn133  1  0.33350816  0.16727065  0.50128548  1
  Mn3.30+  Mn134  1  0.33246512  0.49948159  -0.00211822  1
  Mn3.30+  Mn135  1  0.33290992  0.49846390  0.50131059  1
  Mn3.30+  Mn136  1  0.33330558  0.83372056  -0.00011297  1
  Mn3.30+  Mn137  1  0.33408226  0.83284480  0.50105084  1
  Mn3.30+  Mn138  1  0.66866523  0.16650160  -0.00065186  1
  Mn3.30+  Mn139  1  0.66830419  0.16624644  0.50176146  1
  Mn3.30+  Mn140  1  0.66419991  0.50003681  -0.00279526  1
  Mn3.30+  Mn141  1  0.66707638  0.50181097  0.50044581  1
  Mn3.30+  Mn142  1  0.66600376  0.83441120  0.00289087  1
  Mn3.30+  Mn143  1  0.66808207  0.83180897  0.49896325  1
  O2-  O144  1  0.02624234  0.16082760  0.12242312  1
  O2-  O145  1  0.02424281  0.17082296  0.62653563  1
  O2-  O146  1  0.02661483  0.49600950  0.12455556  1
  O2-  O147  1  0.02505223  0.49064026  0.62635441  1
  O2-  O148  1  0.02610947  0.83031130  0.12577324  1
  O2-  O149  1  0.01943033  0.82647018  0.62345125  1
  O2-  O150  1  0.35632570  0.16086218  0.12418751  1
  O2-  O151  1  0.36005097  0.15708117  0.62397959  1
  O2-  O152  1  0.35970176  0.49636575  0.12307328  1
  O2-  O153  1  0.35811204  0.49549669  0.62575318  1
  O2-  O154  1  0.36034942  0.82284087  0.12630009  1
  O2-  O155  1  0.36316117  0.82650779  0.62285189  1
  O2-  O156  1  0.69359609  0.16200144  0.12445392  1
  O2-  O157  1  0.69511517  0.16112164  0.62545398  1
  O2-  O158  1  0.68861465  0.49375008  0.12407101  1
  O2-  O159  1  0.69231271  0.49378288  0.62509508  1
  O2-  O160  1  0.69600034  0.82896986  0.12670997  1
  O2-  O161  1  0.68855878  0.83053981  0.62336123  1
  O2-  O162  1  0.14198926  0.32191209  0.12414182  1
  O2-  O163  1  0.14075742  0.32748409  0.62745446  1
  O2-  O164  1  0.14446246  0.66327525  0.12579524  1
  O2-  O165  1  0.14024126  0.66304811  0.62312622  1
  O2-  O166  1  0.14163266  0.99655863  0.12242351  1
  O2-  O167  1  0.14557684  0.99285492  0.62565959  1
  O2-  O168  1  0.47393105  0.32685419  0.12388102  1
  O2-  O169  1  0.47102378  0.32645421  0.62656507  1
  O2-  O170  1  0.47313288  0.65813689  0.12281884  1
  O2-  O171  1  0.47407721  0.65880010  0.62440809  1
  O2-  O172  1  0.47413930  0.99489018  0.12622920  1
  O2-  O173  1  0.47622947  0.99385176  0.62123482  1
  O2-  O174  1  0.80682026  0.32762926  0.12463131  1
  O2-  O175  1  0.80983007  0.32628244  0.62633433  1
  O2-  O176  1  0.80483965  0.66073051  0.12522892  1
  O2-  O177  1  0.80892916  0.66342183  0.62335145  1
  O2-  O178  1  0.80940486  0.99373690  0.12552816  1
  O2-  O179  1  0.80943421  0.99469843  0.62494752  1
  O2-  O180  1  0.30732767  0.17347160  0.37727759  1
  O2-  O181  1  0.31057740  0.17303045  0.87450742  1
  O2-  O182  1  0.31438231  0.50270825  0.37582938  1
  O2-  O183  1  0.30430736  0.50822862  0.87452617  1
  O2-  O184  1  0.30565748  0.83849304  0.37460204  1
  O2-  O185  1  0.30788520  0.83245701  0.87487435  1
  O2-  O186  1  0.64142235  0.17236051  0.37538448  1
  O2-  O187  1  0.63989864  0.17033720  0.87529668  1
  O2-  O188  1  0.64051680  0.50602184  0.37653651  1
  O2-  O189  1  0.63737458  0.50625377  0.87458435  1
  O2-  O190  1  0.63986417  0.83833926  0.37411795  1
  O2-  O191  1  0.63992778  0.83953236  0.87693965  1
  O2-  O192  1  0.97676855  0.17431064  0.37545589  1
  O2-  O193  1  0.97216970  0.17360896  0.87654692  1
  O2-  O194  1  0.97567427  0.50437724  0.37303836  1
  O2-  O195  1  0.98334459  0.50206807  0.87588515  1
  O2-  O196  1  0.97382366  0.83802841  0.37217160  1
  O2-  O197  1  0.97701517  0.83683196  0.87858734  1
  O2-  O198  1  0.19087800  0.00429636  0.37797593  1
  O2-  O199  1  0.18617618  0.00703253  0.87346479  1
  O2-  O200  1  0.19170754  0.33632434  0.37285143  1
  O2-  O201  1  0.19576247  0.34021445  0.87524508  1
  O2-  O202  1  0.19123974  0.67255541  0.37614148  1
  O2-  O203  1  0.19032353  0.67216498  0.87433934  1
  O2-  O204  1  0.52713793  0.00563425  0.37502067  1
  O2-  O205  1  0.52510784  0.00341845  0.87769328  1
  O2-  O206  1  0.52533418  0.33891986  0.37544190  1
  O2-  O207  1  0.52654103  0.33805262  0.87326895  1
  O2-  O208  1  0.52820170  0.67216817  0.37676229  1
  O2-  O209  1  0.52737995  0.67629340  0.87622094  1
  O2-  O210  1  0.85216746  0.00867042  0.37410563  1
  O2-  O211  1  0.85860772  0.00707179  0.87670821  1
  O2-  O212  1  0.85948750  0.34226201  0.37277878  1
  O2-  O213  1  0.85661028  0.33939343  0.87664147  1
  O2-  O214  1  0.85893675  0.66631153  0.37258824  1
  O2-  O215  1  0.84947083  0.67281767  0.87891710  1
  O2-  O216  1  0.23668874  0.09470093  0.01557168  1
  O2-  O217  1  0.24089726  0.09472826  0.52134835  1
  O2-  O218  1  0.23631385  0.43051453  0.02316036  1
  O2-  O219  1  0.23763011  0.42651585  0.52139580  1
  O2-  O220  1  0.24069864  0.75985487  0.02237165  1
  O2-  O221  1  0.23820772  0.76127215  0.52129663  1
  O2-  O222  1  0.57438334  0.09449303  0.02187488  1
  O2-  O223  1  0.57210643  0.09493049  0.52134790  1
  O2-  O224  1  0.57012704  0.42684205  0.02106015  1
  O2-  O225  1  0.57186225  0.42764071  0.52157358  1
  O2-  O226  1  0.57162804  0.76317052  0.02385741  1
  O2-  O227  1  0.56935953  0.76301436  0.52183462  1
  O2-  O228  1  0.90594877  0.09293869  0.02437809  1
  O2-  O229  1  0.90238584  0.09961583  0.51616848  1
  O2-  O230  1  0.90764869  0.42750853  0.02266667  1
  O2-  O231  1  0.90433109  0.42934131  0.51998901  1
  O2-  O232  1  0.90470527  0.76373311  0.02224594  1
  O2-  O233  1  0.90475504  0.75876698  0.51320920  1
  O2-  O234  1  0.26228978  0.26174745  0.22972678  1
  O2-  O235  1  0.26040983  0.26007173  0.72633660  1
  O2-  O236  1  0.26365499  0.59513498  0.23412092  1
  O2-  O237  1  0.26184611  0.59522425  0.72857970  1
  O2-  O238  1  0.26446050  0.92930348  0.22832078  1
  O2-  O239  1  0.26290106  0.92329672  0.72644075  1
  O2-  O240  1  0.59408648  0.26079308  0.22927088  1
  O2-  O241  1  0.59563438  0.26058060  0.72881622  1
  O2-  O242  1  0.59281018  0.59398447  0.22705192  1
  O2-  O243  1  0.59393287  0.59566731  0.72868471  1
  O2-  O244  1  0.59900794  0.92852812  0.23189907  1
  O2-  O245  1  0.59695777  0.93031702  0.73223993  1
  O2-  O246  1  0.92916100  0.26142270  0.22814673  1
  O2-  O247  1  0.93058610  0.26390387  0.73477016  1
  O2-  O248  1  0.92362116  0.59371966  0.22560800  1
  O2-  O249  1  0.92813826  0.59263276  0.72776181  1
  O2-  O250  1  0.92963972  0.92847420  0.22847241  1
  O2-  O251  1  0.92803099  0.92860020  0.74075125  1
  O2-  O252  1  0.09631280  0.23953670  0.27040631  1
  O2-  O253  1  0.09541449  0.23995911  0.77263552  1
  O2-  O254  1  0.09009315  0.57564275  0.26600231  1
  O2-  O255  1  0.09889334  0.56910911  0.76505005  1
  O2-  O256  1  0.09896255  0.90333774  0.26555030  1
  O2-  O257  1  0.09433646  0.90420699  0.76948461  1
  O2-  O258  1  0.42817288  0.23816020  0.27077700  1
  O2-  O259  1  0.43211626  0.23671438  0.76870750  1
  O2-  O260  1  0.42945874  0.57217594  0.27002974  1
  O2-  O261  1  0.42736676  0.56981916  0.77162937  1
  O2-  O262  1  0.42743575  0.90494808  0.27365180  1
  O2-  O263  1  0.42889283  0.90316909  0.76761389  1
  O2-  O264  1  0.76206122  0.23976770  0.27116178  1
  O2-  O265  1  0.75921437  0.23864083  0.77446185  1
  O2-  O266  1  0.76234566  0.57032086  0.26704752  1
  O2-  O267  1  0.75850797  0.57547942  0.76610839  1
  O2-  O268  1  0.76198854  0.90304177  0.27369450  1
  O2-  O269  1  0.75932923  0.90731880  0.77434897  1
  O2-  O270  1  0.07576745  0.07852031  0.48365854  1
  O2-  O271  1  0.07074955  0.07287322  0.97886410  1
  O2-  O272  1  0.06866960  0.40452277  0.48297107  1
  O2-  O273  1  0.07345296  0.40222121  0.98087429  1
  O2-  O274  1  0.07166666  0.73986715  0.47637865  1
  O2-  O275  1  0.07261979  0.73854652  0.98768345  1
  O2-  O276  1  0.40575071  0.07174319  0.47793389  1
  O2-  O277  1  0.41058282  0.07500918  0.98202811  1
  O2-  O278  1  0.40758431  0.40599305  0.47836147  1
  O2-  O279  1  0.39853096  0.40281864  0.98046271  1
  O2-  O280  1  0.40404993  0.73816004  0.47710028  1
  O2-  O281  1  0.40531274  0.73652810  0.97844355  1
  O2-  O282  1  0.73830901  0.07055561  0.48027135  1
  O2-  O283  1  0.73781566  0.07066975  0.98319707  1
  O2-  O284  1  0.73835622  0.40539267  0.47962901  1
  O2-  O285  1  0.73275029  0.40419179  0.98331919  1
  O2-  O286  1  0.73418235  0.73482203  0.48161473  1
  O2-  O287  1  0.73532505  0.74078561  0.98039890  1
  O2-  O288  1  0.09610185  0.24079895  0.48058930  1
  O2-  O289  1  0.09533695  0.23852310  0.97697599  1
  O2-  O290  1  0.09412057  0.57153640  0.48510887  1
  O2-  O291  1  0.09767585  0.57199935  0.98393870  1
  O2-  O292  1  0.09612821  0.90130589  0.48458914  1
  O2-  O293  1  0.09765200  0.90438705  0.97934431  1
  O2-  O294  1  0.42862010  0.23721297  0.47842039  1
  O2-  O295  1  0.43157476  0.23744800  0.98145802  1
  O2-  O296  1  0.42961008  0.57338983  0.47998724  1
  O2-  O297  1  0.42837250  0.56892569  0.97646403  1
  O2-  O298  1  0.42664451  0.90645324  0.47492255  1
  O2-  O299  1  0.42909860  0.90170119  0.98233774  1
  O2-  O300  1  0.76035174  0.24109998  0.47614146  1
  O2-  O301  1  0.76187463  0.23658327  0.97863728  1
  O2-  O302  1  0.76465269  0.57097651  0.48257179  1
  O2-  O303  1  0.75562029  0.57306065  0.98305986  1
  O2-  O304  1  0.75989077  0.90338518  0.47608605  1
  O2-  O305  1  0.76124374  0.90762438  0.97771322  1
  O2-  O306  1  0.07505306  0.07464235  0.26670754  1
  O2-  O307  1  0.07029669  0.07665606  0.77133453  1
  O2-  O308  1  0.06948935  0.40231225  0.26507325  1
  O2-  O309  1  0.07310072  0.40420046  0.77123330  1
  O2-  O310  1  0.06926395  0.73978313  0.26995599  1
  O2-  O311  1  0.07744346  0.74218427  0.76493859  1
  O2-  O312  1  0.40659438  0.07361651  0.27319680  1
  O2-  O313  1  0.40948913  0.07311486  0.76676531  1
  O2-  O314  1  0.40401243  0.40454919  0.26887104  1
  O2-  O315  1  0.40241320  0.40394162  0.77167536  1
  O2-  O316  1  0.40474611  0.73759218  0.27306770  1
  O2-  O317  1  0.40556531  0.73719220  0.77046938  1
  O2-  O318  1  0.73859261  0.07181123  0.26802561  1
  O2-  O319  1  0.73655304  0.06981945  0.76920277  1
  O2-  O320  1  0.73688118  0.40650044  0.27035264  1
  O2-  O321  1  0.73515639  0.40353751  0.76682502  1
  O2-  O322  1  0.73374804  0.73417413  0.27006363  1
  O2-  O323  1  0.73608734  0.74147490  0.76903759  1
  O2-  O324  1  0.23789866  0.09552104  0.23424926  1
  O2-  O325  1  0.23965831  0.09396577  0.72992205  1
  O2-  O326  1  0.23812710  0.42657505  0.22421200  1
  O2-  O327  1  0.23638143  0.43025114  0.73033476  1
  O2-  O328  1  0.23884007  0.76207781  0.23060152  1
  O2-  O329  1  0.24285748  0.75878264  0.72515820  1
  O2-  O330  1  0.57158095  0.09431603  0.22802934  1
  O2-  O331  1  0.57419049  0.09498862  0.72950052  1
  O2-  O332  1  0.57039530  0.42784851  0.23034987  1
  O2-  O333  1  0.57063543  0.42528351  0.72630428  1
  O2-  O334  1  0.56974610  0.76353427  0.22718765  1
  O2-  O335  1  0.57215608  0.76324372  0.72877908  1
  O2-  O336  1  0.90554937  0.09475118  0.23004829  1
  O2-  O337  1  0.90188115  0.09801429  0.73171272  1
  O2-  O338  1  0.90514414  0.42925060  0.22751940  1
  O2-  O339  1  0.90729832  0.42717763  0.72920686  1
  O2-  O340  1  0.90416426  0.76042677  0.22534113  1
  O2-  O341  1  0.90636554  0.76037855  0.73964190  1
  O2-  O342  1  0.25968643  0.26008690  0.02147840  1
  O2-  O343  1  0.26317746  0.26127193  0.52211416  1
  O2-  O344  1  0.26466217  0.59705192  0.01681235  1
  O2-  O345  1  0.26143343  0.59489347  0.51939483  1
  O2-  O346  1  0.26297175  0.92652302  0.02456684  1
  O2-  O347  1  0.26370717  0.92656879  0.52046727  1
  O2-  O348  1  0.59605743  0.26043057  0.02024328  1
  O2-  O349  1  0.59423083  0.26143629  0.52200256  1
  O2-  O350  1  0.59375570  0.59560364  0.02089975  1
  O2-  O351  1  0.59413735  0.59390217  0.52453615  1
  O2-  O352  1  0.59707930  0.92913638  0.02091287  1
  O2-  O353  1  0.59770257  0.92988996  0.51636399  1
  O2-  O354  1  0.92983950  0.26066527  0.02231121  1
  O2-  O355  1  0.93003112  0.26457368  0.51550909  1
  O2-  O356  1  0.92418431  0.59484423  0.02342356  1
  O2-  O357  1  0.92732608  0.59304709  0.52220479  1
  O2-  O358  1  0.93168249  0.93056888  0.01609180  1
  O2-  O359  1  0.92716243  0.92801120  0.51514147  1
