# generated using pymatgen
data_Sr7Ca15Pr50Mn72O216
_symmetry_space_group_name_H-M   'P 1'
_cell_length_a   16.55822685
_cell_length_b   16.60548590
_cell_length_c   15.59495444
_cell_angle_alpha   89.99532511
_cell_angle_beta   90.00577029
_cell_angle_gamma   90.00293062
_symmetry_Int_Tables_number   1
_chemical_formula_structural   Sr7Ca15Pr50Mn72O216
_chemical_formula_sum   'Sr7 Ca15 Pr50 Mn72 O216'
_cell_volume   4287.94812599
_cell_formula_units_Z   1
loop_
 _symmetry_equiv_pos_site_id
 _symmetry_equiv_pos_as_xyz
  1  'x, y, z'
loop_
 _atom_type_symbol
 _atom_type_oxidation_number
  Sr2+  2.0
  Ca2+  2.0
  Pr3+  3.0
  Mn3.30+  3.3
  O2-  -2.0
loop_
 _atom_site_type_symbol
 _atom_site_label
 _atom_site_symmetry_multiplicity
 _atom_site_fract_x
 _atom_site_fract_y
 _atom_site_fract_z
 _atom_site_occupancy
  Sr2+  Sr0  1  0.16054555  0.48905841  0.37870024  1
  Sr2+  Sr1  1  0.49871713  0.15819083  0.87523878  1
  Sr2+  Sr2  1  0.33542685  0.99231263  0.37487159  1
  Sr2+  Sr3  1  0.16569017  0.15715088  0.87225523  1
  Sr2+  Sr4  1  0.66299779  0.34528881  0.12467254  1
  Sr2+  Sr5  1  0.49893031  0.15774578  0.37448923  1
  Sr2+  Sr6  1  0.83530433  0.49021064  0.37658583  1
  Ca2+  Ca7  1  -0.00178178  0.01660965  0.62495150  1
  Ca2+  Ca8  1  0.66936158  0.64995409  0.87427172  1
  Ca2+  Ca9  1  0.16950287  0.18370175  0.62391513  1
  Ca2+  Ca10  1  0.50591467  0.51245239  0.12254716  1
  Ca2+  Ca11  1  0.32651641  0.34851485  0.62580118  1
  Ca2+  Ca12  1  -0.00040074  0.34698497  0.62200599  1
  Ca2+  Ca13  1  1.00369063  0.32196009  0.37836901  1
  Ca2+  Ca14  1  0.82993544  0.81643892  0.37610797  1
  Ca2+  Ca15  1  0.66413091  0.67974376  0.62450512  1
  Ca2+  Ca16  1  0.49829929  0.48507526  0.87498430  1
  Ca2+  Ca17  1  0.66303327  0.34806367  0.62525863  1
  Ca2+  Ca18  1  0.16835342  0.51023912  0.62327683  1
  Ca2+  Ca19  1  1.00192786  0.65034100  0.37665719  1
  Ca2+  Ca20  1  -0.00479416  0.34743845  0.12834539  1
  Ca2+  Ca21  1  0.66355849  0.01590336  0.12549633  1
  Pr3+  Pr22  1  1.00319024  0.31945193  0.87320752  1
  Pr3+  Pr23  1  0.32979889  0.01575406  0.62303230  1
  Pr3+  Pr24  1  0.16664653  0.51015197  0.12572862  1
  Pr3+  Pr25  1  0.32905985  0.67712592  0.62480661  1
  Pr3+  Pr26  1  0.83792833  0.84644118  0.62288970  1
  Pr3+  Pr27  1  0.83261314  0.15919783  0.37557995  1
  Pr3+  Pr28  1  0.83520569  0.84611519  0.12733844  1
  Pr3+  Pr29  1  -0.00296809  0.01474061  0.12603392  1
  Pr3+  Pr30  1  0.83576671  0.18391792  0.12523192  1
  Pr3+  Pr31  1  0.16285531  0.81763287  0.37528793  1
  Pr3+  Pr32  1  0.50631061  0.84790857  0.12590711  1
  Pr3+  Pr33  1  0.16306225  0.15713066  0.37735184  1
  Pr3+  Pr34  1  1.00291568  0.98775729  0.37701789  1
  Pr3+  Pr35  1  0.66478688  0.01268031  0.62441070  1
  Pr3+  Pr36  1  0.33590578  0.32009219  0.87224861  1
  Pr3+  Pr37  1  0.83848673  0.18226671  0.62483376  1
  Pr3+  Pr38  1  0.50290868  0.18339540  0.62484463  1
  Pr3+  Pr39  1  0.33534941  0.65246941  0.37593622  1
  Pr3+  Pr40  1  0.82791834  0.81697313  0.87459934  1
  Pr3+  Pr41  1  0.66482697  0.67427685  0.12557444  1
  Pr3+  Pr42  1  0.49631907  0.48768946  0.37438755  1
  Pr3+  Pr43  1  0.49705641  0.82112065  0.37543079  1
  Pr3+  Pr44  1  0.33152512  0.01448467  0.12643516  1
  Pr3+  Pr45  1  0.83278589  0.51065223  0.62379256  1
  Pr3+  Pr46  1  0.66684788  0.32119223  0.87366914  1
  Pr3+  Pr47  1  0.33370422  0.32215463  0.37766252  1
  Pr3+  Pr48  1  0.33310835  0.34489628  0.12442529  1
  Pr3+  Pr49  1  -0.00035016  0.67335510  0.62097549  1
  Pr3+  Pr50  1  0.83055099  0.15438530  0.87410018  1
  Pr3+  Pr51  1  0.67049986  0.32283899  0.37626647  1
  Pr3+  Pr52  1  0.16406903  0.48590969  0.87185450  1
  Pr3+  Pr53  1  0.33961310  0.64962785  0.87358851  1
  Pr3+  Pr54  1  0.16802924  0.84564809  0.62454152  1
  Pr3+  Pr55  1  0.82922073  0.48700990  0.87390036  1
  Pr3+  Pr56  1  0.50408266  0.17885795  0.12549437  1
  Pr3+  Pr57  1  0.67255228  0.98613706  0.37484306  1
  Pr3+  Pr58  1  0.33350544  0.67675188  0.12510101  1
  Pr3+  Pr59  1  0.33664649  0.98995950  0.87429966  1
  Pr3+  Pr60  1  0.49951884  0.82022248  0.87452352  1
  Pr3+  Pr61  1  0.50332414  0.51236185  0.62656955  1
  Pr3+  Pr62  1  0.67053604  0.65272112  0.37696213  1
  Pr3+  Pr63  1  -0.00456866  0.67679436  0.12792963  1
  Pr3+  Pr64  1  0.50349759  0.84520527  0.62395167  1
  Pr3+  Pr65  1  0.66966526  0.98797312  0.87527418  1
  Pr3+  Pr66  1  0.83476509  0.50951660  0.12688874  1
  Pr3+  Pr67  1  1.00223128  0.65270600  0.87391057  1
  Pr3+  Pr68  1  0.16472982  0.82169399  0.87460474  1
  Pr3+  Pr69  1  0.16893128  0.84572760  0.12578561  1
  Pr3+  Pr70  1  1.00376264  0.98859929  0.87320704  1
  Pr3+  Pr71  1  0.16842221  0.18239486  0.12534509  1
  Mn3.30+  Mn72  1  0.16665402  0.00118210  -0.00037429  1
  Mn3.30+  Mn73  1  0.16502544  0.00165574  0.50148931  1
  Mn3.30+  Mn74  1  0.16484875  0.33405856  0.00065938  1
  Mn3.30+  Mn75  1  0.16525188  0.33407361  0.50273868  1
  Mn3.30+  Mn76  1  0.16730169  0.66607535  -0.00029626  1
  Mn3.30+  Mn77  1  0.16479497  0.66425525  0.50011200  1
  Mn3.30+  Mn78  1  0.50213170  0.00040629  0.00041275  1
  Mn3.30+  Mn79  1  0.49988873  0.00133321  0.49901338  1
  Mn3.30+  Mn80  1  0.50001422  0.33545362  -0.00100587  1
  Mn3.30+  Mn81  1  0.49905553  0.33490869  0.50232281  1
  Mn3.30+  Mn82  1  0.50225680  0.66352746  -0.00226451  1
  Mn3.30+  Mn83  1  0.50127606  0.66627466  0.50175894  1
  Mn3.30+  Mn84  1  0.83273567  -0.00006500  0.00177036  1
  Mn3.30+  Mn85  1  0.83623605  0.00016349  0.49955744  1
  Mn3.30+  Mn86  1  0.83385394  0.33464455  0.00033593  1
  Mn3.30+  Mn87  1  0.83523921  0.33479163  0.50107486  1
  Mn3.30+  Mn88  1  0.83121073  0.66494628  -0.00063211  1
  Mn3.30+  Mn89  1  0.83231785  0.66653972  0.50007171  1
  Mn3.30+  Mn90  1  -0.00062979  0.17026773  0.25088894  1
  Mn3.30+  Mn91  1  0.00223503  0.16765202  0.74595711  1
  Mn3.30+  Mn92  1  0.00059796  0.49782035  0.25256163  1
  Mn3.30+  Mn93  1  -0.00012959  0.49810033  0.74684109  1
  Mn3.30+  Mn94  1  -0.00218089  0.83144888  0.25332872  1
  Mn3.30+  Mn95  1  -0.00076385  0.83330987  0.74837932  1
  Mn3.30+  Mn96  1  0.33376592  0.16821647  0.25057342  1
  Mn3.30+  Mn97  1  0.33218887  0.16836599  0.74790151  1
  Mn3.30+  Mn98  1  0.33373970  0.49921719  0.24905910  1
  Mn3.30+  Mn99  1  0.33330234  0.49791225  0.74879966  1
  Mn3.30+  Mn100  1  0.33411565  0.83351257  0.25011184  1
  Mn3.30+  Mn101  1  0.33392589  0.83338170  0.74986249  1
  Mn3.30+  Mn102  1  0.66693776  0.16612685  0.25026761  1
  Mn3.30+  Mn103  1  0.66708429  0.16792702  0.74867810  1
  Mn3.30+  Mn104  1  0.66570823  0.49885583  0.24996115  1
  Mn3.30+  Mn105  1  0.66454025  0.50058161  0.75051347  1
  Mn3.30+  Mn106  1  0.66898917  0.83313556  0.25068952  1
  Mn3.30+  Mn107  1  0.66751546  0.83034901  0.74924597  1
  Mn3.30+  Mn108  1  0.16586832  0.00035749  0.25191309  1
  Mn3.30+  Mn109  1  0.16564881  0.00273302  0.74721790  1
  Mn3.30+  Mn110  1  0.16313168  0.33494402  0.25069814  1
  Mn3.30+  Mn111  1  0.16614957  0.33331770  0.74545541  1
  Mn3.30+  Mn112  1  0.16434115  0.66477306  0.24972924  1
  Mn3.30+  Mn113  1  0.16749364  0.66535655  0.75024935  1
  Mn3.30+  Mn114  1  0.50226828  0.00081679  0.25051394  1
  Mn3.30+  Mn115  1  0.50014082  0.00080503  0.74971521  1
  Mn3.30+  Mn116  1  0.50061277  0.33466586  0.25008499  1
  Mn3.30+  Mn117  1  0.49845930  0.33558572  0.74808428  1
  Mn3.30+  Mn118  1  0.50063817  0.66533806  0.24915340  1
  Mn3.30+  Mn119  1  0.50347584  0.66473570  0.75112125  1
  Mn3.30+  Mn120  1  0.83280623  0.00028546  0.25024586  1
  Mn3.30+  Mn121  1  0.83589592  -0.00019667  0.74849562  1
  Mn3.30+  Mn122  1  0.83559187  0.33528237  0.25161134  1
  Mn3.30+  Mn123  1  0.83346725  0.33421222  0.74719302  1
  Mn3.30+  Mn124  1  0.83347713  0.66579039  0.25373573  1
  Mn3.30+  Mn125  1  0.83039879  0.66571717  0.74778536  1
  Mn3.30+  Mn126  1  0.00026440  0.16843186  0.00023412  1
  Mn3.30+  Mn127  1  0.00134184  0.16900650  0.50286990  1
  Mn3.30+  Mn128  1  -0.00073244  0.49835923  -0.00028382  1
  Mn3.30+  Mn129  1  0.00122781  0.49726720  0.50112524  1
  Mn3.30+  Mn130  1  -0.00132544  0.83303779  0.00018068  1
  Mn3.30+  Mn131  1  -0.00142280  0.83213121  0.49860390  1
  Mn3.30+  Mn132  1  0.33372381  0.16704662  -0.00107953  1
  Mn3.30+  Mn133  1  0.33251525  0.16966114  0.50193483  1
  Mn3.30+  Mn134  1  0.33649492  0.49896972  0.00070713  1
  Mn3.30+  Mn135  1  0.33103024  0.49830505  0.50143805  1
  Mn3.30+  Mn136  1  0.33489247  0.83301117  0.00042142  1
  Mn3.30+  Mn137  1  0.33310608  0.83403771  0.49900478  1
  Mn3.30+  Mn138  1  0.66665016  0.16603239  0.00033073  1
  Mn3.30+  Mn139  1  0.66737623  0.16813596  0.50099932  1
  Mn3.30+  Mn140  1  0.66367245  0.49988920  -0.00222457  1
  Mn3.30+  Mn141  1  0.66628549  0.49907693  0.50195387  1
  Mn3.30+  Mn142  1  0.66705113  0.83195112  0.00047689  1
  Mn3.30+  Mn143  1  0.66905252  0.83189984  0.50020982  1
  O2-  O144  1  0.02560064  0.15984126  0.12541839  1
  O2-  O145  1  0.02762150  0.15758243  0.62520234  1
  O2-  O146  1  0.02252921  0.49416414  0.12390065  1
  O2-  O147  1  0.02568253  0.49527741  0.62664775  1
  O2-  O148  1  0.02514404  0.82533030  0.12640636  1
  O2-  O149  1  0.02545236  0.82133506  0.62348401  1
  O2-  O150  1  0.35794485  0.16473955  0.12432867  1
  O2-  O151  1  0.35972228  0.16167977  0.62554381  1
  O2-  O152  1  0.36289294  0.49315067  0.12410739  1
  O2-  O153  1  0.35915316  0.49705591  0.62416904  1
  O2-  O154  1  0.36085695  0.82533095  0.12463529  1
  O2-  O155  1  0.35852036  0.82600182  0.62508137  1
  O2-  O156  1  0.69136852  0.16167005  0.12436777  1
  O2-  O157  1  0.69392719  0.15969039  0.62519825  1
  O2-  O158  1  0.69039685  0.50148234  0.12333777  1
  O2-  O159  1  0.68977211  0.49101436  0.62622944  1
  O2-  O160  1  0.69330837  0.82192780  0.12647194  1
  O2-  O161  1  0.69364121  0.82667984  0.62679861  1
  O2-  O162  1  0.13848616  0.33038078  0.12511763  1
  O2-  O163  1  0.13926882  0.32581295  0.62515803  1
  O2-  O164  1  0.14048320  0.66130066  0.12347969  1
  O2-  O165  1  0.14548735  0.66437330  0.62753011  1
  O2-  O166  1  0.14076373  0.99376395  0.12755599  1
  O2-  O167  1  0.13872246  0.99036795  0.62447451  1
  O2-  O168  1  0.47730167  0.32657578  0.12428346  1
  O2-  O169  1  0.47123035  0.33149645  0.62456806  1
  O2-  O170  1  0.47640233  0.65951795  0.12215805  1
  O2-  O171  1  0.47260710  0.66177451  0.62631590  1
  O2-  O172  1  0.47548000  0.99422222  0.12456795  1
  O2-  O173  1  0.47599556  0.99223141  0.62471036  1
  O2-  O174  1  0.81291966  0.33293350  0.12528774  1
  O2-  O175  1  0.80511114  0.32943091  0.62587632  1
  O2-  O176  1  0.80934253  0.65962507  0.12705197  1
  O2-  O177  1  0.80540223  0.66066492  0.62525751  1
  O2-  O178  1  0.80601814  0.99296033  0.12639293  1
  O2-  O179  1  0.80806740  0.99431738  0.62352400  1
  O2-  O180  1  0.30795171  0.17356794  0.37617228  1
  O2-  O181  1  0.31466491  0.16987451  0.87330708  1
  O2-  O182  1  0.31193353  0.50452974  0.37526124  1
  O2-  O183  1  0.30718762  0.50317434  0.87616936  1
  O2-  O184  1  0.30836440  0.83476811  0.37423837  1
  O2-  O185  1  0.30883788  0.84101392  0.87544266  1
  O2-  O186  1  0.64897957  0.17429081  0.37735040  1
  O2-  O187  1  0.64921004  0.17119231  0.87320162  1
  O2-  O188  1  0.64028448  0.50486260  0.37742047  1
  O2-  O189  1  0.64018494  0.50691059  0.87314889  1
  O2-  O190  1  0.64036681  0.83879859  0.37371977  1
  O2-  O191  1  0.64243272  0.84225014  0.87385547  1
  O2-  O192  1  0.97635756  0.17480105  0.37564900  1
  O2-  O193  1  0.97443297  0.17178387  0.87379187  1
  O2-  O194  1  0.98334082  0.50761603  0.37701022  1
  O2-  O195  1  0.97416784  0.50570099  0.87275082  1
  O2-  O196  1  0.97002381  0.84261774  0.37583573  1
  O2-  O197  1  0.97224840  0.84086637  0.87429680  1
  O2-  O198  1  0.18577964  0.00686545  0.37508885  1
  O2-  O199  1  0.19224036  0.00131981  0.87271334  1
  O2-  O200  1  0.19060035  0.33307470  0.37565538  1
  O2-  O201  1  0.19150171  0.33899328  0.87392610  1
  O2-  O202  1  0.19130373  0.66998645  0.37362595  1
  O2-  O203  1  0.19355619  0.67255200  0.87570609  1
  O2-  O204  1  0.52738755  0.00083293  0.37524433  1
  O2-  O205  1  0.52527575  0.00089517  0.87516337  1
  O2-  O206  1  0.52549701  0.34003930  0.37709043  1
  O2-  O207  1  0.52276133  0.33840165  0.87346652  1
  O2-  O208  1  0.52562840  0.67239290  0.37710157  1
  O2-  O209  1  0.52887236  0.67555036  0.87434711  1
  O2-  O210  1  0.86049376  0.01058857  0.37505381  1
  O2-  O211  1  0.85998934  0.00528720  0.87499413  1
  O2-  O212  1  0.85899095  0.33047730  0.37632869  1
  O2-  O213  1  0.85868201  0.33753014  0.87282864  1
  O2-  O214  1  0.85901589  0.67149296  0.37617463  1
  O2-  O215  1  0.85957224  0.66972748  0.87231651  1
  O2-  O216  1  0.23921120  0.09342228  0.02293606  1
  O2-  O217  1  0.23830960  0.09777553  0.52165870  1
  O2-  O218  1  0.23793312  0.42733941  0.02106694  1
  O2-  O219  1  0.23620017  0.42815644  0.52154531  1
  O2-  O220  1  0.23987085  0.76161339  0.02118606  1
  O2-  O221  1  0.23804450  0.76125325  0.51877884  1
  O2-  O222  1  0.57140341  0.09318592  0.02015913  1
  O2-  O223  1  0.57467971  0.09378909  0.52280992  1
  O2-  O224  1  0.56932038  0.43047893  0.01662040  1
  O2-  O225  1  0.56861962  0.43088445  0.51844270  1
  O2-  O226  1  0.57145686  0.76150075  0.02069527  1
  O2-  O227  1  0.56944373  0.76188350  0.51873184  1
  O2-  O228  1  0.90466618  0.09617362  0.02146128  1
  O2-  O229  1  0.90454263  0.09771682  0.51819401  1
  O2-  O230  1  0.90202560  0.43054234  0.01542199  1
  O2-  O231  1  0.90429599  0.42727521  0.52183217  1
  O2-  O232  1  0.90261990  0.76053043  0.02006545  1
  O2-  O233  1  0.90599700  0.75871665  0.52369853  1
  O2-  O234  1  0.25887287  0.26254926  0.22861094  1
  O2-  O235  1  0.26239765  0.26479642  0.73183191  1
  O2-  O236  1  0.26295122  0.59216229  0.22729726  1
  O2-  O237  1  0.26588230  0.59590290  0.73403174  1
  O2-  O238  1  0.26136876  0.92432377  0.22692658  1
  O2-  O239  1  0.26036058  0.92924220  0.72822883  1
  O2-  O240  1  0.59137757  0.25780995  0.23364676  1
  O2-  O241  1  0.59374529  0.26365860  0.72875692  1
  O2-  O242  1  0.59591485  0.59594183  0.23422269  1
  O2-  O243  1  0.59582801  0.59551289  0.72428694  1
  O2-  O244  1  0.59903933  0.92799016  0.22784416  1
  O2-  O245  1  0.59652024  0.92692561  0.72880434  1
  O2-  O246  1  0.92789837  0.26004769  0.22618426  1
  O2-  O247  1  0.92971459  0.26222129  0.72736749  1
  O2-  O248  1  0.92625612  0.59159693  0.22932833  1
  O2-  O249  1  0.92791452  0.59449706  0.72777695  1
  O2-  O250  1  0.92889451  0.92817676  0.22849312  1
  O2-  O251  1  0.92927007  0.92871429  0.72642227  1
  O2-  O252  1  0.09792562  0.23554177  0.26658940  1
  O2-  O253  1  0.09153710  0.24205647  0.76989849  1
  O2-  O254  1  0.09466435  0.57042441  0.26092340  1
  O2-  O255  1  0.09316520  0.57408370  0.77212234  1
  O2-  O256  1  0.09225614  0.90182353  0.27129630  1
  O2-  O257  1  0.09586787  0.90462514  0.77046207  1
  O2-  O258  1  0.42263135  0.24312585  0.26769823  1
  O2-  O259  1  0.42729600  0.24032324  0.76553079  1
  O2-  O260  1  0.42601858  0.57479562  0.27195796  1
  O2-  O261  1  0.43208477  0.57184828  0.77186027  1
  O2-  O262  1  0.43362045  0.90390653  0.26593441  1
  O2-  O263  1  0.42806750  0.90427981  0.77001144  1
  O2-  O264  1  0.76290562  0.24075371  0.26706331  1
  O2-  O265  1  0.76329822  0.23944601  0.76969831  1
  O2-  O266  1  0.75810894  0.57389375  0.26912223  1
  O2-  O267  1  0.76272411  0.56961007  0.76779216  1
  O2-  O268  1  0.76361468  0.90270440  0.27339662  1
  O2-  O269  1  0.76217649  0.90358556  0.76976991  1
  O2-  O270  1  0.07089286  0.07364145  0.47813497  1
  O2-  O271  1  0.06857120  0.06957180  0.98345443  1
  O2-  O272  1  0.06895785  0.40129684  0.48324453  1
  O2-  O273  1  0.07325947  0.40683909  0.97556581  1
  O2-  O274  1  0.07020575  0.73884177  0.47689152  1
  O2-  O275  1  0.06967833  0.74058204  0.97769884  1
  O2-  O276  1  0.40464752  0.07378727  0.48723341  1
  O2-  O277  1  0.40416760  0.06745103  0.98506868  1
  O2-  O278  1  0.40572421  0.40807683  0.47720823  1
  O2-  O279  1  0.40130360  0.40285634  0.98117613  1
  O2-  O280  1  0.40548425  0.73749368  0.47981834  1
  O2-  O281  1  0.40694970  0.73669162  0.97836666  1
  O2-  O282  1  0.74082963  0.07045729  0.48037932  1
  O2-  O283  1  0.74090209  0.07206679  0.97794496  1
  O2-  O284  1  0.73746540  0.40496785  0.48172457  1
  O2-  O285  1  0.73650968  0.40729147  0.97607067  1
  O2-  O286  1  0.73836313  0.73951878  0.47932730  1
  O2-  O287  1  0.73820186  0.73578308  0.97818782  1
  O2-  O288  1  0.09648425  0.23756425  0.48172501  1
  O2-  O289  1  0.09322687  0.24009683  0.98152967  1
  O2-  O290  1  0.09109424  0.57504423  0.48974477  1
  O2-  O291  1  0.09430680  0.57138023  0.97898332  1
  O2-  O292  1  0.09392159  0.90260263  0.47850364  1
  O2-  O293  1  0.09533252  0.90538959  0.98029453  1
  O2-  O294  1  0.42657656  0.24188768  0.48225020  1
  O2-  O295  1  0.42452081  0.24230430  0.98330116  1
  O2-  O296  1  0.42882317  0.57334723  0.48046613  1
  O2-  O297  1  0.42906120  0.57199485  0.97445014  1
  O2-  O298  1  0.43038900  0.90301084  0.48288208  1
  O2-  O299  1  0.42973760  0.90456234  0.98038650  1
  O2-  O300  1  0.76312864  0.23953254  0.48203189  1
  O2-  O301  1  0.76313485  0.24016216  0.98130128  1
  O2-  O302  1  0.75780863  0.57422106  0.48244107  1
  O2-  O303  1  0.76288609  0.57005202  0.98090466  1
  O2-  O304  1  0.76544776  0.90532752  0.47874568  1
  O2-  O305  1  0.76234502  0.90326794  0.97924323  1
  O2-  O306  1  0.06829827  0.07337319  0.26993677  1
  O2-  O307  1  0.06985786  0.07019470  0.76928054  1
  O2-  O308  1  0.06913100  0.40197186  0.26917903  1
  O2-  O309  1  0.07145746  0.40629575  0.77250723  1
  O2-  O310  1  0.06836059  0.73817947  0.27282717  1
  O2-  O311  1  0.07193306  0.73972285  0.77234848  1
  O2-  O312  1  0.40632651  0.07282919  0.26173317  1
  O2-  O313  1  0.40218865  0.06904687  0.76466067  1
  O2-  O314  1  0.40381472  0.40623141  0.27081324  1
  O2-  O315  1  0.40253341  0.40526502  0.76960403  1
  O2-  O316  1  0.40529347  0.73818695  0.26993130  1
  O2-  O317  1  0.40693424  0.73700673  0.77145070  1
  O2-  O318  1  0.74046719  0.07347230  0.27264883  1
  O2-  O319  1  0.74057208  0.06972741  0.76925898  1
  O2-  O320  1  0.73678816  0.40576473  0.26943049  1
  O2-  O321  1  0.73709391  0.40702149  0.77324448  1
  O2-  O322  1  0.73707720  0.73714584  0.27069702  1
  O2-  O323  1  0.73782525  0.73802130  0.77488974  1
  O2-  O324  1  0.24070619  0.09673923  0.22939047  1
  O2-  O325  1  0.23846668  0.09504363  0.72472170  1
  O2-  O326  1  0.23981585  0.42588750  0.22639770  1
  O2-  O327  1  0.23259808  0.43005266  0.73067720  1
  O2-  O328  1  0.23704736  0.75886169  0.22891328  1
  O2-  O329  1  0.23936701  0.76259510  0.73107206  1
  O2-  O330  1  0.57267742  0.09266799  0.22967088  1
  O2-  O331  1  0.57348416  0.09390631  0.72715788  1
  O2-  O332  1  0.56858795  0.43218967  0.23327329  1
  O2-  O333  1  0.57000243  0.42936328  0.73127752  1
  O2-  O334  1  0.57199840  0.76110206  0.22988469  1
  O2-  O335  1  0.56963012  0.76368506  0.73106476  1
  O2-  O336  1  0.90511244  0.09658723  0.22843310  1
  O2-  O337  1  0.90452615  0.09849445  0.73162482  1
  O2-  O338  1  0.90477672  0.42874991  0.23197081  1
  O2-  O339  1  0.90137434  0.42964772  0.73144228  1
  O2-  O340  1  0.90560758  0.76003465  0.22728105  1
  O2-  O341  1  0.90314073  0.76016848  0.72938205  1
  O2-  O342  1  0.25816471  0.26231044  0.02040780  1
  O2-  O343  1  0.26317838  0.26579729  0.51923834  1
  O2-  O344  1  0.26482345  0.59192530  0.02154064  1
  O2-  O345  1  0.26441875  0.59561798  0.51690510  1
  O2-  O346  1  0.26085628  0.92794425  0.02173465  1
  O2-  O347  1  0.25875608  0.92734299  0.52175733  1
  O2-  O348  1  0.59115585  0.25897562  0.01497738  1
  O2-  O349  1  0.59342888  0.26386116  0.52297355  1
  O2-  O350  1  0.59658237  0.59575546  0.01887010  1
  O2-  O351  1  0.59414123  0.59571843  0.52257884  1
  O2-  O352  1  0.59630526  0.92840365  0.02215487  1
  O2-  O353  1  0.59820772  0.92639239  0.52035447  1
  O2-  O354  1  0.92968423  0.26189401  0.02036331  1
  O2-  O355  1  0.92873529  0.25988916  0.52575621  1
  O2-  O356  1  0.92799170  0.59540909  0.01962997  1
  O2-  O357  1  0.92377529  0.59115208  0.52279085  1
  O2-  O358  1  0.92805268  0.92784280  0.02271250  1
  O2-  O359  1  0.93086061  0.92947981  0.52275541  1
